MODEL 1
REMARK minimizedAffinity -10.0793362
REMARK  5 active torsions:
REMARK  status: ('A' for Active; 'I' for Inactive)
REMARK    1  A    between atoms: O1_1  and  C1_2 
REMARK    2  A    between atoms: C5_6  and  N1_7 
REMARK    3  A    between atoms: N1_7  and  C6_8 
REMARK    4  A    between atoms: C7_11  and  C8_12 
REMARK    5  A    between atoms: C9_13  and  C10_14 
ROOT
HETATM    1  C6  UNL     1      -0.160  52.089 -23.215  1.00  0.00     0.119 A 
HETATM    2  N2  UNL     1      -1.264  51.433 -23.613  1.00  0.00    -0.328 N 
ATOM      3  H2  UNL     1      -1.426  51.219 -24.596  1.00  0.00     0.169 HD
HETATM    4  C7  UNL     1      -2.141  51.073 -22.669  1.00  0.00     0.107 A 
HETATM    5  N3  UNL     1      -2.011  51.309 -21.357  1.00  0.00    -0.342 N 
ATOM      6  H3  UNL     1      -2.722  51.011 -20.689  1.00  0.00     0.167 HD
HETATM    7  C17 UNL     1      -0.910  51.952 -20.964  1.00  0.00     0.047 A 
HETATM    8  C18 UNL     1      -0.743  52.210 -19.607  1.00  0.00     0.030 A 
HETATM    9  C19 UNL     1       0.385  52.868 -19.113  1.00  0.00     0.002 A 
HETATM   10  C20 UNL     1       1.383  53.277 -19.987  1.00  0.00     0.001 A 
HETATM   11  C21 UNL     1       1.239  53.029 -21.351  1.00  0.00     0.017 A 
HETATM   12  C22 UNL     1       0.086  52.374 -21.857  1.00  0.00     0.035 A 
ENDROOT
BRANCH   4  13
HETATM   13  C8  UNL     1      -3.346  50.349 -23.076  1.00  0.00     0.049 C 
HETATM   14  C9  UNL     1      -3.386  49.433 -24.056  1.00  0.00     0.016 C 
BRANCH  14  15
HETATM   15  C10 UNL     1      -4.623  48.734 -24.434  1.00  0.00    -0.016 A 
HETATM   16  C11 UNL     1      -5.521  48.358 -23.419  1.00  0.00     0.052 A 
HETATM   17  C12 UNL     1      -6.672  47.686 -23.775  1.00  0.00     0.105 A 
HETATM   18  C13 UNL     1      -6.958  47.382 -25.085  1.00  0.00     0.106 A 
HETATM   19  O3  UNL     1      -7.636  47.254 -22.919  1.00  0.00    -0.323 OA
HETATM   20  C14 UNL     1      -6.105  47.722 -26.113  1.00  0.00     0.059 A 
HETATM   21  O2  UNL     1      -8.139  46.721 -25.216  1.00  0.00    -0.323 OA
HETATM   22  C15 UNL     1      -4.925  48.402 -25.780  1.00  0.00     0.024 A 
HETATM   23 BR1  UNL     1      -3.764  48.865 -27.215  1.00  0.00    -0.050 Br
HETATM   24  C16 UNL     1      -8.564  46.641 -23.839  1.00  0.00     0.352 A 
ENDBRANCH  14  15
ENDBRANCH   4  13
BRANCH   1  25
HETATM   25  N1  UNL     1       0.780  52.527 -24.190  1.00  0.00    -0.342 N 
HETATM   26  H5  UNL     1       1.166  53.414 -23.884  1.00  0.00     0.167 HD
BRANCH  25  27
HETATM   27  C5  UNL     1       0.668  52.470 -25.600  1.00  0.00     0.036 A 
HETATM   28  C4  UNL     1       1.571  51.758 -26.400  1.00  0.00     0.029 A 
HETATM   29  C3  UNL     1       1.472  51.774 -27.796  1.00  0.00     0.005 A 
HETATM   30  C2  UNL     1       0.476  52.526 -28.413  1.00  0.00     0.036 A 
HETATM   31  C1  UNL     1      -0.398  53.269 -27.632  1.00  0.00     0.067 A 
HETATM   32  C23 UNL     1      -0.304  53.258 -26.240  1.00  0.00     0.066 A 
BRANCH  31  33
HETATM   33  O1  UNL     1      -1.349  54.010 -28.275  1.00  0.00    -0.361 OA
HETATM   34  H1  UNL     1      -1.883  54.475 -27.613  1.00  0.00     0.217 HD
ENDBRANCH  31  33
ENDBRANCH  25  27
ENDBRANCH   1  25
TORSDOF 5
ENDMDL
MODEL 2
REMARK minimizedAffinity -10.0209208
REMARK  5 active torsions:
REMARK  status: ('A' for Active; 'I' for Inactive)
REMARK    1  A    between atoms: O1_1  and  C1_2 
REMARK    2  A    between atoms: C5_6  and  N1_7 
REMARK    3  A    between atoms: N1_7  and  C6_8 
REMARK    4  A    between atoms: C7_11  and  C8_12 
REMARK    5  A    between atoms: C9_13  and  C10_14 
ROOT
HETATM    1  C6  UNL     1      -1.347  50.791 -24.038  1.00  0.00     0.119 A 
HETATM    2  N2  UNL     1      -2.261  50.180 -24.811  1.00  0.00    -0.328 N 
ATOM      3  H2  UNL     1      -2.400  50.455 -25.783  1.00  0.00     0.169 HD
HETATM    4  C7  UNL     1      -2.981  49.198 -24.256  1.00  0.00     0.107 A 
HETATM    5  N3  UNL     1      -2.866  48.770 -22.993  1.00  0.00    -0.342 N 
ATOM      6  H3  UNL     1      -3.451  48.017 -22.630  1.00  0.00     0.167 HD
HETATM    7  C17 UNL     1      -1.951  49.371 -22.230  1.00  0.00     0.047 A 
HETATM    8  C18 UNL     1      -1.805  48.947 -20.914  1.00  0.00     0.030 A 
HETATM    9  C19 UNL     1      -0.863  49.517 -20.053  1.00  0.00     0.002 A 
HETATM   10  C20 UNL     1      -0.036  50.533 -20.512  1.00  0.00     0.001 A 
HETATM   11  C21 UNL     1      -0.164  50.976 -21.828  1.00  0.00     0.017 A 
HETATM   12  C22 UNL     1      -1.130  50.407 -22.699  1.00  0.00     0.035 A 
ENDROOT
BRANCH   4  13
HETATM   13  C8  UNL     1      -3.976  48.511 -25.081  1.00  0.00     0.049 C 
HETATM   14  C9  UNL     1      -4.247  48.820 -26.358  1.00  0.00     0.016 C 
BRANCH  14  15
HETATM   15  C10 UNL     1      -5.260  48.104 -27.147  1.00  0.00    -0.016 A 
HETATM   16  C11 UNL     1      -5.042  47.931 -28.526  1.00  0.00     0.052 A 
HETATM   17  C12 UNL     1      -6.002  47.275 -29.266  1.00  0.00     0.105 A 
HETATM   18  C13 UNL     1      -7.155  46.792 -28.693  1.00  0.00     0.106 A 
HETATM   19  O3  UNL     1      -5.944  47.030 -30.603  1.00  0.00    -0.323 OA
HETATM   20  C14 UNL     1      -7.416  46.944 -27.349  1.00  0.00     0.059 A 
HETATM   21  O2  UNL     1      -7.964  46.179 -29.598  1.00  0.00    -0.323 OA
HETATM   22  C15 UNL     1      -6.459  47.610 -26.571  1.00  0.00     0.024 A 
HETATM   23 BR1  UNL     1      -6.840  47.807 -24.717  1.00  0.00    -0.050 Br
HETATM   24  C16 UNL     1      -7.192  46.334 -30.807  1.00  0.00     0.352 A 
ENDBRANCH  14  15
ENDBRANCH   4  13
BRANCH   1  25
HETATM   25  N1  UNL     1      -0.587  51.868 -24.575  1.00  0.00    -0.342 N 
HETATM   26  H5  UNL     1      -1.084  52.733 -24.388  1.00  0.00     0.167 HD
BRANCH  25  27
HETATM   27  C5  UNL     1       0.099  51.923 -25.811  1.00  0.00     0.036 A 
HETATM   28  C4  UNL     1      -0.564  52.076 -27.037  1.00  0.00     0.029 A 
HETATM   29  C3  UNL     1       0.138  52.062 -28.247  1.00  0.00     0.005 A 
HETATM   30  C2  UNL     1       1.516  51.871 -28.249  1.00  0.00     0.036 A 
HETATM   31  C1  UNL     1       2.178  51.678 -27.045  1.00  0.00     0.067 A 
HETATM   32  C23 UNL     1       1.485  51.689 -25.834  1.00  0.00     0.066 A 
BRANCH  31  33
HETATM   33  O1  UNL     1       3.528  51.473 -27.090  1.00  0.00    -0.361 OA
HETATM   34  H1  UNL     1       3.856  51.351 -26.185  1.00  0.00     0.217 HD
ENDBRANCH  31  33
ENDBRANCH  25  27
ENDBRANCH   1  25
TORSDOF 5
ENDMDL
MODEL 3
REMARK minimizedAffinity -9.8280077
REMARK  5 active torsions:
REMARK  status: ('A' for Active; 'I' for Inactive)
REMARK    1  A    between atoms: O1_1  and  C1_2 
REMARK    2  A    between atoms: C5_6  and  N1_7 
REMARK    3  A    between atoms: N1_7  and  C6_8 
REMARK    4  A    between atoms: C7_11  and  C8_12 
REMARK    5  A    between atoms: C9_13  and  C10_14 
ROOT
HETATM    1  C6  UNL     1      -0.209  52.196 -23.099  1.00  0.00     0.119 A 
HETATM    2  N2  UNL     1      -1.319  51.539 -23.474  1.00  0.00    -0.328 N 
ATOM      3  H2  UNL     1      -1.511  51.341 -24.456  1.00  0.00     0.169 HD
HETATM    4  C7  UNL     1      -2.165  51.155 -22.510  1.00  0.00     0.107 A 
HETATM    5  N3  UNL     1      -1.996  51.370 -21.200  1.00  0.00    -0.342 N 
ATOM      6  H3  UNL     1      -2.683  51.055 -20.516  1.00  0.00     0.167 HD
HETATM    7  C17 UNL     1      -0.887  52.015 -20.829  1.00  0.00     0.047 A 
HETATM    8  C18 UNL     1      -0.681  52.250 -19.474  1.00  0.00     0.030 A 
HETATM    9  C19 UNL     1       0.458  52.908 -19.003  1.00  0.00     0.002 A 
HETATM   10  C20 UNL     1       1.425  53.340 -19.900  1.00  0.00     0.001 A 
HETATM   11  C21 UNL     1       1.241  53.115 -21.263  1.00  0.00     0.017 A 
HETATM   12  C22 UNL     1       0.077  52.460 -21.745  1.00  0.00     0.035 A 
ENDROOT
BRANCH   4  13
HETATM   13  C8  UNL     1      -3.376  50.429 -22.893  1.00  0.00     0.049 C 
HETATM   14  C9  UNL     1      -3.401  49.144 -23.278  1.00  0.00     0.016 C 
BRANCH  14  15
HETATM   15  C10 UNL     1      -4.643  48.457 -23.659  1.00  0.00    -0.016 A 
HETATM   16  C11 UNL     1      -5.042  48.486 -25.008  1.00  0.00     0.052 A 
HETATM   17  C12 UNL     1      -6.217  47.855 -25.360  1.00  0.00     0.105 A 
HETATM   18  C13 UNL     1      -6.997  47.206 -24.433  1.00  0.00     0.106 A 
HETATM   19  O3  UNL     1      -6.740  47.794 -26.614  1.00  0.00    -0.323 OA
HETATM   20  C14 UNL     1      -6.652  47.157 -23.099  1.00  0.00     0.059 A 
HETATM   21  O2  UNL     1      -8.108  46.653 -24.989  1.00  0.00    -0.323 OA
HETATM   22  C15 UNL     1      -5.464  47.793 -22.712  1.00  0.00     0.024 A 
HETATM   23 BR1  UNL     1      -5.006  47.711 -20.867  1.00  0.00    -0.050 Br
HETATM   24  C16 UNL     1      -7.940  47.031 -26.372  1.00  0.00     0.352 A 
ENDBRANCH  14  15
ENDBRANCH   4  13
BRANCH   1  25
HETATM   25  N1  UNL     1       0.697  52.659 -24.095  1.00  0.00    -0.342 N 
HETATM   26  H5  UNL     1       1.016  53.585 -23.830  1.00  0.00     0.167 HD
BRANCH  25  27
HETATM   27  C5  UNL     1       0.592  52.531 -25.500  1.00  0.00     0.036 A 
HETATM   28  C4  UNL     1       1.466  51.735 -26.254  1.00  0.00     0.029 A 
HETATM   29  C3  UNL     1       1.377  51.681 -27.649  1.00  0.00     0.005 A 
HETATM   30  C2  UNL     1       0.421  52.442 -28.314  1.00  0.00     0.036 A 
HETATM   31  C1  UNL     1      -0.424  53.265 -27.582  1.00  0.00     0.067 A 
HETATM   32  C23 UNL     1      -0.339  53.326 -26.191  1.00  0.00     0.066 A 
BRANCH  31  33
HETATM   33  O1  UNL     1      -1.335  54.013 -28.272  1.00  0.00    -0.361 OA
HETATM   34  H1  UNL     1      -1.852  54.537 -27.641  1.00  0.00     0.217 HD
ENDBRANCH  31  33
ENDBRANCH  25  27
ENDBRANCH   1  25
TORSDOF 5
ENDMDL
MODEL 4
REMARK minimizedAffinity -9.80960274
REMARK  5 active torsions:
REMARK  status: ('A' for Active; 'I' for Inactive)
REMARK    1  A    between atoms: O1_1  and  C1_2 
REMARK    2  A    between atoms: C5_6  and  N1_7 
REMARK    3  A    between atoms: N1_7  and  C6_8 
REMARK    4  A    between atoms: C7_11  and  C8_12 
REMARK    5  A    between atoms: C9_13  and  C10_14 
ROOT
HETATM    1  C6  UNL     1      -1.285  51.598 -23.948  1.00  0.00     0.119 A 
HETATM    2  N2  UNL     1      -0.737  51.674 -22.724  1.00  0.00    -0.328 N 
ATOM      3  H2  UNL     1      -0.104  52.434 -22.474  1.00  0.00     0.169 HD
HETATM    4  C7  UNL     1      -1.052  50.715 -21.845  1.00  0.00     0.107 A 
HETATM    5  N3  UNL     1      -1.871  49.684 -22.083  1.00  0.00    -0.342 N 
ATOM      6  H3  UNL     1      -2.066  48.982 -21.369  1.00  0.00     0.167 HD
HETATM    7  C17 UNL     1      -2.423  49.615 -23.297  1.00  0.00     0.047 A 
HETATM    8  C18 UNL     1      -3.282  48.557 -23.574  1.00  0.00     0.030 A 
HETATM    9  C19 UNL     1      -3.907  48.419 -24.816  1.00  0.00     0.002 A 
HETATM   10  C20 UNL     1      -3.681  49.360 -25.810  1.00  0.00     0.001 A 
HETATM   11  C21 UNL     1      -2.824  50.430 -25.556  1.00  0.00     0.017 A 
HETATM   12  C22 UNL     1      -2.176  50.564 -24.300  1.00  0.00     0.035 A 
ENDROOT
BRANCH   4  13
HETATM   13  C8  UNL     1      -0.475  50.782 -20.502  1.00  0.00     0.049 C 
HETATM   14  C9  UNL     1      -0.908  50.066 -19.453  1.00  0.00     0.016 C 
BRANCH  14  15
HETATM   15  C10 UNL     1      -0.299  50.171 -18.119  1.00  0.00    -0.016 A 
HETATM   16  C11 UNL     1      -0.375  49.063 -17.255  1.00  0.00     0.052 A 
HETATM   17  C12 UNL     1       0.181  49.170 -15.998  1.00  0.00     0.105 A 
HETATM   18  C13 UNL     1       0.801  50.322 -15.575  1.00  0.00     0.106 A 
HETATM   19  O3  UNL     1       0.190  48.197 -15.048  1.00  0.00    -0.323 OA
HETATM   20  C14 UNL     1       0.893  51.436 -16.382  1.00  0.00     0.059 A 
HETATM   21  O2  UNL     1       1.280  50.216 -14.307  1.00  0.00    -0.323 OA
HETATM   22  C15 UNL     1       0.333  51.357 -17.665  1.00  0.00     0.024 A 
HETATM   23 BR1  UNL     1       0.474  52.904 -18.763  1.00  0.00    -0.050 Br
HETATM   24  C16 UNL     1       0.888  48.866 -13.977  1.00  0.00     0.352 A 
ENDBRANCH  14  15
ENDBRANCH   4  13
BRANCH   1  25
HETATM   25  N1  UNL     1      -0.946  52.574 -24.927  1.00  0.00    -0.342 N 
HETATM   26  H5  UNL     1      -1.785  53.091 -25.166  1.00  0.00     0.167 HD
BRANCH  25  27
HETATM   27  C5  UNL     1      -0.091  52.429 -26.046  1.00  0.00     0.036 A 
HETATM   28  C4  UNL     1      -0.518  52.670 -27.359  1.00  0.00     0.029 A 
HETATM   29  C3  UNL     1       0.332  52.456 -28.449  1.00  0.00     0.005 A 
HETATM   30  C2  UNL     1       1.621  51.974 -28.240  1.00  0.00     0.036 A 
HETATM   31  C1  UNL     1       2.042  51.692 -26.949  1.00  0.00     0.067 A 
HETATM   32  C23 UNL     1       1.198  51.903 -25.857  1.00  0.00     0.066 A 
BRANCH  31  33
HETATM   33  O1  UNL     1       3.306  51.201 -26.787  1.00  0.00    -0.361 OA
HETATM   34  H1  UNL     1       3.464  51.049 -25.842  1.00  0.00     0.217 HD
ENDBRANCH  31  33
ENDBRANCH  25  27
ENDBRANCH   1  25
TORSDOF 5
ENDMDL
MODEL 5
REMARK minimizedAffinity -9.67784595
REMARK  5 active torsions:
REMARK  status: ('A' for Active; 'I' for Inactive)
REMARK    1  A    between atoms: O1_1  and  C1_2 
REMARK    2  A    between atoms: C5_6  and  N1_7 
REMARK    3  A    between atoms: N1_7  and  C6_8 
REMARK    4  A    between atoms: C7_11  and  C8_12 
REMARK    5  A    between atoms: C9_13  and  C10_14 
ROOT
HETATM    1  C6  UNL     1      -1.363  50.724 -24.005  1.00  0.00     0.119 A 
HETATM    2  N2  UNL     1      -2.233  50.101 -24.818  1.00  0.00    -0.328 N 
ATOM      3  H2  UNL     1      -2.292  50.334 -25.809  1.00  0.00     0.169 HD
HETATM    4  C7  UNL     1      -3.020  49.163 -24.277  1.00  0.00     0.107 A 
HETATM    5  N3  UNL     1      -3.013  48.791 -22.991  1.00  0.00    -0.342 N 
ATOM      6  H3  UNL     1      -3.644  48.071 -22.641  1.00  0.00     0.167 HD
HETATM    7  C17 UNL     1      -2.141  49.404 -22.188  1.00  0.00     0.047 A 
HETATM    8  C18 UNL     1      -2.106  49.037 -20.847  1.00  0.00     0.030 A 
HETATM    9  C19 UNL     1      -1.216  49.623 -19.943  1.00  0.00     0.002 A 
HETATM   10  C20 UNL     1      -0.329  50.597 -20.381  1.00  0.00     0.001 A 
HETATM   11  C21 UNL     1      -0.345  50.981 -21.721  1.00  0.00     0.017 A 
HETATM   12  C22 UNL     1      -1.259  50.397 -22.638  1.00  0.00     0.035 A 
ENDROOT
BRANCH   4  13
HETATM   13  C8  UNL     1      -3.969  48.463 -25.144  1.00  0.00     0.049 C 
HETATM   14  C9  UNL     1      -5.304  48.545 -25.030  1.00  0.00     0.016 C 
BRANCH  14  15
HETATM   15  C10 UNL     1      -6.219  47.818 -25.922  1.00  0.00    -0.016 A 
HETATM   16  C11 UNL     1      -7.342  47.183 -25.362  1.00  0.00     0.052 A 
HETATM   17  C12 UNL     1      -8.190  46.487 -26.199  1.00  0.00     0.105 A 
HETATM   18  C13 UNL     1      -7.963  46.402 -27.552  1.00  0.00     0.106 A 
HETATM   19  O3  UNL     1      -9.311  45.820 -25.817  1.00  0.00    -0.323 OA
HETATM   20  C14 UNL     1      -6.873  47.001 -28.145  1.00  0.00     0.059 A 
HETATM   21  O2  UNL     1      -8.917  45.673 -28.190  1.00  0.00    -0.323 OA
HETATM   22  C15 UNL     1      -5.992  47.712 -27.318  1.00  0.00     0.024 A 
HETATM   23 BR1  UNL     1      -4.495  48.533 -28.159  1.00  0.00    -0.050 Br
HETATM   24  C16 UNL     1      -9.768  45.305 -27.084  1.00  0.00     0.352 A 
ENDBRANCH  14  15
ENDBRANCH   4  13
BRANCH   1  25
HETATM   25  N1  UNL     1      -0.536  51.757 -24.529  1.00  0.00    -0.342 N 
HETATM   26  H5  UNL     1      -0.932  52.651 -24.258  1.00  0.00     0.167 HD
BRANCH  25  27
HETATM   27  C5  UNL     1       0.073  51.826 -25.805  1.00  0.00     0.036 A 
HETATM   28  C4  UNL     1      -0.667  51.901 -26.992  1.00  0.00     0.029 A 
HETATM   29  C3  UNL     1      -0.036  51.902 -28.241  1.00  0.00     0.005 A 
HETATM   30  C2  UNL     1       1.350  51.806 -28.319  1.00  0.00     0.036 A 
HETATM   31  C1  UNL     1       2.091  51.691 -27.152  1.00  0.00     0.067 A 
HETATM   32  C23 UNL     1       1.468  51.687 -25.903  1.00  0.00     0.066 A 
BRANCH  31  33
HETATM   33  O1  UNL     1       3.447  51.578 -27.271  1.00  0.00    -0.361 OA
HETATM   34  H1  UNL     1       3.834  51.503 -26.385  1.00  0.00     0.217 HD
ENDBRANCH  31  33
ENDBRANCH  25  27
ENDBRANCH   1  25
TORSDOF 5
ENDMDL
MODEL 6
REMARK minimizedAffinity -9.54347897
REMARK  5 active torsions:
REMARK  status: ('A' for Active; 'I' for Inactive)
REMARK    1  A    between atoms: O1_1  and  C1_2 
REMARK    2  A    between atoms: C5_6  and  N1_7 
REMARK    3  A    between atoms: N1_7  and  C6_8 
REMARK    4  A    between atoms: C7_11  and  C8_12 
REMARK    5  A    between atoms: C9_13  and  C10_14 
ROOT
HETATM    1  C6  UNL     1      -2.023  50.148 -25.039  1.00  0.00     0.119 A 
HETATM    2  N2  UNL     1      -2.569  49.803 -26.217  1.00  0.00    -0.328 N 
ATOM      3  H2  UNL     1      -2.230  50.197 -27.094  1.00  0.00     0.169 HD
HETATM    4  C7  UNL     1      -3.577  48.922 -26.195  1.00  0.00     0.107 A 
HETATM    5  N3  UNL     1      -4.086  48.352 -25.096  1.00  0.00    -0.342 N 
ATOM      6  H3  UNL     1      -4.860  47.690 -25.149  1.00  0.00     0.167 HD
HETATM    7  C17 UNL     1      -3.535  48.689 -23.928  1.00  0.00     0.047 A 
HETATM    8  C18 UNL     1      -4.039  48.112 -22.768  1.00  0.00     0.030 A 
HETATM    9  C19 UNL     1      -3.511  48.403 -21.507  1.00  0.00     0.002 A 
HETATM   10  C20 UNL     1      -2.447  49.287 -21.393  1.00  0.00     0.001 A 
HETATM   11  C21 UNL     1      -1.924  49.879 -22.542  1.00  0.00     0.017 A 
HETATM   12  C22 UNL     1      -2.469  49.595 -23.822  1.00  0.00     0.035 A 
ENDROOT
BRANCH   4  13
HETATM   13  C8  UNL     1      -4.182  48.523 -27.467  1.00  0.00     0.049 C 
HETATM   14  C9  UNL     1      -5.375  47.919 -27.583  1.00  0.00     0.016 C 
BRANCH  14  15
HETATM   15  C10 UNL     1      -5.941  47.531 -28.883  1.00  0.00    -0.016 A 
HETATM   16  C11 UNL     1      -5.332  48.017 -30.054  1.00  0.00     0.052 A 
HETATM   17  C12 UNL     1      -5.876  47.666 -31.272  1.00  0.00     0.105 A 
HETATM   18  C13 UNL     1      -6.986  46.860 -31.365  1.00  0.00     0.106 A 
HETATM   19  O3  UNL     1      -5.411  48.052 -32.490  1.00  0.00    -0.323 OA
HETATM   20  C14 UNL     1      -7.621  46.366 -30.246  1.00  0.00     0.059 A 
HETATM   21  O2  UNL     1      -7.355  46.636 -32.654  1.00  0.00    -0.323 OA
HETATM   22  C15 UNL     1      -7.092  46.709 -28.994  1.00  0.00     0.024 A 
HETATM   23 BR1  UNL     1      -7.983  46.014 -27.463  1.00  0.00    -0.050 Br
HETATM   24  C16 UNL     1      -6.354  47.396 -33.363  1.00  0.00     0.352 A 
ENDBRANCH  14  15
ENDBRANCH   4  13
BRANCH   1  25
HETATM   25  N1  UNL     1      -0.976  51.112 -25.012  1.00  0.00    -0.342 N 
HETATM   26  H5  UNL     1      -1.269  51.884 -24.421  1.00  0.00     0.167 HD
BRANCH  25  27
HETATM   27  C5  UNL     1      -0.172  51.561 -26.087  1.00  0.00     0.036 A 
HETATM   28  C4  UNL     1      -0.708  52.183 -27.222  1.00  0.00     0.029 A 
HETATM   29  C3  UNL     1       0.107  52.556 -28.297  1.00  0.00     0.005 A 
HETATM   30  C2  UNL     1       1.472  52.290 -28.259  1.00  0.00     0.036 A 
HETATM   31  C1  UNL     1       2.008  51.637 -27.158  1.00  0.00     0.067 A 
HETATM   32  C23 UNL     1       1.201  51.261 -26.083  1.00  0.00     0.066 A 
BRANCH  31  33
HETATM   33  O1  UNL     1       3.348  51.375 -27.167  1.00  0.00    -0.361 OA
HETATM   34  H1  UNL     1       3.583  50.918 -26.344  1.00  0.00     0.217 HD
ENDBRANCH  31  33
ENDBRANCH  25  27
ENDBRANCH   1  25
TORSDOF 5
ENDMDL
MODEL 7
REMARK minimizedAffinity -9.43334866
REMARK  5 active torsions:
REMARK  status: ('A' for Active; 'I' for Inactive)
REMARK    1  A    between atoms: O1_1  and  C1_2 
REMARK    2  A    between atoms: C5_6  and  N1_7 
REMARK    3  A    between atoms: N1_7  and  C6_8 
REMARK    4  A    between atoms: C7_11  and  C8_12 
REMARK    5  A    between atoms: C9_13  and  C10_14 
ROOT
HETATM    1  C6  UNL     1      -0.822  52.309 -23.570  1.00  0.00     0.119 A 
HETATM    2  N2  UNL     1      -1.819  51.418 -23.713  1.00  0.00    -0.328 N 
ATOM      3  H2  UNL     1      -2.287  51.288 -24.610  1.00  0.00     0.169 HD
HETATM    4  C7  UNL     1      -2.173  50.710 -22.635  1.00  0.00     0.107 A 
HETATM    5  N3  UNL     1      -1.616  50.811 -21.422  1.00  0.00    -0.342 N 
ATOM      6  H3  UNL     1      -1.938  50.244 -20.638  1.00  0.00     0.167 HD
HETATM    7  C17 UNL     1      -0.620  51.690 -21.284  1.00  0.00     0.047 A 
HETATM    8  C18 UNL     1      -0.018  51.816 -20.037  1.00  0.00     0.030 A 
HETATM    9  C19 UNL     1       1.037  52.704 -19.812  1.00  0.00     0.002 A 
HETATM   10  C20 UNL     1       1.516  53.485 -20.856  1.00  0.00     0.001 A 
HETATM   11  C21 UNL     1       0.928  53.375 -22.115  1.00  0.00     0.017 A 
HETATM   12  C22 UNL     1      -0.154  52.484 -22.341  1.00  0.00     0.035 A 
ENDROOT
BRANCH   4  13
HETATM   13  C8  UNL     1      -3.249  49.727 -22.768  1.00  0.00     0.049 C 
HETATM   14  C9  UNL     1      -4.145  49.714 -23.767  1.00  0.00     0.016 C 
BRANCH  14  15
HETATM   15  C10 UNL     1      -5.214  48.708 -23.857  1.00  0.00    -0.016 A 
HETATM   16  C11 UNL     1      -5.704  48.359 -25.128  1.00  0.00     0.052 A 
HETATM   17  C12 UNL     1      -6.719  47.428 -25.209  1.00  0.00     0.105 A 
HETATM   18  C13 UNL     1      -7.254  46.841 -24.087  1.00  0.00     0.106 A 
HETATM   19  O3  UNL     1      -7.302  46.986 -26.355  1.00  0.00    -0.323 OA
HETATM   20  C14 UNL     1      -6.812  47.156 -22.820  1.00  0.00     0.059 A 
HETATM   21  O2  UNL     1      -8.239  45.954 -24.389  1.00  0.00    -0.323 OA
HETATM   22  C15 UNL     1      -5.784  48.102 -22.708  1.00  0.00     0.024 A 
HETATM   23 BR1  UNL     1      -5.187  48.521 -20.950  1.00  0.00    -0.050 Br
HETATM   24  C16 UNL     1      -8.266  46.051 -25.829  1.00  0.00     0.352 A 
ENDBRANCH  14  15
ENDBRANCH   4  13
BRANCH   1  25
HETATM   25  N1  UNL     1      -0.440  53.113 -24.680  1.00  0.00    -0.342 N 
HETATM   26  H5  UNL     1      -1.180  53.785 -24.856  1.00  0.00     0.167 HD
BRANCH  25  27
HETATM   27  C5  UNL     1       0.183  52.704 -25.883  1.00  0.00     0.036 A 
HETATM   28  C4  UNL     1      -0.503  52.633 -27.103  1.00  0.00     0.029 A 
HETATM   29  C3  UNL     1       0.125  52.163 -28.262  1.00  0.00     0.005 A 
HETATM   30  C2  UNL     1       1.447  51.733 -28.210  1.00  0.00     0.036 A 
HETATM   31  C1  UNL     1       2.124  51.759 -26.999  1.00  0.00     0.067 A 
HETATM   32  C23 UNL     1       1.504  52.226 -25.839  1.00  0.00     0.066 A 
BRANCH  31  33
HETATM   33  O1  UNL     1       3.414  51.310 -26.984  1.00  0.00    -0.361 OA
HETATM   34  H1  UNL     1       3.760  51.383 -26.081  1.00  0.00     0.217 HD
ENDBRANCH  31  33
ENDBRANCH  25  27
ENDBRANCH   1  25
TORSDOF 5
ENDMDL
MODEL 8
REMARK minimizedAffinity -9.37291241
REMARK  5 active torsions:
REMARK  status: ('A' for Active; 'I' for Inactive)
REMARK    1  A    between atoms: O1_1  and  C1_2 
REMARK    2  A    between atoms: C5_6  and  N1_7 
REMARK    3  A    between atoms: N1_7  and  C6_8 
REMARK    4  A    between atoms: C7_11  and  C8_12 
REMARK    5  A    between atoms: C9_13  and  C10_14 
ROOT
HETATM    1  C6  UNL     1      -0.864  52.073 -23.520  1.00  0.00     0.119 A 
HETATM    2  N2  UNL     1      -1.610  50.996 -23.221  1.00  0.00    -0.328 N 
ATOM      3  H2  UNL     1      -2.211  50.558 -23.919  1.00  0.00     0.169 HD
HETATM    4  C7  UNL     1      -1.534  50.520 -21.972  1.00  0.00     0.107 A 
HETATM    5  N3  UNL     1      -0.774  51.028 -20.993  1.00  0.00    -0.342 N 
ATOM      6  H3  UNL     1      -0.766  50.619 -20.059  1.00  0.00     0.167 HD
HETATM    7  C17 UNL     1      -0.027  52.092 -21.296  1.00  0.00     0.047 A 
HETATM    8  C18 UNL     1       0.776  52.640 -20.302  1.00  0.00     0.030 A 
HETATM    9  C19 UNL     1       1.595  53.747 -20.539  1.00  0.00     0.002 A 
HETATM   10  C20 UNL     1       1.625  54.324 -21.801  1.00  0.00     0.001 A 
HETATM   11  C21 UNL     1       0.829  53.792 -22.815  1.00  0.00     0.017 A 
HETATM   12  C22 UNL     1      -0.015  52.676 -22.570  1.00  0.00     0.035 A 
ENDROOT
BRANCH   4  13
HETATM   13  C8  UNL     1      -2.329  49.342 -21.625  1.00  0.00     0.049 C 
HETATM   14  C9  UNL     1      -3.359  48.881 -22.350  1.00  0.00     0.016 C 
BRANCH  14  15
HETATM   15  C10 UNL     1      -4.134  47.694 -21.958  1.00  0.00    -0.016 A 
HETATM   16  C11 UNL     1      -3.567  46.795 -21.036  1.00  0.00     0.052 A 
HETATM   17  C12 UNL     1      -4.288  45.673 -20.684  1.00  0.00     0.105 A 
HETATM   18  C13 UNL     1      -5.534  45.419 -21.207  1.00  0.00     0.106 A 
HETATM   19  O3  UNL     1      -3.883  44.711 -19.813  1.00  0.00    -0.323 OA
HETATM   20  C14 UNL     1      -6.126  46.266 -22.118  1.00  0.00     0.059 A 
HETATM   21  O2  UNL     1      -6.069  44.265 -20.727  1.00  0.00    -0.323 OA
HETATM   22  C15 UNL     1      -5.415  47.412 -22.498  1.00  0.00     0.024 A 
HETATM   23 BR1  UNL     1      -6.253  48.569 -23.755  1.00  0.00    -0.050 Br
HETATM   24  C16 UNL     1      -5.017  43.819 -19.845  1.00  0.00     0.352 A 
ENDBRANCH  14  15
ENDBRANCH   4  13
BRANCH   1  25
HETATM   25  N1  UNL     1      -0.945  52.637 -24.825  1.00  0.00    -0.342 N 
HETATM   26  H5  UNL     1      -1.924  52.711 -25.079  1.00  0.00     0.167 HD
BRANCH  25  27
HETATM   27  C5  UNL     1      -0.138  52.353 -25.952  1.00  0.00     0.036 A 
HETATM   28  C4  UNL     1      -0.643  52.338 -27.259  1.00  0.00     0.029 A 
HETATM   29  C3  UNL     1       0.166  51.990 -28.345  1.00  0.00     0.005 A 
HETATM   30  C2  UNL     1       1.494  51.628 -28.135  1.00  0.00     0.036 A 
HETATM   31  C1  UNL     1       1.995  51.600 -26.842  1.00  0.00     0.067 A 
HETATM   32  C23 UNL     1       1.192  51.945 -25.753  1.00  0.00     0.066 A 
BRANCH  31  33
HETATM   33  O1  UNL     1       3.296  51.220 -26.674  1.00  0.00    -0.361 OA
HETATM   34  H1  UNL     1       3.509  51.244 -25.728  1.00  0.00     0.217 HD
ENDBRANCH  31  33
ENDBRANCH  25  27
ENDBRANCH   1  25
TORSDOF 5
ENDMDL
MODEL 9
REMARK minimizedAffinity -9.28555393
REMARK  5 active torsions:
REMARK  status: ('A' for Active; 'I' for Inactive)
REMARK    1  A    between atoms: O1_1  and  C1_2 
REMARK    2  A    between atoms: C5_6  and  N1_7 
REMARK    3  A    between atoms: N1_7  and  C6_8 
REMARK    4  A    between atoms: C7_11  and  C8_12 
REMARK    5  A    between atoms: C9_13  and  C10_14 
ROOT
HETATM    1  C6  UNL     1      -1.716  50.923 -24.892  1.00  0.00     0.119 A 
HETATM    2  N2  UNL     1      -1.357  50.721 -23.613  1.00  0.00    -0.328 N 
ATOM      3  H2  UNL     1      -1.736  49.943 -23.073  1.00  0.00     0.169 HD
HETATM    4  C7  UNL     1      -0.482  51.579 -23.074  1.00  0.00     0.107 A 
HETATM    5  N3  UNL     1       0.069  52.623 -23.705  1.00  0.00    -0.342 N 
ATOM      6  H3  UNL     1       0.727  53.244 -23.233  1.00  0.00     0.167 HD
HETATM    7  C17 UNL     1      -0.282  52.816 -24.978  1.00  0.00     0.047 A 
HETATM    8  C18 UNL     1       0.275  53.891 -25.662  1.00  0.00     0.030 A 
HETATM    9  C19 UNL     1      -0.031  54.157 -26.999  1.00  0.00     0.002 A 
HETATM   10  C20 UNL     1      -0.911  53.328 -27.682  1.00  0.00     0.001 A 
HETATM   11  C21 UNL     1      -1.483  52.243 -27.018  1.00  0.00     0.017 A 
HETATM   12  C22 UNL     1      -1.183  51.982 -25.654  1.00  0.00     0.035 A 
ENDROOT
BRANCH   4  13
HETATM   13  C8  UNL     1      -0.067  51.374 -21.686  1.00  0.00     0.049 C 
HETATM   14  C9  UNL     1      -0.914  51.230 -20.654  1.00  0.00     0.016 C 
BRANCH  14  15
HETATM   15  C10 UNL     1      -0.451  51.031 -19.273  1.00  0.00    -0.016 A 
HETATM   16  C11 UNL     1       0.250  52.074 -18.642  1.00  0.00     0.052 A 
HETATM   17  C12 UNL     1       0.699  51.878 -17.352  1.00  0.00     0.105 A 
HETATM   18  C13 UNL     1       0.478  50.701 -16.679  1.00  0.00     0.106 A 
HETATM   19  O3  UNL     1       1.391  52.781 -16.607  1.00  0.00    -0.323 OA
HETATM   20  C14 UNL     1      -0.198  49.648 -17.258  1.00  0.00     0.059 A 
HETATM   21  O2  UNL     1       1.001  50.717 -15.424  1.00  0.00    -0.323 OA
HETATM   22  C15 UNL     1      -0.662  49.817 -18.570  1.00  0.00     0.024 A 
HETATM   23 BR1  UNL     1      -1.594  48.353 -19.349  1.00  0.00    -0.050 Br
HETATM   24  C16 UNL     1       1.580  52.039 -15.385  1.00  0.00     0.352 A 
ENDBRANCH  14  15
ENDBRANCH   4  13
BRANCH   1  25
HETATM   25  N1  UNL     1      -2.675  50.059 -25.492  1.00  0.00    -0.342 N 
HETATM   26  H5  UNL     1      -2.730  50.281 -26.480  1.00  0.00     0.167 HD
BRANCH  25  27
HETATM   27  C5  UNL     1      -3.933  49.660 -24.980  1.00  0.00     0.036 A 
HETATM   28  C4  UNL     1      -4.549  48.456 -25.347  1.00  0.00     0.029 A 
HETATM   29  C3  UNL     1      -5.823  48.121 -24.874  1.00  0.00     0.005 A 
HETATM   30  C2  UNL     1      -6.509  49.000 -24.042  1.00  0.00     0.036 A 
HETATM   31  C1  UNL     1      -5.926  50.213 -23.705  1.00  0.00     0.067 A 
HETATM   32  C23 UNL     1      -4.657  50.555 -24.175  1.00  0.00     0.066 A 
BRANCH  31  33
HETATM   33  O1  UNL     1      -6.639  51.059 -22.904  1.00  0.00    -0.361 OA
HETATM   34  H1  UNL     1      -6.117  51.862 -22.753  1.00  0.00     0.217 HD
ENDBRANCH  31  33
ENDBRANCH  25  27
ENDBRANCH   1  25
TORSDOF 5
ENDMDL
