MODEL 1
REMARK minimizedAffinity -9.56475925
REMARK  7 active torsions:
REMARK  status: ('A' for Active; 'I' for Inactive)
REMARK    1  A    between atoms: C2_2  and  S1_3 
REMARK    2  A    between atoms: S1_3  and  C3_6 
REMARK    3  A    between atoms: C10_13  and  C11_14 
REMARK    4  A    between atoms: C14_18  and  C15_19 
REMARK    5  A    between atoms: C15_19  and  C16_20 
REMARK    6  A    between atoms: C16_20  and  C17_21 
REMARK    7  A    between atoms: C17_21  and  N2_22 
ROOT
HETATM    1  C11 UNL     1      -3.068   4.289  11.857  1.00  0.00     0.040 A 
HETATM    2  N1  UNL     1      -3.349   3.006  11.443  1.00  0.00    -0.359 N 
HETATM    3  C12 UNL     1      -4.622   2.670  11.800  1.00  0.00     0.016 A 
HETATM    4  C13 UNL     1      -5.187   3.732  12.467  1.00  0.00    -0.027 A 
HETATM    5  C14 UNL     1      -4.207   4.768  12.509  1.00  0.00    -0.023 A 
HETATM    6  C22 UNL     1      -6.592   3.700  12.970  1.00  0.00     0.041 C 
HETATM    7  C23 UNL     1      -7.151   2.263  12.982  1.00  0.00     0.005 C 
HETATM    8  C24 UNL     1      -6.788   1.482  11.704  1.00  0.00     0.006 C 
HETATM    9  C25 UNL     1      -5.265   1.359  11.514  1.00  0.00     0.057 C 
HETATM   10  H10 UNL     1      -2.719   2.400  10.929  1.00  0.00     0.166 HD
ENDROOT
BRANCH   1  11
HETATM   11  C10 UNL     1      -1.813   4.915  11.604  1.00  0.00     0.048 C 
HETATM   12  C9  UNL     1      -0.910   5.408  12.470  1.00  0.00     0.047 A 
HETATM   13  C7  UNL     1       0.375   5.997  12.040  1.00  0.00     0.008 A 
HETATM   14  C26 UNL     1      -0.918   5.484  13.979  1.00  0.00     0.257 A 
HETATM   15  C6  UNL     1       1.057   6.357  13.210  1.00  0.00     0.046 A 
HETATM   16  C8  UNL     1       0.954   6.219  10.802  1.00  0.00     0.038 A 
HETATM   17  C5  UNL     1       2.312   6.934  13.202  1.00  0.00     0.032 A 
HETATM   18  N3  UNL     1       0.296   6.052  14.329  1.00  0.00    -0.322 N 
HETATM   19  C4  UNL     1       2.906   7.162  11.960  1.00  0.00     0.026 A 
HETATM   20  C3  UNL     1       2.223   6.819  10.775  1.00  0.00     0.060 A 
HETATM   21  H33 UNL     1       0.562   6.212  15.289  1.00  0.00     0.169 HD
HETATM   22  O4  UNL     1      -1.792   5.142  14.753  1.00  0.00    -0.267 OA
BRANCH  20  23
HETATM   23  S1  UNL     1       3.014   7.127   9.206  1.00  0.00     0.175 S 
HETATM   24  O1  UNL     1       3.509   5.856   8.716  1.00  0.00    -0.223 OA
HETATM   25  O2  UNL     1       3.904   8.255   9.400  1.00  0.00    -0.223 OA
BRANCH  23  26
HETATM   26  C2  UNL     1       1.655   7.641   8.171  1.00  0.00     0.141 C 
HETATM   27  C1  UNL     1       1.860   7.217   6.730  1.00  0.00     0.021 C 
ENDBRANCH  23  26
ENDBRANCH  20  23
ENDBRANCH   1  11
BRANCH   5  28
HETATM   28  C15 UNL     1      -4.399   6.125  13.123  1.00  0.00     0.043 C 
BRANCH  28  29
HETATM   29  C16 UNL     1      -5.878   6.461  13.328  1.00  0.00     0.035 C 
BRANCH  29  30
HETATM   30  C17 UNL     1      -6.257   6.877  14.758  1.00  0.00     0.273 C 
BRANCH  30  31
HETATM   31  N2  UNL     1      -7.662   6.659  15.137  1.00  0.00     0.092 N 
HETATM   32  C18 UNL     1      -8.144   7.724  16.049  1.00  0.00     0.298 C 
HETATM   33  C19 UNL     1      -8.881   8.860  15.325  1.00  0.00     0.198 C 
HETATM   34  O3  UNL     1     -10.042   8.420  14.607  1.00  0.00    -0.388 OA
HETATM   35  C20 UNL     1      -9.996   7.027  14.272  1.00  0.00     0.198 C 
HETATM   36  C21 UNL     1      -8.567   6.544  13.971  1.00  0.00     0.298 C 
ENDBRANCH  30  31
ENDBRANCH  29  30
ENDBRANCH  28  29
ENDBRANCH   5  28
TORSDOF 7
ENDMDL
MODEL 2
REMARK minimizedAffinity -9.32571888
REMARK  7 active torsions:
REMARK  status: ('A' for Active; 'I' for Inactive)
REMARK    1  A    between atoms: C2_2  and  S1_3 
REMARK    2  A    between atoms: S1_3  and  C3_6 
REMARK    3  A    between atoms: C10_13  and  C11_14 
REMARK    4  A    between atoms: C14_18  and  C15_19 
REMARK    5  A    between atoms: C15_19  and  C16_20 
REMARK    6  A    between atoms: C16_20  and  C17_21 
REMARK    7  A    between atoms: C17_21  and  N2_22 
ROOT
HETATM    1  C11 UNL     1      -3.134   4.502  12.190  1.00  0.00     0.040 A 
HETATM    2  N1  UNL     1      -3.553   3.243  11.823  1.00  0.00    -0.359 N 
HETATM    3  C12 UNL     1      -4.853   3.059  12.192  1.00  0.00     0.016 A 
HETATM    4  C13 UNL     1      -5.297   4.198  12.822  1.00  0.00    -0.027 A 
HETATM    5  C14 UNL     1      -4.211   5.124  12.827  1.00  0.00    -0.023 A 
HETATM    6  C22 UNL     1      -6.695   4.336  13.328  1.00  0.00     0.041 C 
HETATM    7  C23 UNL     1      -7.405   2.968  13.390  1.00  0.00     0.005 C 
HETATM    8  C24 UNL     1      -7.135   2.109  12.140  1.00  0.00     0.006 C 
HETATM    9  C25 UNL     1      -5.635   1.816  11.954  1.00  0.00     0.057 C 
HETATM   10  H10 UNL     1      -2.995   2.555  11.329  1.00  0.00     0.166 HD
ENDROOT
BRANCH   1  11
HETATM   11  C10 UNL     1      -1.819   4.979  11.914  1.00  0.00     0.048 C 
HETATM   12  C9  UNL     1      -0.905   5.508  12.748  1.00  0.00     0.047 A 
HETATM   13  C7  UNL     1       0.441   5.923  12.303  1.00  0.00     0.008 A 
HETATM   14  C26 UNL     1      -0.959   5.790  14.232  1.00  0.00     0.257 A 
HETATM   15  C6  UNL     1       1.112   6.381  13.444  1.00  0.00     0.046 A 
HETATM   16  C8  UNL     1       1.079   5.924  11.074  1.00  0.00     0.038 A 
HETATM   17  C5  UNL     1       2.413   6.843  13.417  1.00  0.00     0.032 A 
HETATM   18  N3  UNL     1       0.289   6.296  14.558  1.00  0.00    -0.322 N 
HETATM   19  C4  UNL     1       3.067   6.848  12.185  1.00  0.00     0.026 A 
HETATM   20  C3  UNL     1       2.397   6.406  11.026  1.00  0.00     0.060 A 
HETATM   21  H33 UNL     1       0.536   6.563  15.499  1.00  0.00     0.169 HD
HETATM   22  O4  UNL     1      -1.885   5.632  15.003  1.00  0.00    -0.267 OA
BRANCH  20  23
HETATM   23  S1  UNL     1       3.265   6.429   9.468  1.00  0.00     0.175 S 
HETATM   24  O1  UNL     1       2.354   5.927   8.458  1.00  0.00    -0.223 OA
HETATM   25  O2  UNL     1       4.552   5.801   9.696  1.00  0.00    -0.223 OA
BRANCH  23  26
HETATM   26  C2  UNL     1       3.522   8.171   9.183  1.00  0.00     0.141 C 
HETATM   27  C1  UNL     1       2.944   8.609   7.851  1.00  0.00     0.021 C 
ENDBRANCH  23  26
ENDBRANCH  20  23
ENDBRANCH   1  11
BRANCH   5  28
HETATM   28  C15 UNL     1      -4.253   6.514  13.393  1.00  0.00     0.043 C 
BRANCH  28  29
HETATM   29  C16 UNL     1      -5.636   7.153  13.252  1.00  0.00     0.035 C 
BRANCH  29  30
HETATM   30  C17 UNL     1      -5.855   8.420  14.092  1.00  0.00     0.273 C 
BRANCH  30  31
HETATM   31  N2  UNL     1      -6.635   8.243  15.327  1.00  0.00     0.092 N 
HETATM   32  C18 UNL     1      -8.034   8.701  15.149  1.00  0.00     0.298 C 
HETATM   33  C19 UNL     1      -9.006   7.568  14.787  1.00  0.00     0.198 C 
HETATM   34  O3  UNL     1      -9.068   6.533  15.778  1.00  0.00    -0.388 OA
HETATM   35  C20 UNL     1      -7.896   6.478  16.602  1.00  0.00     0.198 C 
HETATM   36  C21 UNL     1      -6.619   6.851  15.829  1.00  0.00     0.298 C 
ENDBRANCH  30  31
ENDBRANCH  29  30
ENDBRANCH  28  29
ENDBRANCH   5  28
TORSDOF 7
ENDMDL
MODEL 3
REMARK minimizedAffinity -9.08909225
REMARK  7 active torsions:
REMARK  status: ('A' for Active; 'I' for Inactive)
REMARK    1  A    between atoms: C2_2  and  S1_3 
REMARK    2  A    between atoms: S1_3  and  C3_6 
REMARK    3  A    between atoms: C10_13  and  C11_14 
REMARK    4  A    between atoms: C14_18  and  C15_19 
REMARK    5  A    between atoms: C15_19  and  C16_20 
REMARK    6  A    between atoms: C16_20  and  C17_21 
REMARK    7  A    between atoms: C17_21  and  N2_22 
ROOT
HETATM    1  C11 UNL     1      -2.958   4.373  11.846  1.00  0.00     0.040 A 
HETATM    2  N1  UNL     1      -3.206   3.063  11.500  1.00  0.00    -0.359 N 
HETATM    3  C12 UNL     1      -4.493   2.735  11.813  1.00  0.00     0.016 A 
HETATM    4  C13 UNL     1      -5.099   3.830  12.384  1.00  0.00    -0.027 A 
HETATM    5  C14 UNL     1      -4.132   4.878  12.410  1.00  0.00    -0.023 A 
HETATM    6  C22 UNL     1      -6.528   3.812  12.818  1.00  0.00     0.041 C 
HETATM    7  C23 UNL     1      -7.074   2.372  12.891  1.00  0.00     0.005 C 
HETATM    8  C24 UNL     1      -6.641   1.518  11.684  1.00  0.00     0.006 C 
HETATM    9  C25 UNL     1      -5.110   1.402  11.579  1.00  0.00     0.057 C 
HETATM   10  H10 UNL     1      -2.546   2.434  11.056  1.00  0.00     0.166 HD
ENDROOT
BRANCH   1  11
HETATM   11  C10 UNL     1      -1.697   4.996  11.618  1.00  0.00     0.048 C 
HETATM   12  C9  UNL     1      -0.798   5.464  12.502  1.00  0.00     0.047 A 
HETATM   13  C7  UNL     1       0.494   6.055  12.096  1.00  0.00     0.008 A 
HETATM   14  C26 UNL     1      -0.819   5.507  14.013  1.00  0.00     0.257 A 
HETATM   15  C6  UNL     1       1.168   6.386  13.279  1.00  0.00     0.046 A 
HETATM   16  C8  UNL     1       1.085   6.301  10.867  1.00  0.00     0.038 A 
HETATM   17  C5  UNL     1       2.427   6.954  13.294  1.00  0.00     0.032 A 
HETATM   18  N3  UNL     1       0.396   6.060  14.385  1.00  0.00    -0.322 N 
HETATM   19  C4  UNL     1       3.032   7.206  12.063  1.00  0.00     0.026 A 
HETATM   20  C3  UNL     1       2.357   6.894  10.864  1.00  0.00     0.060 A 
HETATM   21  H33 UNL     1       0.655   6.198  15.350  1.00  0.00     0.169 HD
HETATM   22  O4  UNL     1      -1.701   5.154  14.771  1.00  0.00    -0.267 OA
BRANCH  20  23
HETATM   23  S1  UNL     1       3.163   7.231   9.310  1.00  0.00     0.175 S 
HETATM   24  O1  UNL     1       3.561   5.956   8.744  1.00  0.00    -0.223 OA
HETATM   25  O2  UNL     1       4.136   8.277   9.559  1.00  0.00    -0.223 OA
BRANCH  23  26
HETATM   26  C2  UNL     1       1.843   7.903   8.316  1.00  0.00     0.141 C 
HETATM   27  C1  UNL     1       1.830   7.301   6.925  1.00  0.00     0.021 C 
ENDBRANCH  23  26
ENDBRANCH  20  23
ENDBRANCH   1  11
BRANCH   5  28
HETATM   28  C15 UNL     1      -4.367   6.268  12.928  1.00  0.00     0.043 C 
BRANCH  28  29
HETATM   29  C16 UNL     1      -4.629   6.285  14.435  1.00  0.00     0.035 C 
BRANCH  29  30
HETATM   30  C17 UNL     1      -4.769   7.684  15.054  1.00  0.00     0.273 C 
BRANCH  30  31
HETATM   31  N2  UNL     1      -3.549   8.506  15.061  1.00  0.00     0.092 N 
HETATM   32  C18 UNL     1      -3.876   9.953  15.090  1.00  0.00     0.298 C 
HETATM   33  C19 UNL     1      -3.866  10.552  16.504  1.00  0.00     0.198 C 
HETATM   34  O3  UNL     1      -2.599  10.435  17.164  1.00  0.00    -0.388 OA
HETATM   35  C20 UNL     1      -1.789   9.376  16.635  1.00  0.00     0.198 C 
HETATM   36  C21 UNL     1      -2.629   8.174  16.172  1.00  0.00     0.298 C 
ENDBRANCH  30  31
ENDBRANCH  29  30
ENDBRANCH  28  29
ENDBRANCH   5  28
TORSDOF 7
ENDMDL
MODEL 4
REMARK minimizedAffinity -9.05587387
REMARK  7 active torsions:
REMARK  status: ('A' for Active; 'I' for Inactive)
REMARK    1  A    between atoms: C2_2  and  S1_3 
REMARK    2  A    between atoms: S1_3  and  C3_6 
REMARK    3  A    between atoms: C10_13  and  C11_14 
REMARK    4  A    between atoms: C14_18  and  C15_19 
REMARK    5  A    between atoms: C15_19  and  C16_20 
REMARK    6  A    between atoms: C16_20  and  C17_21 
REMARK    7  A    between atoms: C17_21  and  N2_22 
ROOT
HETATM    1  C11 UNL     1      -6.561   4.869  12.842  1.00  0.00     0.040 A 
HETATM    2  N1  UNL     1      -6.676   3.576  12.383  1.00  0.00    -0.359 N 
HETATM    3  C12 UNL     1      -5.439   3.063  12.120  1.00  0.00     0.016 A 
HETATM    4  C13 UNL     1      -4.497   4.027  12.393  1.00  0.00    -0.027 A 
HETATM    5  C14 UNL     1      -5.199   5.180  12.853  1.00  0.00    -0.023 A 
HETATM    6  C22 UNL     1      -3.033   3.776  12.236  1.00  0.00     0.041 C 
HETATM    7  C23 UNL     1      -2.769   2.503  11.408  1.00  0.00     0.005 C 
HETATM    8  C24 UNL     1      -3.696   1.339  11.808  1.00  0.00     0.006 C 
HETATM    9  C25 UNL     1      -5.181   1.690  11.610  1.00  0.00     0.057 C 
HETATM   10  H10 UNL     1      -7.544   3.063  12.275  1.00  0.00     0.166 HD
ENDROOT
BRANCH   1  11
HETATM   11  C10 UNL     1      -7.693   5.650  13.215  1.00  0.00     0.048 C 
HETATM   12  C9  UNL     1      -7.974   6.252  14.385  1.00  0.00     0.047 A 
HETATM   13  C7  UNL     1      -9.188   7.066  14.597  1.00  0.00     0.008 A 
HETATM   14  C26 UNL     1      -7.210   6.294  15.689  1.00  0.00     0.257 A 
HETATM   15  C6  UNL     1      -9.113   7.555  15.908  1.00  0.00     0.046 A 
HETATM   16  C8  UNL     1     -10.267   7.394  13.794  1.00  0.00     0.038 A 
HETATM   17  C5  UNL     1     -10.077   8.374  16.462  1.00  0.00     0.032 A 
HETATM   18  N3  UNL     1      -7.958   7.102  16.530  1.00  0.00    -0.322 N 
HETATM   19  C4  UNL     1     -11.169   8.712  15.662  1.00  0.00     0.026 A 
HETATM   20  C3  UNL     1     -11.265   8.212  14.347  1.00  0.00     0.060 A 
HETATM   21  H33 UNL     1      -7.672   7.312  17.474  1.00  0.00     0.169 HD
HETATM   22  O4  UNL     1      -6.168   5.740  15.978  1.00  0.00    -0.267 OA
BRANCH  20  23
HETATM   23  S1  UNL     1     -12.676   8.665  13.355  1.00  0.00     0.175 S 
HETATM   24  O1  UNL     1     -12.172   9.205  12.107  1.00  0.00    -0.223 OA
HETATM   25  O2  UNL     1     -13.557   9.441  14.207  1.00  0.00    -0.223 OA
BRANCH  23  26
HETATM   26  C2  UNL     1     -13.446   7.091  13.019  1.00  0.00     0.141 C 
HETATM   27  C1  UNL     1     -13.794   6.356  14.299  1.00  0.00     0.021 C 
ENDBRANCH  23  26
ENDBRANCH  20  23
ENDBRANCH   1  11
BRANCH   5  28
HETATM   28  C15 UNL     1      -4.565   6.470  13.290  1.00  0.00     0.043 C 
BRANCH  28  29
HETATM   29  C16 UNL     1      -3.046   6.458  13.106  1.00  0.00     0.035 C 
BRANCH  29  30
HETATM   30  C17 UNL     1      -2.409   7.836  12.873  1.00  0.00     0.273 C 
BRANCH  30  31
HETATM   31  N2  UNL     1      -0.951   7.842  12.676  1.00  0.00     0.092 N 
HETATM   32  C18 UNL     1      -0.427   6.466  12.501  1.00  0.00     0.298 C 
HETATM   33  C19 UNL     1      -0.273   6.054  11.030  1.00  0.00     0.198 C 
HETATM   34  O3  UNL     1       0.622   6.898  10.292  1.00  0.00    -0.388 OA
HETATM   35  C20 UNL     1       0.774   8.197  10.879  1.00  0.00     0.198 C 
HETATM   36  C21 UNL     1      -0.521   8.694  11.544  1.00  0.00     0.298 C 
ENDBRANCH  30  31
ENDBRANCH  29  30
ENDBRANCH  28  29
ENDBRANCH   5  28
TORSDOF 7
ENDMDL
MODEL 5
REMARK minimizedAffinity -9.04196358
REMARK  7 active torsions:
REMARK  status: ('A' for Active; 'I' for Inactive)
REMARK    1  A    between atoms: C2_2  and  S1_3 
REMARK    2  A    between atoms: S1_3  and  C3_6 
REMARK    3  A    between atoms: C10_13  and  C11_14 
REMARK    4  A    between atoms: C14_18  and  C15_19 
REMARK    5  A    between atoms: C15_19  and  C16_20 
REMARK    6  A    between atoms: C16_20  and  C17_21 
REMARK    7  A    between atoms: C17_21  and  N2_22 
ROOT
HETATM    1  C11 UNL     1      -0.990   7.055  13.774  1.00  0.00     0.040 A 
HETATM    2  N1  UNL     1      -0.247   6.787  14.902  1.00  0.00    -0.359 N 
HETATM    3  C12 UNL     1       0.801   7.657  14.987  1.00  0.00     0.016 A 
HETATM    4  C13 UNL     1       0.763   8.499  13.900  1.00  0.00    -0.027 A 
HETATM    5  C14 UNL     1      -0.373   8.126  13.122  1.00  0.00    -0.023 A 
HETATM    6  C22 UNL     1       1.760   9.593  13.704  1.00  0.00     0.041 C 
HETATM    7  C23 UNL     1       2.984   9.406  14.624  1.00  0.00     0.005 C 
HETATM    8  C24 UNL     1       2.586   8.994  16.054  1.00  0.00     0.006 C 
HETATM    9  C25 UNL     1       1.813   7.662  16.077  1.00  0.00     0.057 C 
HETATM   10  H10 UNL     1      -0.452   6.069  15.588  1.00  0.00     0.166 HD
ENDROOT
BRANCH   1  11
HETATM   11  C10 UNL     1      -2.160   6.314  13.438  1.00  0.00     0.048 C 
HETATM   12  C9  UNL     1      -2.291   5.222  12.664  1.00  0.00     0.047 A 
HETATM   13  C7  UNL     1      -3.586   4.545  12.445  1.00  0.00     0.008 A 
HETATM   14  C26 UNL     1      -1.269   4.427  11.884  1.00  0.00     0.257 A 
HETATM   15  C6  UNL     1      -3.322   3.438  11.628  1.00  0.00     0.046 A 
HETATM   16  C8  UNL     1      -4.878   4.797  12.877  1.00  0.00     0.038 A 
HETATM   17  C5  UNL     1      -4.300   2.553  11.219  1.00  0.00     0.032 A 
HETATM   18  N3  UNL     1      -1.972   3.379  11.311  1.00  0.00    -0.322 N 
HETATM   19  C4  UNL     1      -5.605   2.796  11.648  1.00  0.00     0.026 A 
HETATM   20  C3  UNL     1      -5.887   3.917  12.457  1.00  0.00     0.060 A 
HETATM   21  H33 UNL     1      -1.527   2.679  10.737  1.00  0.00     0.169 HD
HETATM   22  O4  UNL     1      -0.079   4.639  11.754  1.00  0.00    -0.267 OA
BRANCH  20  23
HETATM   23  S1  UNL     1      -7.568   4.195  12.986  1.00  0.00     0.175 S 
HETATM   24  O1  UNL     1      -8.190   2.895  13.147  1.00  0.00    -0.223 OA
HETATM   25  O2  UNL     1      -8.129   5.190  12.094  1.00  0.00    -0.223 OA
BRANCH  23  26
HETATM   26  C2  UNL     1      -7.360   4.926  14.600  1.00  0.00     0.141 C 
HETATM   27  C1  UNL     1      -7.839   6.364  14.627  1.00  0.00     0.021 C 
ENDBRANCH  23  26
ENDBRANCH  20  23
ENDBRANCH   1  11
BRANCH   5  28
HETATM   28  C15 UNL     1      -0.818   8.794  11.852  1.00  0.00     0.043 C 
BRANCH  28  29
HETATM   29  C16 UNL     1      -0.224   8.127  10.611  1.00  0.00     0.035 C 
BRANCH  29  30
HETATM   30  C17 UNL     1       1.310   8.038  10.593  1.00  0.00     0.273 C 
BRANCH  30  31
HETATM   31  N2  UNL     1       1.945   8.196   9.275  1.00  0.00     0.092 N 
HETATM   32  C18 UNL     1       3.158   7.351   9.159  1.00  0.00     0.298 C 
HETATM   33  C19 UNL     1       2.896   5.998   8.480  1.00  0.00     0.198 C 
HETATM   34  O3  UNL     1       2.386   6.119   7.145  1.00  0.00    -0.388 OA
HETATM   35  C20 UNL     1       1.749   7.381   6.903  1.00  0.00     0.198 C 
HETATM   36  C21 UNL     1       1.025   7.919   8.150  1.00  0.00     0.298 C 
ENDBRANCH  30  31
ENDBRANCH  29  30
ENDBRANCH  28  29
ENDBRANCH   5  28
TORSDOF 7
ENDMDL
MODEL 6
REMARK minimizedAffinity -8.96328831
REMARK  7 active torsions:
REMARK  status: ('A' for Active; 'I' for Inactive)
REMARK    1  A    between atoms: C2_2  and  S1_3 
REMARK    2  A    between atoms: S1_3  and  C3_6 
REMARK    3  A    between atoms: C10_13  and  C11_14 
REMARK    4  A    between atoms: C14_18  and  C15_19 
REMARK    5  A    between atoms: C15_19  and  C16_20 
REMARK    6  A    between atoms: C16_20  and  C17_21 
REMARK    7  A    between atoms: C17_21  and  N2_22 
ROOT
HETATM    1  C11 UNL     1      -7.589   6.190  13.710  1.00  0.00     0.040 A 
HETATM    2  N1  UNL     1      -8.797   6.060  13.063  1.00  0.00    -0.359 N 
HETATM    3  C12 UNL     1      -9.732   6.856  13.658  1.00  0.00     0.016 A 
HETATM    4  C13 UNL     1      -9.144   7.509  14.716  1.00  0.00    -0.027 A 
HETATM    5  C14 UNL     1      -7.781   7.094  14.758  1.00  0.00    -0.023 A 
HETATM    6  C22 UNL     1      -9.892   8.485  15.564  1.00  0.00     0.041 C 
HETATM    7  C23 UNL     1     -11.414   8.366  15.345  1.00  0.00     0.005 C 
HETATM    8  C24 UNL     1     -11.783   8.222  13.856  1.00  0.00     0.006 C 
HETATM    9  C25 UNL     1     -11.150   6.969  13.223  1.00  0.00     0.057 C 
HETATM   10  H10 UNL     1      -8.973   5.479  12.250  1.00  0.00     0.166 HD
ENDROOT
BRANCH   1  11
HETATM   11  C10 UNL     1      -6.421   5.488  13.294  1.00  0.00     0.048 C 
HETATM   12  C9  UNL     1      -6.291   4.225  12.849  1.00  0.00     0.047 A 
HETATM   13  C7  UNL     1      -4.998   3.655  12.416  1.00  0.00     0.008 A 
HETATM   14  C26 UNL     1      -7.314   3.129  12.656  1.00  0.00     0.257 A 
HETATM   15  C6  UNL     1      -5.265   2.349  11.987  1.00  0.00     0.046 A 
HETATM   16  C8  UNL     1      -3.708   4.154  12.365  1.00  0.00     0.038 A 
HETATM   17  C5  UNL     1      -4.289   1.504  11.496  1.00  0.00     0.032 A 
HETATM   18  N3  UNL     1      -6.614   2.056  12.129  1.00  0.00    -0.322 N 
HETATM   19  C4  UNL     1      -2.984   1.996  11.439  1.00  0.00     0.026 A 
HETATM   20  C3  UNL     1      -2.700   3.303  11.884  1.00  0.00     0.060 A 
HETATM   21  H33 UNL     1      -7.059   1.183  11.892  1.00  0.00     0.169 HD
HETATM   22  O4  UNL     1      -8.503   3.145  12.911  1.00  0.00    -0.267 OA
BRANCH  20  23
HETATM   23  S1  UNL     1      -1.020   3.896  11.797  1.00  0.00     0.175 S 
HETATM   24  O1  UNL     1      -0.940   4.801  10.667  1.00  0.00    -0.223 OA
HETATM   25  O2  UNL     1      -0.159   2.733  11.889  1.00  0.00    -0.223 OA
BRANCH  23  26
HETATM   26  C2  UNL     1      -0.858   4.849  13.297  1.00  0.00     0.141 C 
HETATM   27  C1  UNL     1      -0.073   6.125  13.064  1.00  0.00     0.021 C 
ENDBRANCH  23  26
ENDBRANCH  20  23
ENDBRANCH   1  11
BRANCH   5  28
HETATM   28  C15 UNL     1      -6.753   7.576  15.742  1.00  0.00     0.043 C 
BRANCH  28  29
HETATM   29  C16 UNL     1      -5.959   8.770  15.208  1.00  0.00     0.035 C 
BRANCH  29  30
HETATM   30  C17 UNL     1      -4.446   8.713  15.468  1.00  0.00     0.273 C 
BRANCH  30  31
HETATM   31  N2  UNL     1      -3.618   9.589  14.625  1.00  0.00     0.092 N 
HETATM   32  C18 UNL     1      -2.599  10.303  15.431  1.00  0.00     0.298 C 
HETATM   33  C19 UNL     1      -1.230   9.606  15.441  1.00  0.00     0.198 C 
HETATM   34  O3  UNL     1      -0.653   9.465  14.135  1.00  0.00    -0.388 OA
HETATM   35  C20 UNL     1      -1.629   9.506  13.086  1.00  0.00     0.198 C 
HETATM   36  C21 UNL     1      -2.966   8.872  13.505  1.00  0.00     0.298 C 
ENDBRANCH  30  31
ENDBRANCH  29  30
ENDBRANCH  28  29
ENDBRANCH   5  28
TORSDOF 7
ENDMDL
MODEL 7
REMARK minimizedAffinity -8.95795441
REMARK  7 active torsions:
REMARK  status: ('A' for Active; 'I' for Inactive)
REMARK    1  A    between atoms: C2_2  and  S1_3 
REMARK    2  A    between atoms: S1_3  and  C3_6 
REMARK    3  A    between atoms: C10_13  and  C11_14 
REMARK    4  A    between atoms: C14_18  and  C15_19 
REMARK    5  A    between atoms: C15_19  and  C16_20 
REMARK    6  A    between atoms: C16_20  and  C17_21 
REMARK    7  A    between atoms: C17_21  and  N2_22 
ROOT
HETATM    1  C11 UNL     1      -0.775   5.538  12.407  1.00  0.00     0.040 A 
HETATM    2  N1  UNL     1       0.013   5.513  11.278  1.00  0.00    -0.359 N 
HETATM    3  C12 UNL     1       1.224   6.082  11.543  1.00  0.00     0.016 A 
HETATM    4  C13 UNL     1       1.236   6.502  12.852  1.00  0.00    -0.027 A 
HETATM    5  C14 UNL     1      -0.030   6.160  13.413  1.00  0.00    -0.023 A 
HETATM    6  C22 UNL     1       2.433   7.145  13.472  1.00  0.00     0.041 C 
HETATM    7  C23 UNL     1       3.443   7.598  12.398  1.00  0.00     0.005 C 
HETATM    8  C24 UNL     1       3.641   6.541  11.295  1.00  0.00     0.006 C 
HETATM    9  C25 UNL     1       2.327   6.227  10.555  1.00  0.00     0.057 C 
HETATM   10  H10 UNL     1      -0.249   5.112  10.383  1.00  0.00     0.166 HD
ENDROOT
BRANCH   1  11
HETATM   11  C10 UNL     1      -2.092   4.993  12.431  1.00  0.00     0.048 C 
HETATM   12  C9  UNL     1      -2.547   3.826  11.941  1.00  0.00     0.047 A 
HETATM   13  C7  UNL     1      -3.951   3.388  12.085  1.00  0.00     0.008 A 
HETATM   14  C26 UNL     1      -1.839   2.717  11.196  1.00  0.00     0.257 A 
HETATM   15  C6  UNL     1      -4.033   2.122  11.492  1.00  0.00     0.046 A 
HETATM   16  C8  UNL     1      -5.074   3.964  12.655  1.00  0.00     0.038 A 
HETATM   17  C5  UNL     1      -5.202   1.387  11.447  1.00  0.00     0.032 A 
HETATM   18  N3  UNL     1      -2.800   1.742  10.982  1.00  0.00    -0.322 N 
HETATM   19  C4  UNL     1      -6.341   1.956  12.019  1.00  0.00     0.026 A 
HETATM   20  C3  UNL     1      -6.274   3.238  12.603  1.00  0.00     0.060 A 
HETATM   21  H33 UNL     1      -2.596   0.875  10.508  1.00  0.00     0.169 HD
HETATM   22  O4  UNL     1      -0.681   2.664  10.833  1.00  0.00    -0.267 OA
BRANCH  20  23
HETATM   23  S1  UNL     1      -7.750   3.932  13.324  1.00  0.00     0.175 S 
HETATM   24  O1  UNL     1      -7.539   4.002  14.756  1.00  0.00    -0.223 OA
HETATM   25  O2  UNL     1      -8.873   3.204  12.765  1.00  0.00    -0.223 OA
BRANCH  23  26
HETATM   26  C2  UNL     1      -7.765   5.593  12.672  1.00  0.00     0.141 C 
HETATM   27  C1  UNL     1      -8.872   5.783  11.654  1.00  0.00     0.021 C 
ENDBRANCH  23  26
ENDBRANCH  20  23
ENDBRANCH   1  11
BRANCH   5  28
HETATM   28  C15 UNL     1      -0.452   6.409  14.833  1.00  0.00     0.043 C 
BRANCH  28  29
HETATM   29  C16 UNL     1      -1.968   6.559  14.966  1.00  0.00     0.035 C 
BRANCH  29  30
HETATM   30  C17 UNL     1      -2.437   7.880  15.596  1.00  0.00     0.273 C 
BRANCH  30  31
HETATM   31  N2  UNL     1      -2.528   9.029  14.681  1.00  0.00     0.092 N 
HETATM   32  C18 UNL     1      -3.873   9.652  14.734  1.00  0.00     0.298 C 
HETATM   33  C19 UNL     1      -3.952  10.852  15.689  1.00  0.00     0.198 C 
HETATM   34  O3  UNL     1      -3.053  11.915  15.344  1.00  0.00    -0.388 OA
HETATM   35  C20 UNL     1      -1.942  11.472  14.553  1.00  0.00     0.198 C 
HETATM   36  C21 UNL     1      -1.487  10.052  14.927  1.00  0.00     0.298 C 
ENDBRANCH  30  31
ENDBRANCH  29  30
ENDBRANCH  28  29
ENDBRANCH   5  28
TORSDOF 7
ENDMDL
MODEL 8
REMARK minimizedAffinity -8.94589996
REMARK  7 active torsions:
REMARK  status: ('A' for Active; 'I' for Inactive)
REMARK    1  A    between atoms: C2_2  and  S1_3 
REMARK    2  A    between atoms: S1_3  and  C3_6 
REMARK    3  A    between atoms: C10_13  and  C11_14 
REMARK    4  A    between atoms: C14_18  and  C15_19 
REMARK    5  A    between atoms: C15_19  and  C16_20 
REMARK    6  A    between atoms: C16_20  and  C17_21 
REMARK    7  A    between atoms: C17_21  and  N2_22 
ROOT
HETATM    1  C11 UNL     1      -0.739   5.450  12.134  1.00  0.00     0.040 A 
HETATM    2  N1  UNL     1       0.018   5.432  10.984  1.00  0.00    -0.359 N 
HETATM    3  C12 UNL     1       1.245   5.976  11.226  1.00  0.00     0.016 A 
HETATM    4  C13 UNL     1       1.299   6.372  12.542  1.00  0.00    -0.027 A 
HETATM    5  C14 UNL     1       0.042   6.042  13.130  1.00  0.00    -0.023 A 
HETATM    6  C22 UNL     1       2.523   6.984  13.140  1.00  0.00     0.041 C 
HETATM    7  C23 UNL     1       3.512   7.439  12.048  1.00  0.00     0.005 C 
HETATM    8  C24 UNL     1       3.662   6.399  10.922  1.00  0.00     0.006 C 
HETATM    9  C25 UNL     1       2.324   6.120  10.212  1.00  0.00     0.057 C 
HETATM   10  H10 UNL     1      -0.275   5.052  10.090  1.00  0.00     0.166 HD
ENDROOT
BRANCH   1  11
HETATM   11  C10 UNL     1      -2.064   4.928  12.184  1.00  0.00     0.048 C 
HETATM   12  C9  UNL     1      -2.529   3.727  11.793  1.00  0.00     0.047 A 
HETATM   13  C7  UNL     1      -3.941   3.323  11.951  1.00  0.00     0.008 A 
HETATM   14  C26 UNL     1      -1.826   2.547  11.162  1.00  0.00     0.257 A 
HETATM   15  C6  UNL     1      -4.033   2.010  11.473  1.00  0.00     0.046 A 
HETATM   16  C8  UNL     1      -5.064   3.963  12.448  1.00  0.00     0.038 A 
HETATM   17  C5  UNL     1      -5.212   1.290  11.472  1.00  0.00     0.032 A 
HETATM   18  N3  UNL     1      -2.797   1.569  11.020  1.00  0.00    -0.322 N 
HETATM   19  C4  UNL     1      -6.351   1.923  11.972  1.00  0.00     0.026 A 
HETATM   20  C3  UNL     1      -6.274   3.251  12.440  1.00  0.00     0.060 A 
HETATM   21  H33 UNL     1      -2.598   0.661  10.629  1.00  0.00     0.169 HD
HETATM   22  O4  UNL     1      -0.662   2.446  10.826  1.00  0.00    -0.267 OA
BRANCH  20  23
HETATM   23  S1  UNL     1      -7.751   4.027  13.070  1.00  0.00     0.175 S 
HETATM   24  O1  UNL     1      -8.841   3.087  12.895  1.00  0.00    -0.223 OA
HETATM   25  O2  UNL     1      -7.807   5.356  12.493  1.00  0.00    -0.223 OA
BRANCH  23  26
HETATM   26  C2  UNL     1      -7.408   4.175  14.814  1.00  0.00     0.141 C 
HETATM   27  C1  UNL     1      -7.971   5.462  15.386  1.00  0.00     0.021 C 
ENDBRANCH  23  26
ENDBRANCH  20  23
ENDBRANCH   1  11
BRANCH   5  28
HETATM   28  C15 UNL     1      -0.337   6.273  14.565  1.00  0.00     0.043 C 
BRANCH  28  29
HETATM   29  C16 UNL     1      -0.942   7.660  14.785  1.00  0.00     0.035 C 
BRANCH  29  30
HETATM   30  C17 UNL     1      -1.941   7.756  15.949  1.00  0.00     0.273 C 
BRANCH  30  31
HETATM   31  N2  UNL     1      -3.345   7.985  15.570  1.00  0.00     0.092 N 
HETATM   32  C18 UNL     1      -3.474   9.160  14.673  1.00  0.00     0.298 C 
HETATM   33  C19 UNL     1      -3.497   8.789  13.183  1.00  0.00     0.198 C 
HETATM   34  O3  UNL     1      -4.581   7.919  12.828  1.00  0.00    -0.388 OA
HETATM   35  C20 UNL     1      -5.085   7.173  13.944  1.00  0.00     0.198 C 
HETATM   36  C21 UNL     1      -3.979   6.802  14.948  1.00  0.00     0.298 C 
ENDBRANCH  30  31
ENDBRANCH  29  30
ENDBRANCH  28  29
ENDBRANCH   5  28
TORSDOF 7
ENDMDL
MODEL 9
REMARK minimizedAffinity -8.65967464
REMARK  7 active torsions:
REMARK  status: ('A' for Active; 'I' for Inactive)
REMARK    1  A    between atoms: C2_2  and  S1_3 
REMARK    2  A    between atoms: S1_3  and  C3_6 
REMARK    3  A    between atoms: C10_13  and  C11_14 
REMARK    4  A    between atoms: C14_18  and  C15_19 
REMARK    5  A    between atoms: C15_19  and  C16_20 
REMARK    6  A    between atoms: C16_20  and  C17_21 
REMARK    7  A    between atoms: C17_21  and  N2_22 
ROOT
HETATM    1  C11 UNL     1      -6.817   5.128  12.991  1.00  0.00     0.040 A 
HETATM    2  N1  UNL     1      -7.033   3.946  12.320  1.00  0.00    -0.359 N 
HETATM    3  C12 UNL     1      -5.849   3.296  12.128  1.00  0.00     0.016 A 
HETATM    4  C13 UNL     1      -4.837   4.059  12.662  1.00  0.00    -0.027 A 
HETATM    5  C14 UNL     1      -5.441   5.227  13.215  1.00  0.00    -0.023 A 
HETATM    6  C22 UNL     1      -3.411   3.616  12.644  1.00  0.00     0.041 C 
HETATM    7  C23 UNL     1      -3.200   2.448  11.659  1.00  0.00     0.005 C 
HETATM    8  C24 UNL     1      -4.317   1.391  11.754  1.00  0.00     0.006 C 
HETATM    9  C25 UNL     1      -5.702   1.986  11.438  1.00  0.00     0.057 C 
HETATM   10  H10 UNL     1      -7.937   3.589  12.028  1.00  0.00     0.166 HD
ENDROOT
BRANCH   1  11
HETATM   11  C10 UNL     1      -7.879   6.009  13.346  1.00  0.00     0.048 C 
HETATM   12  C9  UNL     1      -8.214   6.509  14.550  1.00  0.00     0.047 A 
HETATM   13  C7  UNL     1      -9.335   7.451  14.743  1.00  0.00     0.008 A 
HETATM   14  C26 UNL     1      -7.605   6.300  15.917  1.00  0.00     0.257 A 
HETATM   15  C6  UNL     1      -9.350   7.775  16.105  1.00  0.00     0.046 A 
HETATM   16  C8  UNL     1     -10.268   8.011  13.885  1.00  0.00     0.038 A 
HETATM   17  C5  UNL     1     -10.263   8.651  16.661  1.00  0.00     0.032 A 
HETATM   18  N3  UNL     1      -8.338   7.103  16.776  1.00  0.00    -0.322 N 
HETATM   19  C4  UNL     1     -11.207   9.222  15.807  1.00  0.00     0.026 A 
HETATM   20  C3  UNL     1     -11.213   8.890  14.436  1.00  0.00     0.060 A 
HETATM   21  H33 UNL     1      -8.138   7.165  17.763  1.00  0.00     0.169 HD
HETATM   22  O4  UNL     1      -6.679   5.580  16.235  1.00  0.00    -0.267 OA
BRANCH  20  23
HETATM   23  S1  UNL     1     -12.436   9.639  13.376  1.00  0.00     0.175 S 
HETATM   24  O1  UNL     1     -12.039   9.375  12.006  1.00  0.00    -0.223 OA
HETATM   25  O2  UNL     1     -12.631  10.994  13.852  1.00  0.00    -0.223 OA
BRANCH  23  26
HETATM   26  C2  UNL     1     -13.904   8.690  13.732  1.00  0.00     0.141 C 
HETATM   27  C1  UNL     1     -13.813   7.287  13.165  1.00  0.00     0.021 C 
ENDBRANCH  23  26
ENDBRANCH  20  23
ENDBRANCH   1  11
BRANCH   5  28
HETATM   28  C15 UNL     1      -4.713   6.332  13.926  1.00  0.00     0.043 C 
BRANCH  28  29
HETATM   29  C16 UNL     1      -4.914   7.686  13.244  1.00  0.00     0.035 C 
BRANCH  29  30
HETATM   30  C17 UNL     1      -4.046   8.827  13.797  1.00  0.00     0.273 C 
BRANCH  30  31
HETATM   31  N2  UNL     1      -4.083   9.009  15.257  1.00  0.00     0.092 N 
HETATM   32  C18 UNL     1      -2.843   8.502  15.893  1.00  0.00     0.298 C 
HETATM   33  C19 UNL     1      -1.790   9.594  16.134  1.00  0.00     0.198 C 
HETATM   34  O3  UNL     1      -2.251  10.651  16.988  1.00  0.00    -0.388 OA
HETATM   35  C20 UNL     1      -3.680  10.763  17.016  1.00  0.00     0.198 C 
HETATM   36  C21 UNL     1      -4.321  10.413  15.662  1.00  0.00     0.298 C 
ENDBRANCH  30  31
ENDBRANCH  29  30
ENDBRANCH  28  29
ENDBRANCH   5  28
TORSDOF 7
ENDMDL
