MODEL 1
REMARK minimizedAffinity -10.1891298
REMARK CNNscore 0.236191496
REMARK CNNaffinity 7.79595995
REMARK  6 active torsions:
REMARK  status: ('A' for Active; 'I' for Inactive)
REMARK    1  A    between atoms: C2_2  and  C3_3 
REMARK       I    between atoms: C3_3  and  N1_5 
REMARK    2  A    between atoms: C7_9  and  C8_10 
REMARK    3  A    between atoms: C13_17  and  C14_18 
REMARK       I    between atoms: C14_18  and  N3_20 
REMARK    4  A    between atoms: N3_20  and  C15_21 
REMARK    5  A    between atoms: C17_23  and  C18_24 
REMARK    6  A    between atoms: C24_36  and  N5_37 
ROOT
HETATM    1  C8  UNL     1      -4.099   4.419  12.391  1.00  0.00     0.094 A 
HETATM    2  N2  UNL     1      -4.773   5.294  13.116  1.00  0.00    -0.342 N 
ATOM      3  H2  UNL     1      -4.419   6.166  13.509  1.00  0.00     0.167 HD
HETATM    4  C9  UNL     1      -6.046   4.794  13.234  1.00  0.00     0.077 A 
HETATM    5  C10 UNL     1      -7.078   5.517  13.931  1.00  0.00     0.032 A 
HETATM    6  C11 UNL     1      -7.026   5.625  15.325  1.00  0.00     0.018 A 
HETATM    7  C12 UNL     1      -7.986   6.378  16.010  1.00  0.00     0.018 A 
HETATM    8  C13 UNL     1      -8.993   7.055  15.302  1.00  0.00     0.035 A 
HETATM    9  C21 UNL     1      -9.053   6.928  13.907  1.00  0.00     0.060 A 
HETATM   10  C22 UNL     1      -8.099   6.167  13.236  1.00  0.00     0.130 A 
HETATM   11  F4  UNL     1      -8.178   6.081  11.900  1.00  0.00    -0.205 F 
HETATM   12  C23 UNL     1      -6.137   3.553  12.647  1.00  0.00     0.106 A 
HETATM   13  C24 UNL     1      -7.167   2.553  12.499  1.00  0.00     0.107 A 
HETATM   14  N6  UNL     1      -6.905   1.433  11.865  1.00  0.00    -0.354 N 
ATOM     15  H6  UNL     1      -7.625   0.717  11.761  1.00  0.00     0.166 HD
HETATM   16  C25 UNL     1      -5.645   1.237  11.342  1.00  0.00     0.107 A 
HETATM   17  C26 UNL     1      -4.644   2.125  11.447  1.00  0.00     0.116 A 
HETATM   18  N7  UNL     1      -4.887   3.316  12.109  1.00  0.00    -0.305 N 
ENDROOT
BRANCH   1  19
HETATM   19  C7  UNL     1      -2.674   4.635  11.964  1.00  0.00     0.072 C 
HETATM   20  C6  UNL     1      -1.783   3.400  12.139  1.00  0.00     0.015 C 
HETATM   21  C5  UNL     1      -0.341   3.646  11.678  1.00  0.00     0.021 C 
HETATM   22  C4  UNL     1      -0.028   5.115  11.400  1.00  0.00     0.126 C 
HETATM   23  N1  UNL     1      -0.604   5.976  12.432  1.00  0.00    -0.351 N 
HETATM   24  C3  UNL     1       0.229   6.885  13.099  1.00  0.00     0.232 C 
HETATM   25  C27 UNL     1      -2.058   5.893  12.598  1.00  0.00     0.138 C 
HETATM   26  O1  UNL     1       1.453   6.870  12.894  1.00  0.00    -0.272 OA
BRANCH  24  27
HETATM   27  C2  UNL     1      -0.387   7.883  14.122  1.00  0.00     0.080 C 
HETATM   28  C1  UNL     1      -1.262   8.949  13.453  1.00  0.00     0.030 C 
HETATM   29  C28 UNL     1      -1.174   7.205  15.277  1.00  0.00     0.188 C 
HETATM   30  O3  UNL     1      -0.533   8.061  16.258  1.00  0.00    -0.389 OA
HETATM   31  C29 UNL     1       0.489   8.393  15.287  1.00  0.00     0.188 C 
ENDBRANCH  24  27
ENDBRANCH   1  19
BRANCH  13  32
HETATM   32  N5  UNL     1      -8.429   2.670  13.001  1.00  0.00    -0.287 NA
HETATM   33  H18 UNL     1      -8.529   3.188  13.864  1.00  0.00     0.125 HD
HETATM   34  H19 UNL     1      -8.918   1.782  13.001  1.00  0.00     0.125 HD
ENDBRANCH  13  32
BRANCH   8  35
HETATM   35  C14 UNL     1     -10.022   7.905  15.973  1.00  0.00     0.257 C 
HETATM   36  O2  UNL     1      -9.737   8.428  17.045  1.00  0.00    -0.267 OA
HETATM   37  N3  UNL     1     -11.234   7.995  15.333  1.00  0.00    -0.309 N 
HETATM   38  H13 UNL     1     -11.426   7.446  14.508  1.00  0.00     0.170 HD
BRANCH  37  39
HETATM   39  C15 UNL     1     -12.351   8.748  15.700  1.00  0.00     0.108 A 
HETATM   40  C16 UNL     1     -12.448  10.125  15.575  1.00  0.00     0.064 A 
HETATM   41  C17 UNL     1     -13.631  10.767  15.971  1.00  0.00     0.052 A 
HETATM   42  C19 UNL     1     -14.672   9.991  16.484  1.00  0.00     0.033 A 
HETATM   43  C20 UNL     1     -14.487   8.624  16.574  1.00  0.00     0.090 A 
HETATM   44  N4  UNL     1     -13.355   7.992  16.193  1.00  0.00    -0.352 N 
ATOM     45  H4  UNL     1     -13.263   6.980  16.275  1.00  0.00     0.166 HD
BRANCH  41  46
HETATM   46  C18 UNL     1     -13.748  12.265  15.868  1.00  0.00     0.417 C 
HETATM   47  F1  UNL     1     -14.503  12.651  14.804  1.00  0.00    -0.166 F 
HETATM   48  F2  UNL     1     -12.545  12.886  15.717  1.00  0.00    -0.166 F 
HETATM   49  F3  UNL     1     -14.320  12.830  16.965  1.00  0.00    -0.166 F 
ENDBRANCH  41  46
ENDBRANCH  37  39
ENDBRANCH   8  35
TORSDOF 6
ENDMDL
MODEL 2
REMARK minimizedAffinity -10.6801844
REMARK CNNscore 0.196671739
REMARK CNNaffinity 7.4319129
REMARK  6 active torsions:
REMARK  status: ('A' for Active; 'I' for Inactive)
REMARK    1  A    between atoms: C2_2  and  C3_3 
REMARK       I    between atoms: C3_3  and  N1_5 
REMARK    2  A    between atoms: C7_9  and  C8_10 
REMARK    3  A    between atoms: C13_17  and  C14_18 
REMARK       I    between atoms: C14_18  and  N3_20 
REMARK    4  A    between atoms: N3_20  and  C15_21 
REMARK    5  A    between atoms: C17_23  and  C18_24 
REMARK    6  A    between atoms: C24_36  and  N5_37 
ROOT
HETATM    1  C8  UNL     1      -4.203   4.473  12.429  1.00  0.00     0.094 A 
HETATM    2  N2  UNL     1      -4.928   5.342  13.112  1.00  0.00    -0.342 N 
ATOM      3  H2  UNL     1      -4.611   6.228  13.505  1.00  0.00     0.167 HD
HETATM    4  C9  UNL     1      -6.191   4.812  13.187  1.00  0.00     0.077 A 
HETATM    5  C10 UNL     1      -7.269   5.520  13.830  1.00  0.00     0.032 A 
HETATM    6  C11 UNL     1      -7.276   5.651  15.223  1.00  0.00     0.018 A 
HETATM    7  C12 UNL     1      -8.281   6.390  15.857  1.00  0.00     0.018 A 
HETATM    8  C13 UNL     1      -9.274   7.031  15.097  1.00  0.00     0.035 A 
HETATM    9  C21 UNL     1      -9.275   6.881  13.703  1.00  0.00     0.060 A 
HETATM   10  C22 UNL     1      -8.277   6.133  13.084  1.00  0.00     0.130 A 
HETATM   11  F4  UNL     1      -8.299   6.024  11.747  1.00  0.00    -0.205 F 
HETATM   12  C23 UNL     1      -6.229   3.560  12.618  1.00  0.00     0.106 A 
HETATM   13  C24 UNL     1      -7.227   2.533  12.445  1.00  0.00     0.107 A 
HETATM   14  N6  UNL     1      -6.913   1.409  11.842  1.00  0.00    -0.354 N 
ATOM     15  H6  UNL     1      -7.610   0.674  11.721  1.00  0.00     0.166 HD
HETATM   16  C25 UNL     1      -5.628   1.237  11.374  1.00  0.00     0.107 A 
HETATM   17  C26 UNL     1      -4.654   2.151  11.503  1.00  0.00     0.116 A 
HETATM   18  N7  UNL     1      -4.953   3.346  12.135  1.00  0.00    -0.305 N 
ENDROOT
BRANCH   1  19
HETATM   19  C7  UNL     1      -2.769   4.718  12.057  1.00  0.00     0.072 C 
HETATM   20  C6  UNL     1      -1.919   3.442  12.000  1.00  0.00     0.015 C 
HETATM   21  C5  UNL     1      -0.465   3.723  11.599  1.00  0.00     0.021 C 
HETATM   22  C4  UNL     1      -0.103   5.206  11.604  1.00  0.00     0.126 C 
HETATM   23  N1  UNL     1      -0.661   5.876  12.777  1.00  0.00    -0.351 N 
HETATM   24  C3  UNL     1       0.193   6.616  13.607  1.00  0.00     0.232 C 
HETATM   25  C27 UNL     1      -2.119   5.813  12.919  1.00  0.00     0.138 C 
HETATM   26  O1  UNL     1       1.418   6.600  13.407  1.00  0.00    -0.272 OA
BRANCH  24  27
HETATM   27  C2  UNL     1      -0.401   7.424  14.796  1.00  0.00     0.080 C 
HETATM   28  C1  UNL     1       0.598   7.604  15.945  1.00  0.00     0.030 C 
HETATM   29  C28 UNL     1      -0.995   8.802  14.395  1.00  0.00     0.188 C 
HETATM   30  O3  UNL     1      -2.180   8.559  15.199  1.00  0.00    -0.389 OA
HETATM   31  C29 UNL     1      -1.856   7.148  15.233  1.00  0.00     0.188 C 
ENDBRANCH  24  27
ENDBRANCH   1  19
BRANCH  13  32
HETATM   32  N5  UNL     1      -8.511   2.626  12.895  1.00  0.00    -0.287 NA
HETATM   33  H18 UNL     1      -8.659   3.155  13.744  1.00  0.00     0.125 HD
HETATM   34  H19 UNL     1      -8.977   1.726  12.890  1.00  0.00     0.125 HD
ENDBRANCH  13  32
BRANCH   8  35
HETATM   35  C14 UNL     1     -10.351   7.865  15.711  1.00  0.00     0.257 C 
HETATM   36  O2  UNL     1     -11.424   7.956  15.124  1.00  0.00    -0.267 OA
HETATM   37  N3  UNL     1     -10.022   8.498  16.885  1.00  0.00    -0.309 N 
HETATM   38  H13 UNL     1      -9.081   8.459  17.248  1.00  0.00     0.170 HD
BRANCH  37  39
HETATM   39  C15 UNL     1     -10.836   9.292  17.696  1.00  0.00     0.108 A 
HETATM   40  C16 UNL     1     -10.941   9.164  19.072  1.00  0.00     0.064 A 
HETATM   41  C17 UNL     1     -11.787  10.032  19.778  1.00  0.00     0.052 A 
HETATM   42  C19 UNL     1     -12.501  10.996  19.063  1.00  0.00     0.033 A 
HETATM   43  C20 UNL     1     -12.335  11.050  17.692  1.00  0.00     0.090 A 
HETATM   44  N4  UNL     1     -11.521  10.224  17.000  1.00  0.00    -0.352 N 
ATOM     45  H4  UNL     1     -11.427  10.301  15.987  1.00  0.00     0.166 HD
BRANCH  41  46
HETATM   46  C18 UNL     1     -11.936   9.893  21.270  1.00  0.00     0.417 C 
HETATM   47  F1  UNL     1     -10.760  10.088  21.926  1.00  0.00    -0.166 F 
HETATM   48  F2  UNL     1     -12.377   8.661  21.651  1.00  0.00    -0.166 F 
HETATM   49  F3  UNL     1     -12.820  10.782  21.801  1.00  0.00    -0.166 F 
ENDBRANCH  41  46
ENDBRANCH  37  39
ENDBRANCH   8  35
TORSDOF 6
ENDMDL
MODEL 3
REMARK minimizedAffinity -10.2718716
REMARK CNNscore 0.163144365
REMARK CNNaffinity 7.88139725
REMARK  6 active torsions:
REMARK  status: ('A' for Active; 'I' for Inactive)
REMARK    1  A    between atoms: C2_2  and  C3_3 
REMARK       I    between atoms: C3_3  and  N1_5 
REMARK    2  A    between atoms: C7_9  and  C8_10 
REMARK    3  A    between atoms: C13_17  and  C14_18 
REMARK       I    between atoms: C14_18  and  N3_20 
REMARK    4  A    between atoms: N3_20  and  C15_21 
REMARK    5  A    between atoms: C17_23  and  C18_24 
REMARK    6  A    between atoms: C24_36  and  N5_37 
ROOT
HETATM    1  C8  UNL     1      -4.357   4.701  12.424  1.00  0.00     0.094 A 
HETATM    2  N2  UNL     1      -5.231   5.508  13.000  1.00  0.00    -0.342 N 
ATOM      3  H2  UNL     1      -5.051   6.441  13.371  1.00  0.00     0.167 HD
HETATM    4  C9  UNL     1      -6.429   4.839  12.997  1.00  0.00     0.077 A 
HETATM    5  C10 UNL     1      -7.631   5.444  13.513  1.00  0.00     0.032 A 
HETATM    6  C11 UNL     1      -7.774   5.631  14.891  1.00  0.00     0.018 A 
HETATM    7  C12 UNL     1      -8.907   6.274  15.402  1.00  0.00     0.018 A 
HETATM    8  C13 UNL     1      -9.895   6.765  14.532  1.00  0.00     0.035 A 
HETATM    9  C21 UNL     1      -9.757   6.558  13.153  1.00  0.00     0.060 A 
HETATM   10  C22 UNL     1      -8.632   5.906  12.655  1.00  0.00     0.130 A 
HETATM   11  F4  UNL     1      -8.524   5.741  11.329  1.00  0.00    -0.205 F 
HETATM   12  C23 UNL     1      -6.277   3.570  12.491  1.00  0.00     0.106 A 
HETATM   13  C24 UNL     1      -7.135   2.428  12.289  1.00  0.00     0.107 A 
HETATM   14  N6  UNL     1      -6.646   1.324  11.771  1.00  0.00    -0.354 N 
ATOM     15  H6  UNL     1      -7.244   0.509  11.631  1.00  0.00     0.166 HD
HETATM   16  C25 UNL     1      -5.314   1.282  11.419  1.00  0.00     0.107 A 
HETATM   17  C26 UNL     1      -4.464   2.307  11.582  1.00  0.00     0.116 A 
HETATM   18  N7  UNL     1      -4.948   3.484  12.126  1.00  0.00    -0.305 N 
ENDROOT
BRANCH   1  19
HETATM   19  C7  UNL     1      -2.932   5.095  12.158  1.00  0.00     0.072 C 
HETATM   20  C6  UNL     1      -1.922   3.971  12.421  1.00  0.00     0.015 C 
HETATM   21  C5  UNL     1      -0.479   4.397  12.125  1.00  0.00     0.021 C 
HETATM   22  C4  UNL     1      -0.318   5.898  11.894  1.00  0.00     0.126 C 
HETATM   23  N1  UNL     1      -1.101   6.663  12.862  1.00  0.00    -0.351 N 
HETATM   24  C3  UNL     1      -0.463   7.651  13.623  1.00  0.00     0.232 C 
HETATM   25  C27 UNL     1      -2.544   6.404  12.866  1.00  0.00     0.138 C 
HETATM   26  O1  UNL     1       0.769   7.787  13.555  1.00  0.00    -0.272 OA
BRANCH  24  27
HETATM   27  C2  UNL     1      -1.302   8.547  14.579  1.00  0.00     0.080 C 
HETATM   28  C1  UNL     1      -2.171   9.561  13.826  1.00  0.00     0.030 C 
HETATM   29  C28 UNL     1      -2.175   7.754  15.590  1.00  0.00     0.188 C 
HETATM   30  O3  UNL     1      -1.756   8.620  16.678  1.00  0.00    -0.389 OA
HETATM   31  C29 UNL     1      -0.645   9.080  15.871  1.00  0.00     0.188 C 
ENDBRANCH  24  27
ENDBRANCH   1  19
BRANCH  13  32
HETATM   32  N5  UNL     1      -8.457   2.390  12.626  1.00  0.00    -0.287 NA
HETATM   33  H18 UNL     1      -8.736   2.933  13.432  1.00  0.00     0.125 HD
HETATM   34  H19 UNL     1      -8.817   1.443  12.629  1.00  0.00     0.125 HD
ENDBRANCH  13  32
BRANCH   8  35
HETATM   35  C14 UNL     1     -11.108   7.493  15.013  1.00  0.00     0.257 C 
HETATM   36  O2  UNL     1     -10.952   8.557  15.605  1.00  0.00    -0.267 OA
HETATM   37  N3  UNL     1     -12.311   6.876  14.777  1.00  0.00    -0.309 N 
HETATM   38  H13 UNL     1     -12.348   5.949  14.380  1.00  0.00     0.170 HD
BRANCH  37  39
HETATM   39  C15 UNL     1     -13.594   7.343  15.069  1.00  0.00     0.108 A 
HETATM   40  C16 UNL     1     -14.606   7.501  14.134  1.00  0.00     0.064 A 
HETATM   41  C17 UNL     1     -15.859   7.970  14.555  1.00  0.00     0.052 A 
HETATM   42  C19 UNL     1     -16.041   8.267  15.907  1.00  0.00     0.033 A 
HETATM   43  C20 UNL     1     -14.976   8.080  16.768  1.00  0.00     0.090 A 
HETATM   44  N4  UNL     1     -13.765   7.626  16.377  1.00  0.00    -0.352 N 
ATOM     45  H4  UNL     1     -13.007   7.500  17.048  1.00  0.00     0.166 HD
BRANCH  41  46
HETATM   46  C18 UNL     1     -16.965   8.174  13.553  1.00  0.00     0.417 C 
HETATM   47  F1  UNL     1     -17.204   7.057  12.814  1.00  0.00    -0.166 F 
HETATM   48  F2  UNL     1     -16.697   9.164  12.656  1.00  0.00    -0.166 F 
HETATM   49  F3  UNL     1     -18.150   8.509  14.130  1.00  0.00    -0.166 F 
ENDBRANCH  41  46
ENDBRANCH  37  39
ENDBRANCH   8  35
TORSDOF 6
ENDMDL
MODEL 4
REMARK minimizedAffinity -9.46723461
REMARK CNNscore 0.144667789
REMARK CNNaffinity 7.03175116
REMARK  6 active torsions:
REMARK  status: ('A' for Active; 'I' for Inactive)
REMARK    1  A    between atoms: C2_2  and  C3_3 
REMARK       I    between atoms: C3_3  and  N1_5 
REMARK    2  A    between atoms: C7_9  and  C8_10 
REMARK    3  A    between atoms: C13_17  and  C14_18 
REMARK       I    between atoms: C14_18  and  N3_20 
REMARK    4  A    between atoms: N3_20  and  C15_21 
REMARK    5  A    between atoms: C17_23  and  C18_24 
REMARK    6  A    between atoms: C24_36  and  N5_37 
ROOT
HETATM    1  C8  UNL     1      -8.325   5.546  13.237  1.00  0.00     0.094 A 
HETATM    2  N2  UNL     1      -9.407   6.068  12.685  1.00  0.00    -0.342 N 
ATOM      3  H2  UNL     1      -9.739   5.921  11.732  1.00  0.00     0.167 HD
HETATM    4  C9  UNL     1      -9.992   6.847  13.651  1.00  0.00     0.077 A 
HETATM    5  C10 UNL     1     -11.232   7.541  13.410  1.00  0.00     0.032 A 
HETATM    6  C11 UNL     1     -11.251   8.646  12.553  1.00  0.00     0.018 A 
HETATM    7  C12 UNL     1     -12.457   9.291  12.260  1.00  0.00     0.018 A 
HETATM    8  C13 UNL     1     -13.664   8.815  12.801  1.00  0.00     0.035 A 
HETATM    9  C21 UNL     1     -13.637   7.720  13.676  1.00  0.00     0.060 A 
HETATM   10  C22 UNL     1     -12.429   7.093  13.970  1.00  0.00     0.130 A 
HETATM   11  F4  UNL     1     -12.444   6.038  14.797  1.00  0.00    -0.205 F 
HETATM   12  C23 UNL     1      -9.218   6.877  14.787  1.00  0.00     0.106 A 
HETATM   13  C24 UNL     1      -9.288   7.537  16.069  1.00  0.00     0.107 A 
HETATM   14  N6  UNL     1      -8.338   7.345  16.956  1.00  0.00    -0.354 N 
ATOM     15  H6  UNL     1      -8.376   7.813  17.862  1.00  0.00     0.166 HD
HETATM   16  C25 UNL     1      -7.292   6.504  16.647  1.00  0.00     0.107 A 
HETATM   17  C26 UNL     1      -7.167   5.863  15.475  1.00  0.00     0.116 A 
HETATM   18  N7  UNL     1      -8.150   6.043  14.518  1.00  0.00    -0.305 N 
ENDROOT
BRANCH   1  19
HETATM   19  C7  UNL     1      -7.439   4.562  12.528  1.00  0.00     0.072 C 
HETATM   20  C6  UNL     1      -7.643   3.111  12.980  1.00  0.00     0.015 C 
HETATM   21  C5  UNL     1      -6.737   2.128  12.226  1.00  0.00     0.021 C 
HETATM   22  C4  UNL     1      -5.652   2.809  11.395  1.00  0.00     0.126 C 
HETATM   23  N1  UNL     1      -5.045   3.915  12.133  1.00  0.00    -0.351 N 
HETATM   24  C3  UNL     1      -3.652   3.949  12.281  1.00  0.00     0.232 C 
HETATM   25  C27 UNL     1      -5.959   4.979  12.559  1.00  0.00     0.138 C 
HETATM   26  O1  UNL     1      -2.964   2.992  11.892  1.00  0.00    -0.272 OA
BRANCH  24  27
HETATM   27  C2  UNL     1      -2.981   5.173  12.969  1.00  0.00     0.080 C 
HETATM   28  C1  UNL     1      -1.678   5.595  12.281  1.00  0.00     0.030 C 
HETATM   29  C28 UNL     1      -3.916   6.404  13.126  1.00  0.00     0.188 C 
HETATM   30  O3  UNL     1      -3.486   6.592  14.500  1.00  0.00    -0.389 OA
HETATM   31  C29 UNL     1      -2.960   5.243  14.511  1.00  0.00     0.188 C 
ENDBRANCH  24  27
ENDBRANCH   1  19
BRANCH  13  32
HETATM   32  N5  UNL     1     -10.283   8.393  16.439  1.00  0.00    -0.287 NA
HETATM   33  H18 UNL     1     -10.700   8.950  15.705  1.00  0.00     0.125 HD
HETATM   34  H19 UNL     1     -10.032   8.927  17.263  1.00  0.00     0.125 HD
ENDBRANCH  13  32
BRANCH   8  35
HETATM   35  C14 UNL     1     -14.988   9.437  12.496  1.00  0.00     0.257 C 
HETATM   36  O2  UNL     1     -15.861   8.732  12.000  1.00  0.00    -0.267 OA
HETATM   37  N3  UNL     1     -15.098  10.778  12.770  1.00  0.00    -0.309 N 
HETATM   38  H13 UNL     1     -14.297  11.311  13.076  1.00  0.00     0.170 HD
BRANCH  37  39
HETATM   39  C15 UNL     1     -16.219  11.599  12.633  1.00  0.00     0.108 A 
HETATM   40  C16 UNL     1     -16.701  12.445  13.619  1.00  0.00     0.064 A 
HETATM   41  C17 UNL     1     -17.833  13.229  13.355  1.00  0.00     0.052 A 
HETATM   42  C19 UNL     1     -18.440  13.125  12.103  1.00  0.00     0.033 A 
HETATM   43  C20 UNL     1     -17.892  12.254  11.180  1.00  0.00     0.090 A 
HETATM   44  N4  UNL     1     -16.800  11.495  11.419  1.00  0.00    -0.352 N 
ATOM     45  H4  UNL     1     -16.428  10.867  10.707  1.00  0.00     0.166 HD
BRANCH  41  46
HETATM   46  C18 UNL     1     -18.388  14.136  14.422  1.00  0.00     0.417 C 
HETATM   47  F1  UNL     1     -19.437  13.575  15.082  1.00  0.00    -0.166 F 
HETATM   48  F2  UNL     1     -18.848  15.321  13.930  1.00  0.00    -0.166 F 
HETATM   49  F3  UNL     1     -17.471  14.462  15.372  1.00  0.00    -0.166 F 
ENDBRANCH  41  46
ENDBRANCH  37  39
ENDBRANCH   8  35
TORSDOF 6
ENDMDL
MODEL 5
REMARK minimizedAffinity -10.1301928
REMARK CNNscore 0.114741504
REMARK CNNaffinity 7.02818441
REMARK  6 active torsions:
REMARK  status: ('A' for Active; 'I' for Inactive)
REMARK    1  A    between atoms: C2_2  and  C3_3 
REMARK       I    between atoms: C3_3  and  N1_5 
REMARK    2  A    between atoms: C7_9  and  C8_10 
REMARK    3  A    between atoms: C13_17  and  C14_18 
REMARK       I    between atoms: C14_18  and  N3_20 
REMARK    4  A    between atoms: N3_20  and  C15_21 
REMARK    5  A    between atoms: C17_23  and  C18_24 
REMARK    6  A    between atoms: C24_36  and  N5_37 
ROOT
HETATM    1  C8  UNL     1      -8.320   5.532  13.244  1.00  0.00     0.094 A 
HETATM    2  N2  UNL     1      -9.403   6.039  12.682  1.00  0.00    -0.342 N 
ATOM      3  H2  UNL     1      -9.727   5.884  11.727  1.00  0.00     0.167 HD
HETATM    4  C9  UNL     1     -10.003   6.816  13.640  1.00  0.00     0.077 A 
HETATM    5  C10 UNL     1     -11.249   7.495  13.388  1.00  0.00     0.032 A 
HETATM    6  C11 UNL     1     -11.274   8.596  12.526  1.00  0.00     0.018 A 
HETATM    7  C12 UNL     1     -12.485   9.227  12.222  1.00  0.00     0.018 A 
HETATM    8  C13 UNL     1     -13.690   8.740  12.756  1.00  0.00     0.035 A 
HETATM    9  C21 UNL     1     -13.658   7.649  13.635  1.00  0.00     0.060 A 
HETATM   10  C22 UNL     1     -12.446   7.036  13.941  1.00  0.00     0.130 A 
HETATM   11  F4  UNL     1     -12.455   5.985  14.772  1.00  0.00    -0.205 F 
HETATM   12  C23 UNL     1      -9.238   6.859  14.782  1.00  0.00     0.106 A 
HETATM   13  C24 UNL     1      -9.325   7.523  16.060  1.00  0.00     0.107 A 
HETATM   14  N6  UNL     1      -8.380   7.346  16.956  1.00  0.00    -0.354 N 
ATOM     15  H6  UNL     1      -8.428   7.817  17.859  1.00  0.00     0.166 HD
HETATM   16  C25 UNL     1      -7.321   6.515  16.657  1.00  0.00     0.107 A 
HETATM   17  C26 UNL     1      -7.181   5.870  15.489  1.00  0.00     0.116 A 
HETATM   18  N7  UNL     1      -8.159   6.036  14.524  1.00  0.00    -0.305 N 
ENDROOT
BRANCH   1  19
HETATM   19  C7  UNL     1      -7.417   4.554  12.546  1.00  0.00     0.072 C 
HETATM   20  C6  UNL     1      -7.615   3.102  12.995  1.00  0.00     0.015 C 
HETATM   21  C5  UNL     1      -6.693   2.127  12.252  1.00  0.00     0.021 C 
HETATM   22  C4  UNL     1      -5.604   2.816  11.433  1.00  0.00     0.126 C 
HETATM   23  N1  UNL     1      -5.014   3.927  12.178  1.00  0.00    -0.351 N 
HETATM   24  C3  UNL     1      -3.623   3.971  12.343  1.00  0.00     0.232 C 
HETATM   25  C27 UNL     1      -5.941   4.983  12.593  1.00  0.00     0.138 C 
HETATM   26  O1  UNL     1      -2.923   3.019  11.962  1.00  0.00    -0.272 OA
BRANCH  24  27
HETATM   27  C2  UNL     1      -2.970   5.201  13.038  1.00  0.00     0.080 C 
HETATM   28  C1  UNL     1      -1.656   5.625  12.373  1.00  0.00     0.030 C 
HETATM   29  C28 UNL     1      -3.912   6.428  13.173  1.00  0.00     0.188 C 
HETATM   30  O3  UNL     1      -3.508   6.623  14.554  1.00  0.00    -0.389 OA
HETATM   31  C29 UNL     1      -2.977   5.277  14.579  1.00  0.00     0.188 C 
ENDBRANCH  24  27
ENDBRANCH   1  19
BRANCH  13  32
HETATM   32  N5  UNL     1     -10.332   8.370  16.420  1.00  0.00    -0.287 NA
HETATM   33  H18 UNL     1     -10.749   8.919  15.681  1.00  0.00     0.125 HD
HETATM   34  H19 UNL     1     -10.093   8.910  17.243  1.00  0.00     0.125 HD
ENDBRANCH  13  32
BRANCH   8  35
HETATM   35  C14 UNL     1     -15.019   9.346  12.439  1.00  0.00     0.257 C 
HETATM   36  O2  UNL     1     -15.227  10.506  12.780  1.00  0.00    -0.267 OA
HETATM   37  N3  UNL     1     -15.920   8.520  11.813  1.00  0.00    -0.309 N 
HETATM   38  H13 UNL     1     -15.710   7.544  11.663  1.00  0.00     0.170 HD
BRANCH  37  39
HETATM   39  C15 UNL     1     -17.204   8.828  11.359  1.00  0.00     0.108 A 
HETATM   40  C16 UNL     1     -18.345   8.108  11.676  1.00  0.00     0.064 A 
HETATM   41  C17 UNL     1     -19.582   8.525  11.164  1.00  0.00     0.052 A 
HETATM   42  C19 UNL     1     -19.619   9.655  10.345  1.00  0.00     0.033 A 
HETATM   43  C20 UNL     1     -18.431  10.311  10.081  1.00  0.00     0.090 A 
HETATM   44  N4  UNL     1     -17.233   9.922  10.570  1.00  0.00    -0.352 N 
ATOM     45  H4  UNL     1     -16.381  10.438  10.350  1.00  0.00     0.166 HD
BRANCH  41  46
HETATM   46  C18 UNL     1     -20.831   7.743  11.476  1.00  0.00     0.417 C 
HETATM   47  F1  UNL     1     -21.943   8.309  10.935  1.00  0.00    -0.166 F 
HETATM   48  F2  UNL     1     -21.077   7.638  12.812  1.00  0.00    -0.166 F 
HETATM   49  F3  UNL     1     -20.788   6.466  11.007  1.00  0.00    -0.166 F 
ENDBRANCH  41  46
ENDBRANCH  37  39
ENDBRANCH   8  35
TORSDOF 6
ENDMDL
MODEL 6
REMARK minimizedAffinity -10.0883236
REMARK CNNscore 0.101369679
REMARK CNNaffinity 6.71269798
REMARK  6 active torsions:
REMARK  status: ('A' for Active; 'I' for Inactive)
REMARK    1  A    between atoms: C2_2  and  C3_3 
REMARK       I    between atoms: C3_3  and  N1_5 
REMARK    2  A    between atoms: C7_9  and  C8_10 
REMARK    3  A    between atoms: C13_17  and  C14_18 
REMARK       I    between atoms: C14_18  and  N3_20 
REMARK    4  A    between atoms: N3_20  and  C15_21 
REMARK    5  A    between atoms: C17_23  and  C18_24 
REMARK    6  A    between atoms: C24_36  and  N5_37 
ROOT
HETATM    1  C8  UNL     1     -11.237   9.765  18.807  1.00  0.00     0.094 A 
HETATM    2  N2  UNL     1     -10.624   8.781  18.172  1.00  0.00    -0.342 N 
ATOM      3  H2  UNL     1     -10.306   7.898  18.573  1.00  0.00     0.167 HD
HETATM    4  C9  UNL     1     -10.502   9.185  16.866  1.00  0.00     0.077 A 
HETATM    5  C10 UNL     1      -9.915   8.331  15.865  1.00  0.00     0.032 A 
HETATM    6  C11 UNL     1      -8.538   8.088  15.885  1.00  0.00     0.018 A 
HETATM    7  C12 UNL     1      -7.963   7.212  14.958  1.00  0.00     0.018 A 
HETATM    8  C13 UNL     1      -8.769   6.546  14.020  1.00  0.00     0.035 A 
HETATM    9  C21 UNL     1     -10.145   6.807  13.990  1.00  0.00     0.060 A 
HETATM   10  C22 UNL     1     -10.706   7.691  14.909  1.00  0.00     0.130 A 
HETATM   11  F4  UNL     1     -12.029   7.904  14.863  1.00  0.00    -0.205 F 
HETATM   12  C23 UNL     1     -10.968  10.469  16.709  1.00  0.00     0.106 A 
HETATM   13  C24 UNL     1     -11.053  11.412  15.620  1.00  0.00     0.107 A 
HETATM   14  N6  UNL     1     -11.565  12.604  15.824  1.00  0.00    -0.354 N 
ATOM     15  H6  UNL     1     -11.623  13.280  15.061  1.00  0.00     0.166 HD
HETATM   16  C25 UNL     1     -12.022  12.931  17.082  1.00  0.00     0.107 A 
HETATM   17  C26 UNL     1     -11.970  12.103  18.137  1.00  0.00     0.116 A 
HETATM   18  N7  UNL     1     -11.436  10.838  17.955  1.00  0.00    -0.305 N 
ENDROOT
BRANCH   1  19
HETATM   19  C7  UNL     1     -11.633   9.683  20.254  1.00  0.00     0.072 C 
HETATM   20  C6  UNL     1     -13.136   9.862  20.494  1.00  0.00     0.015 C 
HETATM   21  C5  UNL     1     -13.512   9.756  21.977  1.00  0.00     0.021 C 
HETATM   22  C4  UNL     1     -12.307   9.765  22.916  1.00  0.00     0.126 C 
HETATM   23  N1  UNL     1     -11.326  10.765  22.499  1.00  0.00    -0.351 N 
HETATM   24  C3  UNL     1     -10.888  11.716  23.431  1.00  0.00     0.232 C 
HETATM   25  C27 UNL     1     -10.786  10.607  21.145  1.00  0.00     0.138 C 
HETATM   26  O1  UNL     1     -11.416  11.773  24.553  1.00  0.00    -0.272 OA
BRANCH  24  27
HETATM   27  C2  UNL     1      -9.766  12.719  23.036  1.00  0.00     0.080 C 
HETATM   28  C1  UNL     1      -9.346  12.585  21.568  1.00  0.00     0.030 C 
HETATM   29  C28 UNL     1     -10.098  14.202  23.355  1.00  0.00     0.188 C 
HETATM   30  O3  UNL     1      -8.776  14.406  23.923  1.00  0.00    -0.389 OA
HETATM   31  C29 UNL     1      -8.609  12.972  24.026  1.00  0.00     0.188 C 
ENDBRANCH  24  27
ENDBRANCH   1  19
BRANCH  13  32
HETATM   32  N5  UNL     1     -10.608  11.165  14.354  1.00  0.00    -0.287 NA
HETATM   33  H18 UNL     1      -9.805  10.559  14.264  1.00  0.00     0.125 HD
HETATM   34  H19 UNL     1     -10.538  12.016  13.808  1.00  0.00     0.125 HD
ENDBRANCH  13  32
BRANCH   8  35
HETATM   35  C14 UNL     1      -8.220   5.570  13.030  1.00  0.00     0.257 C 
HETATM   36  O2  UNL     1      -8.748   5.502  11.924  1.00  0.00    -0.267 OA
HETATM   37  N3  UNL     1      -7.176   4.793  13.470  1.00  0.00    -0.309 N 
HETATM   38  H13 UNL     1      -6.870   4.834  14.430  1.00  0.00     0.170 HD
BRANCH  37  39
HETATM   39  C15 UNL     1      -6.444   3.844  12.754  1.00  0.00     0.108 A 
HETATM   40  C16 UNL     1      -5.120   3.995  12.371  1.00  0.00     0.064 A 
HETATM   41  C17 UNL     1      -4.491   2.961  11.662  1.00  0.00     0.052 A 
HETATM   42  C19 UNL     1      -5.226   1.813  11.363  1.00  0.00     0.033 A 
HETATM   43  C20 UNL     1      -6.541   1.749  11.783  1.00  0.00     0.090 A 
HETATM   44  N4  UNL     1      -7.159   2.735  12.469  1.00  0.00    -0.352 N 
ATOM     45  H4  UNL     1      -8.132   2.645  12.763  1.00  0.00     0.166 HD
BRANCH  41  46
HETATM   46  C18 UNL     1      -3.061   3.115  11.214  1.00  0.00     0.417 C 
HETATM   47  F1  UNL     1      -2.417   1.920  11.124  1.00  0.00    -0.166 F 
HETATM   48  F2  UNL     1      -2.315   3.879  12.060  1.00  0.00    -0.166 F 
HETATM   49  F3  UNL     1      -2.948   3.701   9.991  1.00  0.00    -0.166 F 
ENDBRANCH  41  46
ENDBRANCH  37  39
ENDBRANCH   8  35
TORSDOF 6
ENDMDL
MODEL 7
REMARK minimizedAffinity -8.90964222
REMARK CNNscore 0.0778208822
REMARK CNNaffinity 5.72237778
REMARK  6 active torsions:
REMARK  status: ('A' for Active; 'I' for Inactive)
REMARK    1  A    between atoms: C2_2  and  C3_3 
REMARK       I    between atoms: C3_3  and  N1_5 
REMARK    2  A    between atoms: C7_9  and  C8_10 
REMARK    3  A    between atoms: C13_17  and  C14_18 
REMARK       I    between atoms: C14_18  and  N3_20 
REMARK    4  A    between atoms: N3_20  and  C15_21 
REMARK    5  A    between atoms: C17_23  and  C18_24 
REMARK    6  A    between atoms: C24_36  and  N5_37 
ROOT
HETATM    1  C8  UNL     1     -11.219  -8.866  13.258  1.00  0.00     0.094 A 
HETATM    2  N2  UNL     1     -11.919  -7.836  12.819  1.00  0.00    -0.342 N 
ATOM      3  H2  UNL     1     -12.110  -7.595  11.846  1.00  0.00     0.167 HD
HETATM    4  C9  UNL     1     -12.339  -7.155  13.934  1.00  0.00     0.077 A 
HETATM    5  C10 UNL     1     -13.177  -5.987  13.833  1.00  0.00     0.032 A 
HETATM    6  C11 UNL     1     -12.640  -4.792  13.344  1.00  0.00     0.018 A 
HETATM    7  C12 UNL     1     -13.456  -3.667  13.180  1.00  0.00     0.018 A 
HETATM    8  C13 UNL     1     -14.827  -3.738  13.477  1.00  0.00     0.035 A 
HETATM    9  C21 UNL     1     -15.357  -4.932  13.985  1.00  0.00     0.060 A 
HETATM   10  C22 UNL     1     -14.534  -6.042  14.156  1.00  0.00     0.130 A 
HETATM   11  F4  UNL     1     -15.078  -7.173  14.628  1.00  0.00    -0.205 F 
HETATM   12  C23 UNL     1     -11.820  -7.722  15.074  1.00  0.00     0.106 A 
HETATM   13  C24 UNL     1     -11.868  -7.431  16.487  1.00  0.00     0.107 A 
HETATM   14  N6  UNL     1     -11.226  -8.201  17.336  1.00  0.00    -0.354 N 
ATOM     15  H6  UNL     1     -11.248  -8.000  18.336  1.00  0.00     0.166 HD
HETATM   16  C25 UNL     1     -10.522  -9.285  16.857  1.00  0.00     0.107 A 
HETATM   17  C26 UNL     1     -10.436  -9.609  15.558  1.00  0.00     0.116 A 
HETATM   18  N7  UNL     1     -11.102  -8.817  14.638  1.00  0.00    -0.305 N 
ENDROOT
BRANCH   1  19
HETATM   19  C7  UNL     1     -10.643  -9.913  12.347  1.00  0.00     0.072 C 
HETATM   20  C6  UNL     1     -10.704 -11.333  12.921  1.00  0.00     0.015 C 
HETATM   21  C5  UNL     1     -10.127 -12.380  11.960  1.00  0.00     0.021 C 
HETATM   22  C4  UNL     1      -9.380 -11.777  10.773  1.00  0.00     0.126 C 
HETATM   23  N1  UNL     1      -8.540 -10.659  11.197  1.00  0.00    -0.351 N 
HETATM   24  C3  UNL     1      -7.179 -10.667  10.861  1.00  0.00     0.232 C 
HETATM   25  C27 UNL     1      -9.236  -9.546  11.848  1.00  0.00     0.138 C 
HETATM   26  O1  UNL     1      -6.681 -11.664  10.315  1.00  0.00    -0.272 OA
BRANCH  24  27
HETATM   27  C2  UNL     1      -6.294  -9.435  11.209  1.00  0.00     0.080 C 
HETATM   28  C1  UNL     1      -4.802  -9.697  10.978  1.00  0.00     0.030 C 
HETATM   29  C28 UNL     1      -6.717  -8.125  10.490  1.00  0.00     0.188 C 
HETATM   30  O3  UNL     1      -6.598  -7.373  11.727  1.00  0.00    -0.389 OA
HETATM   31  C29 UNL     1      -6.625  -8.613  12.473  1.00  0.00     0.188 C 
ENDBRANCH  24  27
ENDBRANCH   1  19
BRANCH  13  32
HETATM   32  N5  UNL     1     -12.530  -6.370  17.031  1.00  0.00    -0.287 NA
HETATM   33  H18 UNL     1     -12.579  -5.529  16.472  1.00  0.00     0.125 HD
HETATM   34  H19 UNL     1     -12.250  -6.205  17.991  1.00  0.00     0.125 HD
ENDBRANCH  13  32
BRANCH   8  35
HETATM   35  C14 UNL     1     -15.757  -2.584  13.287  1.00  0.00     0.257 C 
HETATM   36  O2  UNL     1     -16.951  -2.818  13.123  1.00  0.00    -0.267 OA
HETATM   37  N3  UNL     1     -15.175  -1.340  13.276  1.00  0.00    -0.309 N 
HETATM   38  H13 UNL     1     -14.171  -1.239  13.309  1.00  0.00     0.170 HD
BRANCH  37  39
HETATM   39  C15 UNL     1     -15.797  -0.095  13.167  1.00  0.00     0.108 A 
HETATM   40  C16 UNL     1     -15.608   0.960  14.047  1.00  0.00     0.064 A 
HETATM   41  C17 UNL     1     -16.285   2.167  13.823  1.00  0.00     0.052 A 
HETATM   42  C19 UNL     1     -17.133   2.262  12.718  1.00  0.00     0.033 A 
HETATM   43  C20 UNL     1     -17.263   1.159  11.895  1.00  0.00     0.090 A 
HETATM   44  N4  UNL     1     -16.615  -0.009  12.097  1.00  0.00    -0.352 N 
ATOM     45  H4  UNL     1     -16.738  -0.797  11.462  1.00  0.00     0.166 HD
BRANCH  41  46
HETATM   46  C18 UNL     1     -16.113   3.317  14.780  1.00  0.00     0.417 C 
HETATM   47  F1  UNL     1     -14.863   3.851  14.726  1.00  0.00    -0.166 F 
HETATM   48  F2  UNL     1     -16.313   2.964  16.081  1.00  0.00    -0.166 F 
HETATM   49  F3  UNL     1     -16.975   4.342  14.539  1.00  0.00    -0.166 F 
ENDBRANCH  41  46
ENDBRANCH  37  39
ENDBRANCH   8  35
TORSDOF 6
ENDMDL
MODEL 8
REMARK minimizedAffinity -9.44902515
REMARK CNNscore 0.0691558197
REMARK CNNaffinity 6.94718313
REMARK  6 active torsions:
REMARK  status: ('A' for Active; 'I' for Inactive)
REMARK    1  A    between atoms: C2_2  and  C3_3 
REMARK       I    between atoms: C3_3  and  N1_5 
REMARK    2  A    between atoms: C7_9  and  C8_10 
REMARK    3  A    between atoms: C13_17  and  C14_18 
REMARK       I    between atoms: C14_18  and  N3_20 
REMARK    4  A    between atoms: N3_20  and  C15_21 
REMARK    5  A    between atoms: C17_23  and  C18_24 
REMARK    6  A    between atoms: C24_36  and  N5_37 
ROOT
HETATM    1  C8  UNL     1      -8.546   6.337  13.780  1.00  0.00     0.094 A 
HETATM    2  N2  UNL     1      -7.589   7.206  14.055  1.00  0.00    -0.342 N 
ATOM      3  H2  UNL     1      -7.708   8.176  14.345  1.00  0.00     0.167 HD
HETATM    4  C9  UNL     1      -6.403   6.540  13.871  1.00  0.00     0.077 A 
HETATM    5  C10 UNL     1      -5.135   7.174  14.128  1.00  0.00     0.032 A 
HETATM    6  C11 UNL     1      -4.673   8.170  13.262  1.00  0.00     0.018 A 
HETATM    7  C12 UNL     1      -3.474   8.839  13.532  1.00  0.00     0.018 A 
HETATM    8  C13 UNL     1      -2.740   8.536  14.692  1.00  0.00     0.035 A 
HETATM    9  C21 UNL     1      -3.197   7.524  15.546  1.00  0.00     0.060 A 
HETATM   10  C22 UNL     1      -4.385   6.855  15.261  1.00  0.00     0.130 A 
HETATM   11  F4  UNL     1      -4.801   5.904  16.110  1.00  0.00    -0.205 F 
HETATM   12  C23 UNL     1      -6.628   5.269  13.394  1.00  0.00     0.106 A 
HETATM   13  C24 UNL     1      -5.803   4.159  12.983  1.00  0.00     0.107 A 
HETATM   14  N6  UNL     1      -6.363   3.051  12.553  1.00  0.00    -0.354 N 
ATOM     15  H6  UNL     1      -5.788   2.263  12.254  1.00  0.00     0.166 HD
HETATM   16  C25 UNL     1      -7.738   2.968  12.513  1.00  0.00     0.107 A 
HETATM   17  C26 UNL     1      -8.560   3.963  12.879  1.00  0.00     0.116 A 
HETATM   18  N7  UNL     1      -8.002   5.143  13.336  1.00  0.00    -0.305 N 
ENDROOT
BRANCH   1  19
HETATM   19  C7  UNL     1     -10.007   6.653  13.937  1.00  0.00     0.072 C 
HETATM   20  C6  UNL     1     -10.717   6.963  12.614  1.00  0.00     0.015 C 
HETATM   21  C5  UNL     1     -12.209   7.263  12.805  1.00  0.00     0.021 C 
HETATM   22  C4  UNL     1     -12.615   7.453  14.265  1.00  0.00     0.126 C 
HETATM   23  N1  UNL     1     -11.628   8.261  14.980  1.00  0.00    -0.351 N 
HETATM   24  C3  UNL     1     -12.059   9.398  15.678  1.00  0.00     0.232 C 
HETATM   25  C27 UNL     1     -10.261   7.732  15.002  1.00  0.00     0.138 C 
HETATM   26  O1  UNL     1     -13.240   9.770  15.588  1.00  0.00    -0.272 OA
BRANCH  24  27
HETATM   27  C2  UNL     1     -11.041  10.206  16.533  1.00  0.00     0.080 C 
HETATM   28  C1  UNL     1     -10.810   9.589  17.916  1.00  0.00     0.030 C 
HETATM   29  C28 UNL     1      -9.677  10.452  15.832  1.00  0.00     0.188 C 
HETATM   30  O3  UNL     1      -9.687  11.847  16.236  1.00  0.00    -0.389 OA
HETATM   31  C29 UNL     1     -11.105  11.749  16.508  1.00  0.00     0.188 C 
ENDBRANCH  24  27
ENDBRANCH   1  19
BRANCH  13  32
HETATM   32  N5  UNL     1      -4.439   4.174  12.981  1.00  0.00    -0.287 NA
HETATM   33  H18 UNL     1      -3.994   5.063  12.795  1.00  0.00     0.125 HD
HETATM   34  H19 UNL     1      -4.055   3.406  12.443  1.00  0.00     0.125 HD
ENDBRANCH  13  32
BRANCH   8  35
HETATM   35  C14 UNL     1      -1.475   9.242  15.055  1.00  0.00     0.257 C 
HETATM   36  O2  UNL     1      -0.848   9.809  14.166  1.00  0.00    -0.267 OA
HETATM   37  N3  UNL     1      -1.099   9.158  16.374  1.00  0.00    -0.309 N 
HETATM   38  H13 UNL     1      -1.613   8.580  17.022  1.00  0.00     0.170 HD
BRANCH  37  39
HETATM   39  C15 UNL     1      -0.002   9.753  16.999  1.00  0.00     0.108 A 
HETATM   40  C16 UNL     1      -0.077  10.544  18.135  1.00  0.00     0.064 A 
HETATM   41  C17 UNL     1       1.102  11.078  18.676  1.00  0.00     0.052 A 
HETATM   42  C19 UNL     1       2.315  10.795  18.044  1.00  0.00     0.033 A 
HETATM   43  C20 UNL     1       2.294   9.998  16.915  1.00  0.00     0.090 A 
HETATM   44  N4  UNL     1       1.168   9.474  16.386  1.00  0.00    -0.352 N 
ATOM     45  H4  UNL     1       1.199   8.888  15.551  1.00  0.00     0.166 HD
BRANCH  41  46
HETATM   46  C18 UNL     1       1.041  11.961  19.894  1.00  0.00     0.417 C 
HETATM   47  F1  UNL     1       1.189  11.258  21.049  1.00  0.00    -0.166 F 
HETATM   48  F2  UNL     1      -0.141  12.628  20.012  1.00  0.00    -0.166 F 
HETATM   49  F3  UNL     1       2.008  12.919  19.905  1.00  0.00    -0.166 F 
ENDBRANCH  41  46
ENDBRANCH  37  39
ENDBRANCH   8  35
TORSDOF 6
ENDMDL
MODEL 9
REMARK minimizedAffinity -8.82843971
REMARK CNNscore 0.065720357
REMARK CNNaffinity 5.98830366
REMARK  6 active torsions:
REMARK  status: ('A' for Active; 'I' for Inactive)
REMARK    1  A    between atoms: C2_2  and  C3_3 
REMARK       I    between atoms: C3_3  and  N1_5 
REMARK    2  A    between atoms: C7_9  and  C8_10 
REMARK    3  A    between atoms: C13_17  and  C14_18 
REMARK       I    between atoms: C14_18  and  N3_20 
REMARK    4  A    between atoms: N3_20  and  C15_21 
REMARK    5  A    between atoms: C17_23  and  C18_24 
REMARK    6  A    between atoms: C24_36  and  N5_37 
ROOT
HETATM    1  C8  UNL     1       0.629  12.673  18.185  1.00  0.00     0.094 A 
HETATM    2  N2  UNL     1       0.182  11.789  17.310  1.00  0.00    -0.342 N 
ATOM      3  H2  UNL     1       0.743  11.193  16.701  1.00  0.00     0.167 HD
HETATM    4  C9  UNL     1      -1.187  11.834  17.386  1.00  0.00     0.077 A 
HETATM    5  C10 UNL     1      -2.015  10.960  16.594  1.00  0.00     0.032 A 
HETATM    6  C11 UNL     1      -2.116  11.166  15.215  1.00  0.00     0.018 A 
HETATM    7  C12 UNL     1      -2.865  10.287  14.423  1.00  0.00     0.018 A 
HETATM    8  C13 UNL     1      -3.496   9.174  15.004  1.00  0.00     0.035 A 
HETATM    9  C21 UNL     1      -3.408   8.983  16.390  1.00  0.00     0.060 A 
HETATM   10  C22 UNL     1      -2.670   9.870  17.170  1.00  0.00     0.130 A 
HETATM   11  F4  UNL     1      -2.594   9.646  18.490  1.00  0.00    -0.205 F 
HETATM   12  C23 UNL     1      -1.594  12.818  18.256  1.00  0.00     0.106 A 
HETATM   13  C24 UNL     1      -2.862  13.349  18.696  1.00  0.00     0.107 A 
HETATM   14  N6  UNL     1      -2.894  14.335  19.563  1.00  0.00    -0.354 N 
ATOM     15  H6  UNL     1      -3.785  14.722  19.874  1.00  0.00     0.166 HD
HETATM   16  C25 UNL     1      -1.706  14.840  20.046  1.00  0.00     0.107 A 
HETATM   17  C26 UNL     1      -0.496  14.393  19.678  1.00  0.00     0.116 A 
HETATM   18  N7  UNL     1      -0.428  13.355  18.765  1.00  0.00    -0.305 N 
ENDROOT
BRANCH   1  19
HETATM   19  C7  UNL     1       2.090  12.877  18.468  1.00  0.00     0.072 C 
HETATM   20  C6  UNL     1       3.014  12.310  17.384  1.00  0.00     0.015 C 
HETATM   21  C5  UNL     1       4.498  12.550  17.692  1.00  0.00     0.021 C 
HETATM   22  C4  UNL     1       4.756  13.051  19.111  1.00  0.00     0.126 C 
HETATM   23  N1  UNL     1       3.935  12.326  20.079  1.00  0.00    -0.351 N 
HETATM   24  C3  UNL     1       4.559  11.715  21.175  1.00  0.00     0.232 C 
HETATM   25  C27 UNL     1       2.485  12.404  19.877  1.00  0.00     0.138 C 
HETATM   26  O1  UNL     1       5.798  11.695  21.252  1.00  0.00    -0.272 OA
BRANCH  24  27
HETATM   27  C2  UNL     1       3.691  11.031  22.271  1.00  0.00     0.080 C 
HETATM   28  C1  UNL     1       2.912  12.041  23.121  1.00  0.00     0.030 C 
HETATM   29  C28 UNL     1       2.724   9.943  21.729  1.00  0.00     0.188 C 
HETATM   30  O3  UNL     1       3.102   9.034  22.797  1.00  0.00    -0.389 OA
HETATM   31  C29 UNL     1       4.279   9.837  23.052  1.00  0.00     0.188 C 
ENDBRANCH  24  27
ENDBRANCH   1  19
BRANCH  13  32
HETATM   32  N5  UNL     1      -4.075  12.912  18.250  1.00  0.00    -0.287 NA
HETATM   33  H18 UNL     1      -4.116  12.580  17.296  1.00  0.00     0.125 HD
HETATM   34  H19 UNL     1      -4.819  13.557  18.489  1.00  0.00     0.125 HD
ENDBRANCH  13  32
BRANCH   8  35
HETATM   35  C14 UNL     1      -4.277   8.180  14.208  1.00  0.00     0.257 C 
HETATM   36  O2  UNL     1      -5.292   8.562  13.634  1.00  0.00    -0.267 OA
HETATM   37  N3  UNL     1      -3.798   6.893  14.221  1.00  0.00    -0.309 N 
HETATM   38  H13 UNL     1      -3.017   6.637  14.806  1.00  0.00     0.170 HD
BRANCH  37  39
HETATM   39  C15 UNL     1      -4.291   5.781  13.536  1.00  0.00     0.108 A 
HETATM   40  C16 UNL     1      -5.535   5.209  13.753  1.00  0.00     0.064 A 
HETATM   41  C17 UNL     1      -5.920   4.097  12.990  1.00  0.00     0.052 A 
HETATM   42  C19 UNL     1      -5.028   3.600  12.038  1.00  0.00     0.033 A 
HETATM   43  C20 UNL     1      -3.808   4.232  11.890  1.00  0.00     0.090 A 
HETATM   44  N4  UNL     1      -3.426   5.306  12.615  1.00  0.00    -0.352 N 
ATOM     45  H4  UNL     1      -2.515   5.743  12.471  1.00  0.00     0.166 HD
BRANCH  41  46
HETATM   46  C18 UNL     1      -7.256   3.445  13.227  1.00  0.00     0.417 C 
HETATM   47  F1  UNL     1      -8.284   4.173  12.713  1.00  0.00    -0.166 F 
HETATM   48  F2  UNL     1      -7.542   3.278  14.549  1.00  0.00    -0.166 F 
HETATM   49  F3  UNL     1      -7.351   2.208  12.670  1.00  0.00    -0.166 F 
ENDBRANCH  41  46
ENDBRANCH  37  39
ENDBRANCH   8  35
TORSDOF 6
ENDMDL
