MODEL 1
REMARK minimizedAffinity -9.84301949
REMARK  1 active torsions:
REMARK  status: ('A' for Active; 'I' for Inactive)
REMARK    1  A    between atoms: C2_2  and  N1_3 
ROOT
HETATM    1  N1  UNL     1      -6.144   3.002  12.135  1.00  0.00    -0.317 N 
HETATM    2  C3  UNL     1      -7.365   3.223  12.781  1.00  0.00     0.237 A 
HETATM    3  O1  UNL     1      -8.346   2.493  12.759  1.00  0.00    -0.272 OA
HETATM    4  C4  UNL     1      -7.251   4.567  13.536  1.00  0.00     0.063 A 
HETATM    5  C5  UNL     1      -7.479   4.336  15.029  1.00  0.00     0.030 C 
HETATM    6  C6  UNL     1      -8.256   5.564  12.959  1.00  0.00     0.030 C 
HETATM    7  C7  UNL     1      -5.824   4.975  13.239  1.00  0.00    -0.012 A 
HETATM    8  C8  UNL     1      -5.135   6.101  13.673  1.00  0.00     0.041 A 
HETATM    9  C9  UNL     1      -3.806   6.210  13.239  1.00  0.00     0.044 A 
HETATM   10  N2  UNL     1      -2.880   7.194  13.493  1.00  0.00    -0.353 N 
HETATM   11  C10 UNL     1      -1.687   6.927  12.869  1.00  0.00     0.069 A 
HETATM   12  C11 UNL     1      -1.832   5.720  12.200  1.00  0.00    -0.017 A 
HETATM   13  C12 UNL     1      -3.177   5.266  12.423  1.00  0.00     0.001 A 
HETATM   14  C13 UNL     1      -3.908   4.133  11.996  1.00  0.00     0.044 A 
HETATM   15  C14 UNL     1      -5.225   4.021  12.420  1.00  0.00     0.045 A 
HETATM   16  C15 UNL     1      -0.807   5.008  11.369  1.00  0.00     0.042 C 
HETATM   17  C16 UNL     1       0.630   5.123  11.881  1.00  0.00     0.009 C 
HETATM   18  C17 UNL     1       1.260   6.486  11.596  1.00  0.00     0.043 C 
HETATM   19  C18 UNL     1       0.731   7.611  12.421  1.00  0.00    -0.004 A 
HETATM   20  C19 UNL     1       1.444   8.779  12.820  1.00  0.00     0.030 A 
HETATM   21  C20 UNL     1       2.854   9.137  12.522  1.00  0.00     0.070 C 
HETATM   22  N3  UNL     1       0.684   9.604  13.547  1.00  0.00    -0.304 N 
ATOM     23  H3  UNL     1       0.944  10.499  13.961  1.00  0.00     0.186 HD
HETATM   24  N4  UNL     1      -0.500   8.979  13.604  1.00  0.00    -0.298 N 
HETATM   25  C21 UNL     1      -0.538   7.778  12.949  1.00  0.00     0.083 A 
HETATM   26  H13 UNL     1      -3.075   8.001  14.066  1.00  0.00     0.166 HD
HETATM   27  H24 UNL     1      -1.244   9.440  14.112  1.00  0.00     0.187 HD
ENDROOT
BRANCH   1  28
HETATM   28  C2  UNL     1      -5.851   1.814  11.366  1.00  0.00     0.128 C 
HETATM   29  C1  UNL     1      -4.460   1.275  11.655  1.00  0.00     0.027 C 
ENDBRANCH   1  28
TORSDOF 1
ENDMDL
MODEL 2
REMARK minimizedAffinity -9.55170155
REMARK  1 active torsions:
REMARK  status: ('A' for Active; 'I' for Inactive)
REMARK    1  A    between atoms: C2_2  and  N1_3 
ROOT
HETATM    1  N1  UNL     1      -1.492   3.297  11.644  1.00  0.00    -0.317 N 
HETATM    2  C3  UNL     1      -0.194   3.792  11.484  1.00  0.00     0.237 A 
HETATM    3  O1  UNL     1       0.763   3.194  11.013  1.00  0.00    -0.272 OA
HETATM    4  C4  UNL     1      -0.185   5.245  12.011  1.00  0.00     0.063 A 
HETATM    5  C5  UNL     1       0.232   6.194  10.890  1.00  0.00     0.030 C 
HETATM    6  C6  UNL     1       0.753   5.345  13.214  1.00  0.00     0.030 C 
HETATM    7  C7  UNL     1      -1.631   5.443  12.411  1.00  0.00    -0.012 A 
HETATM    8  C8  UNL     1      -2.238   6.577  12.939  1.00  0.00     0.041 A 
HETATM    9  C9  UNL     1      -3.610   6.468  13.207  1.00  0.00     0.044 A 
HETATM   10  N2  UNL     1      -4.478   7.399  13.726  1.00  0.00    -0.353 N 
HETATM   11  C10 UNL     1      -5.747   6.888  13.838  1.00  0.00     0.069 A 
HETATM   12  C11 UNL     1      -5.711   5.585  13.362  1.00  0.00    -0.017 A 
HETATM   13  C12 UNL     1      -4.356   5.310  12.970  1.00  0.00     0.001 A 
HETATM   14  C13 UNL     1      -3.708   4.173  12.435  1.00  0.00     0.044 A 
HETATM   15  C14 UNL     1      -2.348   4.274  12.170  1.00  0.00     0.045 A 
HETATM   16  C15 UNL     1      -6.848   4.611  13.282  1.00  0.00     0.042 C 
HETATM   17  C16 UNL     1      -8.203   5.230  12.937  1.00  0.00     0.009 C 
HETATM   18  C17 UNL     1      -8.842   5.969  14.113  1.00  0.00     0.043 C 
HETATM   19  C18 UNL     1      -8.190   7.261  14.475  1.00  0.00    -0.004 A 
HETATM   20  C19 UNL     1      -8.824   8.398  15.056  1.00  0.00     0.030 A 
HETATM   21  C20 UNL     1     -10.254   8.562  15.419  1.00  0.00     0.070 C 
HETATM   22  N3  UNL     1      -7.962   9.396  15.270  1.00  0.00    -0.304 N 
ATOM     23  H3  UNL     1      -8.150  10.318  15.665  1.00  0.00     0.186 HD
HETATM   24  N4  UNL     1      -6.792   8.904  14.842  1.00  0.00    -0.298 N 
HETATM   25  C21 UNL     1      -6.860   7.628  14.353  1.00  0.00     0.083 A 
HETATM   26  H13 UNL     1      -4.196   8.332  13.985  1.00  0.00     0.166 HD
HETATM   27  H24 UNL     1      -5.980   9.503  14.919  1.00  0.00     0.187 HD
ENDROOT
BRANCH   1  28
HETATM   28  C2  UNL     1      -1.904   1.980  11.215  1.00  0.00     0.128 C 
HETATM   29  C1  UNL     1      -0.739   1.165  10.680  1.00  0.00     0.027 C 
ENDBRANCH   1  28
TORSDOF 1
ENDMDL
MODEL 3
REMARK minimizedAffinity -9.38207722
REMARK  1 active torsions:
REMARK  status: ('A' for Active; 'I' for Inactive)
REMARK    1  A    between atoms: C2_2  and  N1_3 
ROOT
HETATM    1  N1  UNL     1       2.569   6.127  11.093  1.00  0.00    -0.317 N 
HETATM    2  C3  UNL     1       3.298   7.146  11.712  1.00  0.00     0.237 A 
HETATM    3  O1  UNL     1       4.449   7.478  11.462  1.00  0.00    -0.272 OA
HETATM    4  C4  UNL     1       2.382   7.788  12.780  1.00  0.00     0.063 A 
HETATM    5  C5  UNL     1       2.201   9.273  12.473  1.00  0.00     0.030 C 
HETATM    6  C6  UNL     1       2.983   7.567  14.168  1.00  0.00     0.030 C 
HETATM    7  C7  UNL     1       1.096   7.012  12.597  1.00  0.00    -0.012 A 
HETATM    8  C8  UNL     1      -0.110   7.159  13.273  1.00  0.00     0.041 A 
HETATM    9  C9  UNL     1      -1.141   6.294  12.879  1.00  0.00     0.044 A 
HETATM   10  N2  UNL     1      -2.428   6.193  13.351  1.00  0.00    -0.353 N 
HETATM   11  C10 UNL     1      -3.122   5.205  12.698  1.00  0.00     0.069 A 
HETATM   12  C11 UNL     1      -2.265   4.653  11.756  1.00  0.00    -0.017 A 
HETATM   13  C12 UNL     1      -1.005   5.332  11.874  1.00  0.00     0.001 A 
HETATM   14  C13 UNL     1       0.237   5.206  11.209  1.00  0.00     0.044 A 
HETATM   15  C14 UNL     1       1.263   6.058  11.596  1.00  0.00     0.045 A 
HETATM   16  C15 UNL     1      -2.559   3.537  10.799  1.00  0.00     0.042 C 
HETATM   17  C16 UNL     1      -3.985   3.523  10.244  1.00  0.00     0.009 C 
HETATM   18  C17 UNL     1      -5.015   3.010  11.249  1.00  0.00     0.043 C 
HETATM   19  C18 UNL     1      -5.316   3.941  12.375  1.00  0.00    -0.004 A 
HETATM   20  C19 UNL     1      -6.549   4.046  13.083  1.00  0.00     0.030 A 
HETATM   21  C20 UNL     1      -7.799   3.277  12.863  1.00  0.00     0.070 C 
HETATM   22  N3  UNL     1      -6.494   4.971  14.047  1.00  0.00    -0.304 N 
ATOM     23  H3  UNL     1      -7.232   5.251  14.693  1.00  0.00     0.186 HD
HETATM   24  N4  UNL     1      -5.243   5.444  13.964  1.00  0.00    -0.298 N 
HETATM   25  C21 UNL     1      -4.485   4.868  12.982  1.00  0.00     0.083 A 
HETATM   26  H13 UNL     1      -2.794   6.780  14.085  1.00  0.00     0.166 HD
HETATM   27  H24 UNL     1      -4.976   6.165  14.622  1.00  0.00     0.187 HD
ENDROOT
BRANCH   1  28
HETATM   28  C2  UNL     1       3.079   5.331  10.001  1.00  0.00     0.128 C 
HETATM   29  C1  UNL     1       2.858   6.000   8.654  1.00  0.00     0.027 C 
ENDBRANCH   1  28
TORSDOF 1
ENDMDL
MODEL 4
REMARK minimizedAffinity -9.27716732
REMARK  1 active torsions:
REMARK  status: ('A' for Active; 'I' for Inactive)
REMARK    1  A    between atoms: C2_2  and  N1_3 
ROOT
HETATM    1  N1  UNL     1      -5.298   4.608  12.959  1.00  0.00    -0.317 N 
HETATM    2  C3  UNL     1      -5.994   3.642  12.226  1.00  0.00     0.237 A 
HETATM    3  O1  UNL     1      -7.177   3.353  12.336  1.00  0.00    -0.272 OA
HETATM    4  C4  UNL     1      -4.992   3.000  11.240  1.00  0.00     0.063 A 
HETATM    5  C5  UNL     1      -5.479   3.206   9.807  1.00  0.00     0.030 C 
HETATM    6  C6  UNL     1      -4.827   1.517  11.573  1.00  0.00     0.030 C 
HETATM    7  C7  UNL     1      -3.727   3.780  11.524  1.00  0.00    -0.012 A 
HETATM    8  C8  UNL     1      -2.479   3.662  10.922  1.00  0.00     0.041 A 
HETATM    9  C9  UNL     1      -1.488   4.535  11.391  1.00  0.00     0.044 A 
HETATM   10  N2  UNL     1      -0.175   4.658  11.004  1.00  0.00    -0.353 N 
HETATM   11  C10 UNL     1       0.466   5.637  11.723  1.00  0.00     0.069 A 
HETATM   12  C11 UNL     1      -0.464   6.183  12.597  1.00  0.00    -0.017 A 
HETATM   13  C12 UNL     1      -1.701   5.481  12.398  1.00  0.00     0.001 A 
HETATM   14  C13 UNL     1      -2.981   5.573  12.993  1.00  0.00     0.044 A 
HETATM   15  C14 UNL     1      -3.967   4.709  12.534  1.00  0.00     0.045 A 
HETATM   16  C15 UNL     1      -0.243   7.281  13.594  1.00  0.00     0.042 C 
HETATM   17  C16 UNL     1       0.718   8.380  13.140  1.00  0.00     0.009 C 
HETATM   18  C17 UNL     1       2.185   7.956  13.196  1.00  0.00     0.043 C 
HETATM   19  C18 UNL     1       2.598   6.973  12.152  1.00  0.00    -0.004 A 
HETATM   20  C19 UNL     1       3.896   6.841  11.578  1.00  0.00     0.030 A 
HETATM   21  C20 UNL     1       5.112   7.640  11.871  1.00  0.00     0.070 C 
HETATM   22  N3  UNL     1       3.944   5.857  10.675  1.00  0.00    -0.304 N 
ATOM     23  H3  UNL     1       4.742   5.555  10.114  1.00  0.00     0.186 HD
HETATM   24  N4  UNL     1       2.700   5.360  10.677  1.00  0.00    -0.298 N 
HETATM   25  C21 UNL     1       1.843   5.985  11.541  1.00  0.00     0.083 A 
HETATM   26  H13 UNL     1       0.243   4.091  10.283  1.00  0.00     0.166 HD
HETATM   27  H24 UNL     1       2.509   4.583  10.058  1.00  0.00     0.187 HD
ENDROOT
BRANCH   1  28
HETATM   28  C2  UNL     1      -5.918   5.459  13.948  1.00  0.00     0.128 C 
HETATM   29  C1  UNL     1      -7.417   5.230  14.040  1.00  0.00     0.027 C 
ENDBRANCH   1  28
TORSDOF 1
ENDMDL
MODEL 5
REMARK minimizedAffinity -9.18954468
REMARK  1 active torsions:
REMARK  status: ('A' for Active; 'I' for Inactive)
REMARK    1  A    between atoms: C2_2  and  N1_3 
ROOT
HETATM    1  N1  UNL     1      -4.583   3.438  12.100  1.00  0.00    -0.317 N 
HETATM    2  C3  UNL     1      -5.921   3.041  12.016  1.00  0.00     0.237 A 
HETATM    3  O1  UNL     1      -6.370   2.122  11.346  1.00  0.00    -0.272 OA
HETATM    4  C4  UNL     1      -6.739   3.979  12.932  1.00  0.00     0.063 A 
HETATM    5  C5  UNL     1      -7.452   3.155  14.003  1.00  0.00     0.030 C 
HETATM    6  C6  UNL     1      -7.727   4.783  12.087  1.00  0.00     0.030 C 
HETATM    7  C7  UNL     1      -5.661   4.861  13.523  1.00  0.00    -0.012 A 
HETATM    8  C8  UNL     1      -5.792   5.894  14.445  1.00  0.00     0.041 A 
HETATM    9  C9  UNL     1      -4.602   6.535  14.818  1.00  0.00     0.044 A 
HETATM   10  N2  UNL     1      -4.406   7.577  15.694  1.00  0.00    -0.353 N 
HETATM   11  C10 UNL     1      -3.079   7.916  15.773  1.00  0.00     0.069 A 
HETATM   12  C11 UNL     1      -2.382   7.058  14.935  1.00  0.00    -0.017 A 
HETATM   13  C12 UNL     1      -3.344   6.187  14.319  1.00  0.00     0.001 A 
HETATM   14  C13 UNL     1      -3.246   5.134  13.379  1.00  0.00     0.044 A 
HETATM   15  C14 UNL     1      -4.421   4.497  13.003  1.00  0.00     0.045 A 
HETATM   16  C15 UNL     1      -0.905   7.034  14.676  1.00  0.00     0.042 C 
HETATM   17  C16 UNL     1      -0.033   7.361  15.890  1.00  0.00     0.009 C 
HETATM   18  C17 UNL     1      -0.009   8.852  16.227  1.00  0.00     0.043 C 
HETATM   19  C18 UNL     1      -1.271   9.385  16.818  1.00  0.00    -0.004 A 
HETATM   20  C19 UNL     1      -1.387  10.474  17.731  1.00  0.00     0.030 A 
HETATM   21  C20 UNL     1      -0.300  11.307  18.303  1.00  0.00     0.070 C 
HETATM   22  N3  UNL     1      -2.659  10.712  18.065  1.00  0.00    -0.304 N 
ATOM     23  H3  UNL     1      -3.020  11.424  18.701  1.00  0.00     0.186 HD
HETATM   24  N4  UNL     1      -3.348   9.798  17.370  1.00  0.00    -0.298 N 
HETATM   25  C21 UNL     1      -2.575   8.970  16.602  1.00  0.00     0.083 A 
HETATM   26  H13 UNL     1      -5.157   8.019  16.201  1.00  0.00     0.166 HD
HETATM   27  H24 UNL     1      -4.355   9.801  17.469  1.00  0.00     0.187 HD
ENDROOT
BRANCH   1  28
HETATM   28  C2  UNL     1      -3.504   2.760  11.418  1.00  0.00     0.128 C 
HETATM   29  C1  UNL     1      -2.967   3.571  10.250  1.00  0.00     0.027 C 
ENDBRANCH   1  28
TORSDOF 1
ENDMDL
MODEL 6
REMARK minimizedAffinity -9.14385986
REMARK  1 active torsions:
REMARK  status: ('A' for Active; 'I' for Inactive)
REMARK    1  A    between atoms: C2_2  and  N1_3 
ROOT
HETATM    1  N1  UNL     1      -3.886   4.162  12.944  1.00  0.00    -0.317 N 
HETATM    2  C3  UNL     1      -3.733   3.154  11.987  1.00  0.00     0.237 A 
HETATM    3  O1  UNL     1      -2.700   2.563  11.707  1.00  0.00    -0.272 OA
HETATM    4  C4  UNL     1      -5.117   2.917  11.341  1.00  0.00     0.063 A 
HETATM    5  C5  UNL     1      -5.541   1.466  11.557  1.00  0.00     0.030 C 
HETATM    6  C6  UNL     1      -5.055   3.272   9.855  1.00  0.00     0.030 C 
HETATM    7  C7  UNL     1      -5.993   3.882  12.110  1.00  0.00    -0.012 A 
HETATM    8  C8  UNL     1      -7.360   4.104  11.984  1.00  0.00     0.041 A 
HETATM    9  C9  UNL     1      -7.905   5.065  12.847  1.00  0.00     0.044 A 
HETATM   10  N2  UNL     1      -9.203   5.503  12.961  1.00  0.00    -0.353 N 
HETATM   11  C10 UNL     1      -9.319   6.467  13.932  1.00  0.00     0.069 A 
HETATM   12  C11 UNL     1      -8.059   6.654  14.481  1.00  0.00    -0.017 A 
HETATM   13  C12 UNL     1      -7.157   5.775  13.790  1.00  0.00     0.001 A 
HETATM   14  C13 UNL     1      -5.768   5.528  13.890  1.00  0.00     0.044 A 
HETATM   15  C14 UNL     1      -5.220   4.580  13.036  1.00  0.00     0.045 A 
HETATM   16  C15 UNL     1      -7.671   7.606  15.573  1.00  0.00     0.042 C 
HETATM   17  C16 UNL     1      -8.723   7.794  16.666  1.00  0.00     0.009 C 
HETATM   18  C17 UNL     1      -9.890   8.680  16.230  1.00  0.00     0.043 C 
HETATM   19  C18 UNL     1     -10.824   8.053  15.249  1.00  0.00    -0.004 A 
HETATM   20  C19 UNL     1     -12.216   8.327  15.108  1.00  0.00     0.030 A 
HETATM   21  C20 UNL     1     -13.047   9.272  15.896  1.00  0.00     0.070 C 
HETATM   22  N3  UNL     1     -12.770   7.607  14.128  1.00  0.00    -0.304 N 
ATOM     23  H3  UNL     1     -13.743   7.604  13.822  1.00  0.00     0.186 HD
HETATM   24  N4  UNL     1     -11.748   6.891  13.641  1.00  0.00    -0.298 N 
HETATM   25  C21 UNL     1     -10.553   7.112  14.270  1.00  0.00     0.083 A 
HETATM   26  H13 UNL     1      -9.958   5.147  12.394  1.00  0.00     0.166 HD
HETATM   27  H24 UNL     1     -11.944   6.268  12.868  1.00  0.00     0.187 HD
ENDROOT
BRANCH   1  28
HETATM   28  C2  UNL     1      -2.814   4.624  13.796  1.00  0.00     0.128 C 
HETATM   29  C1  UNL     1      -3.229   5.815  14.642  1.00  0.00     0.027 C 
ENDBRANCH   1  28
TORSDOF 1
ENDMDL
MODEL 7
REMARK minimizedAffinity -9.0986433
REMARK  1 active torsions:
REMARK  status: ('A' for Active; 'I' for Inactive)
REMARK    1  A    between atoms: C2_2  and  N1_3 
ROOT
HETATM    1  N1  UNL     1     -12.153   8.027  14.855  1.00  0.00    -0.317 N 
HETATM    2  C3  UNL     1     -12.283   9.218  15.576  1.00  0.00     0.237 A 
HETATM    3  O1  UNL     1     -13.327   9.755  15.919  1.00  0.00    -0.272 OA
HETATM    4  C4  UNL     1     -10.858   9.740  15.866  1.00  0.00     0.063 A 
HETATM    5  C5  UNL     1     -10.650   9.849  17.376  1.00  0.00     0.030 C 
HETATM    6  C6  UNL     1     -10.655  11.086  15.170  1.00  0.00     0.030 C 
HETATM    7  C7  UNL     1      -9.995   8.658  15.254  1.00  0.00    -0.012 A 
HETATM    8  C8  UNL     1      -8.608   8.566  15.223  1.00  0.00     0.041 A 
HETATM    9  C9  UNL     1      -8.085   7.432  14.586  1.00  0.00     0.044 A 
HETATM   10  N2  UNL     1      -6.774   7.063  14.392  1.00  0.00    -0.353 N 
HETATM   11  C10 UNL     1      -6.688   5.875  13.710  1.00  0.00     0.069 A 
HETATM   12  C11 UNL     1      -7.984   5.445  13.465  1.00  0.00    -0.017 A 
HETATM   13  C12 UNL     1      -8.874   6.433  14.008  1.00  0.00     0.001 A 
HETATM   14  C13 UNL     1     -10.281   6.559  14.054  1.00  0.00     0.044 A 
HETATM   15  C14 UNL     1     -10.807   7.681  14.681  1.00  0.00     0.045 A 
HETATM   16  C15 UNL     1      -8.412   4.200  12.745  1.00  0.00     0.042 C 
HETATM   17  C16 UNL     1      -7.519   2.981  12.982  1.00  0.00     0.009 C 
HETATM   18  C17 UNL     1      -6.201   3.044  12.210  1.00  0.00     0.043 C 
HETATM   19  C18 UNL     1      -5.214   4.037  12.727  1.00  0.00    -0.004 A 
HETATM   20  C19 UNL     1      -3.795   3.944  12.646  1.00  0.00     0.030 A 
HETATM   21  C20 UNL     1      -2.982   2.853  12.051  1.00  0.00     0.070 C 
HETATM   22  N3  UNL     1      -3.192   5.004  13.194  1.00  0.00    -0.304 N 
ATOM     23  H3  UNL     1      -2.192   5.187  13.276  1.00  0.00     0.186 HD
HETATM   24  N4  UNL     1      -4.210   5.769  13.610  1.00  0.00    -0.298 N 
HETATM   25  C21 UNL     1      -5.450   5.246  13.360  1.00  0.00     0.083 A 
HETATM   26  H13 UNL     1      -5.993   7.611  14.718  1.00  0.00     0.166 HD
HETATM   27  H24 UNL     1      -3.978   6.646  14.059  1.00  0.00     0.187 HD
ENDROOT
BRANCH   1  28
HETATM   28  C2  UNL     1     -13.276   7.216  14.445  1.00  0.00     0.128 C 
HETATM   29  C1  UNL     1     -13.656   7.457  12.993  1.00  0.00     0.027 C 
ENDBRANCH   1  28
TORSDOF 1
ENDMDL
MODEL 8
REMARK minimizedAffinity -9.01428986
REMARK  1 active torsions:
REMARK  status: ('A' for Active; 'I' for Inactive)
REMARK    1  A    between atoms: C2_2  and  N1_3 
ROOT
HETATM    1  N1  UNL     1      -6.299   4.097  12.424  1.00  0.00    -0.317 N 
HETATM    2  C3  UNL     1      -7.525   4.178  13.091  1.00  0.00     0.237 A 
HETATM    3  O1  UNL     1      -8.577   3.656  12.752  1.00  0.00    -0.272 OA
HETATM    4  C4  UNL     1      -7.311   5.054  14.347  1.00  0.00     0.063 A 
HETATM    5  C5  UNL     1      -7.655   4.247  15.598  1.00  0.00     0.030 C 
HETATM    6  C6  UNL     1      -8.162   6.319  14.239  1.00  0.00     0.030 C 
HETATM    7  C7  UNL     1      -5.832   5.365  14.265  1.00  0.00    -0.012 A 
HETATM    8  C8  UNL     1      -5.051   6.108  15.143  1.00  0.00     0.041 A 
HETATM    9  C9  UNL     1      -3.694   6.221  14.808  1.00  0.00     0.044 A 
HETATM   10  N2  UNL     1      -2.682   6.881  15.464  1.00  0.00    -0.353 N 
HETATM   11  C10 UNL     1      -1.489   6.752  14.797  1.00  0.00     0.069 A 
HETATM   12  C11 UNL     1      -1.726   5.967  13.677  1.00  0.00    -0.017 A 
HETATM   13  C12 UNL     1      -3.124   5.636  13.674  1.00  0.00     0.001 A 
HETATM   14  C13 UNL     1      -3.947   4.890  12.799  1.00  0.00     0.044 A 
HETATM   15  C14 UNL     1      -5.293   4.777  13.123  1.00  0.00     0.045 A 
HETATM   16  C15 UNL     1      -0.736   5.548  12.632  1.00  0.00     0.042 C 
HETATM   17  C16 UNL     1       0.670   5.255  13.157  1.00  0.00     0.009 C 
HETATM   18  C17 UNL     1       1.464   6.520  13.484  1.00  0.00     0.043 C 
HETATM   19  C18 UNL     1       1.012   7.250  14.704  1.00  0.00    -0.004 A 
HETATM   20  C19 UNL     1       1.823   8.042  15.568  1.00  0.00     0.030 A 
HETATM   21  C20 UNL     1       3.280   8.311  15.464  1.00  0.00     0.070 C 
HETATM   22  N3  UNL     1       1.116   8.574  16.570  1.00  0.00    -0.304 N 
ATOM     23  H3  UNL     1       1.447   9.171  17.328  1.00  0.00     0.186 HD
HETATM   24  N4  UNL     1      -0.131   8.137  16.346  1.00  0.00    -0.298 N 
HETATM   25  C21 UNL     1      -0.261   7.339  15.242  1.00  0.00     0.083 A 
HETATM   26  H13 UNL     1      -2.822   7.390  16.324  1.00  0.00     0.166 HD
HETATM   27  H24 UNL     1      -0.850   8.432  16.994  1.00  0.00     0.187 HD
ENDROOT
BRANCH   1  28
HETATM   28  C2  UNL     1      -6.092   3.317  11.226  1.00  0.00     0.128 C 
HETATM   29  C1  UNL     1      -5.822   1.854  11.537  1.00  0.00     0.027 C 
ENDBRANCH   1  28
TORSDOF 1
ENDMDL
MODEL 9
REMARK minimizedAffinity -8.97350979
REMARK  1 active torsions:
REMARK  status: ('A' for Active; 'I' for Inactive)
REMARK    1  A    between atoms: C2_2  and  N1_3 
ROOT
HETATM    1  N1  UNL     1     -10.572   8.620  15.446  1.00  0.00    -0.317 N 
HETATM    2  C3  UNL     1     -11.913   8.625  15.049  1.00  0.00     0.237 A 
HETATM    3  O1  UNL     1     -12.796   9.361  15.464  1.00  0.00    -0.272 OA
HETATM    4  C4  UNL     1     -12.081   7.522  13.979  1.00  0.00     0.063 A 
HETATM    5  C5  UNL     1     -12.581   8.144  12.676  1.00  0.00     0.030 C 
HETATM    6  C6  UNL     1     -13.039   6.449  14.497  1.00  0.00     0.030 C 
HETATM    7  C7  UNL     1     -10.669   6.994  13.847  1.00  0.00    -0.012 A 
HETATM    8  C8  UNL     1     -10.190   5.994  13.008  1.00  0.00     0.041 A 
HETATM    9  C9  UNL     1      -8.818   5.722  13.101  1.00  0.00     0.044 A 
HETATM   10  N2  UNL     1      -8.059   4.803  12.416  1.00  0.00    -0.353 N 
HETATM   11  C10 UNL     1      -6.745   4.851  12.810  1.00  0.00     0.069 A 
HETATM   12  C11 UNL     1      -6.638   5.845  13.772  1.00  0.00    -0.017 A 
HETATM   13  C12 UNL     1      -7.951   6.394  13.967  1.00  0.00     0.001 A 
HETATM   14  C13 UNL     1      -8.471   7.404  14.810  1.00  0.00     0.044 A 
HETATM   15  C14 UNL     1      -9.830   7.676  14.725  1.00  0.00     0.045 A 
HETATM   16  C15 UNL     1      -5.404   6.274  14.508  1.00  0.00     0.042 C 
HETATM   17  C16 UNL     1      -4.117   6.239  13.683  1.00  0.00     0.009 C 
HETATM   18  C17 UNL     1      -3.574   4.826  13.478  1.00  0.00     0.043 C 
HETATM   19  C18 UNL     1      -4.362   3.978  12.536  1.00  0.00    -0.004 A 
HETATM   20  C19 UNL     1      -3.858   2.927  11.716  1.00  0.00     0.030 A 
HETATM   21  C20 UNL     1      -2.457   2.448  11.600  1.00  0.00     0.070 C 
HETATM   22  N3  UNL     1      -4.823   2.352  10.992  1.00  0.00    -0.304 N 
ATOM     23  H3  UNL     1      -4.737   1.586  10.323  1.00  0.00     0.186 HD
HETATM   24  N4  UNL     1      -5.929   3.016  11.350  1.00  0.00    -0.298 N 
HETATM   25  C21 UNL     1      -5.722   4.004  12.273  1.00  0.00     0.083 A 
HETATM   26  H13 UNL     1      -8.440   4.182  11.719  1.00  0.00     0.166 HD
HETATM   27  H24 UNL     1      -6.801   2.733  10.920  1.00  0.00     0.187 HD
ENDROOT
BRANCH   1  28
HETATM   28  C2  UNL     1     -10.020   9.553  16.401  1.00  0.00     0.128 C 
HETATM   29  C1  UNL     1      -9.699  10.896  15.768  1.00  0.00     0.027 C 
ENDBRANCH   1  28
TORSDOF 1
ENDMDL
