MODEL 1
REMARK minimizedAffinity -10.0208769
REMARK CNNscore 0.644753397
REMARK CNNaffinity 7.92917871
REMARK  4 active torsions:
REMARK  status: ('A' for Active; 'I' for Inactive)
REMARK    1  A    between atoms: C6_6  and  N1_7 
REMARK    2  A    between atoms: C10_14  and  N3_15 
REMARK    3  A    between atoms: N3_15  and  C11_16 
REMARK    4  A    between atoms: C14_19  and  N4_20 
ROOT
HETATM    1  N1  UNL     1      -0.111  52.221 -23.770  1.00  0.00    -0.110 N 
HETATM    2  C7  UNL     1       0.546  53.035 -22.831  1.00  0.00     0.282 A 
HETATM    3  O1  UNL     1       1.351  53.933 -23.082  1.00  0.00    -0.266 OA
HETATM    4  C8  UNL     1       0.304  52.773 -21.406  1.00  0.00     0.095 A 
HETATM    5  C9  UNL     1       0.869  53.541 -20.419  1.00  0.00     0.127 A 
HETATM    6  N2  UNL     1       0.678  53.314 -19.100  1.00  0.00    -0.201 N 
ATOM      7  H2  UNL     1       1.109  53.915 -18.397  1.00  0.00     0.183 HD
HETATM    8  C10 UNL     1      -0.094  52.278 -18.743  1.00  0.00     0.684 A 
HETATM    9  N6  UNL     1      -0.680  51.469 -19.643  1.00  0.00    -0.174 N 
ATOM     10  H6  UNL     1      -1.258  50.682 -19.348  1.00  0.00     0.186 HD
HETATM   11  C22 UNL     1      -0.475  51.738 -20.956  1.00  0.00     0.162 A 
HETATM   12  N7  UNL     1      -1.072  50.936 -21.940  1.00  0.00    -0.128 N 
HETATM   13  C23 UNL     1      -1.888  49.833 -21.785  1.00  0.00     0.086 A 
HETATM   14  C24 UNL     1      -2.371  49.121 -20.676  1.00  0.00     0.033 A 
HETATM   15  C25 UNL     1      -3.199  48.021 -20.927  1.00  0.00     0.002 A 
HETATM   16  C26 UNL     1      -3.536  47.650 -22.227  1.00  0.00     0.002 A 
HETATM   17  C27 UNL     1      -3.051  48.374 -23.321  1.00  0.00     0.032 A 
HETATM   18  C28 UNL     1      -2.220  49.479 -23.088  1.00  0.00     0.077 A 
HETATM   19  N8  UNL     1      -1.639  50.321 -23.993  1.00  0.00    -0.188 N 
ATOM     20  H8  UNL     1      -1.745  50.294 -25.008  1.00  0.00     0.184 HD
HETATM   21  C29 UNL     1      -0.913  51.174 -23.299  1.00  0.00     0.701 A 
ENDROOT
BRANCH   8  22
HETATM   22  N3  UNL     1      -0.317  51.946 -17.411  1.00  0.00    -0.192 N 
HETATM   23  H8  UNL     1      -1.301  52.016 -17.204  1.00  0.00     0.184 HD
BRANCH  22  24
HETATM   24  C11 UNL     1       0.529  51.694 -16.327  1.00  0.00     0.049 A 
HETATM   25  C12 UNL     1       0.086  50.846 -15.307  1.00  0.00     0.032 A 
HETATM   26  C13 UNL     1       0.897  50.538 -14.200  1.00  0.00     0.031 A 
HETATM   27  C14 UNL     1       2.188  51.055 -14.058  1.00  0.00     0.030 A 
HETATM   28  C20 UNL     1       2.632  51.878 -15.102  1.00  0.00     0.031 A 
HETATM   29  C21 UNL     1       1.826  52.190 -16.212  1.00  0.00     0.032 A 
BRANCH  27  30
HETATM   30  N4  UNL     1       2.982  50.741 -12.966  1.00  0.00    -0.378 N 
HETATM   31  C15 UNL     1       3.520  49.376 -12.793  1.00  0.00     0.153 C 
HETATM   32  C16 UNL     1       3.411  48.913 -11.320  1.00  0.00     0.291 C 
HETATM   33  N5  UNL     1       4.054  49.790 -10.323  1.00  0.00     0.087 N 
HETATM   34  C17 UNL     1       5.367  49.299  -9.918  1.00  0.00     0.310 C 
HETATM   35  C18 UNL     1       4.138  51.187 -10.807  1.00  0.00     0.291 C 
HETATM   36  C19 UNL     1       2.988  51.590 -11.760  1.00  0.00     0.153 C 
ENDBRANCH  27  30
ENDBRANCH  22  24
ENDBRANCH   8  22
BRANCH   1  37
HETATM   37  C6  UNL     1       0.024  52.424 -25.190  1.00  0.00     0.061 A 
HETATM   38  C5  UNL     1      -0.976  53.031 -25.967  1.00  0.00     0.030 A 
HETATM   39  C4  UNL     1      -0.830  53.203 -27.349  1.00  0.00     0.003 A 
HETATM   40  C3  UNL     1       0.324  52.767 -27.992  1.00  0.00     0.007 A 
HETATM   41  C2  UNL     1       1.347  52.174 -27.255  1.00  0.00    -0.060 A 
HETATM   42  C1  UNL     1       2.584  51.665 -27.936  1.00  0.00     0.048 C 
HETATM   43  C30 UNL     1       1.181  51.996 -25.869  1.00  0.00     0.037 A 
ENDBRANCH   1  37
TORSDOF 4
ENDMDL
MODEL 2
REMARK minimizedAffinity -10.8017998
REMARK CNNscore 0.416429937
REMARK CNNaffinity 7.61726379
REMARK  4 active torsions:
REMARK  status: ('A' for Active; 'I' for Inactive)
REMARK    1  A    between atoms: C6_6  and  N1_7 
REMARK    2  A    between atoms: C10_14  and  N3_15 
REMARK    3  A    between atoms: N3_15  and  C11_16 
REMARK    4  A    between atoms: C14_19  and  N4_20 
ROOT
HETATM    1  N1  UNL     1      -0.222  52.065 -23.545  1.00  0.00    -0.110 N 
HETATM    2  C7  UNL     1       0.466  53.043 -22.807  1.00  0.00     0.282 A 
HETATM    3  O1  UNL     1       1.076  54.010 -23.267  1.00  0.00    -0.266 OA
HETATM    4  C8  UNL     1       0.522  52.888 -21.346  1.00  0.00     0.095 A 
HETATM    5  C9  UNL     1       1.137  53.813 -20.540  1.00  0.00     0.127 A 
HETATM    6  N2  UNL     1       1.218  53.691 -19.196  1.00  0.00    -0.201 N 
ATOM      7  H2  UNL     1       1.675  54.406 -18.631  1.00  0.00     0.183 HD
HETATM    8  C10 UNL     1       0.680  52.601 -18.629  1.00  0.00     0.684 A 
HETATM    9  N6  UNL     1       0.066  51.642 -19.343  1.00  0.00    -0.174 N 
ATOM     10  H6  UNL     1      -0.330  50.818 -18.890  1.00  0.00     0.186 HD
HETATM   11  C22 UNL     1      -0.006  51.809 -20.687  1.00  0.00     0.162 A 
HETATM   12  N7  UNL     1      -0.646  50.846 -21.482  1.00  0.00    -0.128 N 
HETATM   13  C23 UNL     1      -1.252  49.666 -21.099  1.00  0.00     0.086 A 
HETATM   14  C24 UNL     1      -1.422  49.006 -19.873  1.00  0.00     0.033 A 
HETATM   15  C25 UNL     1      -2.114  47.789 -19.884  1.00  0.00     0.002 A 
HETATM   16  C26 UNL     1      -2.620  47.257 -21.069  1.00  0.00     0.002 A 
HETATM   17  C27 UNL     1      -2.446  47.930 -22.282  1.00  0.00     0.032 A 
HETATM   18  C28 UNL     1      -1.756  49.150 -22.288  1.00  0.00     0.077 A 
HETATM   19  N8  UNL     1      -1.473  49.970 -23.343  1.00  0.00    -0.188 N 
ATOM     20  H8  UNL     1      -1.752  49.834 -24.315  1.00  0.00     0.184 HD
HETATM   21  C29 UNL     1      -0.767  50.972 -22.859  1.00  0.00     0.701 A 
ENDROOT
BRANCH   8  22
HETATM   22  N3  UNL     1       0.747  52.372 -17.259  1.00  0.00    -0.192 N 
HETATM   23  H8  UNL     1       0.841  53.249 -16.771  1.00  0.00     0.184 HD
BRANCH  22  24
HETATM   24  C11 UNL     1       0.853  51.214 -16.481  1.00  0.00     0.049 A 
HETATM   25  C12 UNL     1       0.168  50.063 -16.885  1.00  0.00     0.032 A 
HETATM   26  C13 UNL     1       0.250  48.863 -16.157  1.00  0.00     0.031 A 
HETATM   27  C14 UNL     1       1.019  48.751 -14.994  1.00  0.00     0.030 A 
HETATM   28  C20 UNL     1       1.724  49.902 -14.616  1.00  0.00     0.031 A 
HETATM   29  C21 UNL     1       1.646  51.105 -15.341  1.00  0.00     0.032 A 
BRANCH  27  30
HETATM   30  N4  UNL     1       1.098  47.562 -14.286  1.00  0.00    -0.378 N 
HETATM   31  C15 UNL     1       2.245  46.650 -14.469  1.00  0.00     0.153 C 
HETATM   32  C16 UNL     1       1.782  45.174 -14.540  1.00  0.00     0.291 C 
HETATM   33  N5  UNL     1       0.992  44.694 -13.391  1.00  0.00     0.087 N 
HETATM   34  C17 UNL     1       1.800  43.933 -12.443  1.00  0.00     0.310 C 
HETATM   35  C18 UNL     1       0.291  45.808 -12.713  1.00  0.00     0.291 C 
HETATM   36  C19 UNL     1      -0.099  46.970 -13.659  1.00  0.00     0.153 C 
ENDBRANCH  27  30
ENDBRANCH  22  24
ENDBRANCH   8  22
BRANCH   1  37
HETATM   37  C6  UNL     1      -0.372  52.148 -24.976  1.00  0.00     0.061 A 
HETATM   38  C5  UNL     1      -1.595  52.455 -25.592  1.00  0.00     0.030 A 
HETATM   39  C4  UNL     1      -1.722  52.514 -26.986  1.00  0.00     0.003 A 
HETATM   40  C3  UNL     1      -0.623  52.263 -27.801  1.00  0.00     0.007 A 
HETATM   41  C2  UNL     1       0.613  51.970 -27.229  1.00  0.00    -0.060 A 
HETATM   42  C1  UNL     1       1.802  51.660 -28.092  1.00  0.00     0.048 C 
HETATM   43  C30 UNL     1       0.723  51.901 -25.827  1.00  0.00     0.037 A 
ENDBRANCH   1  37
TORSDOF 4
ENDMDL
MODEL 3
REMARK minimizedAffinity -10.6961374
REMARK CNNscore 0.249007061
REMARK CNNaffinity 7.33779383
REMARK  4 active torsions:
REMARK  status: ('A' for Active; 'I' for Inactive)
REMARK    1  A    between atoms: C6_6  and  N1_7 
REMARK    2  A    between atoms: C10_14  and  N3_15 
REMARK    3  A    between atoms: N3_15  and  C11_16 
REMARK    4  A    between atoms: C14_19  and  N4_20 
ROOT
HETATM    1  N1  UNL     1      -0.100  51.906 -23.888  1.00  0.00    -0.110 N 
HETATM    2  C7  UNL     1       0.592  52.966 -23.277  1.00  0.00     0.282 A 
HETATM    3  O1  UNL     1       1.210  53.863 -23.854  1.00  0.00    -0.266 OA
HETATM    4  C8  UNL     1       0.642  52.997 -21.809  1.00  0.00     0.095 A 
HETATM    5  C9  UNL     1       1.260  54.013 -21.123  1.00  0.00     0.127 A 
HETATM    6  N2  UNL     1       1.336  54.061 -19.775  1.00  0.00    -0.201 N 
ATOM      7  H2  UNL     1       1.796  54.839 -19.303  1.00  0.00     0.183 HD
HETATM    8  C10 UNL     1       0.788  53.057 -19.076  1.00  0.00     0.684 A 
HETATM    9  N6  UNL     1       0.170  52.018 -19.665  1.00  0.00    -0.174 N 
ATOM     10  H6  UNL     1      -0.234  51.261 -19.113  1.00  0.00     0.186 HD
HETATM   11  C22 UNL     1       0.104  52.014 -21.020  1.00  0.00     0.162 A 
HETATM   12  N7  UNL     1      -0.540  50.963 -21.689  1.00  0.00    -0.128 N 
HETATM   13  C23 UNL     1      -1.157  49.845 -21.162  1.00  0.00     0.086 A 
HETATM   14  C24 UNL     1      -1.335  49.347 -19.863  1.00  0.00     0.033 A 
HETATM   15  C25 UNL     1      -2.036  48.143 -19.723  1.00  0.00     0.002 A 
HETATM   16  C26 UNL     1      -2.541  47.467 -20.833  1.00  0.00     0.002 A 
HETATM   17  C27 UNL     1      -2.358  47.980 -22.121  1.00  0.00     0.032 A 
HETATM   18  C28 UNL     1      -1.660  49.185 -22.278  1.00  0.00     0.077 A 
HETATM   19  N8  UNL     1      -1.367  49.863 -23.428  1.00  0.00    -0.188 N 
ATOM     20  H8  UNL     1      -1.644  49.606 -24.376  1.00  0.00     0.184 HD
HETATM   21  C29 UNL     1      -0.656  50.913 -23.072  1.00  0.00     0.701 A 
ENDROOT
BRANCH   8  22
HETATM   22  N3  UNL     1       0.849  53.002 -17.688  1.00  0.00    -0.192 N 
HETATM   23  H8  UNL     1       0.859  53.937 -17.311  1.00  0.00     0.184 HD
BRANCH  22  24
HETATM   24  C11 UNL     1       1.038  51.962 -16.772  1.00  0.00     0.049 A 
HETATM   25  C12 UNL     1       2.005  52.110 -15.772  1.00  0.00     0.032 A 
HETATM   26  C13 UNL     1       2.229  51.108 -14.810  1.00  0.00     0.031 A 
HETATM   27  C14 UNL     1       1.501  49.914 -14.797  1.00  0.00     0.030 A 
HETATM   28  C20 UNL     1       0.515  49.792 -15.786  1.00  0.00     0.031 A 
HETATM   29  C21 UNL     1       0.286  50.790 -16.750  1.00  0.00     0.032 A 
BRANCH  27  30
HETATM   30  N4  UNL     1       1.726  48.936 -13.842  1.00  0.00    -0.378 N 
HETATM   31  C15 UNL     1       2.995  48.180 -13.820  1.00  0.00     0.153 C 
HETATM   32  C16 UNL     1       2.746  46.674 -13.559  1.00  0.00     0.291 C 
HETATM   33  N5  UNL     1       1.999  46.352 -12.329  1.00  0.00     0.087 N 
HETATM   34  C17 UNL     1       2.877  45.944 -11.238  1.00  0.00     0.310 C 
HETATM   35  C18 UNL     1       1.128  47.476 -11.916  1.00  0.00     0.291 C 
HETATM   36  C19 UNL     1       0.607  48.331 -13.095  1.00  0.00     0.153 C 
ENDBRANCH  27  30
ENDBRANCH  22  24
ENDBRANCH   8  22
BRANCH   1  37
HETATM   37  C6  UNL     1      -0.245  51.808 -25.319  1.00  0.00     0.061 A 
HETATM   38  C5  UNL     1       0.823  52.021 -26.205  1.00  0.00     0.030 A 
HETATM   39  C4  UNL     1       0.656  51.937 -27.592  1.00  0.00     0.003 A 
HETATM   40  C3  UNL     1      -0.592  51.639 -28.131  1.00  0.00     0.007 A 
HETATM   41  C2  UNL     1      -1.675  51.405 -27.286  1.00  0.00    -0.060 A 
HETATM   42  C1  UNL     1      -3.037  51.118 -27.849  1.00  0.00     0.048 C 
HETATM   43  C30 UNL     1      -1.495  51.506 -25.894  1.00  0.00     0.037 A 
ENDBRANCH   1  37
TORSDOF 4
ENDMDL
MODEL 4
REMARK minimizedAffinity -9.69671822
REMARK CNNscore 0.23408258
REMARK CNNaffinity 7.18974829
REMARK  4 active torsions:
REMARK  status: ('A' for Active; 'I' for Inactive)
REMARK    1  A    between atoms: C6_6  and  N1_7 
REMARK    2  A    between atoms: C10_14  and  N3_15 
REMARK    3  A    between atoms: N3_15  and  C11_16 
REMARK    4  A    between atoms: C14_19  and  N4_20 
ROOT
HETATM    1  N1  UNL     1      -2.605  49.572 -24.114  1.00  0.00    -0.110 N 
HETATM    2  C7  UNL     1      -1.789  50.712 -24.222  1.00  0.00     0.282 A 
HETATM    3  O1  UNL     1      -1.536  51.333 -25.256  1.00  0.00    -0.266 OA
HETATM    4  C8  UNL     1      -1.121  51.195 -23.005  1.00  0.00     0.095 A 
HETATM    5  C9  UNL     1      -0.338  52.322 -23.004  1.00  0.00     0.127 A 
HETATM    6  N2  UNL     1       0.302  52.782 -21.906  1.00  0.00    -0.201 N 
ATOM      7  H2  UNL     1       0.867  53.630 -21.945  1.00  0.00     0.183 HD
HETATM    8  C10 UNL     1       0.171  52.091 -20.765  1.00  0.00     0.684 A 
HETATM    9  N6  UNL     1      -0.570  50.972 -20.677  1.00  0.00    -0.174 N 
ATOM     10  H6  UNL     1      -0.649  50.459 -19.799  1.00  0.00     0.186 HD
HETATM   11  C22 UNL     1      -1.206  50.551 -21.798  1.00  0.00     0.162 A 
HETATM   12  N7  UNL     1      -2.004  49.398 -21.763  1.00  0.00    -0.128 N 
HETATM   13  C23 UNL     1      -2.262  48.552 -20.703  1.00  0.00     0.086 A 
HETATM   14  C24 UNL     1      -1.837  48.499 -19.366  1.00  0.00     0.033 A 
HETATM   15  C25 UNL     1      -2.331  47.457 -18.573  1.00  0.00     0.002 A 
HETATM   16  C26 UNL     1      -3.215  46.511 -19.089  1.00  0.00     0.002 A 
HETATM   17  C27 UNL     1      -3.633  46.582 -20.421  1.00  0.00     0.032 A 
HETATM   18  C28 UNL     1      -3.148  47.619 -21.230  1.00  0.00     0.077 A 
HETATM   19  N8  UNL     1      -3.418  47.879 -22.544  1.00  0.00    -0.188 N 
ATOM     20  H8  UNL     1      -4.055  47.363 -23.151  1.00  0.00     0.184 HD
HETATM   21  C29 UNL     1      -2.693  48.930 -22.873  1.00  0.00     0.701 A 
ENDROOT
BRANCH   8  22
HETATM   22  N3  UNL     1       0.820  52.467 -19.594  1.00  0.00    -0.192 N 
HETATM   23  H8  UNL     1       1.641  53.008 -19.819  1.00  0.00     0.184 HD
BRANCH  22  24
HETATM   24  C11 UNL     1       0.648  52.133 -18.247  1.00  0.00     0.049 A 
HETATM   25  C12 UNL     1       1.543  52.647 -17.303  1.00  0.00     0.032 A 
HETATM   26  C13 UNL     1       1.411  52.364 -15.932  1.00  0.00     0.031 A 
HETATM   27  C14 UNL     1       0.381  51.559 -15.435  1.00  0.00     0.030 A 
HETATM   28  C20 UNL     1      -0.527  51.076 -16.387  1.00  0.00     0.031 A 
HETATM   29  C21 UNL     1      -0.401  51.356 -17.760  1.00  0.00     0.032 A 
BRANCH  27  30
HETATM   30  N4  UNL     1       0.256  51.290 -14.081  1.00  0.00    -0.378 N 
HETATM   31  C15 UNL     1      -0.298  50.003 -13.616  1.00  0.00     0.153 C 
HETATM   32  C16 UNL     1      -1.278  50.208 -12.434  1.00  0.00     0.291 C 
HETATM   33  N5  UNL     1      -0.730  50.922 -11.265  1.00  0.00     0.087 N 
HETATM   34  C17 UNL     1      -0.329  50.011 -10.198  1.00  0.00     0.310 C 
HETATM   35  C18 UNL     1       0.389  51.811 -11.650  1.00  0.00     0.291 C 
HETATM   36  C19 UNL     1       0.273  52.378 -13.086  1.00  0.00     0.153 C 
ENDBRANCH  27  30
ENDBRANCH  22  24
ENDBRANCH   8  22
BRANCH   1  37
HETATM   37  C6  UNL     1      -3.338  49.045 -25.237  1.00  0.00     0.061 A 
HETATM   38  C5  UNL     1      -2.784  48.942 -26.523  1.00  0.00     0.030 A 
HETATM   39  C4  UNL     1      -3.521  48.442 -27.604  1.00  0.00     0.003 A 
HETATM   40  C3  UNL     1      -4.838  48.033 -27.424  1.00  0.00     0.007 A 
HETATM   41  C2  UNL     1      -5.422  48.104 -26.161  1.00  0.00    -0.060 A 
HETATM   42  C1  UNL     1      -6.853  47.702 -25.955  1.00  0.00     0.048 C 
HETATM   43  C30 UNL     1      -4.673  48.621 -25.087  1.00  0.00     0.037 A 
ENDBRANCH   1  37
TORSDOF 4
ENDMDL
MODEL 5
REMARK minimizedAffinity -10.9754028
REMARK CNNscore 0.211943924
REMARK CNNaffinity 7.05136251
REMARK  4 active torsions:
REMARK  status: ('A' for Active; 'I' for Inactive)
REMARK    1  A    between atoms: C6_6  and  N1_7 
REMARK    2  A    between atoms: C10_14  and  N3_15 
REMARK    3  A    between atoms: N3_15  and  C11_16 
REMARK    4  A    between atoms: C14_19  and  N4_20 
ROOT
HETATM    1  N1  UNL     1      -0.487  50.253 -19.344  1.00  0.00    -0.110 N 
HETATM    2  C7  UNL     1      -1.281  49.181 -19.788  1.00  0.00     0.282 A 
HETATM    3  O1  UNL     1      -1.626  48.204 -19.122  1.00  0.00    -0.266 OA
HETATM    4  C8  UNL     1      -1.705  49.179 -21.195  1.00  0.00     0.095 A 
HETATM    5  C9  UNL     1      -2.513  48.196 -21.710  1.00  0.00     0.127 A 
HETATM    6  N2  UNL     1      -2.907  48.158 -23.002  1.00  0.00    -0.201 N 
ATOM      7  H2  UNL     1      -3.517  47.414 -23.343  1.00  0.00     0.183 HD
HETATM    8  C10 UNL     1      -2.474  49.126 -23.822  1.00  0.00     0.684 A 
HETATM    9  N6  UNL     1      -1.674  50.123 -23.405  1.00  0.00    -0.174 N 
ATOM     10  H6  UNL     1      -1.351  50.845 -24.049  1.00  0.00     0.186 HD
HETATM   11  C22 UNL     1      -1.311  50.132 -22.098  1.00  0.00     0.162 A 
HETATM   12  N7  UNL     1      -0.489  51.155 -21.604  1.00  0.00    -0.128 N 
HETATM   13  C23 UNL     1       0.062  52.229 -22.275  1.00  0.00     0.086 A 
HETATM   14  C24 UNL     1       0.044  52.662 -23.610  1.00  0.00     0.033 A 
HETATM   15  C25 UNL     1       0.744  53.834 -23.917  1.00  0.00     0.002 A 
HETATM   16  C26 UNL     1       1.428  54.547 -22.934  1.00  0.00     0.002 A 
HETATM   17  C27 UNL     1       1.431  54.104 -21.608  1.00  0.00     0.032 A 
HETATM   18  C28 UNL     1       0.735  52.932 -21.283  1.00  0.00     0.077 A 
HETATM   19  N8  UNL     1       0.604  52.322 -20.067  1.00  0.00    -0.188 N 
ATOM     20  H8  UNL     1       0.978  52.648 -19.176  1.00  0.00     0.184 HD
HETATM   21  C29 UNL     1      -0.101  51.227 -20.273  1.00  0.00     0.701 A 
ENDROOT
BRANCH   8  22
HETATM   22  N3  UNL     1      -2.797  49.149 -25.174  1.00  0.00    -0.192 N 
HETATM   23  H8  UNL     1      -2.119  49.701 -25.676  1.00  0.00     0.184 HD
BRANCH  22  24
HETATM   24  C11 UNL     1      -3.902  48.704 -25.908  1.00  0.00     0.049 A 
HETATM   25  C12 UNL     1      -3.768  48.524 -27.288  1.00  0.00     0.032 A 
HETATM   26  C13 UNL     1      -4.835  48.061 -28.078  1.00  0.00     0.031 A 
HETATM   27  C14 UNL     1      -6.085  47.751 -27.531  1.00  0.00     0.030 A 
HETATM   28  C20 UNL     1      -6.197  47.907 -26.142  1.00  0.00     0.031 A 
HETATM   29  C21 UNL     1      -5.132  48.369 -25.348  1.00  0.00     0.032 A 
BRANCH  27  30
HETATM   30  N4  UNL     1      -7.129  47.290 -28.317  1.00  0.00    -0.378 N 
HETATM   31  C15 UNL     1      -6.931  46.159 -29.246  1.00  0.00     0.153 C 
HETATM   32  C16 UNL     1      -7.621  46.424 -30.607  1.00  0.00     0.291 C 
HETATM   33  N5  UNL     1      -9.064  46.721 -30.546  1.00  0.00     0.087 N 
HETATM   34  C17 UNL     1      -9.883  45.554 -30.858  1.00  0.00     0.310 C 
HETATM   35  C18 UNL     1      -9.443  47.298 -29.236  1.00  0.00     0.291 C 
HETATM   36  C19 UNL     1      -8.318  48.125 -28.568  1.00  0.00     0.153 C 
ENDBRANCH  27  30
ENDBRANCH  22  24
ENDBRANCH   8  22
BRANCH   1  37
HETATM   37  C6  UNL     1      -0.056  50.372 -17.974  1.00  0.00     0.061 A 
HETATM   38  C5  UNL     1       0.329  51.596 -17.404  1.00  0.00     0.030 A 
HETATM   39  C4  UNL     1       0.761  51.685 -16.075  1.00  0.00     0.003 A 
HETATM   40  C3  UNL     1       0.821  50.546 -15.280  1.00  0.00     0.007 A 
HETATM   41  C2  UNL     1       0.433  49.314 -15.801  1.00  0.00    -0.060 A 
HETATM   42  C1  UNL     1       0.524  48.067 -14.970  1.00  0.00     0.048 C 
HETATM   43  C30 UNL     1       0.013  49.237 -17.143  1.00  0.00     0.037 A 
ENDBRANCH   1  37
TORSDOF 4
ENDMDL
MODEL 6
REMARK minimizedAffinity -9.30787468
REMARK CNNscore 0.194523454
REMARK CNNaffinity 7.22021914
REMARK  4 active torsions:
REMARK  status: ('A' for Active; 'I' for Inactive)
REMARK    1  A    between atoms: C6_6  and  N1_7 
REMARK    2  A    between atoms: C10_14  and  N3_15 
REMARK    3  A    between atoms: N3_15  and  C11_16 
REMARK    4  A    between atoms: C14_19  and  N4_20 
ROOT
HETATM    1  N1  UNL     1      -1.298  51.043 -24.610  1.00  0.00    -0.110 N 
HETATM    2  C7  UNL     1      -2.275  50.036 -24.704  1.00  0.00     0.282 A 
HETATM    3  O1  UNL     1      -2.818  49.641 -25.737  1.00  0.00    -0.266 OA
HETATM    4  C8  UNL     1      -2.747  49.419 -23.457  1.00  0.00     0.095 A 
HETATM    5  C9  UNL     1      -3.669  48.402 -23.452  1.00  0.00     0.127 A 
HETATM    6  N2  UNL     1      -4.134  47.826 -22.322  1.00  0.00    -0.201 N 
ATOM      7  H2  UNL     1      -4.812  47.065 -22.361  1.00  0.00     0.183 HD
HETATM    8  C10 UNL     1      -3.677  48.283 -21.147  1.00  0.00     0.684 A 
HETATM    9  N6  UNL     1      -2.781  49.281 -21.058  1.00  0.00    -0.174 N 
ATOM     10  H6  UNL     1      -2.452  49.617 -20.153  1.00  0.00     0.186 HD
HETATM   11  C22 UNL     1      -2.328  49.824 -22.216  1.00  0.00     0.162 A 
HETATM   12  N7  UNL     1      -1.382  50.858 -22.185  1.00  0.00    -0.128 N 
HETATM   13  C23 UNL     1      -0.796  51.468 -21.093  1.00  0.00     0.086 A 
HETATM   14  C24 UNL     1      -0.931  51.327 -19.704  1.00  0.00     0.033 A 
HETATM   15  C25 UNL     1      -0.142  52.150 -18.892  1.00  0.00     0.002 A 
HETATM   16  C26 UNL     1       0.748  53.071 -19.443  1.00  0.00     0.002 A 
HETATM   17  C27 UNL     1       0.873  53.195 -20.830  1.00  0.00     0.032 A 
HETATM   18  C28 UNL     1       0.092  52.378 -21.657  1.00  0.00     0.077 A 
HETATM   19  N8  UNL     1       0.051  52.329 -23.023  1.00  0.00    -0.188 N 
ATOM     20  H8  UNL     1       0.620  52.873 -23.671  1.00  0.00     0.184 HD
HETATM   21  C29 UNL     1      -0.870  51.439 -23.337  1.00  0.00     0.701 A 
ENDROOT
BRANCH   8  22
HETATM   22  N3  UNL     1      -4.125  47.777 -19.932  1.00  0.00    -0.192 N 
HETATM   23  H8  UNL     1      -4.622  48.494 -19.427  1.00  0.00     0.184 HD
BRANCH  22  24
HETATM   24  C11 UNL     1      -3.905  46.576 -19.248  1.00  0.00     0.049 A 
HETATM   25  C12 UNL     1      -4.212  45.370 -19.886  1.00  0.00     0.032 A 
HETATM   26  C13 UNL     1      -3.994  44.129 -19.260  1.00  0.00     0.031 A 
HETATM   27  C14 UNL     1      -3.459  44.031 -17.972  1.00  0.00     0.030 A 
HETATM   28  C20 UNL     1      -3.127  45.246 -17.356  1.00  0.00     0.031 A 
HETATM   29  C21 UNL     1      -3.341  46.489 -17.978  1.00  0.00     0.032 A 
BRANCH  27  30
HETATM   30  N4  UNL     1      -3.242  42.804 -17.365  1.00  0.00    -0.378 N 
HETATM   31  C15 UNL     1      -1.883  42.235 -17.277  1.00  0.00     0.153 C 
HETATM   32  C16 UNL     1      -1.887  40.719 -17.594  1.00  0.00     0.291 C 
HETATM   33  N5  UNL     1      -2.784  39.894 -16.764  1.00  0.00     0.087 N 
HETATM   34  C17 UNL     1      -2.073  39.217 -15.684  1.00  0.00     0.310 C 
HETATM   35  C18 UNL     1      -3.915  40.689 -16.235  1.00  0.00     0.291 C 
HETATM   36  C19 UNL     1      -4.350  41.851 -17.161  1.00  0.00     0.153 C 
ENDBRANCH  27  30
ENDBRANCH  22  24
ENDBRANCH   8  22
BRANCH   1  37
HETATM   37  C6  UNL     1      -0.737  51.679 -25.775  1.00  0.00     0.061 A 
HETATM   38  C5  UNL     1      -1.458  52.593 -26.560  1.00  0.00     0.030 A 
HETATM   39  C4  UNL     1      -0.899  53.187 -27.697  1.00  0.00     0.003 A 
HETATM   40  C3  UNL     1       0.401  52.877 -28.083  1.00  0.00     0.007 A 
HETATM   41  C2  UNL     1       1.157  51.986 -27.323  1.00  0.00    -0.060 A 
HETATM   42  C1  UNL     1       2.549  51.611 -27.742  1.00  0.00     0.048 C 
HETATM   43  C30 UNL     1       0.577  51.387 -26.189  1.00  0.00     0.037 A 
ENDBRANCH   1  37
TORSDOF 4
ENDMDL
MODEL 7
REMARK minimizedAffinity -8.79512119
REMARK CNNscore 0.179265991
REMARK CNNaffinity 6.97913694
REMARK  4 active torsions:
REMARK  status: ('A' for Active; 'I' for Inactive)
REMARK    1  A    between atoms: C6_6  and  N1_7 
REMARK    2  A    between atoms: C10_14  and  N3_15 
REMARK    3  A    between atoms: N3_15  and  C11_16 
REMARK    4  A    between atoms: C14_19  and  N4_20 
ROOT
HETATM    1  N1  UNL     1      -1.011  50.978 -24.603  1.00  0.00    -0.110 N 
HETATM    2  C7  UNL     1      -1.969  49.953 -24.526  1.00  0.00     0.282 A 
HETATM    3  O1  UNL     1      -2.546  49.421 -25.477  1.00  0.00    -0.266 OA
HETATM    4  C8  UNL     1      -2.376  49.492 -23.192  1.00  0.00     0.095 A 
HETATM    5  C9  UNL     1      -3.276  48.469 -23.018  1.00  0.00     0.127 A 
HETATM    6  N2  UNL     1      -3.681  48.034 -21.805  1.00  0.00    -0.201 N 
ATOM      7  H2  UNL     1      -4.344  47.264 -21.718  1.00  0.00     0.183 HD
HETATM    8  C10 UNL     1      -3.186  48.644 -20.718  1.00  0.00     0.684 A 
HETATM    9  N6  UNL     1      -2.307  49.658 -20.795  1.00  0.00    -0.174 N 
ATOM     10  H6  UNL     1      -1.949  50.112 -19.955  1.00  0.00     0.186 HD
HETATM   11  C22 UNL     1      -1.915  50.057 -22.031  1.00  0.00     0.162 A 
HETATM   12  N7  UNL     1      -0.990  51.102 -22.173  1.00  0.00    -0.128 N 
HETATM   13  C23 UNL     1      -0.372  51.854 -21.194  1.00  0.00     0.086 A 
HETATM   14  C24 UNL     1      -0.447  51.889 -19.793  1.00  0.00     0.033 A 
HETATM   15  C25 UNL     1       0.358  52.821 -19.127  1.00  0.00     0.002 A 
HETATM   16  C26 UNL     1       1.204  53.678 -19.828  1.00  0.00     0.002 A 
HETATM   17  C27 UNL     1       1.270  53.627 -21.224  1.00  0.00     0.032 A 
HETATM   18  C28 UNL     1       0.472  52.699 -21.906  1.00  0.00     0.077 A 
HETATM   19  N8  UNL     1       0.375  52.476 -23.251  1.00  0.00    -0.188 N 
ATOM     20  H8  UNL     1       0.906  52.942 -23.988  1.00  0.00     0.184 HD
HETATM   21  C29 UNL     1      -0.539  51.540 -23.410  1.00  0.00     0.701 A 
ENDROOT
BRANCH   8  22
HETATM   22  N3  UNL     1      -3.573  48.289 -19.430  1.00  0.00    -0.192 N 
HETATM   23  H8  UNL     1      -3.302  49.013 -18.783  1.00  0.00     0.184 HD
BRANCH  22  24
HETATM   24  C11 UNL     1      -4.101  47.121 -18.871  1.00  0.00     0.049 A 
HETATM   25  C12 UNL     1      -5.489  46.957 -18.835  1.00  0.00     0.032 A 
HETATM   26  C13 UNL     1      -6.081  45.797 -18.303  1.00  0.00     0.031 A 
HETATM   27  C14 UNL     1      -5.319  44.745 -17.786  1.00  0.00     0.030 A 
HETATM   28  C20 UNL     1      -3.929  44.908 -17.856  1.00  0.00     0.031 A 
HETATM   29  C21 UNL     1      -3.332  46.066 -18.387  1.00  0.00     0.032 A 
BRANCH  27  30
HETATM   30  N4  UNL     1      -5.912  43.603 -17.269  1.00  0.00    -0.378 N 
HETATM   31  C15 UNL     1      -6.515  42.596 -18.165  1.00  0.00     0.153 C 
HETATM   32  C16 UNL     1      -7.869  42.090 -17.607  1.00  0.00     0.291 C 
HETATM   33  N5  UNL     1      -7.830  41.528 -16.244  1.00  0.00     0.087 N 
HETATM   34  C17 UNL     1      -7.788  40.069 -16.247  1.00  0.00     0.310 C 
HETATM   35  C18 UNL     1      -6.705  42.088 -15.461  1.00  0.00     0.291 C 
HETATM   36  C19 UNL     1      -6.326  43.535 -15.855  1.00  0.00     0.153 C 
ENDBRANCH  27  30
ENDBRANCH  22  24
ENDBRANCH   8  22
BRANCH   1  37
HETATM   37  C6  UNL     1      -0.512  51.470 -25.862  1.00  0.00     0.061 A 
HETATM   38  C5  UNL     1       0.586  50.893 -26.520  1.00  0.00     0.030 A 
HETATM   39  C4  UNL     1       1.064  51.398 -27.735  1.00  0.00     0.003 A 
HETATM   40  C3  UNL     1       0.454  52.500 -28.325  1.00  0.00     0.007 A 
HETATM   41  C2  UNL     1      -0.649  53.093 -27.713  1.00  0.00    -0.060 A 
HETATM   42  C1  UNL     1      -1.298  54.306 -28.314  1.00  0.00     0.048 C 
HETATM   43  C30 UNL     1      -1.111  52.583 -26.485  1.00  0.00     0.037 A 
ENDBRANCH   1  37
TORSDOF 4
ENDMDL
MODEL 8
REMARK minimizedAffinity -9.40013027
REMARK CNNscore 0.157303855
REMARK CNNaffinity 7.12198305
REMARK  4 active torsions:
REMARK  status: ('A' for Active; 'I' for Inactive)
REMARK    1  A    between atoms: C6_6  and  N1_7 
REMARK    2  A    between atoms: C10_14  and  N3_15 
REMARK    3  A    between atoms: N3_15  and  C11_16 
REMARK    4  A    between atoms: C14_19  and  N4_20 
ROOT
HETATM    1  N1  UNL     1      -0.660  51.915 -23.894  1.00  0.00    -0.110 N 
HETATM    2  C7  UNL     1       0.010  52.576 -22.851  1.00  0.00     0.282 A 
HETATM    3  O1  UNL     1       0.954  53.359 -22.971  1.00  0.00    -0.266 OA
HETATM    4  C8  UNL     1      -0.403  52.278 -21.472  1.00  0.00     0.095 A 
HETATM    5  C9  UNL     1       0.166  52.904 -20.391  1.00  0.00     0.127 A 
HETATM    6  N2  UNL     1      -0.181  52.641 -19.112  1.00  0.00    -0.201 N 
ATOM      7  H2  UNL     1       0.260  53.135 -18.336  1.00  0.00     0.183 HD
HETATM    8  C10 UNL     1      -1.121  51.711 -18.892  1.00  0.00     0.684 A 
HETATM    9  N6  UNL     1      -1.725  51.043 -19.891  1.00  0.00    -0.174 N 
ATOM     10  H6  UNL     1      -2.433  50.334 -19.700  1.00  0.00     0.186 HD
HETATM   11  C22 UNL     1      -1.358  51.346 -21.161  1.00  0.00     0.162 A 
HETATM   12  N7  UNL     1      -1.964  50.691 -22.244  1.00  0.00    -0.128 N 
HETATM   13  C23 UNL     1      -2.937  49.711 -22.232  1.00  0.00     0.086 A 
HETATM   14  C24 UNL     1      -3.619  49.021 -21.220  1.00  0.00     0.033 A 
HETATM   15  C25 UNL     1      -4.565  48.067 -21.613  1.00  0.00     0.002 A 
HETATM   16  C26 UNL     1      -4.824  47.817 -22.960  1.00  0.00     0.002 A 
HETATM   17  C27 UNL     1      -4.138  48.518 -23.956  1.00  0.00     0.032 A 
HETATM   18  C28 UNL     1      -3.188  49.477 -23.580  1.00  0.00     0.077 A 
HETATM   19  N8  UNL     1      -2.409  50.271 -24.374  1.00  0.00    -0.188 N 
ATOM     20  H8  UNL     1      -2.419  50.312 -25.394  1.00  0.00     0.184 HD
HETATM   21  C29 UNL     1      -1.642  50.972 -23.564  1.00  0.00     0.701 A 
ENDROOT
BRANCH   8  22
HETATM   22  N3  UNL     1      -1.517  51.347 -17.610  1.00  0.00    -0.192 N 
HETATM   23  H8  UNL     1      -2.322  51.888 -17.336  1.00  0.00     0.184 HD
BRANCH  22  24
HETATM   24  C11 UNL     1      -0.954  50.528 -16.624  1.00  0.00     0.049 A 
HETATM   25  C12 UNL     1       0.424  50.594 -16.398  1.00  0.00     0.032 A 
HETATM   26  C13 UNL     1       1.046  49.811 -15.409  1.00  0.00     0.031 A 
HETATM   27  C14 UNL     1       0.326  48.929 -14.597  1.00  0.00     0.030 A 
HETATM   28  C20 UNL     1      -1.059  48.896 -14.813  1.00  0.00     0.031 A 
HETATM   29  C21 UNL     1      -1.687  49.677 -15.801  1.00  0.00     0.032 A 
BRANCH  27  30
HETATM   30  N4  UNL     1       0.947  48.166 -13.621  1.00  0.00    -0.378 N 
HETATM   31  C15 UNL     1       0.574  48.311 -12.199  1.00  0.00     0.153 C 
HETATM   32  C16 UNL     1       1.826  48.311 -11.288  1.00  0.00     0.291 C 
HETATM   33  N5  UNL     1       2.709  47.136 -11.414  1.00  0.00     0.087 N 
HETATM   34  C17 UNL     1       2.482  46.157 -10.355  1.00  0.00     0.310 C 
HETATM   35  C18 UNL     1       2.588  46.509 -12.749  1.00  0.00     0.291 C 
HETATM   36  C19 UNL     1       2.240  47.506 -13.880  1.00  0.00     0.153 C 
ENDBRANCH  27  30
ENDBRANCH  22  24
ENDBRANCH   8  22
BRANCH   1  37
HETATM   37  C6  UNL     1      -0.361  52.169 -25.281  1.00  0.00     0.061 A 
HETATM   38  C5  UNL     1      -1.289  52.745 -26.162  1.00  0.00     0.030 A 
HETATM   39  C4  UNL     1      -0.983  52.968 -27.510  1.00  0.00     0.003 A 
HETATM   40  C3  UNL     1       0.265  52.615 -28.013  1.00  0.00     0.007 A 
HETATM   41  C2  UNL     1       1.220  52.054 -27.168  1.00  0.00    -0.060 A 
HETATM   42  C1  UNL     1       2.560  51.633 -27.700  1.00  0.00     0.048 C 
HETATM   43  C30 UNL     1       0.894  51.824 -25.819  1.00  0.00     0.037 A 
ENDBRANCH   1  37
TORSDOF 4
ENDMDL
MODEL 9
REMARK minimizedAffinity -10.2279987
REMARK CNNscore 0.112651885
REMARK CNNaffinity 7.2844491
REMARK  4 active torsions:
REMARK  status: ('A' for Active; 'I' for Inactive)
REMARK    1  A    between atoms: C6_6  and  N1_7 
REMARK    2  A    between atoms: C10_14  and  N3_15 
REMARK    3  A    between atoms: N3_15  and  C11_16 
REMARK    4  A    between atoms: C14_19  and  N4_20 
ROOT
HETATM    1  N1  UNL     1      -1.086  51.124 -24.441  1.00  0.00    -0.110 N 
HETATM    2  C7  UNL     1      -2.003  50.061 -24.377  1.00  0.00     0.282 A 
HETATM    3  O1  UNL     1      -2.604  49.558 -25.329  1.00  0.00    -0.266 OA
HETATM    4  C8  UNL     1      -2.332  49.516 -23.053  1.00  0.00     0.095 A 
HETATM    5  C9  UNL     1      -3.186  48.453 -22.895  1.00  0.00     0.127 A 
HETATM    6  N2  UNL     1      -3.520  47.940 -21.690  1.00  0.00    -0.201 N 
ATOM      7  H2  UNL     1      -4.151  47.143 -21.616  1.00  0.00     0.183 HD
HETATM    8  C10 UNL     1      -2.998  48.511 -20.595  1.00  0.00     0.684 A 
HETATM    9  N6  UNL     1      -2.160  49.561 -20.656  1.00  0.00    -0.174 N 
ATOM     10  H6  UNL     1      -1.779  49.983 -19.809  1.00  0.00     0.186 HD
HETATM   11  C22 UNL     1      -1.839  50.037 -21.885  1.00  0.00     0.162 A 
HETATM   12  N7  UNL     1      -0.958  51.122 -22.011  1.00  0.00    -0.128 N 
HETATM   13  C23 UNL     1      -0.323  51.845 -21.021  1.00  0.00     0.086 A 
HETATM   14  C24 UNL     1      -0.334  51.804 -19.618  1.00  0.00     0.033 A 
HETATM   15  C25 UNL     1       0.466  52.730 -18.939  1.00  0.00     0.002 A 
HETATM   16  C26 UNL     1       1.249  53.653 -19.630  1.00  0.00     0.002 A 
HETATM   17  C27 UNL     1       1.253  53.677 -21.028  1.00  0.00     0.032 A 
HETATM   18  C28 UNL     1       0.457  52.757 -21.723  1.00  0.00     0.077 A 
HETATM   19  N8  UNL     1       0.307  52.601 -23.073  1.00  0.00    -0.188 N 
ATOM     20  H8  UNL     1       0.787  53.124 -23.806  1.00  0.00     0.184 HD
HETATM   21  C29 UNL     1      -0.580  51.641 -23.242  1.00  0.00     0.701 A 
ENDROOT
BRANCH   8  22
HETATM   22  N3  UNL     1      -3.312  48.076 -19.313  1.00  0.00    -0.192 N 
HETATM   23  H8  UNL     1      -3.934  47.285 -19.365  1.00  0.00     0.184 HD
BRANCH  22  24
HETATM   24  C11 UNL     1      -3.064  48.587 -18.034  1.00  0.00     0.049 A 
HETATM   25  C12 UNL     1      -3.216  49.960 -17.815  1.00  0.00     0.032 A 
HETATM   26  C13 UNL     1      -3.001  50.532 -16.548  1.00  0.00     0.031 A 
HETATM   27  C14 UNL     1      -2.628  49.765 -15.440  1.00  0.00     0.030 A 
HETATM   28  C20 UNL     1      -2.510  48.386 -15.666  1.00  0.00     0.031 A 
HETATM   29  C21 UNL     1      -2.725  47.808 -16.931  1.00  0.00     0.032 A 
BRANCH  27  30
HETATM   30  N4  UNL     1      -2.424  50.336 -14.194  1.00  0.00    -0.378 N 
HETATM   31  C15 UNL     1      -1.949  49.521 -13.059  1.00  0.00     0.153 C 
HETATM   32  C16 UNL     1      -2.711  49.873 -11.757  1.00  0.00     0.291 C 
HETATM   33  N5  UNL     1      -2.668  51.291 -11.354  1.00  0.00     0.087 N 
HETATM   34  C17 UNL     1      -1.673  51.542 -10.316  1.00  0.00     0.310 C 
HETATM   35  C18 UNL     1      -2.452  52.178 -12.519  1.00  0.00     0.291 C 
HETATM   36  C19 UNL     1      -3.039  51.630 -13.842  1.00  0.00     0.153 C 
ENDBRANCH  27  30
ENDBRANCH  22  24
ENDBRANCH   8  22
BRANCH   1  37
HETATM   37  C6  UNL     1      -0.663  51.699 -25.693  1.00  0.00     0.061 A 
HETATM   38  C5  UNL     1      -1.490  52.535 -26.460  1.00  0.00     0.030 A 
HETATM   39  C4  UNL     1      -1.064  53.070 -27.682  1.00  0.00     0.003 A 
HETATM   40  C3  UNL     1       0.205  52.777 -28.171  1.00  0.00     0.007 A 
HETATM   41  C2  UNL     1       1.062  51.964 -27.434  1.00  0.00    -0.060 A 
HETATM   42  C1  UNL     1       2.422  51.607 -27.962  1.00  0.00     0.048 C 
HETATM   43  C30 UNL     1       0.617  51.423 -26.213  1.00  0.00     0.037 A 
ENDBRANCH   1  37
TORSDOF 4
ENDMDL
