MODEL 1
REMARK minimizedAffinity -8.16975498
REMARK CNNscore 0.386751026
REMARK CNNaffinity 7.52952576
REMARK  9 active torsions:
REMARK  status: ('A' for Active; 'I' for Inactive)
REMARK    1  A    between atoms: C2_2  and  C3_3 
REMARK       I    between atoms: C3_3  and  N1_5 
REMARK    2  A    between atoms: C7_9  and  C8_10 
REMARK       I    between atoms: C8_10  and  N2_12 
REMARK    3  A    between atoms: N2_12  and  C9_13 
REMARK    4  A    between atoms: C12_16  and  N3_17 
REMARK    5  A    between atoms: N3_17  and  C13_18 
REMARK    6  A    between atoms: C22_33  and  O3_34 
REMARK    7  A    between atoms: O3_34  and  C23_35 
REMARK    8  A    between atoms: C23_35  and  C24_36 
REMARK    9  A    between atoms: C24_36  and  O4_37 
ROOT
HETATM    1  C9  UNL     1      -1.324  50.471 -22.546  1.00  0.00     0.069 A 
HETATM    2  C10 UNL     1      -0.559  51.511 -23.074  1.00  0.00     0.050 A 
HETATM    3  C11 UNL     1       0.108  52.434 -22.227  1.00  0.00     0.037 A 
HETATM    4  C12 UNL     1       0.894  53.520 -22.667  1.00  0.00     0.119 A 
HETATM    5  N4  UNL     1       1.529  54.332 -21.802  1.00  0.00    -0.338 N 
ATOM      6  H4  UNL     1       2.112  55.105 -22.125  1.00  0.00     0.168 HD
HETATM    7  C19 UNL     1       1.362  54.080 -20.502  1.00  0.00     0.182 A 
HETATM    8  N5  UNL     1       0.626  53.095 -19.977  1.00  0.00    -0.351 N 
ATOM      9  H5  UNL     1       0.540  52.970 -18.968  1.00  0.00     0.166 HD
HETATM   10  C20 UNL     1       0.011  52.283 -20.838  1.00  0.00     0.049 A 
HETATM   11  C21 UNL     1      -0.753  51.243 -20.324  1.00  0.00     0.069 A 
HETATM   12  C22 UNL     1      -1.428  50.343 -21.151  1.00  0.00     0.097 A 
ENDROOT
BRANCH   1  13
HETATM   13  N2  UNL     1      -2.006  49.521 -23.336  1.00  0.00    -0.323 N 
HETATM   14  C8  UNL     1      -3.076  49.717 -24.192  1.00  0.00     0.245 C 
HETATM   15  O2  UNL     1      -3.641  50.791 -24.386  1.00  0.00    -0.271 OA
HETATM   16  H11 UNL     1      -1.681  48.554 -23.215  1.00  0.00     0.169 HD
BRANCH  14  17
HETATM   17  C7  UNL     1      -3.498  48.421 -24.928  1.00  0.00     0.180 C 
HETATM   18  N1  UNL     1      -4.936  48.430 -25.228  1.00  0.00    -0.335 N 
HETATM   19  C3  UNL     1      -5.846  48.024 -24.284  1.00  0.00     0.243 C 
HETATM   20  C4  UNL     1      -5.170  48.582 -26.658  1.00  0.00     0.127 C 
HETATM   21  O1  UNL     1      -5.520  47.718 -23.139  1.00  0.00    -0.268 OA
HETATM   22  C5  UNL     1      -3.818  48.967 -27.237  1.00  0.00     0.022 C 
HETATM   23  C6  UNL     1      -2.836  48.275 -26.301  1.00  0.00     0.037 C 
BRANCH  19  24
HETATM   24  C2  UNL     1      -7.269  47.934 -24.679  1.00  0.00     0.064 C 
HETATM   25  C1  UNL     1      -8.157  48.880 -24.345  1.00  0.00     0.017 C 
ENDBRANCH  19  24
ENDBRANCH  14  17
ENDBRANCH   1  13
BRANCH  12  26
HETATM   26  O3  UNL     1      -2.187  49.289 -20.712  1.00  0.00    -0.347 OA
BRANCH  26  27
HETATM   27  C23 UNL     1      -1.555  48.234 -19.988  1.00  0.00     0.201 C 
BRANCH  27  28
HETATM   28  C24 UNL     1      -1.948  48.271 -18.512  1.00  0.00     0.193 C 
BRANCH  28  29
HETATM   29  O4  UNL     1      -0.922  48.842 -17.701  1.00  0.00    -0.394 OA
HETATM   30  C25 UNL     1      -1.398  49.880 -16.855  1.00  0.00     0.201 C 
ENDBRANCH  28  29
ENDBRANCH  27  28
ENDBRANCH  26  27
ENDBRANCH  12  26
BRANCH   4  31
HETATM   31  N3  UNL     1       1.023  53.759 -24.059  1.00  0.00    -0.339 N 
HETATM   32  H13 UNL     1       1.894  54.254 -24.250  1.00  0.00     0.167 HD
BRANCH  31  33
HETATM   33  C13 UNL     1       0.702  52.892 -25.132  1.00  0.00     0.074 A 
HETATM   34  C14 UNL     1       1.591  51.926 -25.617  1.00  0.00     0.033 A 
HETATM   35  C15 UNL     1       1.217  51.056 -26.647  1.00  0.00     0.004 A 
HETATM   36  C16 UNL     1      -0.062  51.130 -27.197  1.00  0.00     0.027 A 
HETATM   37  C17 UNL     1      -0.969  52.067 -26.708  1.00  0.00     0.074 A 
HETATM   38 CL1  UNL     1      -2.550  52.147 -27.386  1.00  0.00    -0.081 Cl
HETATM   39  C18 UNL     1      -0.590  52.930 -25.680  1.00  0.00     0.164 A 
HETATM   40  F1  UNL     1      -1.463  53.834 -25.201  1.00  0.00    -0.202 F 
ENDBRANCH  31  33
ENDBRANCH   4  31
TORSDOF 9
ENDMDL
MODEL 2
REMARK minimizedAffinity -8.59636021
REMARK CNNscore 0.330782533
REMARK CNNaffinity 7.58976126
REMARK  9 active torsions:
REMARK  status: ('A' for Active; 'I' for Inactive)
REMARK    1  A    between atoms: C2_2  and  C3_3 
REMARK       I    between atoms: C3_3  and  N1_5 
REMARK    2  A    between atoms: C7_9  and  C8_10 
REMARK       I    between atoms: C8_10  and  N2_12 
REMARK    3  A    between atoms: N2_12  and  C9_13 
REMARK    4  A    between atoms: C12_16  and  N3_17 
REMARK    5  A    between atoms: N3_17  and  C13_18 
REMARK    6  A    between atoms: C22_33  and  O3_34 
REMARK    7  A    between atoms: O3_34  and  C23_35 
REMARK    8  A    between atoms: C23_35  and  C24_36 
REMARK    9  A    between atoms: C24_36  and  O4_37 
ROOT
HETATM    1  C9  UNL     1      -0.896  50.951 -23.411  1.00  0.00     0.069 A 
HETATM    2  C10 UNL     1      -0.752  51.220 -22.050  1.00  0.00     0.050 A 
HETATM    3  C11 UNL     1       0.028  52.318 -21.600  1.00  0.00     0.037 A 
HETATM    4  C12 UNL     1       0.240  52.664 -20.248  1.00  0.00     0.119 A 
HETATM    5  N4  UNL     1       0.962  53.745 -19.897  1.00  0.00    -0.338 N 
ATOM      6  H4  UNL     1       1.097  54.002 -18.920  1.00  0.00     0.168 HD
HETATM    7  C19 UNL     1       1.493  54.464 -20.888  1.00  0.00     0.182 A 
HETATM    8  N5  UNL     1       1.373  54.216 -22.197  1.00  0.00    -0.351 N 
ATOM      9  H5  UNL     1       1.817  54.810 -22.898  1.00  0.00     0.166 HD
HETATM   10  C20 UNL     1       0.644  53.153 -22.540  1.00  0.00     0.049 A 
HETATM   11  C21 UNL     1       0.492  52.874 -23.893  1.00  0.00     0.069 A 
HETATM   12  C22 UNL     1      -0.257  51.785 -24.343  1.00  0.00     0.097 A 
ENDROOT
BRANCH   1  13
HETATM   13  N2  UNL     1      -1.661  49.878 -23.919  1.00  0.00    -0.323 N 
HETATM   14  C8  UNL     1      -2.988  49.873 -24.310  1.00  0.00     0.245 C 
HETATM   15  O2  UNL     1      -3.750  50.837 -24.250  1.00  0.00    -0.271 OA
HETATM   16  H11 UNL     1      -1.163  48.981 -23.955  1.00  0.00     0.169 HD
BRANCH  14  17
HETATM   17  C7  UNL     1      -3.440  48.503 -24.875  1.00  0.00     0.180 C 
HETATM   18  N1  UNL     1      -4.902  48.438 -24.993  1.00  0.00    -0.335 N 
HETATM   19  C3  UNL     1      -5.674  48.090 -23.913  1.00  0.00     0.243 C 
HETATM   20  C4  UNL     1      -5.314  48.453 -26.391  1.00  0.00     0.127 C 
HETATM   21  O1  UNL     1      -5.198  47.899 -22.795  1.00  0.00    -0.268 OA
HETATM   22  C5  UNL     1      -4.061  48.827 -27.165  1.00  0.00     0.022 C 
HETATM   23  C6  UNL     1      -2.943  48.255 -26.302  1.00  0.00     0.037 C 
BRANCH  19  24
HETATM   24  C2  UNL     1      -7.129  47.918 -24.118  1.00  0.00     0.064 C 
HETATM   25  C1  UNL     1      -7.679  46.710 -24.303  1.00  0.00     0.017 C 
ENDBRANCH  19  24
ENDBRANCH  14  17
ENDBRANCH   1  13
BRANCH  12  26
HETATM   26  O3  UNL     1      -0.458  51.460 -25.659  1.00  0.00    -0.347 OA
BRANCH  26  27
HETATM   27  C23 UNL     1       0.649  51.004 -26.436  1.00  0.00     0.201 C 
BRANCH  27  28
HETATM   28  C24 UNL     1       1.113  52.084 -27.412  1.00  0.00     0.193 C 
BRANCH  28  29
HETATM   29  O4  UNL     1       0.046  52.555 -28.235  1.00  0.00    -0.394 OA
HETATM   30  C25 UNL     1      -0.363  53.876 -27.911  1.00  0.00     0.201 C 
ENDBRANCH  28  29
ENDBRANCH  27  28
ENDBRANCH  26  27
ENDBRANCH  12  26
BRANCH   4  31
HETATM   31  N3  UNL     1      -0.328  51.855 -19.231  1.00  0.00    -0.339 N 
HETATM   32  H13 UNL     1      -0.823  51.066 -19.646  1.00  0.00     0.167 HD
BRANCH  31  33
HETATM   33  C13 UNL     1       0.239  51.484 -17.987  1.00  0.00     0.074 A 
HETATM   34  C14 UNL     1       0.980  52.370 -17.197  1.00  0.00     0.033 A 
HETATM   35  C15 UNL     1       1.482  51.977 -15.952  1.00  0.00     0.004 A 
HETATM   36  C16 UNL     1       1.236  50.693 -15.470  1.00  0.00     0.027 A 
HETATM   37  C17 UNL     1       0.477  49.806 -16.231  1.00  0.00     0.074 A 
HETATM   38 CL1  UNL     1       0.169  48.223 -15.626  1.00  0.00    -0.081 Cl
HETATM   39  C18 UNL     1      -0.022  50.204 -17.470  1.00  0.00     0.164 A 
HETATM   40  F1  UNL     1      -0.758  49.353 -18.207  1.00  0.00    -0.202 F 
ENDBRANCH  31  33
ENDBRANCH   4  31
TORSDOF 9
ENDMDL
MODEL 3
REMARK minimizedAffinity -8.46299267
REMARK CNNscore 0.226913497
REMARK CNNaffinity 7.43633461
REMARK  9 active torsions:
REMARK  status: ('A' for Active; 'I' for Inactive)
REMARK    1  A    between atoms: C2_2  and  C3_3 
REMARK       I    between atoms: C3_3  and  N1_5 
REMARK    2  A    between atoms: C7_9  and  C8_10 
REMARK       I    between atoms: C8_10  and  N2_12 
REMARK    3  A    between atoms: N2_12  and  C9_13 
REMARK    4  A    between atoms: C12_16  and  N3_17 
REMARK    5  A    between atoms: N3_17  and  C13_18 
REMARK    6  A    between atoms: C22_33  and  O3_34 
REMARK    7  A    between atoms: O3_34  and  C23_35 
REMARK    8  A    between atoms: C23_35  and  C24_36 
REMARK    9  A    between atoms: C24_36  and  O4_37 
ROOT
HETATM    1  C9  UNL     1      -1.272  50.828 -23.109  1.00  0.00     0.069 A 
HETATM    2  C10 UNL     1      -1.032  51.352 -21.839  1.00  0.00     0.050 A 
HETATM    3  C11 UNL     1      -0.124  52.427 -21.650  1.00  0.00     0.037 A 
HETATM    4  C12 UNL     1       0.190  53.016 -20.407  1.00  0.00     0.119 A 
HETATM    5  N4  UNL     1       1.033  54.061 -20.310  1.00  0.00    -0.338 N 
ATOM      6  H4  UNL     1       1.242  54.496 -19.411  1.00  0.00     0.168 HD
HETATM    7  C19 UNL     1       1.581  54.503 -21.444  1.00  0.00     0.182 A 
HETATM    8  N5  UNL     1       1.370  54.008 -22.668  1.00  0.00    -0.351 N 
ATOM      9  H5  UNL     1       1.834  54.396 -23.490  1.00  0.00     0.166 HD
HETATM   10  C20 UNL     1       0.522  52.982 -22.761  1.00  0.00     0.049 A 
HETATM   11  C21 UNL     1       0.274  52.453 -24.021  1.00  0.00     0.069 A 
HETATM   12  C22 UNL     1      -0.602  51.382 -24.213  1.00  0.00     0.097 A 
ENDROOT
BRANCH   1  13
HETATM   13  N2  UNL     1      -2.165  49.763 -23.361  1.00  0.00    -0.323 N 
HETATM   14  C8  UNL     1      -3.530  49.815 -23.579  1.00  0.00     0.245 C 
HETATM   15  O2  UNL     1      -4.214  50.836 -23.562  1.00  0.00    -0.271 OA
HETATM   16  H11 UNL     1      -1.735  48.832 -23.330  1.00  0.00     0.169 HD
BRANCH  14  17
HETATM   17  C7  UNL     1      -4.140  48.423 -23.882  1.00  0.00     0.180 C 
HETATM   18  N1  UNL     1      -4.876  47.906 -22.722  1.00  0.00    -0.335 N 
HETATM   19  C3  UNL     1      -4.215  47.242 -21.718  1.00  0.00     0.243 C 
HETATM   20  C4  UNL     1      -6.311  47.903 -22.973  1.00  0.00     0.127 C 
HETATM   21  O1  UNL     1      -2.992  47.122 -21.698  1.00  0.00    -0.268 OA
HETATM   22  C5  UNL     1      -6.489  48.720 -24.243  1.00  0.00     0.022 C 
HETATM   23  C6  UNL     1      -5.190  48.464 -24.996  1.00  0.00     0.037 C 
BRANCH  19  24
HETATM   24  C2  UNL     1      -5.019  46.633 -20.636  1.00  0.00     0.064 C 
HETATM   25  C1  UNL     1      -5.153  45.306 -20.516  1.00  0.00     0.017 C 
ENDBRANCH  19  24
ENDBRANCH  14  17
ENDBRANCH   1  13
BRANCH  12  26
HETATM   26  O3  UNL     1      -0.902  50.819 -25.426  1.00  0.00    -0.347 OA
BRANCH  26  27
HETATM   27  C23 UNL     1      -0.793  51.617 -26.605  1.00  0.00     0.201 C 
BRANCH  27  28
HETATM   28  C24 UNL     1      -2.135  52.257 -26.958  1.00  0.00     0.193 C 
BRANCH  28  29
HETATM   29  O4  UNL     1      -1.971  53.508 -27.624  1.00  0.00    -0.394 OA
HETATM   30  C25 UNL     1      -0.613  53.805 -27.918  1.00  0.00     0.201 C 
ENDBRANCH  28  29
ENDBRANCH  27  28
ENDBRANCH  26  27
ENDBRANCH  12  26
BRANCH   4  31
HETATM   31  N3  UNL     1      -0.402  52.497 -19.227  1.00  0.00    -0.339 N 
HETATM   32  H13 UNL     1      -1.245  51.973 -19.460  1.00  0.00     0.167 HD
BRANCH  31  33
HETATM   33  C13 UNL     1       0.240  51.926 -18.102  1.00  0.00     0.074 A 
HETATM   34  C14 UNL     1       1.204  52.609 -17.351  1.00  0.00     0.033 A 
HETATM   35  C15 UNL     1       1.780  52.026 -16.217  1.00  0.00     0.004 A 
HETATM   36  C16 UNL     1       1.387  50.753 -15.806  1.00  0.00     0.027 A 
HETATM   37  C17 UNL     1       0.409  50.070 -16.525  1.00  0.00     0.074 A 
HETATM   38 CL1  UNL     1      -0.079  48.502 -16.008  1.00  0.00    -0.081 Cl
HETATM   39  C18 UNL     1      -0.163  50.657 -17.653  1.00  0.00     0.164 A 
HETATM   40  F1  UNL     1      -1.110  50.003 -18.349  1.00  0.00    -0.202 F 
ENDBRANCH  31  33
ENDBRANCH   4  31
TORSDOF 9
ENDMDL
MODEL 4
REMARK minimizedAffinity -7.7340374
REMARK CNNscore 0.225941241
REMARK CNNaffinity 5.64005136
REMARK  9 active torsions:
REMARK  status: ('A' for Active; 'I' for Inactive)
REMARK    1  A    between atoms: C2_2  and  C3_3 
REMARK       I    between atoms: C3_3  and  N1_5 
REMARK    2  A    between atoms: C7_9  and  C8_10 
REMARK       I    between atoms: C8_10  and  N2_12 
REMARK    3  A    between atoms: N2_12  and  C9_13 
REMARK    4  A    between atoms: C12_16  and  N3_17 
REMARK    5  A    between atoms: N3_17  and  C13_18 
REMARK    6  A    between atoms: C22_33  and  O3_34 
REMARK    7  A    between atoms: O3_34  and  C23_35 
REMARK    8  A    between atoms: C23_35  and  C24_36 
REMARK    9  A    between atoms: C24_36  and  O4_37 
ROOT
HETATM    1  C9  UNL     1       5.667  66.124 -36.188  1.00  0.00     0.069 A 
HETATM    2  C10 UNL     1       6.257  64.874 -36.005  1.00  0.00     0.050 A 
HETATM    3  C11 UNL     1       5.628  63.875 -35.217  1.00  0.00     0.037 A 
HETATM    4  C12 UNL     1       6.150  62.588 -34.968  1.00  0.00     0.119 A 
HETATM    5  N4  UNL     1       5.476  61.677 -34.241  1.00  0.00    -0.338 N 
ATOM      6  H4  UNL     1       5.849  60.742 -34.079  1.00  0.00     0.168 HD
HETATM    7  C19 UNL     1       4.298  62.055 -33.742  1.00  0.00     0.182 A 
HETATM    8  N5  UNL     1       3.720  63.251 -33.898  1.00  0.00    -0.351 N 
ATOM      9  H5  UNL     1       2.817  63.469 -33.477  1.00  0.00     0.166 HD
HETATM   10  C20 UNL     1       4.385  64.145 -34.632  1.00  0.00     0.049 A 
HETATM   11  C21 UNL     1       3.806  65.394 -34.822  1.00  0.00     0.069 A 
HETATM   12  C22 UNL     1       4.429  66.388 -35.580  1.00  0.00     0.097 A 
ENDROOT
BRANCH   1  13
HETATM   13  N2  UNL     1       6.241  67.155 -36.963  1.00  0.00    -0.323 N 
HETATM   14  C8  UNL     1       6.585  67.140 -38.303  1.00  0.00     0.245 C 
HETATM   15  O2  UNL     1       6.462  66.175 -39.056  1.00  0.00    -0.271 OA
HETATM   16  H11 UNL     1       6.468  68.007 -36.436  1.00  0.00     0.169 HD
BRANCH  14  17
HETATM   17  C7  UNL     1       7.135  68.502 -38.796  1.00  0.00     0.180 C 
HETATM   18  N1  UNL     1       8.563  68.407 -39.121  1.00  0.00    -0.335 N 
HETATM   19  C3  UNL     1       9.511  68.539 -38.137  1.00  0.00     0.243 C 
HETATM   20  C4  UNL     1       8.779  68.501 -40.559  1.00  0.00     0.127 C 
HETATM   21  O1  UNL     1       9.219  68.657 -36.948  1.00  0.00    -0.268 OA
HETATM   22  C5  UNL     1       7.394  68.366 -41.172  1.00  0.00     0.022 C 
HETATM   23  C6  UNL     1       6.489  68.966 -40.104  1.00  0.00     0.037 C 
BRANCH  19  24
HETATM   24  C2  UNL     1      10.936  68.560 -38.537  1.00  0.00     0.064 C 
HETATM   25  C1  UNL     1      11.567  69.701 -38.842  1.00  0.00     0.017 C 
ENDBRANCH  19  24
ENDBRANCH  14  17
ENDBRANCH   1  13
BRANCH  12  26
HETATM   26  O3  UNL     1       3.910  67.635 -35.817  1.00  0.00    -0.347 OA
BRANCH  26  27
HETATM   27  C23 UNL     1       2.597  67.746 -36.364  1.00  0.00     0.201 C 
BRANCH  27  28
HETATM   28  C24 UNL     1       2.525  67.105 -37.749  1.00  0.00     0.193 C 
BRANCH  28  29
HETATM   29  O4  UNL     1       3.410  67.734 -38.674  1.00  0.00    -0.394 OA
HETATM   30  C25 UNL     1       2.956  67.654 -40.018  1.00  0.00     0.201 C 
ENDBRANCH  28  29
ENDBRANCH  27  28
ENDBRANCH  26  27
ENDBRANCH  12  26
BRANCH   4  31
HETATM   31  N3  UNL     1       7.417  62.241 -35.503  1.00  0.00    -0.339 N 
HETATM   32  H13 UNL     1       7.423  62.387 -36.512  1.00  0.00     0.167 HD
BRANCH  31  33
HETATM   33  C13 UNL     1       8.699  62.499 -34.959  1.00  0.00     0.074 A 
HETATM   34  C14 UNL     1       9.595  63.413 -35.528  1.00  0.00     0.033 A 
HETATM   35  C15 UNL     1      10.833  63.674 -34.930  1.00  0.00     0.004 A 
HETATM   36  C16 UNL     1      11.188  63.034 -33.744  1.00  0.00     0.027 A 
HETATM   37  C17 UNL     1      10.298  62.142 -33.150  1.00  0.00     0.074 A 
HETATM   38 CL1  UNL     1      10.740  61.362 -31.679  1.00  0.00    -0.081 Cl
HETATM   39  C18 UNL     1       9.065  61.888 -33.748  1.00  0.00     0.164 A 
HETATM   40  F1  UNL     1       8.201  61.030 -33.176  1.00  0.00    -0.202 F 
ENDBRANCH  31  33
ENDBRANCH   4  31
TORSDOF 9
ENDMDL
MODEL 5
REMARK minimizedAffinity -7.99503946
REMARK CNNscore 0.2202418
REMARK CNNaffinity 6.8339591
REMARK  9 active torsions:
REMARK  status: ('A' for Active; 'I' for Inactive)
REMARK    1  A    between atoms: C2_2  and  C3_3 
REMARK       I    between atoms: C3_3  and  N1_5 
REMARK    2  A    between atoms: C7_9  and  C8_10 
REMARK       I    between atoms: C8_10  and  N2_12 
REMARK    3  A    between atoms: N2_12  and  C9_13 
REMARK    4  A    between atoms: C12_16  and  N3_17 
REMARK    5  A    between atoms: N3_17  and  C13_18 
REMARK    6  A    between atoms: C22_33  and  O3_34 
REMARK    7  A    between atoms: O3_34  and  C23_35 
REMARK    8  A    between atoms: C23_35  and  C24_36 
REMARK    9  A    between atoms: C24_36  and  O4_37 
ROOT
HETATM    1  C9  UNL     1      -3.329  50.522 -25.248  1.00  0.00     0.069 A 
HETATM    2  C10 UNL     1      -2.341  51.437 -24.885  1.00  0.00     0.050 A 
HETATM    3  C11 UNL     1      -1.377  51.887 -25.825  1.00  0.00     0.037 A 
HETATM    4  C12 UNL     1      -0.338  52.801 -25.549  1.00  0.00     0.119 A 
HETATM    5  N4  UNL     1       0.517  53.212 -26.504  1.00  0.00    -0.338 N 
ATOM      6  H4  UNL     1       1.255  53.887 -26.305  1.00  0.00     0.168 HD
HETATM    7  C19 UNL     1       0.354  52.695 -27.724  1.00  0.00     0.182 A 
HETATM    8  N5  UNL     1      -0.580  51.810 -28.089  1.00  0.00    -0.351 N 
ATOM      9  H5  UNL     1      -0.635  51.453 -29.043  1.00  0.00     0.166 HD
HETATM   10  C20 UNL     1      -1.434  51.417 -27.143  1.00  0.00     0.049 A 
HETATM   11  C21 UNL     1      -2.423  50.507 -27.493  1.00  0.00     0.069 A 
HETATM   12  C22 UNL     1      -3.362  50.044 -26.569  1.00  0.00     0.097 A 
ENDROOT
BRANCH   1  13
HETATM   13  N2  UNL     1      -4.316  50.041 -24.360  1.00  0.00    -0.323 N 
HETATM   14  C8  UNL     1      -4.204  49.053 -23.397  1.00  0.00     0.245 C 
HETATM   15  O2  UNL     1      -3.191  48.393 -23.171  1.00  0.00    -0.271 OA
HETATM   16  H11 UNL     1      -5.244  50.459 -24.490  1.00  0.00     0.169 HD
BRANCH  14  17
HETATM   17  C7  UNL     1      -5.507  48.862 -22.582  1.00  0.00     0.180 C 
HETATM   18  N1  UNL     1      -6.284  47.724 -23.089  1.00  0.00    -0.335 N 
HETATM   19  C3  UNL     1      -7.138  47.881 -24.152  1.00  0.00     0.243 C 
HETATM   20  C4  UNL     1      -6.263  46.615 -22.143  1.00  0.00     0.127 C 
HETATM   21  O1  UNL     1      -7.232  48.938 -24.774  1.00  0.00    -0.268 OA
HETATM   22  C5  UNL     1      -5.191  46.985 -21.131  1.00  0.00     0.022 C 
HETATM   23  C6  UNL     1      -5.245  48.507 -21.116  1.00  0.00     0.037 C 
BRANCH  19  24
HETATM   24  C2  UNL     1      -7.988  46.735 -24.542  1.00  0.00     0.064 C 
HETATM   25  C1  UNL     1      -7.877  46.149 -25.742  1.00  0.00     0.017 C 
ENDBRANCH  19  24
ENDBRANCH  14  17
ENDBRANCH   1  13
BRANCH  12  26
HETATM   26  O3  UNL     1      -4.369  49.157 -26.849  1.00  0.00    -0.347 OA
BRANCH  26  27
HETATM   27  C23 UNL     1      -4.163  48.173 -27.861  1.00  0.00     0.201 C 
BRANCH  27  28
HETATM   28  C24 UNL     1      -5.273  48.227 -28.910  1.00  0.00     0.193 C 
BRANCH  28  29
HETATM   29  O4  UNL     1      -4.800  48.725 -30.161  1.00  0.00    -0.394 OA
HETATM   30  C25 UNL     1      -5.649  48.387 -31.249  1.00  0.00     0.201 C 
ENDBRANCH  28  29
ENDBRANCH  27  28
ENDBRANCH  26  27
ENDBRANCH  12  26
BRANCH   4  31
HETATM   31  N3  UNL     1      -0.194  53.306 -24.232  1.00  0.00    -0.339 N 
HETATM   32  H13 UNL     1      -0.763  54.143 -24.113  1.00  0.00     0.167 HD
BRANCH  31  33
HETATM   33  C13 UNL     1      -0.123  52.580 -23.017  1.00  0.00     0.074 A 
HETATM   34  C14 UNL     1      -0.613  51.276 -22.884  1.00  0.00     0.033 A 
HETATM   35  C15 UNL     1      -0.479  50.576 -21.680  1.00  0.00     0.004 A 
HETATM   36  C16 UNL     1       0.162  51.167 -20.593  1.00  0.00     0.027 A 
HETATM   37  C17 UNL     1       0.680  52.455 -20.716  1.00  0.00     0.074 A 
HETATM   38 CL1  UNL     1       1.478  53.176 -19.372  1.00  0.00    -0.081 Cl
HETATM   39  C18 UNL     1       0.545  53.146 -21.919  1.00  0.00     0.164 A 
HETATM   40  F1  UNL     1       1.047  54.388 -22.045  1.00  0.00    -0.202 F 
ENDBRANCH  31  33
ENDBRANCH   4  31
TORSDOF 9
ENDMDL
MODEL 6
REMARK minimizedAffinity -8.05461025
REMARK CNNscore 0.182708383
REMARK CNNaffinity 7.28117609
REMARK  9 active torsions:
REMARK  status: ('A' for Active; 'I' for Inactive)
REMARK    1  A    between atoms: C2_2  and  C3_3 
REMARK       I    between atoms: C3_3  and  N1_5 
REMARK    2  A    between atoms: C7_9  and  C8_10 
REMARK       I    between atoms: C8_10  and  N2_12 
REMARK    3  A    between atoms: N2_12  and  C9_13 
REMARK    4  A    between atoms: C12_16  and  N3_17 
REMARK    5  A    between atoms: N3_17  and  C13_18 
REMARK    6  A    between atoms: C22_33  and  O3_34 
REMARK    7  A    between atoms: O3_34  and  C23_35 
REMARK    8  A    between atoms: C23_35  and  C24_36 
REMARK    9  A    between atoms: C24_36  and  O4_37 
ROOT
HETATM    1  C9  UNL     1      -1.496  50.877 -22.790  1.00  0.00     0.069 A 
HETATM    2  C10 UNL     1      -1.167  51.456 -21.565  1.00  0.00     0.050 A 
HETATM    3  C11 UNL     1      -0.179  52.471 -21.476  1.00  0.00     0.037 A 
HETATM    4  C12 UNL     1       0.227  53.109 -20.284  1.00  0.00     0.119 A 
HETATM    5  N4  UNL     1       1.145  54.094 -20.283  1.00  0.00    -0.338 N 
ATOM      6  H4  UNL     1       1.421  54.564 -19.422  1.00  0.00     0.168 HD
HETATM    7  C19 UNL     1       1.676  54.425 -21.462  1.00  0.00     0.182 A 
HETATM    8  N5  UNL     1       1.381  53.875 -22.645  1.00  0.00    -0.351 N 
ATOM      9  H5  UNL     1       1.838  54.178 -23.505  1.00  0.00     0.166 HD
HETATM   10  C20 UNL     1       0.459  52.911 -22.643  1.00  0.00     0.049 A 
HETATM   11  C21 UNL     1       0.123  52.326 -23.857  1.00  0.00     0.069 A 
HETATM   12  C22 UNL     1      -0.834  51.313 -23.950  1.00  0.00     0.097 A 
ENDROOT
BRANCH   1  13
HETATM   13  N2  UNL     1      -2.471  49.867 -22.942  1.00  0.00    -0.323 N 
HETATM   14  C8  UNL     1      -3.193  49.209 -21.962  1.00  0.00     0.245 C 
HETATM   15  O2  UNL     1      -3.076  49.391 -20.751  1.00  0.00    -0.271 OA
HETATM   16  H11 UNL     1      -2.619  49.562 -23.911  1.00  0.00     0.169 HD
BRANCH  14  17
HETATM   17  C7  UNL     1      -4.218  48.206 -22.547  1.00  0.00     0.180 C 
HETATM   18  N1  UNL     1      -5.555  48.427 -21.981  1.00  0.00    -0.335 N 
HETATM   19  C3  UNL     1      -5.903  47.866 -20.777  1.00  0.00     0.243 C 
HETATM   20  C4  UNL     1      -6.460  48.981 -22.980  1.00  0.00     0.127 C 
HETATM   21  O1  UNL     1      -5.105  47.233 -20.087  1.00  0.00    -0.268 OA
HETATM   22  C5  UNL     1      -5.563  49.382 -24.140  1.00  0.00     0.022 C 
HETATM   23  C6  UNL     1      -4.423  48.375 -24.054  1.00  0.00     0.037 C 
BRANCH  19  24
HETATM   24  C2  UNL     1      -7.299  48.017 -20.313  1.00  0.00     0.064 C 
HETATM   25  C1  UNL     1      -7.671  49.017 -19.502  1.00  0.00     0.017 C 
ENDBRANCH  19  24
ENDBRANCH  14  17
ENDBRANCH   1  13
BRANCH  12  26
HETATM   26  O3  UNL     1      -1.221  50.703 -25.114  1.00  0.00    -0.347 OA
BRANCH  26  27
HETATM   27  C23 UNL     1      -0.588  51.078 -26.337  1.00  0.00     0.201 C 
BRANCH  27  28
HETATM   28  C24 UNL     1      -1.569  51.796 -27.262  1.00  0.00     0.193 C 
BRANCH  28  29
HETATM   29  O4  UNL     1      -1.512  53.213 -27.104  1.00  0.00    -0.394 OA
HETATM   30  C25 UNL     1      -0.307  53.779 -27.603  1.00  0.00     0.201 C 
ENDBRANCH  28  29
ENDBRANCH  27  28
ENDBRANCH  26  27
ENDBRANCH  12  26
BRANCH   4  31
HETATM   31  N3  UNL     1      -0.352  52.706 -19.054  1.00  0.00    -0.339 N 
HETATM   32  H13 UNL     1      -1.295  52.349 -19.210  1.00  0.00     0.167 HD
BRANCH  31  33
HETATM   33  C13 UNL     1       0.263  52.021 -17.978  1.00  0.00     0.074 A 
HETATM   34  C14 UNL     1       1.286  52.585 -17.206  1.00  0.00     0.033 A 
HETATM   35  C15 UNL     1       1.834  51.893 -16.120  1.00  0.00     0.004 A 
HETATM   36  C16 UNL     1       1.355  50.629 -15.780  1.00  0.00     0.027 A 
HETATM   37  C17 UNL     1       0.319  50.064 -16.521  1.00  0.00     0.074 A 
HETATM   38 CL1  UNL     1      -0.274  48.506 -16.090  1.00  0.00    -0.081 Cl
HETATM   39  C18 UNL     1      -0.225  50.759 -17.600  1.00  0.00     0.164 A 
HETATM   40  F1  UNL     1      -1.227  50.219 -18.315  1.00  0.00    -0.202 F 
ENDBRANCH  31  33
ENDBRANCH   4  31
TORSDOF 9
ENDMDL
MODEL 7
REMARK minimizedAffinity -8.31049824
REMARK CNNscore 0.161066651
REMARK CNNaffinity 6.79336023
REMARK  9 active torsions:
REMARK  status: ('A' for Active; 'I' for Inactive)
REMARK    1  A    between atoms: C2_2  and  C3_3 
REMARK       I    between atoms: C3_3  and  N1_5 
REMARK    2  A    between atoms: C7_9  and  C8_10 
REMARK       I    between atoms: C8_10  and  N2_12 
REMARK    3  A    between atoms: N2_12  and  C9_13 
REMARK    4  A    between atoms: C12_16  and  N3_17 
REMARK    5  A    between atoms: N3_17  and  C13_18 
REMARK    6  A    between atoms: C22_33  and  O3_34 
REMARK    7  A    between atoms: O3_34  and  C23_35 
REMARK    8  A    between atoms: C23_35  and  C24_36 
REMARK    9  A    between atoms: C24_36  and  O4_37 
ROOT
HETATM    1  C9  UNL     1      -2.660  49.668 -23.739  1.00  0.00     0.069 A 
HETATM    2  C10 UNL     1      -1.988  49.334 -22.563  1.00  0.00     0.050 A 
HETATM    3  C11 UNL     1      -2.537  48.400 -21.645  1.00  0.00     0.037 A 
HETATM    4  C12 UNL     1      -1.938  48.007 -20.430  1.00  0.00     0.119 A 
HETATM    5  N4  UNL     1      -2.500  47.084 -19.627  1.00  0.00    -0.338 N 
ATOM      6  H4  UNL     1      -2.054  46.789 -18.759  1.00  0.00     0.168 HD
HETATM    7  C19 UNL     1      -3.669  46.573 -20.021  1.00  0.00     0.182 A 
HETATM    8  N5  UNL     1      -4.333  46.887 -21.138  1.00  0.00    -0.351 N 
ATOM      9  H5  UNL     1      -5.229  46.458 -21.368  1.00  0.00     0.166 HD
HETATM   10  C20 UNL     1      -3.763  47.791 -21.938  1.00  0.00     0.049 A 
HETATM   11  C21 UNL     1      -4.423  48.131 -23.113  1.00  0.00     0.069 A 
HETATM   12  C22 UNL     1      -3.899  49.063 -24.010  1.00  0.00     0.097 A 
ENDROOT
BRANCH   1  13
HETATM   13  N2  UNL     1      -2.164  50.585 -24.691  1.00  0.00    -0.323 N 
HETATM   14  C8  UNL     1      -1.986  51.951 -24.562  1.00  0.00     0.245 C 
HETATM   15  O2  UNL     1      -2.268  52.614 -23.565  1.00  0.00    -0.271 OA
HETATM   16  H11 UNL     1      -1.955  50.174 -25.608  1.00  0.00     0.169 HD
BRANCH  14  17
HETATM   17  C7  UNL     1      -1.355  52.593 -25.823  1.00  0.00     0.180 C 
HETATM   18  N1  UNL     1      -0.172  51.841 -26.261  1.00  0.00    -0.335 N 
HETATM   19  C3  UNL     1       1.055  52.081 -25.695  1.00  0.00     0.243 C 
HETATM   20  C4  UNL     1      -0.435  51.136 -27.509  1.00  0.00     0.127 C 
HETATM   21  O1  UNL     1       1.210  52.860 -24.757  1.00  0.00    -0.268 OA
HETATM   22  C5  UNL     1      -1.939  51.233 -27.705  1.00  0.00     0.022 C 
HETATM   23  C6  UNL     1      -2.285  52.558 -27.038  1.00  0.00     0.037 C 
BRANCH  19  24
HETATM   24  C2  UNL     1       2.233  51.386 -26.259  1.00  0.00     0.064 C 
HETATM   25  C1  UNL     1       2.798  51.774 -27.410  1.00  0.00     0.017 C 
ENDBRANCH  19  24
ENDBRANCH  14  17
ENDBRANCH   1  13
BRANCH  12  26
HETATM   26  O3  UNL     1      -4.489  49.436 -25.190  1.00  0.00    -0.347 OA
BRANCH  26  27
HETATM   27  C23 UNL     1      -4.851  48.427 -26.132  1.00  0.00     0.201 C 
BRANCH  27  28
HETATM   28  C24 UNL     1      -3.783  48.283 -27.216  1.00  0.00     0.193 C 
BRANCH  28  29
HETATM   29  O4  UNL     1      -4.237  48.769 -28.479  1.00  0.00    -0.394 OA
HETATM   30  C25 UNL     1      -5.266  47.968 -29.044  1.00  0.00     0.201 C 
ENDBRANCH  28  29
ENDBRANCH  27  28
ENDBRANCH  26  27
ENDBRANCH  12  26
BRANCH   4  31
HETATM   31  N3  UNL     1      -0.706  48.595 -20.045  1.00  0.00    -0.339 N 
HETATM   32  H13 UNL     1      -0.067  48.620 -20.839  1.00  0.00     0.167 HD
BRANCH  31  33
HETATM   33  C13 UNL     1      -0.493  49.714 -19.204  1.00  0.00     0.074 A 
HETATM   34  C14 UNL     1      -0.559  49.636 -17.807  1.00  0.00     0.033 A 
HETATM   35  C15 UNL     1      -0.295  50.755 -17.010  1.00  0.00     0.004 A 
HETATM   36  C16 UNL     1       0.056  51.969 -17.600  1.00  0.00     0.027 A 
HETATM   37  C17 UNL     1       0.153  52.058 -18.987  1.00  0.00     0.074 A 
HETATM   38 CL1  UNL     1       0.596  53.557 -19.708  1.00  0.00    -0.081 Cl
HETATM   39  C18 UNL     1      -0.109  50.938 -19.775  1.00  0.00     0.164 A 
HETATM   40  F1  UNL     1      -0.013  51.018 -21.114  1.00  0.00    -0.202 F 
ENDBRANCH  31  33
ENDBRANCH   4  31
TORSDOF 9
ENDMDL
MODEL 8
REMARK minimizedAffinity -8.39760971
REMARK CNNscore 0.153647125
REMARK CNNaffinity 6.76203537
REMARK  9 active torsions:
REMARK  status: ('A' for Active; 'I' for Inactive)
REMARK    1  A    between atoms: C2_2  and  C3_3 
REMARK       I    between atoms: C3_3  and  N1_5 
REMARK    2  A    between atoms: C7_9  and  C8_10 
REMARK       I    between atoms: C8_10  and  N2_12 
REMARK    3  A    between atoms: N2_12  and  C9_13 
REMARK    4  A    between atoms: C12_16  and  N3_17 
REMARK    5  A    between atoms: N3_17  and  C13_18 
REMARK    6  A    between atoms: C22_33  and  O3_34 
REMARK    7  A    between atoms: O3_34  and  C23_35 
REMARK    8  A    between atoms: C23_35  and  C24_36 
REMARK    9  A    between atoms: C24_36  and  O4_37 
ROOT
HETATM    1  C9  UNL     1      -1.325  51.589 -22.361  1.00  0.00     0.069 A 
HETATM    2  C10 UNL     1      -1.349  50.905 -21.146  1.00  0.00     0.050 A 
HETATM    3  C11 UNL     1      -0.562  51.337 -20.047  1.00  0.00     0.037 A 
HETATM    4  C12 UNL     1      -0.513  50.707 -18.785  1.00  0.00     0.119 A 
HETATM    5  N4  UNL     1       0.230  51.198 -17.775  1.00  0.00    -0.338 N 
ATOM      6  H4  UNL     1       0.248  50.750 -16.859  1.00  0.00     0.168 HD
HETATM    7  C19 UNL     1       0.941  52.299 -18.028  1.00  0.00     0.182 A 
HETATM    8  N5  UNL     1       0.984  52.963 -19.188  1.00  0.00    -0.351 N 
ATOM      9  H5  UNL     1       1.560  53.796 -19.307  1.00  0.00     0.166 HD
HETATM   10  C20 UNL     1       0.234  52.481 -20.181  1.00  0.00     0.049 A 
HETATM   11  C21 UNL     1       0.249  53.154 -21.396  1.00  0.00     0.069 A 
HETATM   12  C22 UNL     1      -0.507  52.724 -22.488  1.00  0.00     0.097 A 
ENDROOT
BRANCH   1  13
HETATM   13  N2  UNL     1      -2.088  51.211 -23.488  1.00  0.00    -0.323 N 
HETATM   14  C8  UNL     1      -3.412  50.812 -23.540  1.00  0.00     0.245 C 
HETATM   15  O2  UNL     1      -4.157  50.694 -22.569  1.00  0.00    -0.271 OA
HETATM   16  H11 UNL     1      -1.563  51.192 -24.370  1.00  0.00     0.169 HD
BRANCH  14  17
HETATM   17  C7  UNL     1      -3.898  50.540 -24.986  1.00  0.00     0.180 C 
HETATM   18  N1  UNL     1      -2.816  50.752 -25.955  1.00  0.00    -0.335 N 
HETATM   19  C3  UNL     1      -2.545  52.010 -26.432  1.00  0.00     0.243 C 
HETATM   20  C4  UNL     1      -2.371  49.487 -26.527  1.00  0.00     0.127 C 
HETATM   21  O1  UNL     1      -3.126  53.013 -26.021  1.00  0.00    -0.268 OA
HETATM   22  C5  UNL     1      -3.019  48.418 -25.663  1.00  0.00     0.022 C 
HETATM   23  C6  UNL     1      -4.312  49.083 -25.209  1.00  0.00     0.037 C 
BRANCH  19  24
HETATM   24  C2  UNL     1      -1.529  52.150 -27.498  1.00  0.00     0.064 C 
HETATM   25  C1  UNL     1      -1.022  53.342 -27.839  1.00  0.00     0.017 C 
ENDBRANCH  19  24
ENDBRANCH  14  17
ENDBRANCH   1  13
BRANCH  12  26
HETATM   26  O3  UNL     1      -0.549  53.346 -23.709  1.00  0.00    -0.347 OA
BRANCH  26  27
HETATM   27  C23 UNL     1       0.670  53.556 -24.421  1.00  0.00     0.201 C 
BRANCH  27  28
HETATM   28  C24 UNL     1       1.123  52.274 -25.118  1.00  0.00     0.193 C 
BRANCH  28  29
HETATM   29  O4  UNL     1       2.010  52.542 -26.204  1.00  0.00    -0.394 OA
HETATM   30  C25 UNL     1       2.602  51.366 -26.739  1.00  0.00     0.201 C 
ENDBRANCH  28  29
ENDBRANCH  27  28
ENDBRANCH  26  27
ENDBRANCH  12  26
BRANCH   4  31
HETATM   31  N3  UNL     1      -1.270  49.527 -18.573  1.00  0.00    -0.339 N 
HETATM   32  H13 UNL     1      -1.815  49.610 -17.715  1.00  0.00     0.167 HD
BRANCH  31  33
HETATM   33  C13 UNL     1      -1.968  48.749 -19.528  1.00  0.00     0.074 A 
HETATM   34  C14 UNL     1      -1.321  47.900 -20.433  1.00  0.00     0.033 A 
HETATM   35  C15 UNL     1      -2.051  47.111 -21.329  1.00  0.00     0.004 A 
HETATM   36  C16 UNL     1      -3.444  47.148 -21.322  1.00  0.00     0.027 A 
HETATM   37  C17 UNL     1      -4.106  47.967 -20.410  1.00  0.00     0.074 A 
HETATM   38 CL1  UNL     1      -5.827  48.003 -20.401  1.00  0.00    -0.081 Cl
HETATM   39  C18 UNL     1      -3.373  48.749 -19.518  1.00  0.00     0.164 A 
HETATM   40  F1  UNL     1      -4.007  49.538 -18.633  1.00  0.00    -0.202 F 
ENDBRANCH  31  33
ENDBRANCH   4  31
TORSDOF 9
ENDMDL
MODEL 9
REMARK minimizedAffinity -8.09371376
REMARK CNNscore 0.152230069
REMARK CNNaffinity 7.14076042
REMARK  9 active torsions:
REMARK  status: ('A' for Active; 'I' for Inactive)
REMARK    1  A    between atoms: C2_2  and  C3_3 
REMARK       I    between atoms: C3_3  and  N1_5 
REMARK    2  A    between atoms: C7_9  and  C8_10 
REMARK       I    between atoms: C8_10  and  N2_12 
REMARK    3  A    between atoms: N2_12  and  C9_13 
REMARK    4  A    between atoms: C12_16  and  N3_17 
REMARK    5  A    between atoms: N3_17  and  C13_18 
REMARK    6  A    between atoms: C22_33  and  O3_34 
REMARK    7  A    between atoms: O3_34  and  C23_35 
REMARK    8  A    between atoms: C23_35  and  C24_36 
REMARK    9  A    between atoms: C24_36  and  O4_37 
ROOT
HETATM    1  C9  UNL     1      -1.737  50.966 -22.666  1.00  0.00     0.069 A 
HETATM    2  C10 UNL     1      -1.417  51.476 -21.408  1.00  0.00     0.050 A 
HETATM    3  C11 UNL     1      -0.337  52.381 -21.237  1.00  0.00     0.037 A 
HETATM    4  C12 UNL     1       0.067  52.942 -20.007  1.00  0.00     0.119 A 
HETATM    5  N4  UNL     1       1.079  53.826 -19.929  1.00  0.00    -0.338 N 
ATOM      6  H4  UNL     1       1.356  54.243 -19.040  1.00  0.00     0.168 HD
HETATM    7  C19 UNL     1       1.703  54.132 -21.068  1.00  0.00     0.182 A 
HETATM    8  N5  UNL     1       1.417  53.647 -22.281  1.00  0.00    -0.351 N 
ATOM      9  H5  UNL     1       1.948  53.924 -23.107  1.00  0.00     0.166 HD
HETATM   10  C20 UNL     1       0.404  52.783 -22.356  1.00  0.00     0.049 A 
HETATM   11  C21 UNL     1       0.075  52.269 -23.604  1.00  0.00     0.069 A 
HETATM   12  C22 UNL     1      -0.974  51.362 -23.776  1.00  0.00     0.097 A 
ENDROOT
BRANCH   1  13
HETATM   13  N2  UNL     1      -2.801  50.067 -22.899  1.00  0.00    -0.323 N 
HETATM   14  C8  UNL     1      -3.018  48.822 -22.336  1.00  0.00     0.245 C 
HETATM   15  O2  UNL     1      -2.274  48.268 -21.528  1.00  0.00    -0.271 OA
HETATM   16  H11 UNL     1      -3.468  50.374 -23.616  1.00  0.00     0.169 HD
BRANCH  14  17
HETATM   17  C7  UNL     1      -4.342  48.173 -22.810  1.00  0.00     0.180 C 
HETATM   18  N1  UNL     1      -5.502  48.828 -22.191  1.00  0.00    -0.335 N 
HETATM   19  C3  UNL     1      -5.929  48.453 -20.942  1.00  0.00     0.243 C 
HETATM   20  C4  UNL     1      -6.250  49.603 -23.173  1.00  0.00     0.127 C 
HETATM   21  O1  UNL     1      -5.327  47.626 -20.258  1.00  0.00    -0.268 OA
HETATM   22  C5  UNL     1      -5.351  49.655 -24.398  1.00  0.00     0.022 C 
HETATM   23  C6  UNL     1      -4.582  48.342 -24.313  1.00  0.00     0.037 C 
BRANCH  19  24
HETATM   24  C2  UNL     1      -7.174  49.056 -20.418  1.00  0.00     0.064 C 
HETATM   25  C1  UNL     1      -8.288  48.334 -20.239  1.00  0.00     0.017 C 
ENDBRANCH  19  24
ENDBRANCH  14  17
ENDBRANCH   1  13
BRANCH  12  26
HETATM   26  O3  UNL     1      -1.359  50.826 -24.977  1.00  0.00    -0.347 OA
BRANCH  26  27
HETATM   27  C23 UNL     1      -0.510  50.990 -26.113  1.00  0.00     0.201 C 
BRANCH  27  28
HETATM   28  C24 UNL     1      -1.189  51.841 -27.185  1.00  0.00     0.193 C 
BRANCH  28  29
HETATM   29  O4  UNL     1      -1.102  53.235 -26.894  1.00  0.00    -0.394 OA
HETATM   30  C25 UNL     1      -0.374  53.962 -27.875  1.00  0.00     0.201 C 
ENDBRANCH  28  29
ENDBRANCH  27  28
ENDBRANCH  26  27
ENDBRANCH  12  26
BRANCH   4  31
HETATM   31  N3  UNL     1      -0.615  52.568 -18.821  1.00  0.00    -0.339 N 
HETATM   32  H13 UNL     1      -1.622  52.648 -18.956  1.00  0.00     0.167 HD
BRANCH  31  33
HETATM   33  C13 UNL     1      -0.317  51.503 -17.937  1.00  0.00     0.074 A 
HETATM   34  C14 UNL     1      -0.873  50.225 -18.075  1.00  0.00     0.033 A 
HETATM   35  C15 UNL     1      -0.514  49.187 -17.209  1.00  0.00     0.004 A 
HETATM   36  C16 UNL     1       0.420  49.407 -16.198  1.00  0.00     0.027 A 
HETATM   37  C17 UNL     1       1.003  50.665 -16.062  1.00  0.00     0.074 A 
HETATM   38 CL1  UNL     1       2.163  50.928 -14.817  1.00  0.00    -0.081 Cl
HETATM   39  C18 UNL     1       0.644  51.695 -16.930  1.00  0.00     0.164 A 
HETATM   40  F1  UNL     1       1.207  52.910 -16.806  1.00  0.00    -0.202 F 
ENDBRANCH  31  33
ENDBRANCH   4  31
TORSDOF 9
ENDMDL
