MODEL 1
REMARK minimizedAffinity -9.502738
REMARK  6 active torsions:
REMARK  status: ('A' for Active; 'I' for Inactive)
REMARK    1  A    between atoms: N1_2  and  C3_4 
REMARK    2  A    between atoms: C3_4  and  C4_5 
REMARK    3  A    between atoms: C4_5  and  C5_6 
REMARK    4  A    between atoms: C5_6  and  C6_7 
REMARK    5  A    between atoms: C7_8  and  C8_9 
REMARK    6  A    between atoms: C14_17  and  C15_18 
ROOT
HETATM    1  C8  UNL     1      -3.604   6.527  12.807  1.00  0.00     0.048 C 
HETATM    2  C9  UNL     1      -2.462   6.356  13.488  1.00  0.00     0.047 A 
HETATM    3  C10 UNL     1      -2.271   6.080  14.962  1.00  0.00     0.257 A 
HETATM    4  O1  UNL     1      -3.101   5.940  15.838  1.00  0.00    -0.267 OA
HETATM    5  N2  UNL     1      -0.895   5.995  15.131  1.00  0.00    -0.322 N 
HETATM    6  C11 UNL     1      -0.219   6.174  13.930  1.00  0.00     0.046 A 
HETATM    7  C12 UNL     1       1.144   6.144  13.737  1.00  0.00     0.031 A 
HETATM    8  C13 UNL     1       1.612   6.350  12.434  1.00  0.00     0.014 A 
HETATM    9  C14 UNL     1       0.727   6.581  11.351  1.00  0.00    -0.025 A 
HETATM   10  C21 UNL     1      -0.662   6.603  11.596  1.00  0.00     0.027 A 
HETATM   11  C22 UNL     1      -1.121   6.396  12.888  1.00  0.00     0.007 A 
HETATM   12  H14 UNL     1      -0.474   5.813  16.028  1.00  0.00     0.169 HD
ENDROOT
BRANCH   1  13
HETATM   13  C7  UNL     1      -4.883   6.531  13.409  1.00  0.00     0.040 A 
HETATM   14  C6  UNL     1      -5.839   5.553  13.649  1.00  0.00    -0.023 A 
HETATM   15  C24 UNL     1      -6.913   6.197  14.335  1.00  0.00    -0.027 A 
HETATM   16  C23 UNL     1      -6.562   7.521  14.500  1.00  0.00     0.016 A 
HETATM   17  C25 UNL     1      -8.204   5.646  14.846  1.00  0.00     0.041 C 
HETATM   18  N3  UNL     1      -5.338   7.719  13.930  1.00  0.00    -0.359 N 
HETATM   19  C28 UNL     1      -7.388   8.579  15.141  1.00  0.00     0.057 C 
HETATM   20  H23 UNL     1      -4.854   8.604  13.876  1.00  0.00     0.166 HD
HETATM   21  C27 UNL     1      -8.524   7.930  15.952  1.00  0.00     0.006 C 
HETATM   22  C26 UNL     1      -9.197   6.775  15.187  1.00  0.00     0.005 C 
BRANCH  14  23
HETATM   23  C5  UNL     1      -5.764   4.104  13.270  1.00  0.00     0.043 C 
BRANCH  23  24
HETATM   24  C4  UNL     1      -6.353   3.800  11.888  1.00  0.00     0.035 C 
BRANCH  24  25
HETATM   25  C3  UNL     1      -5.399   2.974  11.013  1.00  0.00     0.271 C 
BRANCH  25  26
HETATM   26  N1  UNL     1      -4.014   2.970  11.526  1.00  0.00     0.080 N 
HETATM   27  C1  UNL     1      -3.519   1.609  11.743  1.00  0.00     0.309 C 
HETATM   28  C2  UNL     1      -3.135   3.667  10.582  1.00  0.00     0.309 C 
ENDBRANCH  25  26
ENDBRANCH  24  25
ENDBRANCH  23  24
ENDBRANCH  14  23
ENDBRANCH   1  13
BRANCH   9  29
HETATM   29  C15 UNL     1       1.250   6.798   9.992  1.00  0.00    -0.026 A 
HETATM   30  C16 UNL     1       2.259   5.975   9.466  1.00  0.00     0.012 A 
HETATM   31  C17 UNL     1       2.756   6.180   8.176  1.00  0.00     0.001 A 
HETATM   32  C18 UNL     1       2.252   7.214   7.391  1.00  0.00     0.000 A 
HETATM   33  C19 UNL     1       1.251   8.041   7.894  1.00  0.00     0.001 A 
HETATM   34  C20 UNL     1       0.754   7.835   9.183  1.00  0.00     0.012 A 
ENDBRANCH   9  29
TORSDOF 6
ENDMDL
MODEL 2
REMARK minimizedAffinity -9.49357224
REMARK  6 active torsions:
REMARK  status: ('A' for Active; 'I' for Inactive)
REMARK    1  A    between atoms: N1_2  and  C3_4 
REMARK    2  A    between atoms: C3_4  and  C4_5 
REMARK    3  A    between atoms: C4_5  and  C5_6 
REMARK    4  A    between atoms: C5_6  and  C6_7 
REMARK    5  A    between atoms: C7_8  and  C8_9 
REMARK    6  A    between atoms: C14_17  and  C15_18 
ROOT
HETATM    1  C8  UNL     1      -1.800   5.860  12.291  1.00  0.00     0.048 C 
HETATM    2  C9  UNL     1      -2.447   4.743  11.928  1.00  0.00     0.047 A 
HETATM    3  C10 UNL     1      -1.928   3.562  11.141  1.00  0.00     0.257 A 
HETATM    4  O1  UNL     1      -0.820   3.361  10.685  1.00  0.00    -0.267 OA
HETATM    5  N2  UNL     1      -3.010   2.695  11.050  1.00  0.00    -0.322 N 
HETATM    6  C11 UNL     1      -4.129   3.202  11.700  1.00  0.00     0.046 A 
HETATM    7  C12 UNL     1      -5.363   2.601  11.809  1.00  0.00     0.031 A 
HETATM    8  C13 UNL     1      -6.354   3.294  12.513  1.00  0.00     0.014 A 
HETATM    9  C14 UNL     1      -6.107   4.564  13.092  1.00  0.00    -0.025 A 
HETATM   10  C21 UNL     1      -4.828   5.141  12.955  1.00  0.00     0.027 A 
HETATM   11  C22 UNL     1      -3.849   4.450  12.259  1.00  0.00     0.007 A 
HETATM   12  H14 UNL     1      -2.950   1.810  10.572  1.00  0.00     0.169 HD
ENDROOT
BRANCH   1  13
HETATM   13  C7  UNL     1      -0.465   6.147  11.925  1.00  0.00     0.040 A 
HETATM   14  C6  UNL     1       0.716   6.319  12.637  1.00  0.00    -0.023 A 
HETATM   15  C24 UNL     1       1.740   6.554  11.671  1.00  0.00    -0.027 A 
HETATM   16  C23 UNL     1       1.153   6.495  10.424  1.00  0.00     0.016 A 
HETATM   17  C25 UNL     1       3.201   6.802  11.851  1.00  0.00     0.041 C 
HETATM   18  N3  UNL     1      -0.182   6.259  10.585  1.00  0.00    -0.359 N 
HETATM   19  C28 UNL     1       1.833   6.705   9.119  1.00  0.00     0.057 C 
HETATM   20  H23 UNL     1      -0.860   6.200   9.838  1.00  0.00     0.166 HD
HETATM   21  C27 UNL     1       3.357   6.607   9.306  1.00  0.00     0.006 C 
HETATM   22  C26 UNL     1       3.837   7.359  10.562  1.00  0.00     0.005 C 
BRANCH  14  23
HETATM   23  C5  UNL     1       0.887   6.266  14.126  1.00  0.00     0.043 C 
BRANCH  23  24
HETATM   24  C4  UNL     1      -0.428   6.403  14.901  1.00  0.00     0.035 C 
BRANCH  24  25
HETATM   25  C3  UNL     1      -0.563   7.768  15.591  1.00  0.00     0.271 C 
BRANCH  25  26
HETATM   26  N1  UNL     1      -1.793   7.879  16.401  1.00  0.00     0.080 N 
HETATM   27  C1  UNL     1      -2.064   9.265  16.790  1.00  0.00     0.309 C 
HETATM   28  C2  UNL     1      -2.932   7.350  15.646  1.00  0.00     0.309 C 
ENDBRANCH  25  26
ENDBRANCH  24  25
ENDBRANCH  23  24
ENDBRANCH  14  23
ENDBRANCH   1  13
BRANCH   9  29
HETATM   29  C15 UNL     1      -7.172   5.271  13.825  1.00  0.00    -0.026 A 
HETATM   30  C16 UNL     1      -8.282   5.805  13.150  1.00  0.00     0.012 A 
HETATM   31  C17 UNL     1      -9.292   6.475  13.844  1.00  0.00     0.001 A 
HETATM   32  C18 UNL     1      -9.208   6.625  15.226  1.00  0.00     0.000 A 
HETATM   33  C19 UNL     1      -8.116   6.102  15.913  1.00  0.00     0.001 A 
HETATM   34  C20 UNL     1      -7.107   5.431  15.219  1.00  0.00     0.012 A 
ENDBRANCH   9  29
TORSDOF 6
ENDMDL
MODEL 3
REMARK minimizedAffinity -9.25583553
REMARK  6 active torsions:
REMARK  status: ('A' for Active; 'I' for Inactive)
REMARK    1  A    between atoms: N1_2  and  C3_4 
REMARK    2  A    between atoms: C3_4  and  C4_5 
REMARK    3  A    between atoms: C4_5  and  C5_6 
REMARK    4  A    between atoms: C5_6  and  C6_7 
REMARK    5  A    between atoms: C7_8  and  C8_9 
REMARK    6  A    between atoms: C14_17  and  C15_18 
ROOT
HETATM    1  C8  UNL     1      -0.181   6.305  12.609  1.00  0.00     0.048 C 
HETATM    2  C9  UNL     1      -1.119   7.234  12.841  1.00  0.00     0.047 A 
HETATM    3  C10 UNL     1      -0.949   8.723  13.037  1.00  0.00     0.257 A 
HETATM    4  O1  UNL     1       0.061   9.397  13.012  1.00  0.00    -0.267 OA
HETATM    5  N2  UNL     1      -2.236   9.202  13.243  1.00  0.00    -0.322 N 
HETATM    6  C11 UNL     1      -3.178   8.182  13.185  1.00  0.00     0.046 A 
HETATM    7  C12 UNL     1      -4.542   8.308  13.339  1.00  0.00     0.031 A 
HETATM    8  C13 UNL     1      -5.308   7.141  13.240  1.00  0.00     0.014 A 
HETATM    9  C14 UNL     1      -4.714   5.877  12.995  1.00  0.00    -0.025 A 
HETATM   10  C21 UNL     1      -3.314   5.797  12.844  1.00  0.00     0.027 A 
HETATM   11  C22 UNL     1      -2.560   6.956  12.940  1.00  0.00     0.007 A 
HETATM   12  H14 UNL     1      -2.427  10.179  13.402  1.00  0.00     0.169 HD
ENDROOT
BRANCH   1  13
HETATM   13  C7  UNL     1       1.204   6.583  12.563  1.00  0.00     0.040 A 
HETATM   14  C6  UNL     1       2.202   6.364  11.622  1.00  0.00    -0.023 A 
HETATM   15  C24 UNL     1       3.400   6.918  12.166  1.00  0.00    -0.027 A 
HETATM   16  C23 UNL     1       3.082   7.464  13.393  1.00  0.00     0.016 A 
HETATM   17  C25 UNL     1       4.781   6.978  11.602  1.00  0.00     0.041 C 
HETATM   18  N3  UNL     1       1.755   7.250  13.631  1.00  0.00    -0.359 N 
HETATM   19  C28 UNL     1       4.024   8.130  14.332  1.00  0.00     0.057 C 
HETATM   20  H23 UNL     1       1.262   7.518  14.471  1.00  0.00     0.166 HD
HETATM   21  C27 UNL     1       5.327   8.486  13.595  1.00  0.00     0.006 C 
HETATM   22  C26 UNL     1       5.813   7.339  12.689  1.00  0.00     0.005 C 
BRANCH  14  23
HETATM   23  C5  UNL     1       2.055   5.683  10.295  1.00  0.00     0.043 C 
BRANCH  23  24
HETATM   24  C4  UNL     1       2.991   6.237   9.214  1.00  0.00     0.035 C 
BRANCH  24  25
HETATM   25  C3  UNL     1       2.281   6.429   7.867  1.00  0.00     0.271 C 
BRANCH  25  26
HETATM   26  N1  UNL     1       1.957   7.844   7.588  1.00  0.00     0.080 N 
HETATM   27  C1  UNL     1       0.724   8.261   8.259  1.00  0.00     0.309 C 
HETATM   28  C2  UNL     1       3.065   8.699   8.023  1.00  0.00     0.309 C 
ENDBRANCH  25  26
ENDBRANCH  24  25
ENDBRANCH  23  24
ENDBRANCH  14  23
ENDBRANCH   1  13
BRANCH   9  29
HETATM   29  C15 UNL     1      -5.547   4.666  12.900  1.00  0.00    -0.026 A 
HETATM   30  C16 UNL     1      -6.700   4.518  13.688  1.00  0.00     0.012 A 
HETATM   31  C17 UNL     1      -7.491   3.370  13.599  1.00  0.00     0.001 A 
HETATM   32  C18 UNL     1      -7.139   2.348  12.720  1.00  0.00     0.000 A 
HETATM   33  C19 UNL     1      -6.000   2.475  11.930  1.00  0.00     0.001 A 
HETATM   34  C20 UNL     1      -5.211   3.624  12.019  1.00  0.00     0.012 A 
ENDBRANCH   9  29
TORSDOF 6
ENDMDL
MODEL 4
REMARK minimizedAffinity -9.13077259
REMARK  6 active torsions:
REMARK  status: ('A' for Active; 'I' for Inactive)
REMARK    1  A    between atoms: N1_2  and  C3_4 
REMARK    2  A    between atoms: C3_4  and  C4_5 
REMARK    3  A    between atoms: C4_5  and  C5_6 
REMARK    4  A    between atoms: C5_6  and  C6_7 
REMARK    5  A    between atoms: C7_8  and  C8_9 
REMARK    6  A    between atoms: C14_17  and  C15_18 
ROOT
HETATM    1  C8  UNL     1      -1.435   6.406  13.049  1.00  0.00     0.048 C 
HETATM    2  C9  UNL     1      -1.927   5.229  12.637  1.00  0.00     0.047 A 
HETATM    3  C10 UNL     1      -1.186   4.035  12.081  1.00  0.00     0.257 A 
HETATM    4  O1  UNL     1       0.005   3.876  11.904  1.00  0.00    -0.267 OA
HETATM    5  N2  UNL     1      -2.175   3.097  11.816  1.00  0.00    -0.322 N 
HETATM    6  C11 UNL     1      -3.436   3.572  12.155  1.00  0.00     0.046 A 
HETATM    7  C12 UNL     1      -4.633   2.901  12.029  1.00  0.00     0.031 A 
HETATM    8  C13 UNL     1      -5.790   3.573  12.436  1.00  0.00     0.014 A 
HETATM    9  C14 UNL     1      -5.744   4.891  12.956  1.00  0.00    -0.025 A 
HETATM   10  C21 UNL     1      -4.497   5.539  13.066  1.00  0.00     0.027 A 
HETATM   11  C22 UNL     1      -3.352   4.868  12.665  1.00  0.00     0.007 A 
HETATM   12  H14 UNL     1      -1.965   2.188  11.434  1.00  0.00     0.169 HD
ENDROOT
BRANCH   1  13
HETATM   13  C7  UNL     1      -0.067   6.754  12.973  1.00  0.00     0.040 A 
HETATM   14  C6  UNL     1       0.806   7.014  11.924  1.00  0.00    -0.023 A 
HETATM   15  C24 UNL     1       2.061   7.349  12.515  1.00  0.00    -0.027 A 
HETATM   16  C23 UNL     1       1.898   7.300  13.885  1.00  0.00     0.016 A 
HETATM   17  C25 UNL     1       3.361   7.722  11.882  1.00  0.00     0.041 C 
HETATM   18  N3  UNL     1       0.613   6.930  14.155  1.00  0.00    -0.359 N 
HETATM   19  C28 UNL     1       2.949   7.551  14.907  1.00  0.00     0.057 C 
HETATM   20  H23 UNL     1       0.228   6.784  15.077  1.00  0.00     0.166 HD
HETATM   21  C27 UNL     1       4.149   8.261  14.254  1.00  0.00     0.006 C 
HETATM   22  C26 UNL     1       4.520   7.641  12.895  1.00  0.00     0.005 C 
BRANCH  14  23
HETATM   23  C5  UNL     1       0.496   6.960  10.458  1.00  0.00     0.043 C 
BRANCH  23  24
HETATM   24  C4  UNL     1       0.887   8.233   9.700  1.00  0.00     0.035 C 
BRANCH  24  25
HETATM   25  C3  UNL     1       0.758   8.072   8.179  1.00  0.00     0.271 C 
BRANCH  25  26
HETATM   26  N1  UNL     1       2.056   7.822   7.518  1.00  0.00     0.080 N 
HETATM   27  C1  UNL     1       3.108   8.697   8.040  1.00  0.00     0.309 C 
HETATM   28  C2  UNL     1       2.444   6.421   7.707  1.00  0.00     0.309 C 
ENDBRANCH  25  26
ENDBRANCH  24  25
ENDBRANCH  23  24
ENDBRANCH  14  23
ENDBRANCH   1  13
BRANCH   9  29
HETATM   29  C15 UNL     1      -6.981   5.574  13.372  1.00  0.00    -0.026 A 
HETATM   30  C16 UNL     1      -7.024   6.336  14.551  1.00  0.00     0.012 A 
HETATM   31  C17 UNL     1      -8.197   6.984  14.947  1.00  0.00     0.001 A 
HETATM   32  C18 UNL     1      -9.348   6.879  14.170  1.00  0.00     0.000 A 
HETATM   33  C19 UNL     1      -9.326   6.128  12.998  1.00  0.00     0.001 A 
HETATM   34  C20 UNL     1      -8.152   5.481  12.602  1.00  0.00     0.012 A 
ENDBRANCH   9  29
TORSDOF 6
ENDMDL
MODEL 5
REMARK minimizedAffinity -9.12942314
REMARK  6 active torsions:
REMARK  status: ('A' for Active; 'I' for Inactive)
REMARK    1  A    between atoms: N1_2  and  C3_4 
REMARK    2  A    between atoms: C3_4  and  C4_5 
REMARK    3  A    between atoms: C4_5  and  C5_6 
REMARK    4  A    between atoms: C5_6  and  C6_7 
REMARK    5  A    between atoms: C7_8  and  C8_9 
REMARK    6  A    between atoms: C14_17  and  C15_18 
ROOT
HETATM    1  C8  UNL     1      -1.674   6.158  12.462  1.00  0.00     0.048 C 
HETATM    2  C9  UNL     1      -2.413   5.093  12.124  1.00  0.00     0.047 A 
HETATM    3  C10 UNL     1      -2.035   3.913  11.258  1.00  0.00     0.257 A 
HETATM    4  O1  UNL     1      -0.984   3.669  10.699  1.00  0.00    -0.267 OA
HETATM    5  N2  UNL     1      -3.168   3.110  11.238  1.00  0.00    -0.322 N 
HETATM    6  C11 UNL     1      -4.194   3.654  12.001  1.00  0.00     0.046 A 
HETATM    7  C12 UNL     1      -5.447   3.117  12.202  1.00  0.00     0.031 A 
HETATM    8  C13 UNL     1      -6.330   3.837  13.014  1.00  0.00     0.014 A 
HETATM    9  C14 UNL     1      -5.961   5.071  13.607  1.00  0.00    -0.025 A 
HETATM   10  C21 UNL     1      -4.668   5.582  13.373  1.00  0.00     0.027 A 
HETATM   11  C22 UNL     1      -3.795   4.864  12.571  1.00  0.00     0.007 A 
HETATM   12  H14 UNL     1      -3.201   2.241  10.730  1.00  0.00     0.169 HD
ENDROOT
BRANCH   1  13
HETATM   13  C7  UNL     1      -0.362   6.386  11.987  1.00  0.00     0.040 A 
HETATM   14  C6  UNL     1       0.895   6.371  12.577  1.00  0.00    -0.023 A 
HETATM   15  C24 UNL     1       1.834   6.648  11.539  1.00  0.00    -0.027 A 
HETATM   16  C23 UNL     1       1.121   6.798  10.367  1.00  0.00     0.016 A 
HETATM   17  C25 UNL     1       3.322   6.756  11.583  1.00  0.00     0.041 C 
HETATM   18  N3  UNL     1      -0.207   6.647  10.646  1.00  0.00    -0.359 N 
HETATM   19  C28 UNL     1       1.682   7.121   9.028  1.00  0.00     0.057 C 
HETATM   20  H23 UNL     1      -0.959   6.739   9.978  1.00  0.00     0.166 HD
HETATM   21  C27 UNL     1       3.202   6.881   9.031  1.00  0.00     0.006 C 
HETATM   22  C26 UNL     1       3.873   7.424  10.306  1.00  0.00     0.005 C 
BRANCH  14  23
HETATM   23  C5  UNL     1       1.211   6.113  14.020  1.00  0.00     0.043 C 
BRANCH  23  24
HETATM   24  C4  UNL     1       1.273   7.386  14.872  1.00  0.00     0.035 C 
BRANCH  24  25
HETATM   25  C3  UNL     1       2.611   7.531  15.611  1.00  0.00     0.271 C 
BRANCH  25  26
HETATM   26  N1  UNL     1       3.565   8.405  14.896  1.00  0.00     0.080 N 
HETATM   27  C1  UNL     1       3.532   9.777  15.407  1.00  0.00     0.309 C 
HETATM   28  C2  UNL     1       4.922   7.865  15.027  1.00  0.00     0.309 C 
ENDBRANCH  25  26
ENDBRANCH  24  25
ENDBRANCH  23  24
ENDBRANCH  14  23
ENDBRANCH   1  13
BRANCH   9  29
HETATM   29  C15 UNL     1      -6.915   5.808  14.453  1.00  0.00    -0.026 A 
HETATM   30  C16 UNL     1      -6.592   6.152  15.776  1.00  0.00     0.012 A 
HETATM   31  C17 UNL     1      -7.496   6.852  16.580  1.00  0.00     0.001 A 
HETATM   32  C18 UNL     1      -8.741   7.217  16.074  1.00  0.00     0.000 A 
HETATM   33  C19 UNL     1      -9.080   6.885  14.765  1.00  0.00     0.001 A 
HETATM   34  C20 UNL     1      -8.175   6.187  13.962  1.00  0.00     0.012 A 
ENDBRANCH   9  29
TORSDOF 6
ENDMDL
MODEL 6
REMARK minimizedAffinity -8.77180195
REMARK  6 active torsions:
REMARK  status: ('A' for Active; 'I' for Inactive)
REMARK    1  A    between atoms: N1_2  and  C3_4 
REMARK    2  A    between atoms: C3_4  and  C4_5 
REMARK    3  A    between atoms: C4_5  and  C5_6 
REMARK    4  A    between atoms: C5_6  and  C6_7 
REMARK    5  A    between atoms: C7_8  and  C8_9 
REMARK    6  A    between atoms: C14_17  and  C15_18 
ROOT
HETATM    1  C8  UNL     1      -2.693   6.017  12.976  1.00  0.00     0.048 C 
HETATM    2  C9  UNL     1      -3.350   4.893  12.656  1.00  0.00     0.047 A 
HETATM    3  C10 UNL     1      -2.802   3.609  12.077  1.00  0.00     0.257 A 
HETATM    4  O1  UNL     1      -1.658   3.313  11.794  1.00  0.00    -0.267 OA
HETATM    5  N2  UNL     1      -3.909   2.782  11.941  1.00  0.00    -0.322 N 
HETATM    6  C11 UNL     1      -5.071   3.404  12.380  1.00  0.00     0.046 A 
HETATM    7  C12 UNL     1      -6.341   2.869  12.392  1.00  0.00     0.031 A 
HETATM    8  C13 UNL     1      -7.372   3.677  12.882  1.00  0.00     0.014 A 
HETATM    9  C14 UNL     1      -7.131   4.995  13.346  1.00  0.00    -0.025 A 
HETATM   10  C21 UNL     1      -5.815   5.501  13.314  1.00  0.00     0.027 A 
HETATM   11  C22 UNL     1      -4.796   4.696  12.831  1.00  0.00     0.007 A 
HETATM   12  H14 UNL     1      -3.838   1.846  11.574  1.00  0.00     0.169 HD
ENDROOT
BRANCH   1  13
HETATM   13  C7  UNL     1      -1.310   6.207  12.758  1.00  0.00     0.040 A 
HETATM   14  C6  UNL     1      -0.239   6.534  13.580  1.00  0.00    -0.023 A 
HETATM   15  C24 UNL     1       0.923   6.536  12.751  1.00  0.00    -0.027 A 
HETATM   16  C23 UNL     1       0.520   6.193  11.476  1.00  0.00     0.016 A 
HETATM   17  C25 UNL     1       2.351   6.812  13.086  1.00  0.00     0.041 C 
HETATM   18  N3  UNL     1      -0.832   6.006  11.485  1.00  0.00    -0.359 N 
HETATM   19  C28 UNL     1       1.389   6.094  10.274  1.00  0.00     0.057 C 
HETATM   20  H23 UNL     1      -1.397   5.779  10.678  1.00  0.00     0.166 HD
HETATM   21  C27 UNL     1       2.866   6.036  10.704  1.00  0.00     0.006 C 
HETATM   22  C26 UNL     1       3.187   7.055  11.813  1.00  0.00     0.005 C 
BRANCH  14  23
HETATM   23  C5  UNL     1      -0.286   6.825  15.050  1.00  0.00     0.043 C 
BRANCH  23  24
HETATM   24  C4  UNL     1      -1.625   7.405  15.519  1.00  0.00     0.035 C 
BRANCH  24  25
HETATM   25  C3  UNL     1      -1.603   8.938  15.601  1.00  0.00     0.271 C 
BRANCH  25  26
HETATM   26  N1  UNL     1      -1.315   9.433  16.963  1.00  0.00     0.080 N 
HETATM   27  C1  UNL     1      -0.015  10.105  17.032  1.00  0.00     0.309 C 
HETATM   28  C2  UNL     1      -2.369  10.359  17.386  1.00  0.00     0.309 C 
ENDBRANCH  25  26
ENDBRANCH  24  25
ENDBRANCH  23  24
ENDBRANCH  14  23
ENDBRANCH   1  13
BRANCH   9  29
HETATM   29  C15 UNL     1      -8.239   5.823  13.852  1.00  0.00    -0.026 A 
HETATM   30  C16 UNL     1      -9.354   6.109  13.047  1.00  0.00     0.012 A 
HETATM   31  C17 UNL     1     -10.406   6.894  13.527  1.00  0.00     0.001 A 
HETATM   32  C18 UNL     1     -10.358   7.410  14.820  1.00  0.00     0.000 A 
HETATM   33  C19 UNL     1      -9.261   7.139  15.633  1.00  0.00     0.001 A 
HETATM   34  C20 UNL     1      -8.211   6.352  15.153  1.00  0.00     0.012 A 
ENDBRANCH   9  29
TORSDOF 6
ENDMDL
MODEL 7
REMARK minimizedAffinity -8.6800909
REMARK  6 active torsions:
REMARK  status: ('A' for Active; 'I' for Inactive)
REMARK    1  A    between atoms: N1_2  and  C3_4 
REMARK    2  A    between atoms: C3_4  and  C4_5 
REMARK    3  A    between atoms: C4_5  and  C5_6 
REMARK    4  A    between atoms: C5_6  and  C6_7 
REMARK    5  A    between atoms: C7_8  and  C8_9 
REMARK    6  A    between atoms: C14_17  and  C15_18 
ROOT
HETATM    1  C8  UNL     1     -11.138   7.467  13.089  1.00  0.00     0.048 C 
HETATM    2  C9  UNL     1     -10.421   7.430  14.221  1.00  0.00     0.047 A 
HETATM    3  C10 UNL     1     -10.693   8.122  15.537  1.00  0.00     0.257 A 
HETATM    4  O1  UNL     1     -11.618   8.842  15.857  1.00  0.00    -0.267 OA
HETATM    5  N2  UNL     1      -9.640   7.744  16.360  1.00  0.00    -0.322 N 
HETATM    6  C11 UNL     1      -8.759   6.891  15.706  1.00  0.00     0.046 A 
HETATM    7  C12 UNL     1      -7.617   6.324  16.228  1.00  0.00     0.031 A 
HETATM    8  C13 UNL     1      -6.874   5.489  15.387  1.00  0.00     0.014 A 
HETATM    9  C14 UNL     1      -7.271   5.231  14.050  1.00  0.00    -0.025 A 
HETATM   10  C21 UNL     1      -8.448   5.834  13.559  1.00  0.00     0.027 A 
HETATM   11  C22 UNL     1      -9.182   6.658  14.396  1.00  0.00     0.007 A 
HETATM   12  H14 UNL     1      -9.563   8.062  17.313  1.00  0.00     0.169 HD
ENDROOT
BRANCH   1  13
HETATM   13  C7  UNL     1     -12.302   8.251  12.922  1.00  0.00     0.040 A 
HETATM   14  C6  UNL     1     -13.662   7.969  12.908  1.00  0.00    -0.023 A 
HETATM   15  C24 UNL     1     -14.333   9.217  12.733  1.00  0.00    -0.027 A 
HETATM   16  C23 UNL     1     -13.366  10.200  12.670  1.00  0.00     0.016 A 
HETATM   17  C25 UNL     1     -15.791   9.529  12.645  1.00  0.00     0.041 C 
HETATM   18  N3  UNL     1     -12.141   9.608  12.775  1.00  0.00    -0.359 N 
HETATM   19  C28 UNL     1     -13.599  11.654  12.467  1.00  0.00     0.057 C 
HETATM   20  H23 UNL     1     -11.253  10.089  12.728  1.00  0.00     0.166 HD
HETATM   21  C27 UNL     1     -15.080  11.984  12.730  1.00  0.00     0.006 C 
HETATM   22  C26 UNL     1     -16.026  10.949  12.094  1.00  0.00     0.005 C 
BRANCH  14  23
HETATM   23  C5  UNL     1     -14.306   6.622  13.051  1.00  0.00     0.043 C 
BRANCH  23  24
HETATM   24  C4  UNL     1     -14.125   6.000  14.440  1.00  0.00     0.035 C 
BRANCH  24  25
HETATM   25  C3  UNL     1     -15.462   5.611  15.086  1.00  0.00     0.271 C 
BRANCH  25  26
HETATM   26  N1  UNL     1     -16.078   4.425  14.456  1.00  0.00     0.080 N 
HETATM   27  C1  UNL     1     -15.374   3.192  14.816  1.00  0.00     0.309 C 
HETATM   28  C2  UNL     1     -17.483   4.324  14.861  1.00  0.00     0.309 C 
ENDBRANCH  25  26
ENDBRANCH  24  25
ENDBRANCH  23  24
ENDBRANCH  14  23
ENDBRANCH   1  13
BRANCH   9  29
HETATM   29  C15 UNL     1      -6.465   4.350  13.188  1.00  0.00    -0.026 A 
HETATM   30  C16 UNL     1      -7.023   3.199  12.609  1.00  0.00     0.012 A 
HETATM   31  C17 UNL     1      -6.260   2.363  11.790  1.00  0.00     0.001 A 
HETATM   32  C18 UNL     1      -4.923   2.663  11.540  1.00  0.00     0.000 A 
HETATM   33  C19 UNL     1      -4.351   3.799  12.106  1.00  0.00     0.001 A 
HETATM   34  C20 UNL     1      -5.116   4.636  12.923  1.00  0.00     0.012 A 
ENDBRANCH   9  29
TORSDOF 6
ENDMDL
MODEL 8
REMARK minimizedAffinity -8.65647984
REMARK  6 active torsions:
REMARK  status: ('A' for Active; 'I' for Inactive)
REMARK    1  A    between atoms: N1_2  and  C3_4 
REMARK    2  A    between atoms: C3_4  and  C4_5 
REMARK    3  A    between atoms: C4_5  and  C5_6 
REMARK    4  A    between atoms: C5_6  and  C6_7 
REMARK    5  A    between atoms: C7_8  and  C8_9 
REMARK    6  A    between atoms: C14_17  and  C15_18 
ROOT
HETATM    1  C8  UNL     1      -3.694   7.189  12.970  1.00  0.00     0.048 C 
HETATM    2  C9  UNL     1      -2.617   6.683  13.588  1.00  0.00     0.047 A 
HETATM    3  C10 UNL     1      -2.500   6.141  14.994  1.00  0.00     0.257 A 
HETATM    4  O1  UNL     1      -3.350   6.033  15.856  1.00  0.00    -0.267 OA
HETATM    5  N2  UNL     1      -1.172   5.752  15.114  1.00  0.00    -0.322 N 
HETATM    6  C11 UNL     1      -0.463   5.982  13.942  1.00  0.00     0.046 A 
HETATM    7  C12 UNL     1       0.868   5.708  13.714  1.00  0.00     0.031 A 
HETATM    8  C13 UNL     1       1.380   6.020  12.450  1.00  0.00     0.014 A 
HETATM    9  C14 UNL     1       0.570   6.598  11.439  1.00  0.00    -0.025 A 
HETATM   10  C21 UNL     1      -0.787   6.861  11.718  1.00  0.00     0.027 A 
HETATM   11  C22 UNL     1      -1.290   6.547  12.970  1.00  0.00     0.007 A 
HETATM   12  H14 UNL     1      -0.806   5.347  15.962  1.00  0.00     0.169 HD
ENDROOT
BRANCH   1  13
HETATM   13  C7  UNL     1      -4.951   7.356  13.594  1.00  0.00     0.040 A 
HETATM   14  C6  UNL     1      -5.514   8.353  14.380  1.00  0.00    -0.023 A 
HETATM   15  C24 UNL     1      -6.848   7.936  14.669  1.00  0.00    -0.027 A 
HETATM   16  C23 UNL     1      -7.048   6.726  14.037  1.00  0.00     0.016 A 
HETATM   17  C25 UNL     1      -7.920   8.605  15.465  1.00  0.00     0.041 C 
HETATM   18  N3  UNL     1      -5.895   6.376  13.398  1.00  0.00    -0.359 N 
HETATM   19  C28 UNL     1      -8.286   5.903  14.081  1.00  0.00     0.057 C 
HETATM   20  H23 UNL     1      -5.749   5.519  12.882  1.00  0.00     0.166 HD
HETATM   21  C27 UNL     1      -9.459   6.756  14.596  1.00  0.00     0.006 C 
HETATM   22  C26 UNL     1      -9.059   7.622  15.804  1.00  0.00     0.005 C 
BRANCH  14  23
HETATM   23  C5  UNL     1      -4.857   9.622  14.835  1.00  0.00     0.043 C 
BRANCH  23  24
HETATM   24  C4  UNL     1      -3.961   9.442  16.066  1.00  0.00     0.035 C 
BRANCH  24  25
HETATM   25  C3  UNL     1      -3.265  10.746  16.479  1.00  0.00     0.271 C 
BRANCH  25  26
HETATM   26  N1  UNL     1      -2.005  10.512  17.216  1.00  0.00     0.080 N 
HETATM   27  C1  UNL     1      -2.242  10.306  18.646  1.00  0.00     0.309 C 
HETATM   28  C2  UNL     1      -1.318   9.342  16.660  1.00  0.00     0.309 C 
ENDBRANCH  25  26
ENDBRANCH  24  25
ENDBRANCH  23  24
ENDBRANCH  14  23
ENDBRANCH   1  13
BRANCH   9  29
HETATM   29  C15 UNL     1       1.140   6.919  10.120  1.00  0.00    -0.026 A 
HETATM   30  C16 UNL     1       2.143   6.118   9.550  1.00  0.00     0.012 A 
HETATM   31  C17 UNL     1       2.683   6.422   8.298  1.00  0.00     0.001 A 
HETATM   32  C18 UNL     1       2.230   7.536   7.595  1.00  0.00     0.000 A 
HETATM   33  C19 UNL     1       1.237   8.343   8.143  1.00  0.00     0.001 A 
HETATM   34  C20 UNL     1       0.696   8.037   9.394  1.00  0.00     0.012 A 
ENDBRANCH   9  29
TORSDOF 6
ENDMDL
MODEL 9
REMARK minimizedAffinity -8.63280201
REMARK  6 active torsions:
REMARK  status: ('A' for Active; 'I' for Inactive)
REMARK    1  A    between atoms: N1_2  and  C3_4 
REMARK    2  A    between atoms: C3_4  and  C4_5 
REMARK    3  A    between atoms: C4_5  and  C5_6 
REMARK    4  A    between atoms: C5_6  and  C6_7 
REMARK    5  A    between atoms: C7_8  and  C8_9 
REMARK    6  A    between atoms: C14_17  and  C15_18 
ROOT
HETATM    1  C8  UNL     1      -1.164   7.087  13.089  1.00  0.00     0.048 C 
HETATM    2  C9  UNL     1      -2.333   7.651  13.423  1.00  0.00     0.047 A 
HETATM    3  C10 UNL     1      -2.599   9.054  13.918  1.00  0.00     0.257 A 
HETATM    4  O1  UNL     1      -1.824   9.971  14.104  1.00  0.00    -0.267 OA
HETATM    5  N2  UNL     1      -3.974   9.106  14.111  1.00  0.00    -0.322 N 
HETATM    6  C11 UNL     1      -4.583   7.902  13.781  1.00  0.00     0.046 A 
HETATM    7  C12 UNL     1      -5.928   7.611  13.847  1.00  0.00     0.031 A 
HETATM    8  C13 UNL     1      -6.327   6.327  13.463  1.00  0.00     0.014 A 
HETATM    9  C14 UNL     1      -5.391   5.356  13.024  1.00  0.00    -0.025 A 
HETATM   10  C21 UNL     1      -4.024   5.698  12.972  1.00  0.00     0.027 A 
HETATM   11  C22 UNL     1      -3.635   6.973  13.351  1.00  0.00     0.007 A 
HETATM   12  H14 UNL     1      -4.439   9.937  14.441  1.00  0.00     0.169 HD
ENDROOT
BRANCH   1  13
HETATM   13  C7  UNL     1       0.085   7.739  13.208  1.00  0.00     0.040 A 
HETATM   14  C6  UNL     1       0.956   8.329  12.301  1.00  0.00    -0.023 A 
HETATM   15  C24 UNL     1       2.043   8.851  13.065  1.00  0.00    -0.027 A 
HETATM   16  C23 UNL     1       1.782   8.580  14.393  1.00  0.00     0.016 A 
HETATM   17  C25 UNL     1       3.266   9.588  12.629  1.00  0.00     0.041 C 
HETATM   18  N3  UNL     1       0.602   7.899  14.471  1.00  0.00    -0.359 N 
HETATM   19  C28 UNL     1       2.654   8.918  15.549  1.00  0.00     0.057 C 
HETATM   20  H23 UNL     1       0.186   7.546  15.322  1.00  0.00     0.166 HD
HETATM   21  C27 UNL     1       3.703   9.960  15.121  1.00  0.00     0.006 C 
HETATM   22  C26 UNL     1       4.323   9.630  13.751  1.00  0.00     0.005 C 
BRANCH  14  23
HETATM   23  C5  UNL     1       0.792   8.407  10.813  1.00  0.00     0.043 C 
BRANCH  23  24
HETATM   24  C4  UNL     1       0.839   7.042  10.117  1.00  0.00     0.035 C 
BRANCH  24  25
HETATM   25  C3  UNL     1       1.975   6.154  10.645  1.00  0.00     0.271 C 
BRANCH  25  26
HETATM   26  N1  UNL     1       3.110   6.059   9.705  1.00  0.00     0.080 N 
HETATM   27  C1  UNL     1       2.679   6.224   8.314  1.00  0.00     0.309 C 
HETATM   28  C2  UNL     1       4.110   7.080  10.032  1.00  0.00     0.309 C 
ENDBRANCH  25  26
ENDBRANCH  24  25
ENDBRANCH  23  24
ENDBRANCH  14  23
ENDBRANCH   1  13
BRANCH   9  29
HETATM   29  C15 UNL     1      -5.841   4.010  12.629  1.00  0.00    -0.026 A 
HETATM   30  C16 UNL     1      -5.084   3.225  11.744  1.00  0.00     0.012 A 
HETATM   31  C17 UNL     1      -5.509   1.948  11.370  1.00  0.00     0.001 A 
HETATM   32  C18 UNL     1      -6.703   1.435  11.873  1.00  0.00     0.000 A 
HETATM   33  C19 UNL     1      -7.468   2.198  12.751  1.00  0.00     0.001 A 
HETATM   34  C20 UNL     1      -7.041   3.474  13.126  1.00  0.00     0.012 A 
ENDBRANCH   9  29
TORSDOF 6
ENDMDL
