MODEL 1
REMARK minimizedAffinity -10.1127281
REMARK CNNscore 0.856860876
REMARK CNNaffinity 7.91828108
REMARK  8 active torsions:
REMARK  status: ('A' for Active; 'I' for Inactive)
REMARK    1  A    between atoms: C6_9  and  C7_10 
REMARK    2  A    between atoms: C9_12  and  N3_13 
REMARK    3  A    between atoms: N3_13  and  C10_14 
REMARK    4  A    between atoms: C10_14  and  C11_15 
REMARK    5  A    between atoms: C10_14  and  C12_17 
REMARK    6  A    between atoms: C11_15  and  O1_16 
REMARK    7  A    between atoms: C19_26  and  C20_27 
REMARK    8  A    between atoms: C25_33  and  O2_34 
ROOT
HETATM    1  C7  UNL     1      -1.945  50.893 -24.414  1.00  0.00     0.004 A 
HETATM    2  C8  UNL     1      -3.111  50.347 -23.843  1.00  0.00     0.045 A 
HETATM    3  C9  UNL     1      -4.039  49.621 -24.596  1.00  0.00     0.045 A 
HETATM    4  C18 UNL     1      -3.701  49.427 -25.931  1.00  0.00     0.117 A 
HETATM    5  N4  UNL     1      -2.602  49.934 -26.541  1.00  0.00    -0.362 N 
ATOM      6  H4  UNL     1      -2.439  49.790 -27.538  1.00  0.00     0.165 HD
HETATM    7  C19 UNL     1      -1.726  50.642 -25.779  1.00  0.00     0.056 A 
ENDROOT
BRANCH   1   8
HETATM    8  C6  UNL     1      -1.046  51.706 -23.578  1.00  0.00    -0.023 A 
HETATM    9  C5  UNL     1      -0.313  52.769 -24.133  1.00  0.00     0.014 A 
HETATM   10  C4  UNL     1       0.550  53.559 -23.364  1.00  0.00     0.033 A 
HETATM   11  C3  UNL     1       0.652  53.249 -22.006  1.00  0.00     0.060 A 
HETATM   12  N2  UNL     1       1.389  53.807 -20.997  1.00  0.00    -0.300 N 
HETATM   13  C27 UNL     1      -0.057  52.214 -21.410  1.00  0.00     0.016 A 
HETATM   14  N1  UNL     1       1.222  53.218 -19.800  1.00  0.00    -0.304 N 
HETATM   15  H4  UNL     1       2.028  54.590 -21.060  1.00  0.00     0.187 HD
HETATM   16  C2  UNL     1       0.336  52.244 -20.045  1.00  0.00     0.034 A 
ATOM     17  H1  UNL     1       1.667  53.457 -18.913  1.00  0.00     0.186 HD
HETATM   18  C1  UNL     1      -0.121  51.353 -18.952  1.00  0.00     0.070 C 
HETATM   19  C26 UNL     1      -0.922  51.436 -22.200  1.00  0.00     0.028 A 
ENDBRANCH   1   8
BRANCH   7  20
HETATM   20  C20 UNL     1      -0.557  51.134 -26.529  1.00  0.00     0.028 A 
HETATM   21  C21 UNL     1       0.733  50.763 -26.112  1.00  0.00     0.058 A 
HETATM   22  C22 UNL     1       1.854  51.200 -26.811  1.00  0.00     0.117 A 
HETATM   23  F1  UNL     1       3.074  50.824 -26.403  1.00  0.00    -0.206 F 
HETATM   24  C23 UNL     1       1.730  52.016 -27.927  1.00  0.00     0.045 A 
HETATM   25  C24 UNL     1       0.464  52.414 -28.349  1.00  0.00     0.040 A 
HETATM   26  C25 UNL     1      -0.667  51.979 -27.649  1.00  0.00     0.078 A 
BRANCH  26  27
HETATM   27  O2  UNL     1      -1.905  52.401 -28.055  1.00  0.00    -0.360 OA
HETATM   28  H22 UNL     1      -1.811  52.946 -28.854  1.00  0.00     0.217 HD
ENDBRANCH  26  27
ENDBRANCH   7  20
BRANCH   3  29
HETATM   29  N3  UNL     1      -5.133  49.050 -23.943  1.00  0.00    -0.378 N 
HETATM   30  H8  UNL     1      -5.322  48.104 -24.277  1.00  0.00     0.160 HD
BRANCH  29  31
HETATM   31  C10 UNL     1      -5.285  49.151 -22.477  1.00  0.00     0.138 C 
BRANCH  31  32
HETATM   32  C11 UNL     1      -6.724  49.625 -22.146  1.00  0.00     0.194 C 
BRANCH  32  33
HETATM   33  O1  UNL     1      -7.078  50.793 -22.896  1.00  0.00    -0.399 OA
HETATM   34  H12 UNL     1      -6.250  51.316 -22.927  1.00  0.00     0.209 HD
ENDBRANCH  32  33
ENDBRANCH  31  32
BRANCH  31  35
HETATM   35  C12 UNL     1      -4.911  47.800 -21.875  1.00  0.00    -0.034 A 
HETATM   36  C13 UNL     1      -3.590  47.594 -21.434  1.00  0.00     0.009 A 
HETATM   37  C14 UNL     1      -3.195  46.365 -20.903  1.00  0.00     0.001 A 
HETATM   38  C15 UNL     1      -4.109  45.318 -20.815  1.00  0.00     0.000 A 
HETATM   39  C16 UNL     1      -5.415  45.499 -21.262  1.00  0.00     0.001 A 
HETATM   40  C17 UNL     1      -5.813  46.728 -21.794  1.00  0.00     0.009 A 
ENDBRANCH  31  35
ENDBRANCH  29  31
ENDBRANCH   3  29
TORSDOF 8
ENDMDL
MODEL 2
REMARK minimizedAffinity -10.6667233
REMARK CNNscore 0.776164532
REMARK CNNaffinity 7.73309708
REMARK  8 active torsions:
REMARK  status: ('A' for Active; 'I' for Inactive)
REMARK    1  A    between atoms: C6_9  and  C7_10 
REMARK    2  A    between atoms: C9_12  and  N3_13 
REMARK    3  A    between atoms: N3_13  and  C10_14 
REMARK    4  A    between atoms: C10_14  and  C11_15 
REMARK    5  A    between atoms: C10_14  and  C12_17 
REMARK    6  A    between atoms: C11_15  and  O1_16 
REMARK    7  A    between atoms: C19_26  and  C20_27 
REMARK    8  A    between atoms: C25_33  and  O2_34 
ROOT
HETATM    1  C7  UNL     1      -1.593  50.605 -24.146  1.00  0.00     0.004 A 
HETATM    2  C8  UNL     1      -2.578  49.894 -23.432  1.00  0.00     0.045 A 
HETATM    3  C9  UNL     1      -3.438  48.984 -24.054  1.00  0.00     0.045 A 
HETATM    4  C18 UNL     1      -3.213  48.787 -25.412  1.00  0.00     0.117 A 
HETATM    5  N4  UNL     1      -2.293  49.446 -26.157  1.00  0.00    -0.362 N 
ATOM      6  H4  UNL     1      -2.213  49.284 -27.162  1.00  0.00     0.165 HD
HETATM    7  C19 UNL     1      -1.479  50.330 -25.519  1.00  0.00     0.056 A 
ENDROOT
BRANCH   1   8
HETATM    8  C6  UNL     1      -0.769  51.599 -23.440  1.00  0.00    -0.023 A 
HETATM    9  C5  UNL     1      -0.129  52.633 -24.144  1.00  0.00     0.014 A 
HETATM   10  C4  UNL     1       0.662  53.593 -23.501  1.00  0.00     0.033 A 
HETATM   11  C3  UNL     1       0.789  53.484 -22.115  1.00  0.00     0.060 A 
HETATM   12  N2  UNL     1       1.475  54.237 -21.201  1.00  0.00    -0.300 N 
HETATM   13  C27 UNL     1       0.172  52.485 -21.374  1.00  0.00     0.016 A 
HETATM   14  N1  UNL     1       1.359  53.808 -19.932  1.00  0.00    -0.304 N 
HETATM   15  H4  UNL     1       2.045  55.055 -21.378  1.00  0.00     0.187 HD
HETATM   16  C2  UNL     1       0.559  52.737 -20.031  1.00  0.00     0.034 A 
ATOM     17  H1  UNL     1       1.780  54.204 -19.092  1.00  0.00     0.186 HD
HETATM   18  C1  UNL     1       0.179  51.969 -18.820  1.00  0.00     0.070 C 
HETATM   19  C26 UNL     1      -0.623  51.533 -22.039  1.00  0.00     0.028 A 
ENDBRANCH   1   8
BRANCH   7  20
HETATM   20  C20 UNL     1      -0.501  50.979 -26.409  1.00  0.00     0.028 A 
HETATM   21  C21 UNL     1       0.872  50.771 -26.191  1.00  0.00     0.058 A 
HETATM   22  C22 UNL     1       1.817  51.358 -27.026  1.00  0.00     0.117 A 
HETATM   23  F1  UNL     1       3.120  51.136 -26.806  1.00  0.00    -0.206 F 
HETATM   24  C23 UNL     1       1.433  52.168 -28.086  1.00  0.00     0.045 A 
HETATM   25  C24 UNL     1       0.079  52.406 -28.313  1.00  0.00     0.040 A 
HETATM   26  C25 UNL     1      -0.876  51.818 -27.475  1.00  0.00     0.078 A 
BRANCH  26  27
HETATM   27  O2  UNL     1      -2.203  52.084 -27.688  1.00  0.00    -0.360 OA
HETATM   28  H22 UNL     1      -2.293  52.648 -28.474  1.00  0.00     0.217 HD
ENDBRANCH  26  27
ENDBRANCH   7  20
BRANCH   3  29
HETATM   29  N3  UNL     1      -4.338  48.265 -23.267  1.00  0.00    -0.378 N 
HETATM   30  H8  UNL     1      -3.935  48.014 -22.363  1.00  0.00     0.160 HD
BRANCH  29  31
HETATM   31  C10 UNL     1      -5.747  48.691 -23.136  1.00  0.00     0.138 C 
BRANCH  31  32
HETATM   32  C11 UNL     1      -5.870  50.181 -23.552  1.00  0.00     0.194 C 
BRANCH  32  33
HETATM   33  O1  UNL     1      -7.045  50.785 -23.000  1.00  0.00    -0.399 OA
HETATM   34  H12 UNL     1      -7.721  50.076 -23.044  1.00  0.00     0.209 HD
ENDBRANCH  32  33
ENDBRANCH  31  32
BRANCH  31  35
HETATM   35  C12 UNL     1      -6.602  47.733 -23.960  1.00  0.00    -0.034 A 
HETATM   36  C13 UNL     1      -7.231  46.654 -23.312  1.00  0.00     0.009 A 
HETATM   37  C14 UNL     1      -7.999  45.735 -24.030  1.00  0.00     0.001 A 
HETATM   38  C15 UNL     1      -8.142  45.873 -25.408  1.00  0.00     0.000 A 
HETATM   39  C16 UNL     1      -7.513  46.926 -26.069  1.00  0.00     0.001 A 
HETATM   40  C17 UNL     1      -6.743  47.846 -25.352  1.00  0.00     0.009 A 
ENDBRANCH  31  35
ENDBRANCH  29  31
ENDBRANCH   3  29
TORSDOF 8
ENDMDL
MODEL 3
REMARK minimizedAffinity -9.91276741
REMARK CNNscore 0.769607067
REMARK CNNaffinity 7.79899168
REMARK  8 active torsions:
REMARK  status: ('A' for Active; 'I' for Inactive)
REMARK    1  A    between atoms: C6_9  and  C7_10 
REMARK    2  A    between atoms: C9_12  and  N3_13 
REMARK    3  A    between atoms: N3_13  and  C10_14 
REMARK    4  A    between atoms: C10_14  and  C11_15 
REMARK    5  A    between atoms: C10_14  and  C12_17 
REMARK    6  A    between atoms: C11_15  and  O1_16 
REMARK    7  A    between atoms: C19_26  and  C20_27 
REMARK    8  A    between atoms: C25_33  and  O2_34 
ROOT
HETATM    1  C7  UNL     1      -1.560  50.687 -23.855  1.00  0.00     0.004 A 
HETATM    2  C8  UNL     1      -2.328  49.847 -23.024  1.00  0.00     0.045 A 
HETATM    3  C9  UNL     1      -3.228  48.909 -23.541  1.00  0.00     0.045 A 
HETATM    4  C18 UNL     1      -3.266  48.824 -24.929  1.00  0.00     0.117 A 
HETATM    5  N4  UNL     1      -2.563  49.609 -25.781  1.00  0.00    -0.362 N 
ATOM      6  H4  UNL     1      -2.674  49.522 -26.791  1.00  0.00     0.165 HD
HETATM    7  C19 UNL     1      -1.703  50.515 -25.242  1.00  0.00     0.056 A 
ENDROOT
BRANCH   1   8
HETATM    8  C6  UNL     1      -0.684  51.699 -23.242  1.00  0.00    -0.023 A 
HETATM    9  C5  UNL     1      -0.019  52.649 -24.036  1.00  0.00     0.014 A 
HETATM   10  C4  UNL     1       0.821  53.624 -23.483  1.00  0.00     0.033 A 
HETATM   11  C3  UNL     1       0.970  53.618 -22.096  1.00  0.00     0.060 A 
HETATM   12  N2  UNL     1       1.701  54.413 -21.255  1.00  0.00    -0.300 N 
HETATM   13  C27 UNL     1       0.328  52.706 -21.268  1.00  0.00     0.016 A 
HETATM   14  N1  UNL     1       1.593  54.089 -19.954  1.00  0.00    -0.304 N 
HETATM   15  H4  UNL     1       2.298  55.191 -21.505  1.00  0.00     0.187 HD
HETATM   16  C2  UNL     1       0.751  53.046 -19.955  1.00  0.00     0.034 A 
ATOM     17  H1  UNL     1       2.045  54.532 -19.155  1.00  0.00     0.186 HD
HETATM   18  C1  UNL     1       0.365  52.391 -18.682  1.00  0.00     0.070 C 
HETATM   19  C26 UNL     1      -0.514  51.738 -21.844  1.00  0.00     0.028 A 
ENDBRANCH   1   8
BRANCH   7  20
HETATM   20  C20 UNL     1      -0.973  51.305 -26.248  1.00  0.00     0.028 A 
HETATM   21  C21 UNL     1       0.331  50.923 -26.608  1.00  0.00     0.058 A 
HETATM   22  C22 UNL     1       1.039  51.640 -27.568  1.00  0.00     0.117 A 
HETATM   23  F1  UNL     1       2.275  51.251 -27.904  1.00  0.00    -0.206 F 
HETATM   24  C23 UNL     1       0.482  52.752 -28.185  1.00  0.00     0.045 A 
HETATM   25  C24 UNL     1      -0.802  53.163 -27.833  1.00  0.00     0.040 A 
HETATM   26  C25 UNL     1      -1.517  52.445 -26.868  1.00  0.00     0.078 A 
BRANCH  26  27
HETATM   27  O2  UNL     1      -2.766  52.877 -26.507  1.00  0.00    -0.360 OA
HETATM   28  H22 UNL     1      -3.005  53.649 -27.046  1.00  0.00     0.217 HD
ENDBRANCH  26  27
ENDBRANCH   7  20
BRANCH   3  29
HETATM   29  N3  UNL     1      -3.898  48.064 -22.656  1.00  0.00    -0.378 N 
HETATM   30  H8  UNL     1      -4.435  47.348 -23.147  1.00  0.00     0.160 HD
BRANCH  29  31
HETATM   31  C10 UNL     1      -3.219  47.515 -21.464  1.00  0.00     0.138 C 
BRANCH  31  32
HETATM   32  C11 UNL     1      -1.830  46.963 -21.877  1.00  0.00     0.194 C 
BRANCH  32  33
HETATM   33  O1  UNL     1      -0.784  47.515 -21.068  1.00  0.00    -0.399 OA
HETATM   34  H12 UNL     1      -1.059  48.445 -20.924  1.00  0.00     0.209 HD
ENDBRANCH  32  33
ENDBRANCH  31  32
BRANCH  31  35
HETATM   35  C12 UNL     1      -3.173  48.613 -20.406  1.00  0.00    -0.034 A 
HETATM   36  C13 UNL     1      -4.088  49.679 -20.492  1.00  0.00     0.009 A 
HETATM   37  C14 UNL     1      -4.064  50.722 -19.563  1.00  0.00     0.001 A 
HETATM   38  C15 UNL     1      -3.117  50.723 -18.542  1.00  0.00     0.000 A 
HETATM   39  C16 UNL     1      -2.192  49.686 -18.453  1.00  0.00     0.001 A 
HETATM   40  C17 UNL     1      -2.215  48.641 -19.381  1.00  0.00     0.009 A 
ENDBRANCH  31  35
ENDBRANCH  29  31
ENDBRANCH   3  29
TORSDOF 8
ENDMDL
MODEL 4
REMARK minimizedAffinity -9.15539455
REMARK CNNscore 0.569242716
REMARK CNNaffinity 7.58768845
REMARK  8 active torsions:
REMARK  status: ('A' for Active; 'I' for Inactive)
REMARK    1  A    between atoms: C6_9  and  C7_10 
REMARK    2  A    between atoms: C9_12  and  N3_13 
REMARK    3  A    between atoms: N3_13  and  C10_14 
REMARK    4  A    between atoms: C10_14  and  C11_15 
REMARK    5  A    between atoms: C10_14  and  C12_17 
REMARK    6  A    between atoms: C11_15  and  O1_16 
REMARK    7  A    between atoms: C19_26  and  C20_27 
REMARK    8  A    between atoms: C25_33  and  O2_34 
ROOT
HETATM    1  C7  UNL     1      -1.711  50.170 -21.648  1.00  0.00     0.004 A 
HETATM    2  C8  UNL     1      -2.233  49.678 -22.860  1.00  0.00     0.045 A 
HETATM    3  C9  UNL     1      -3.101  48.583 -22.907  1.00  0.00     0.045 A 
HETATM    4  C18 UNL     1      -3.459  48.055 -21.672  1.00  0.00     0.117 A 
HETATM    5  N4  UNL     1      -2.985  48.475 -20.474  1.00  0.00    -0.362 N 
ATOM      6  H4  UNL     1      -3.256  48.009 -19.607  1.00  0.00     0.165 HD
HETATM    7  C19 UNL     1      -2.136  49.537 -20.467  1.00  0.00     0.056 A 
ENDROOT
BRANCH   1   8
HETATM    8  C6  UNL     1      -0.747  51.282 -21.677  1.00  0.00    -0.023 A 
HETATM    9  C5  UNL     1       0.033  51.588 -20.548  1.00  0.00     0.014 A 
HETATM   10  C4  UNL     1       0.958  52.639 -20.545  1.00  0.00     0.033 A 
HETATM   11  C3  UNL     1       1.080  53.379 -21.723  1.00  0.00     0.060 A 
HETATM   12  N2  UNL     1       1.868  54.449 -22.049  1.00  0.00    -0.300 N 
HETATM   13  C27 UNL     1       0.338  53.112 -22.866  1.00  0.00     0.016 A 
HETATM   14  N1  UNL     1       1.697  54.900 -23.304  1.00  0.00    -0.304 N 
HETATM   15  H4  UNL     1       2.544  54.921 -21.460  1.00  0.00     0.187 HD
HETATM   16  C2  UNL     1       0.763  54.084 -23.810  1.00  0.00     0.034 A 
ATOM     17  H1  UNL     1       2.167  55.681 -23.762  1.00  0.00     0.186 HD
HETATM   18  C1  UNL     1       0.292  54.256 -25.206  1.00  0.00     0.070 C 
HETATM   19  C26 UNL     1      -0.583  52.048 -22.849  1.00  0.00     0.028 A 
ENDBRANCH   1   8
BRANCH   7  20
HETATM   20  C20 UNL     1      -1.693  49.929 -19.118  1.00  0.00     0.028 A 
HETATM   21  C21 UNL     1      -0.713  49.160 -18.466  1.00  0.00     0.058 A 
HETATM   22  C22 UNL     1      -0.263  49.516 -17.199  1.00  0.00     0.117 A 
HETATM   23  F1  UNL     1       0.680  48.776 -16.601  1.00  0.00    -0.206 F 
HETATM   24  C23 UNL     1      -0.774  50.628 -16.543  1.00  0.00     0.045 A 
HETATM   25  C24 UNL     1      -1.759  51.396 -17.160  1.00  0.00     0.040 A 
HETATM   26  C25 UNL     1      -2.216  51.042 -18.434  1.00  0.00     0.078 A 
BRANCH  26  27
HETATM   27  O2  UNL     1      -3.207  51.786 -19.018  1.00  0.00    -0.360 OA
HETATM   28  H22 UNL     1      -3.432  52.530 -18.435  1.00  0.00     0.217 HD
ENDBRANCH  26  27
ENDBRANCH   7  20
BRANCH   3  29
HETATM   29  N3  UNL     1      -3.632  48.201 -24.140  1.00  0.00    -0.378 N 
HETATM   30  H8  UNL     1      -3.956  47.233 -24.130  1.00  0.00     0.160 HD
BRANCH  29  31
HETATM   31  C10 UNL     1      -4.564  49.080 -24.875  1.00  0.00     0.138 C 
BRANCH  31  32
HETATM   32  C11 UNL     1      -5.601  49.668 -23.882  1.00  0.00     0.194 C 
BRANCH  32  33
HETATM   33  O1  UNL     1      -6.885  49.830 -24.497  1.00  0.00    -0.399 OA
HETATM   34  H12 UNL     1      -6.676  50.117 -25.411  1.00  0.00     0.209 HD
ENDBRANCH  32  33
ENDBRANCH  31  32
BRANCH  31  35
HETATM   35  C12 UNL     1      -3.734  50.127 -25.613  1.00  0.00    -0.034 A 
HETATM   36  C13 UNL     1      -2.824  49.702 -26.598  1.00  0.00     0.009 A 
HETATM   37  C14 UNL     1      -2.022  50.621 -27.278  1.00  0.00     0.001 A 
HETATM   38  C15 UNL     1      -2.108  51.977 -26.977  1.00  0.00     0.000 A 
HETATM   39  C16 UNL     1      -2.992  52.414 -25.993  1.00  0.00     0.001 A 
HETATM   40  C17 UNL     1      -3.795  51.496 -25.311  1.00  0.00     0.009 A 
ENDBRANCH  31  35
ENDBRANCH  29  31
ENDBRANCH   3  29
TORSDOF 8
ENDMDL
MODEL 5
REMARK minimizedAffinity -10.0226612
REMARK CNNscore 0.435257107
REMARK CNNaffinity 7.55915499
REMARK  8 active torsions:
REMARK  status: ('A' for Active; 'I' for Inactive)
REMARK    1  A    between atoms: C6_9  and  C7_10 
REMARK    2  A    between atoms: C9_12  and  N3_13 
REMARK    3  A    between atoms: N3_13  and  C10_14 
REMARK    4  A    between atoms: C10_14  and  C11_15 
REMARK    5  A    between atoms: C10_14  and  C12_17 
REMARK    6  A    between atoms: C11_15  and  O1_16 
REMARK    7  A    between atoms: C19_26  and  C20_27 
REMARK    8  A    between atoms: C25_33  and  O2_34 
ROOT
HETATM    1  C7  UNL     1      -0.968  52.379 -22.277  1.00  0.00     0.004 A 
HETATM    2  C8  UNL     1      -0.853  52.503 -20.878  1.00  0.00     0.045 A 
HETATM    3  C9  UNL     1       0.324  52.944 -20.264  1.00  0.00     0.045 A 
HETATM    4  C18 UNL     1       1.347  53.308 -21.133  1.00  0.00     0.117 A 
HETATM    5  N4  UNL     1       1.303  53.202 -22.483  1.00  0.00    -0.362 N 
ATOM      6  H4  UNL     1       2.111  53.445 -23.058  1.00  0.00     0.165 HD
HETATM    7  C19 UNL     1       0.145  52.762 -23.045  1.00  0.00     0.056 A 
ENDROOT
BRANCH   1   8
HETATM    8  C6  UNL     1      -2.212  51.842 -22.852  1.00  0.00    -0.023 A 
HETATM    9  C5  UNL     1      -3.464  52.329 -22.439  1.00  0.00     0.014 A 
HETATM   10  C4  UNL     1      -4.665  51.838 -22.967  1.00  0.00     0.033 A 
HETATM   11  C3  UNL     1      -4.568  50.836 -23.934  1.00  0.00     0.060 A 
HETATM   12  N2  UNL     1      -5.524  50.150 -24.634  1.00  0.00    -0.300 N 
HETATM   13  C27 UNL     1      -3.355  50.327 -24.380  1.00  0.00     0.016 A 
HETATM   14  N1  UNL     1      -5.033  49.238 -25.492  1.00  0.00    -0.304 N 
HETATM   15  H4  UNL     1      -6.529  50.256 -24.572  1.00  0.00     0.187 HD
HETATM   16  C2  UNL     1      -3.706  49.343 -25.343  1.00  0.00     0.034 A 
ATOM     17  H1  UNL     1      -5.550  48.613 -26.110  1.00  0.00     0.186 HD
HETATM   18  C1  UNL     1      -2.791  48.488 -26.137  1.00  0.00     0.070 C 
HETATM   19  C26 UNL     1      -2.161  50.838 -23.840  1.00  0.00     0.028 A 
ENDBRANCH   1   8
BRANCH   7  20
HETATM   20  C20 UNL     1       0.190  52.700 -24.516  1.00  0.00     0.028 A 
HETATM   21  C21 UNL     1       0.386  51.459 -25.147  1.00  0.00     0.058 A 
HETATM   22  C22 UNL     1       0.417  51.369 -26.535  1.00  0.00     0.117 A 
HETATM   23  F1  UNL     1       0.592  50.174 -27.114  1.00  0.00    -0.206 F 
HETATM   24  C23 UNL     1       0.264  52.497 -27.329  1.00  0.00     0.045 A 
HETATM   25  C24 UNL     1       0.087  53.741 -26.729  1.00  0.00     0.040 A 
HETATM   26  C25 UNL     1       0.057  53.838 -25.334  1.00  0.00     0.078 A 
BRANCH  26  27
HETATM   27  O2  UNL     1      -0.086  55.071 -24.754  1.00  0.00    -0.360 OA
HETATM   28  H22 UNL     1      -0.197  55.739 -25.449  1.00  0.00     0.217 HD
ENDBRANCH  26  27
ENDBRANCH   7  20
BRANCH   3  29
HETATM   29  N3  UNL     1       0.336  53.110 -18.879  1.00  0.00    -0.378 N 
HETATM   30  H8  UNL     1      -0.217  53.917 -18.588  1.00  0.00     0.160 HD
BRANCH  29  31
HETATM   31  C10 UNL     1       0.141  51.960 -17.971  1.00  0.00     0.138 C 
BRANCH  31  32
HETATM   32  C11 UNL     1       0.012  50.663 -18.813  1.00  0.00     0.194 C 
BRANCH  32  33
HETATM   33  O1  UNL     1      -0.747  49.663 -18.122  1.00  0.00    -0.399 OA
HETATM   34  H12 UNL     1      -0.477  49.765 -17.185  1.00  0.00     0.209 HD
ENDBRANCH  32  33
ENDBRANCH  31  32
BRANCH  31  35
HETATM   35  C12 UNL     1       1.297  51.952 -16.975  1.00  0.00    -0.034 A 
HETATM   36  C13 UNL     1       1.161  51.217 -15.783  1.00  0.00     0.009 A 
HETATM   37  C14 UNL     1       2.180  51.204 -14.828  1.00  0.00     0.001 A 
HETATM   38  C15 UNL     1       3.345  51.935 -15.043  1.00  0.00     0.000 A 
HETATM   39  C16 UNL     1       3.489  52.683 -16.209  1.00  0.00     0.001 A 
HETATM   40  C17 UNL     1       2.471  52.697 -17.166  1.00  0.00     0.009 A 
ENDBRANCH  31  35
ENDBRANCH  29  31
ENDBRANCH   3  29
TORSDOF 8
ENDMDL
MODEL 6
REMARK minimizedAffinity -8.43197155
REMARK CNNscore 0.353487998
REMARK CNNaffinity 7.00200987
REMARK  8 active torsions:
REMARK  status: ('A' for Active; 'I' for Inactive)
REMARK    1  A    between atoms: C6_9  and  C7_10 
REMARK    2  A    between atoms: C9_12  and  N3_13 
REMARK    3  A    between atoms: N3_13  and  C10_14 
REMARK    4  A    between atoms: C10_14  and  C11_15 
REMARK    5  A    between atoms: C10_14  and  C12_17 
REMARK    6  A    between atoms: C11_15  and  O1_16 
REMARK    7  A    between atoms: C19_26  and  C20_27 
REMARK    8  A    between atoms: C25_33  and  O2_34 
ROOT
HETATM    1  C7  UNL     1      -1.377  49.273 -19.076  1.00  0.00     0.004 A 
HETATM    2  C8  UNL     1      -1.902  48.625 -20.211  1.00  0.00     0.045 A 
HETATM    3  C9  UNL     1      -2.562  47.395 -20.127  1.00  0.00     0.045 A 
HETATM    4  C18 UNL     1      -2.715  46.889 -18.841  1.00  0.00     0.117 A 
HETATM    5  N4  UNL     1      -2.224  47.457 -17.712  1.00  0.00    -0.362 N 
ATOM      6  H4  UNL     1      -2.334  47.006 -16.803  1.00  0.00     0.165 HD
HETATM    7  C19 UNL     1      -1.581  48.649 -17.833  1.00  0.00     0.056 A 
ENDROOT
BRANCH   1   8
HETATM    8  C6  UNL     1      -0.632  50.532 -19.246  1.00  0.00    -0.023 A 
HETATM    9  C5  UNL     1      -0.145  51.235 -18.130  1.00  0.00     0.014 A 
HETATM   10  C4  UNL     1       0.567  52.435 -18.260  1.00  0.00     0.033 A 
HETATM   11  C3  UNL     1       0.778  52.909 -19.555  1.00  0.00     0.060 A 
HETATM   12  N2  UNL     1       1.416  54.026 -20.024  1.00  0.00    -0.300 N 
HETATM   13  C27 UNL     1       0.323  52.248 -20.689  1.00  0.00     0.016 A 
HETATM   14  N1  UNL     1       1.408  54.146 -21.363  1.00  0.00    -0.304 N 
HETATM   15  H4  UNL     1       1.875  54.747 -19.482  1.00  0.00     0.187 HD
HETATM   16  C2  UNL     1       0.742  53.059 -21.776  1.00  0.00     0.034 A 
ATOM     17  H1  UNL     1       1.813  54.891 -21.931  1.00  0.00     0.186 HD
HETATM   18  C1  UNL     1       0.521  52.819 -23.223  1.00  0.00     0.070 C 
HETATM   19  C26 UNL     1      -0.386  51.042 -20.536  1.00  0.00     0.028 A 
ENDBRANCH   1   8
BRANCH   7  20
HETATM   20  C20 UNL     1      -1.103  49.194 -16.551  1.00  0.00     0.028 A 
HETATM   21  C21 UNL     1       0.222  48.946 -16.149  1.00  0.00     0.058 A 
HETATM   22  C22 UNL     1       0.705  49.462 -14.951  1.00  0.00     0.117 A 
HETATM   23  F1  UNL     1       1.974  49.223 -14.595  1.00  0.00    -0.206 F 
HETATM   24  C23 UNL     1      -0.105  50.223 -14.120  1.00  0.00     0.045 A 
HETATM   25  C24 UNL     1      -1.427  50.467 -14.485  1.00  0.00     0.040 A 
HETATM   26  C25 UNL     1      -1.919  49.950 -15.689  1.00  0.00     0.078 A 
BRANCH  26  27
HETATM   27  O2  UNL     1      -3.229  50.170 -16.023  1.00  0.00    -0.360 OA
HETATM   28  H22 UNL     1      -3.641  50.731 -15.345  1.00  0.00     0.217 HD
ENDBRANCH  26  27
ENDBRANCH   7  20
BRANCH   3  29
HETATM   29  N3  UNL     1      -3.118  46.852 -21.286  1.00  0.00    -0.378 N 
HETATM   30  H8  UNL     1      -3.247  45.842 -21.208  1.00  0.00     0.160 HD
BRANCH  29  31
HETATM   31  C10 UNL     1      -4.264  47.498 -21.958  1.00  0.00     0.138 C 
BRANCH  31  32
HETATM   32  C11 UNL     1      -5.395  47.733 -20.923  1.00  0.00     0.194 C 
BRANCH  32  33
HETATM   33  O1  UNL     1      -6.635  47.165 -21.362  1.00  0.00    -0.399 OA
HETATM   34  H12 UNL     1      -6.642  47.327 -22.328  1.00  0.00     0.209 HD
ENDBRANCH  32  33
ENDBRANCH  31  32
BRANCH  31  35
HETATM   35  C12 UNL     1      -3.753  48.767 -22.633  1.00  0.00    -0.034 A 
HETATM   36  C13 UNL     1      -4.254  50.012 -22.209  1.00  0.00     0.009 A 
HETATM   37  C14 UNL     1      -3.838  51.198 -22.816  1.00  0.00     0.001 A 
HETATM   38  C15 UNL     1      -2.924  51.159 -23.866  1.00  0.00     0.000 A 
HETATM   39  C16 UNL     1      -2.431  49.935 -24.311  1.00  0.00     0.001 A 
HETATM   40  C17 UNL     1      -2.846  48.747 -23.704  1.00  0.00     0.009 A 
ENDBRANCH  31  35
ENDBRANCH  29  31
ENDBRANCH   3  29
TORSDOF 8
ENDMDL
MODEL 7
REMARK minimizedAffinity -9.67271805
REMARK CNNscore 0.3463763
REMARK CNNaffinity 6.77547884
REMARK  8 active torsions:
REMARK  status: ('A' for Active; 'I' for Inactive)
REMARK    1  A    between atoms: C6_9  and  C7_10 
REMARK    2  A    between atoms: C9_12  and  N3_13 
REMARK    3  A    between atoms: N3_13  and  C10_14 
REMARK    4  A    between atoms: C10_14  and  C11_15 
REMARK    5  A    between atoms: C10_14  and  C12_17 
REMARK    6  A    between atoms: C11_15  and  O1_16 
REMARK    7  A    between atoms: C19_26  and  C20_27 
REMARK    8  A    between atoms: C25_33  and  O2_34 
ROOT
HETATM    1  C7  UNL     1      -2.872  49.435 -25.606  1.00  0.00     0.004 A 
HETATM    2  C8  UNL     1      -3.961  48.675 -26.078  1.00  0.00     0.045 A 
HETATM    3  C9  UNL     1      -4.432  48.786 -27.390  1.00  0.00     0.045 A 
HETATM    4  C18 UNL     1      -3.715  49.651 -28.209  1.00  0.00     0.117 A 
HETATM    5  N4  UNL     1      -2.669  50.417 -27.813  1.00  0.00    -0.362 N 
ATOM      6  H4  UNL     1      -2.217  51.066 -28.457  1.00  0.00     0.165 HD
HETATM    7  C19 UNL     1      -2.243  50.289 -26.528  1.00  0.00     0.056 A 
ENDROOT
BRANCH   1   8
HETATM    8  C6  UNL     1      -2.473  49.320 -24.194  1.00  0.00    -0.023 A 
HETATM    9  C5  UNL     1      -2.914  48.241 -23.408  1.00  0.00     0.014 A 
HETATM   10  C4  UNL     1      -2.552  48.104 -22.062  1.00  0.00     0.033 A 
HETATM   11  C3  UNL     1      -1.722  49.091 -21.526  1.00  0.00     0.060 A 
HETATM   12  N2  UNL     1      -1.196  49.257 -20.273  1.00  0.00    -0.300 N 
HETATM   13  C27 UNL     1      -1.254  50.171 -22.263  1.00  0.00     0.016 A 
HETATM   14  N1  UNL     1      -0.433  50.355 -20.135  1.00  0.00    -0.304 N 
HETATM   15  H4  UNL     1      -1.322  48.658 -19.466  1.00  0.00     0.187 HD
HETATM   16  C2  UNL     1      -0.462  50.917 -21.350  1.00  0.00     0.034 A 
ATOM     17  H1  UNL     1       0.054  50.682 -19.301  1.00  0.00     0.186 HD
HETATM   18  C1  UNL     1       0.280  52.173 -21.615  1.00  0.00     0.070 C 
HETATM   19  C26 UNL     1      -1.627  50.286 -23.615  1.00  0.00     0.028 A 
ENDBRANCH   1   8
BRANCH   7  20
HETATM   20  C20 UNL     1      -1.091  51.146 -26.201  1.00  0.00     0.028 A 
HETATM   21  C21 UNL     1       0.210  50.626 -26.321  1.00  0.00     0.058 A 
HETATM   22  C22 UNL     1       1.317  51.418 -26.035  1.00  0.00     0.117 A 
HETATM   23  F1  UNL     1       2.547  50.906 -26.168  1.00  0.00    -0.206 F 
HETATM   24  C23 UNL     1       1.168  52.734 -25.616  1.00  0.00     0.045 A 
HETATM   25  C24 UNL     1      -0.111  53.268 -25.470  1.00  0.00     0.040 A 
HETATM   26  C25 UNL     1      -1.228  52.474 -25.756  1.00  0.00     0.078 A 
BRANCH  26  27
HETATM   27  O2  UNL     1      -2.481  53.000 -25.579  1.00  0.00    -0.360 OA
HETATM   28  H22 UNL     1      -2.401  53.928 -25.303  1.00  0.00     0.217 HD
ENDBRANCH  26  27
ENDBRANCH   7  20
BRANCH   3  29
HETATM   29  N3  UNL     1      -5.468  47.947 -27.803  1.00  0.00    -0.378 N 
HETATM   30  H8  UNL     1      -6.147  47.785 -27.057  1.00  0.00     0.160 HD
BRANCH  29  31
HETATM   31  C10 UNL     1      -6.131  48.138 -29.110  1.00  0.00     0.138 C 
BRANCH  31  32
HETATM   32  C11 UNL     1      -5.497  47.175 -30.148  1.00  0.00     0.194 C 
BRANCH  32  33
HETATM   33  O1  UNL     1      -4.830  47.893 -31.192  1.00  0.00    -0.399 OA
HETATM   34  H12 UNL     1      -5.401  48.675 -31.346  1.00  0.00     0.209 HD
ENDBRANCH  32  33
ENDBRANCH  31  32
BRANCH  31  35
HETATM   35  C12 UNL     1      -7.630  47.947 -28.905  1.00  0.00    -0.034 A 
HETATM   36  C13 UNL     1      -8.502  48.209 -29.978  1.00  0.00     0.009 A 
HETATM   37  C14 UNL     1      -9.884  48.076 -29.829  1.00  0.00     0.001 A 
HETATM   38  C15 UNL     1     -10.418  47.691 -28.602  1.00  0.00     0.000 A 
HETATM   39  C16 UNL     1      -9.571  47.444 -27.524  1.00  0.00     0.001 A 
HETATM   40  C17 UNL     1      -8.188  47.576 -27.671  1.00  0.00     0.009 A 
ENDBRANCH  31  35
ENDBRANCH  29  31
ENDBRANCH   3  29
TORSDOF 8
ENDMDL
MODEL 8
REMARK minimizedAffinity -10.4186001
REMARK CNNscore 0.315899789
REMARK CNNaffinity 7.29038
REMARK  8 active torsions:
REMARK  status: ('A' for Active; 'I' for Inactive)
REMARK    1  A    between atoms: C6_9  and  C7_10 
REMARK    2  A    between atoms: C9_12  and  N3_13 
REMARK    3  A    between atoms: N3_13  and  C10_14 
REMARK    4  A    between atoms: C10_14  and  C11_15 
REMARK    5  A    between atoms: C10_14  and  C12_17 
REMARK    6  A    between atoms: C11_15  and  O1_16 
REMARK    7  A    between atoms: C19_26  and  C20_27 
REMARK    8  A    between atoms: C25_33  and  O2_34 
ROOT
HETATM    1  C7  UNL     1      -1.212  52.258 -21.922  1.00  0.00     0.004 A 
HETATM    2  C8  UNL     1      -0.898  52.480 -20.566  1.00  0.00     0.045 A 
HETATM    3  C9  UNL     1       0.415  52.684 -20.130  1.00  0.00     0.045 A 
HETATM    4  C18 UNL     1       1.377  52.713 -21.134  1.00  0.00     0.117 A 
HETATM    5  N4  UNL     1       1.142  52.496 -22.451  1.00  0.00    -0.362 N 
ATOM      6  H4  UNL     1       1.905  52.486 -23.129  1.00  0.00     0.165 HD
HETATM    7  C19 UNL     1      -0.146  52.292 -22.837  1.00  0.00     0.056 A 
ENDROOT
BRANCH   1   8
HETATM    8  C6  UNL     1      -2.607  51.980 -22.301  1.00  0.00    -0.023 A 
HETATM    9  C5  UNL     1      -3.153  52.519 -23.479  1.00  0.00     0.014 A 
HETATM   10  C4  UNL     1      -4.476  52.273 -23.867  1.00  0.00     0.033 A 
HETATM   11  C3  UNL     1      -5.240  51.459 -23.029  1.00  0.00     0.060 A 
HETATM   12  N2  UNL     1      -6.538  51.033 -23.110  1.00  0.00    -0.300 N 
HETATM   13  C27 UNL     1      -4.745  50.898 -21.859  1.00  0.00     0.016 A 
HETATM   14  N1  UNL     1      -6.927  50.248 -22.090  1.00  0.00    -0.304 N 
HETATM   15  H4  UNL     1      -7.214  51.244 -23.834  1.00  0.00     0.187 HD
HETATM   16  C2  UNL     1      -5.833  50.159 -21.322  1.00  0.00     0.034 A 
ATOM     17  H1  UNL     1      -7.841  49.821 -21.936  1.00  0.00     0.186 HD
HETATM   18  C1  UNL     1      -5.854  49.358 -20.075  1.00  0.00     0.070 C 
HETATM   19  C26 UNL     1      -3.412  51.154 -21.491  1.00  0.00     0.028 A 
ENDBRANCH   1   8
BRANCH   7  20
HETATM   20  C20 UNL     1      -0.301  52.086 -24.287  1.00  0.00     0.028 A 
HETATM   21  C21 UNL     1      -0.825  50.869 -24.757  1.00  0.00     0.058 A 
HETATM   22  C22 UNL     1      -0.998  50.653 -26.120  1.00  0.00     0.117 A 
HETATM   23  F1  UNL     1      -1.510  49.490 -26.544  1.00  0.00    -0.206 F 
HETATM   24  C23 UNL     1      -0.650  51.624 -27.049  1.00  0.00     0.045 A 
HETATM   25  C24 UNL     1      -0.111  52.831 -26.612  1.00  0.00     0.040 A 
HETATM   26  C25 UNL     1       0.066  53.053 -25.241  1.00  0.00     0.078 A 
BRANCH  26  27
HETATM   27  O2  UNL     1       0.625  54.232 -24.824  1.00  0.00    -0.360 OA
HETATM   28  H22 UNL     1       0.789  54.799 -25.596  1.00  0.00     0.217 HD
ENDBRANCH  26  27
ENDBRANCH   7  20
BRANCH   3  29
HETATM   29  N3  UNL     1       0.637  52.969 -18.783  1.00  0.00    -0.378 N 
HETATM   30  H8  UNL     1       0.313  53.905 -18.534  1.00  0.00     0.160 HD
BRANCH  29  31
HETATM   31  C10 UNL     1       0.314  51.984 -17.730  1.00  0.00     0.138 C 
BRANCH  31  32
HETATM   32  C11 UNL     1      -0.028  50.624 -18.394  1.00  0.00     0.194 C 
BRANCH  32  33
HETATM   33  O1  UNL     1      -1.087  49.953 -17.700  1.00  0.00    -0.399 OA
HETATM   34  H12 UNL     1      -0.915  50.151 -16.755  1.00  0.00     0.209 HD
ENDBRANCH  32  33
ENDBRANCH  31  32
BRANCH  31  35
HETATM   35  C12 UNL     1       1.492  51.933 -16.762  1.00  0.00    -0.034 A 
HETATM   36  C13 UNL     1       1.377  51.163 -15.590  1.00  0.00     0.009 A 
HETATM   37  C14 UNL     1       2.417  51.110 -14.660  1.00  0.00     0.001 A 
HETATM   38  C15 UNL     1       3.585  51.835 -14.880  1.00  0.00     0.000 A 
HETATM   39  C16 UNL     1       3.710  52.617 -16.026  1.00  0.00     0.001 A 
HETATM   40  C17 UNL     1       2.670  52.671 -16.958  1.00  0.00     0.009 A 
ENDBRANCH  31  35
ENDBRANCH  29  31
ENDBRANCH   3  29
TORSDOF 8
ENDMDL
MODEL 9
REMARK minimizedAffinity -9.95753384
REMARK CNNscore 0.213235259
REMARK CNNaffinity 6.14429617
REMARK  8 active torsions:
REMARK  status: ('A' for Active; 'I' for Inactive)
REMARK    1  A    between atoms: C6_9  and  C7_10 
REMARK    2  A    between atoms: C9_12  and  N3_13 
REMARK    3  A    between atoms: N3_13  and  C10_14 
REMARK    4  A    between atoms: C10_14  and  C11_15 
REMARK    5  A    between atoms: C10_14  and  C12_17 
REMARK    6  A    between atoms: C11_15  and  O1_16 
REMARK    7  A    between atoms: C19_26  and  C20_27 
REMARK    8  A    between atoms: C25_33  and  O2_34 
ROOT
HETATM    1  C7  UNL     1      -3.305  50.144 -26.303  1.00  0.00     0.004 A 
HETATM    2  C8  UNL     1      -3.514  49.474 -27.524  1.00  0.00     0.045 A 
HETATM    3  C9  UNL     1      -4.413  48.409 -27.645  1.00  0.00     0.045 A 
HETATM    4  C18 UNL     1      -5.128  48.101 -26.493  1.00  0.00     0.117 A 
HETATM    5  N4  UNL     1      -4.966  48.699 -25.287  1.00  0.00    -0.362 N 
ATOM      6  H4  UNL     1      -5.493  48.389 -24.470  1.00  0.00     0.165 HD
HETATM    7  C19 UNL     1      -4.077  49.725 -25.205  1.00  0.00     0.056 A 
ENDROOT
BRANCH   1   8
HETATM    8  C6  UNL     1      -2.293  51.210 -26.230  1.00  0.00    -0.023 A 
HETATM    9  C5  UNL     1      -2.081  52.075 -27.318  1.00  0.00     0.014 A 
HETATM   10  C4  UNL     1      -1.125  53.098 -27.279  1.00  0.00     0.033 A 
HETATM   11  C3  UNL     1      -0.384  53.229 -26.104  1.00  0.00     0.060 A 
HETATM   12  N2  UNL     1       0.608  54.100 -25.744  1.00  0.00    -0.300 N 
HETATM   13  C27 UNL     1      -0.561  52.404 -25.000  1.00  0.00     0.016 A 
HETATM   14  N1  UNL     1       1.092  53.907 -24.505  1.00  0.00    -0.304 N 
HETATM   15  H4  UNL     1       1.003  54.849 -26.300  1.00  0.00     0.187 HD
HETATM   16  C2  UNL     1       0.379  52.871 -24.043  1.00  0.00     0.034 A 
ATOM     17  H1  UNL     1       1.830  54.426 -24.029  1.00  0.00     0.186 HD
HETATM   18  C1  UNL     1       0.615  52.346 -22.677  1.00  0.00     0.070 C 
HETATM   19  C26 UNL     1      -1.530  51.386 -25.058  1.00  0.00     0.028 A 
ENDBRANCH   1   8
BRANCH   7  20
HETATM   20  C20 UNL     1      -3.987  50.320 -23.861  1.00  0.00     0.028 A 
HETATM   21  C21 UNL     1      -3.181  49.704 -22.888  1.00  0.00     0.058 A 
HETATM   22  C22 UNL     1      -3.064  50.254 -21.615  1.00  0.00     0.117 A 
HETATM   23  F1  UNL     1      -2.281  49.656 -20.708  1.00  0.00    -0.206 F 
HETATM   24  C23 UNL     1      -3.744  51.414 -21.271  1.00  0.00     0.045 A 
HETATM   25  C24 UNL     1      -4.564  52.034 -22.211  1.00  0.00     0.040 A 
HETATM   26  C25 UNL     1      -4.686  51.485 -23.492  1.00  0.00     0.078 A 
BRANCH  26  27
HETATM   27  O2  UNL     1      -5.519  52.086 -24.398  1.00  0.00    -0.360 OA
HETATM   28  H22 UNL     1      -5.896  52.888 -24.002  1.00  0.00     0.217 HD
ENDBRANCH  26  27
ENDBRANCH   7  20
BRANCH   3  29
HETATM   29  N3  UNL     1      -4.618  47.844 -28.904  1.00  0.00    -0.378 N 
HETATM   30  H8  UNL     1      -4.218  46.907 -28.970  1.00  0.00     0.160 HD
BRANCH  29  31
HETATM   31  C10 UNL     1      -5.933  47.923 -29.572  1.00  0.00     0.138 C 
BRANCH  31  32
HETATM   32  C11 UNL     1      -5.780  48.693 -30.910  1.00  0.00     0.194 C 
BRANCH  32  33
HETATM   33  O1  UNL     1      -4.700  49.632 -30.855  1.00  0.00    -0.399 OA
HETATM   34  H12 UNL     1      -4.739  49.987 -29.942  1.00  0.00     0.209 HD
ENDBRANCH  32  33
ENDBRANCH  31  32
BRANCH  31  35
HETATM   35  C12 UNL     1      -6.467  46.502 -29.719  1.00  0.00    -0.034 A 
HETATM   36  C13 UNL     1      -7.169  45.924 -28.645  1.00  0.00     0.009 A 
HETATM   37  C14 UNL     1      -7.651  44.616 -28.724  1.00  0.00     0.001 A 
HETATM   38  C15 UNL     1      -7.429  43.859 -29.871  1.00  0.00     0.000 A 
HETATM   39  C16 UNL     1      -6.721  44.409 -30.937  1.00  0.00     0.001 A 
HETATM   40  C17 UNL     1      -6.238  45.718 -30.861  1.00  0.00     0.009 A 
ENDBRANCH  31  35
ENDBRANCH  29  31
ENDBRANCH   3  29
TORSDOF 8
ENDMDL
