MODEL 1
REMARK minimizedAffinity -10.3410006
REMARK CNNscore 0.60653317
REMARK CNNaffinity 7.39118719
REMARK  8 active torsions:
REMARK  status: ('A' for Active; 'I' for Inactive)
REMARK    1  A    between atoms: C6_9  and  C7_10 
REMARK    2  A    between atoms: C9_12  and  N3_13 
REMARK    3  A    between atoms: N3_13  and  C10_14 
REMARK    4  A    between atoms: C10_14  and  C11_15 
REMARK    5  A    between atoms: C10_14  and  C12_17 
REMARK    6  A    between atoms: C11_15  and  O1_16 
REMARK    7  A    between atoms: C19_26  and  C20_27 
REMARK    8  A    between atoms: C25_33  and  O2_34 
ROOT
HETATM    1  C7  UNL     1      -2.244   5.617  12.765  1.00  0.00     0.004 A 
HETATM    2  C8  UNL     1      -0.912   6.082  12.803  1.00  0.00     0.045 A 
HETATM    3  C9  UNL     1       0.162   5.328  12.321  1.00  0.00     0.045 A 
HETATM    4  C18 UNL     1      -0.186   4.122  11.729  1.00  0.00     0.117 A 
HETATM    5  N4  UNL     1      -1.444   3.615  11.660  1.00  0.00    -0.362 N 
ATOM      6  H4  UNL     1      -1.625   2.717  11.211  1.00  0.00     0.165 HD
HETATM    7  C19 UNL     1      -2.459   4.344  12.209  1.00  0.00     0.056 A 
ENDROOT
BRANCH   1   8
HETATM    8  C6  UNL     1      -3.316   6.502  13.251  1.00  0.00    -0.023 A 
HETATM    9  C5  UNL     1      -3.431   7.819  12.770  1.00  0.00     0.014 A 
HETATM   10  C4  UNL     1      -4.441   8.685  13.208  1.00  0.00     0.033 A 
HETATM   11  C3  UNL     1      -5.334   8.188  14.159  1.00  0.00     0.060 A 
HETATM   12  N2  UNL     1      -6.410   8.759  14.783  1.00  0.00    -0.300 N 
HETATM   13  C27 UNL     1      -5.255   6.902  14.673  1.00  0.00     0.016 A 
HETATM   14  N1  UNL     1      -7.035   7.950  15.654  1.00  0.00    -0.304 N 
HETATM   15  H4  UNL     1      -6.770   9.698  14.655  1.00  0.00     0.187 HD
HETATM   16  C2  UNL     1      -6.334   6.811  15.595  1.00  0.00     0.034 A 
ATOM     17  H1  UNL     1      -7.853   8.156  16.227  1.00  0.00     0.186 HD
HETATM   18  C1  UNL     1      -6.719   5.648  16.428  1.00  0.00     0.070 C 
HETATM   19  C26 UNL     1      -4.232   6.046  14.221  1.00  0.00     0.028 A 
ENDBRANCH   1   8
BRANCH   7  20
HETATM   20  C20 UNL     1      -3.776   3.668  12.106  1.00  0.00     0.025 A 
HETATM   21  C21 UNL     1      -4.976   4.325  12.443  1.00  0.00     0.020 A 
HETATM   22  C22 UNL     1      -6.215   3.691  12.310  1.00  0.00     0.043 A 
HETATM   23  C23 UNL     1      -6.272   2.382  11.850  1.00  0.00     0.119 A 
HETATM   24  F1  UNL     1      -7.461   1.780  11.721  1.00  0.00    -0.206 F 
HETATM   25  C24 UNL     1      -5.114   1.688  11.538  1.00  0.00     0.079 A 
HETATM   26  C25 UNL     1      -3.882   2.324  11.683  1.00  0.00     0.081 A 
BRANCH  26  27
HETATM   27  O2  UNL     1      -2.774   1.567  11.401  1.00  0.00    -0.360 OA
HETATM   28  H22 UNL     1      -2.014   2.026  11.824  1.00  0.00     0.217 HD
ENDBRANCH  26  27
ENDBRANCH   7  20
BRANCH   3  29
HETATM   29  N3  UNL     1       1.437   5.890  12.346  1.00  0.00    -0.378 N 
HETATM   30  H8  UNL     1       2.151   5.206  12.109  1.00  0.00     0.160 HD
BRANCH  29  31
HETATM   31  C10 UNL     1       1.721   7.224  11.792  1.00  0.00     0.138 C 
BRANCH  31  32
HETATM   32  C11 UNL     1       3.006   7.853  12.399  1.00  0.00     0.194 C 
BRANCH  32  33
HETATM   33  O1  UNL     1       3.531   7.159  13.533  1.00  0.00    -0.399 OA
HETATM   34  H12 UNL     1       3.833   6.288  13.222  1.00  0.00     0.209 HD
ENDBRANCH  32  33
ENDBRANCH  31  32
BRANCH  31  35
HETATM   35  C12 UNL     1       1.821   7.142  10.269  1.00  0.00    -0.034 A 
HETATM   36  C13 UNL     1       1.100   8.049   9.475  1.00  0.00     0.009 A 
HETATM   37  C14 UNL     1       1.189   8.003   8.081  1.00  0.00     0.001 A 
HETATM   38  C15 UNL     1       2.000   7.055   7.463  1.00  0.00     0.000 A 
HETATM   39  C16 UNL     1       2.724   6.149   8.234  1.00  0.00     0.001 A 
HETATM   40  C17 UNL     1       2.636   6.192   9.627  1.00  0.00     0.009 A 
ENDBRANCH  31  35
ENDBRANCH  29  31
ENDBRANCH   3  29
TORSDOF 8
ENDMDL
MODEL 2
REMARK minimizedAffinity -10.9495363
REMARK CNNscore 0.587561011
REMARK CNNaffinity 7.60085487
REMARK  8 active torsions:
REMARK  status: ('A' for Active; 'I' for Inactive)
REMARK    1  A    between atoms: C6_9  and  C7_10 
REMARK    2  A    between atoms: C9_12  and  N3_13 
REMARK    3  A    between atoms: N3_13  and  C10_14 
REMARK    4  A    between atoms: C10_14  and  C11_15 
REMARK    5  A    between atoms: C10_14  and  C12_17 
REMARK    6  A    between atoms: C11_15  and  O1_16 
REMARK    7  A    between atoms: C19_26  and  C20_27 
REMARK    8  A    between atoms: C25_33  and  O2_34 
ROOT
HETATM    1  C7  UNL     1      -2.684   5.968  12.757  1.00  0.00     0.004 A 
HETATM    2  C8  UNL     1      -1.391   6.278  12.286  1.00  0.00     0.045 A 
HETATM    3  C9  UNL     1      -0.706   7.434  12.672  1.00  0.00     0.045 A 
HETATM    4  C18 UNL     1      -1.359   8.215  13.617  1.00  0.00     0.117 A 
HETATM    5  N4  UNL     1      -2.601   7.976  14.110  1.00  0.00    -0.362 N 
ATOM      6  H4  UNL     1      -3.020   8.598  14.802  1.00  0.00     0.165 HD
HETATM    7  C19 UNL     1      -3.272   6.878  13.653  1.00  0.00     0.056 A 
ENDROOT
BRANCH   1   8
HETATM    8  C6  UNL     1      -3.306   4.702  12.333  1.00  0.00    -0.023 A 
HETATM    9  C5  UNL     1      -2.547   3.715  11.680  1.00  0.00     0.014 A 
HETATM   10  C4  UNL     1      -3.107   2.499  11.268  1.00  0.00     0.033 A 
HETATM   11  C3  UNL     1      -4.465   2.307  11.525  1.00  0.00     0.060 A 
HETATM   12  N2  UNL     1      -5.302   1.256  11.259  1.00  0.00    -0.300 N 
HETATM   13  C27 UNL     1      -5.259   3.255  12.154  1.00  0.00     0.016 A 
HETATM   14  N1  UNL     1      -6.569   1.445  11.665  1.00  0.00    -0.304 N 
HETATM   15  H4  UNL     1      -5.069   0.382  10.803  1.00  0.00     0.187 HD
HETATM   16  C2  UNL     1      -6.552   2.666  12.213  1.00  0.00     0.034 A 
ATOM     17  H1  UNL     1      -7.359   0.806  11.576  1.00  0.00     0.186 HD
HETATM   18  C1  UNL     1      -7.787   3.248  12.790  1.00  0.00     0.070 C 
HETATM   19  C26 UNL     1      -4.678   4.471  12.561  1.00  0.00     0.028 A 
ENDBRANCH   1   8
BRANCH   7  20
HETATM   20  C20 UNL     1      -4.631   6.748  14.235  1.00  0.00     0.025 A 
HETATM   21  C21 UNL     1      -5.785   7.106  13.511  1.00  0.00     0.020 A 
HETATM   22  C22 UNL     1      -7.063   6.948  14.056  1.00  0.00     0.043 A 
HETATM   23  C23 UNL     1      -7.205   6.442  15.341  1.00  0.00     0.119 A 
HETATM   24  F1  UNL     1      -8.432   6.290  15.858  1.00  0.00    -0.206 F 
HETATM   25  C24 UNL     1      -6.095   6.109  16.100  1.00  0.00     0.079 A 
HETATM   26  C25 UNL     1      -4.824   6.278  15.553  1.00  0.00     0.081 A 
BRANCH  26  27
HETATM   27  O2  UNL     1      -3.768   5.973  16.373  1.00  0.00    -0.360 OA
HETATM   28  H22 UNL     1      -2.981   6.413  15.981  1.00  0.00     0.217 HD
ENDBRANCH  26  27
ENDBRANCH   7  20
BRANCH   3  29
HETATM   29  N3  UNL     1       0.591   7.631  12.202  1.00  0.00    -0.378 N 
HETATM   30  H8  UNL     1       1.147   8.171  12.860  1.00  0.00     0.160 HD
BRANCH  29  31
HETATM   31  C10 UNL     1       1.362   6.562  11.549  1.00  0.00     0.138 C 
BRANCH  31  32
HETATM   32  C11 UNL     1       0.750   5.155  11.799  1.00  0.00     0.194 C 
BRANCH  32  33
HETATM   33  O1  UNL     1       1.372   4.095  11.069  1.00  0.00    -0.399 OA
HETATM   34  H12 UNL     1       2.279   4.008  11.407  1.00  0.00     0.209 HD
ENDBRANCH  32  33
ENDBRANCH  31  32
BRANCH  31  35
HETATM   35  C12 UNL     1       1.478   6.846  10.052  1.00  0.00    -0.034 A 
HETATM   36  C13 UNL     1       0.638   7.803   9.459  1.00  0.00     0.009 A 
HETATM   37  C14 UNL     1       0.737   8.092   8.096  1.00  0.00     0.001 A 
HETATM   38  C15 UNL     1       1.676   7.432   7.307  1.00  0.00     0.000 A 
HETATM   39  C16 UNL     1       2.519   6.483   7.878  1.00  0.00     0.001 A 
HETATM   40  C17 UNL     1       2.422   6.192   9.240  1.00  0.00     0.009 A 
ENDBRANCH  31  35
ENDBRANCH  29  31
ENDBRANCH   3  29
TORSDOF 8
ENDMDL
MODEL 3
REMARK minimizedAffinity -9.89735699
REMARK CNNscore 0.553837657
REMARK CNNaffinity 7.34421539
REMARK  8 active torsions:
REMARK  status: ('A' for Active; 'I' for Inactive)
REMARK    1  A    between atoms: C6_9  and  C7_10 
REMARK    2  A    between atoms: C9_12  and  N3_13 
REMARK    3  A    between atoms: N3_13  and  C10_14 
REMARK    4  A    between atoms: C10_14  and  C11_15 
REMARK    5  A    between atoms: C10_14  and  C12_17 
REMARK    6  A    between atoms: C11_15  and  O1_16 
REMARK    7  A    between atoms: C19_26  and  C20_27 
REMARK    8  A    between atoms: C25_33  and  O2_34 
ROOT
HETATM    1  C7  UNL     1      -3.826   5.897  13.447  1.00  0.00     0.004 A 
HETATM    2  C8  UNL     1      -2.898   6.936  13.671  1.00  0.00     0.045 A 
HETATM    3  C9  UNL     1      -1.648   6.975  13.048  1.00  0.00     0.045 A 
HETATM    4  C18 UNL     1      -1.417   5.959  12.131  1.00  0.00     0.117 A 
HETATM    5  N4  UNL     1      -2.263   4.930  11.870  1.00  0.00    -0.362 N 
ATOM      6  H4  UNL     1      -2.024   4.215  11.183  1.00  0.00     0.165 HD
HETATM    7  C19 UNL     1      -3.444   4.882  12.553  1.00  0.00     0.056 A 
ENDROOT
BRANCH   1   8
HETATM    8  C6  UNL     1      -5.139   5.966  14.111  1.00  0.00    -0.023 A 
HETATM    9  C5  UNL     1      -5.241   5.869  15.511  1.00  0.00     0.014 A 
HETATM   10  C4  UNL     1      -6.473   5.936  16.173  1.00  0.00     0.033 A 
HETATM   11  C3  UNL     1      -7.611   6.096  15.381  1.00  0.00     0.060 A 
HETATM   12  N2  UNL     1      -8.937   6.196  15.703  1.00  0.00    -0.300 N 
HETATM   13  C27 UNL     1      -7.564   6.185  13.997  1.00  0.00     0.016 A 
HETATM   14  N1  UNL     1      -9.751   6.344  14.645  1.00  0.00    -0.304 N 
HETATM   15  H4  UNL     1      -9.351   6.172  16.628  1.00  0.00     0.187 HD
HETATM   16  C2  UNL     1      -8.920   6.337  13.596  1.00  0.00     0.034 A 
ATOM     17  H1  UNL     1     -10.767   6.440  14.642  1.00  0.00     0.186 HD
HETATM   18  C1  UNL     1      -9.447   6.481  12.218  1.00  0.00     0.070 C 
HETATM   19  C26 UNL     1      -6.316   6.115  13.349  1.00  0.00     0.028 A 
ENDBRANCH   1   8
BRANCH   7  20
HETATM   20  C20 UNL     1      -4.261   3.693  12.209  1.00  0.00     0.025 A 
HETATM   21  C21 UNL     1      -5.670   3.730  12.228  1.00  0.00     0.020 A 
HETATM   22  C22 UNL     1      -6.432   2.614  11.869  1.00  0.00     0.043 A 
HETATM   23  C23 UNL     1      -5.795   1.436  11.500  1.00  0.00     0.119 A 
HETATM   24  F1  UNL     1      -6.529   0.370  11.154  1.00  0.00    -0.206 F 
HETATM   25  C24 UNL     1      -4.412   1.346  11.500  1.00  0.00     0.079 A 
HETATM   26  C25 UNL     1      -3.660   2.461  11.868  1.00  0.00     0.081 A 
BRANCH  26  27
HETATM   27  O2  UNL     1      -2.299   2.291  11.891  1.00  0.00    -0.360 OA
HETATM   28  H22 UNL     1      -1.941   3.024  12.438  1.00  0.00     0.217 HD
ENDBRANCH  26  27
ENDBRANCH   7  20
BRANCH   3  29
HETATM   29  N3  UNL     1      -0.819   8.070  13.283  1.00  0.00    -0.378 N 
HETATM   30  H8  UNL     1      -0.914   8.412  14.237  1.00  0.00     0.160 HD
BRANCH  29  31
HETATM   31  C10 UNL     1       0.568   8.128  12.794  1.00  0.00     0.138 C 
BRANCH  31  32
HETATM   32  C11 UNL     1       1.427   6.942  13.316  1.00  0.00     0.194 C 
BRANCH  32  33
HETATM   33  O1  UNL     1       1.162   6.564  14.669  1.00  0.00    -0.399 OA
HETATM   34  H12 UNL     1       0.255   6.214  14.697  1.00  0.00     0.209 HD
ENDBRANCH  32  33
ENDBRANCH  31  32
BRANCH  31  35
HETATM   35  C12 UNL     1       0.578   8.177  11.267  1.00  0.00    -0.034 A 
HETATM   36  C13 UNL     1       1.615   7.550  10.557  1.00  0.00     0.009 A 
HETATM   37  C14 UNL     1       1.636   7.567   9.160  1.00  0.00     0.001 A 
HETATM   38  C15 UNL     1       0.621   8.208   8.454  1.00  0.00     0.000 A 
HETATM   39  C16 UNL     1      -0.416   8.834   9.140  1.00  0.00     0.001 A 
HETATM   40  C17 UNL     1      -0.439   8.818  10.536  1.00  0.00     0.009 A 
ENDBRANCH  31  35
ENDBRANCH  29  31
ENDBRANCH   3  29
TORSDOF 8
ENDMDL
MODEL 4
REMARK minimizedAffinity -9.8807478
REMARK CNNscore 0.387823462
REMARK CNNaffinity 7.15809393
REMARK  8 active torsions:
REMARK  status: ('A' for Active; 'I' for Inactive)
REMARK    1  A    between atoms: C6_9  and  C7_10 
REMARK    2  A    between atoms: C9_12  and  N3_13 
REMARK    3  A    between atoms: N3_13  and  C10_14 
REMARK    4  A    between atoms: C10_14  and  C11_15 
REMARK    5  A    between atoms: C10_14  and  C12_17 
REMARK    6  A    between atoms: C11_15  and  O1_16 
REMARK    7  A    between atoms: C19_26  and  C20_27 
REMARK    8  A    between atoms: C25_33  and  O2_34 
ROOT
HETATM    1  C7  UNL     1      -6.368   6.503  14.130  1.00  0.00     0.004 A 
HETATM    2  C8  UNL     1      -7.542   7.207  14.475  1.00  0.00     0.045 A 
HETATM    3  C9  UNL     1      -7.513   8.487  15.035  1.00  0.00     0.045 A 
HETATM    4  C18 UNL     1      -6.249   9.049  15.152  1.00  0.00     0.117 A 
HETATM    5  N4  UNL     1      -5.082   8.428  14.841  1.00  0.00    -0.362 N 
ATOM      6  H4  UNL     1      -4.187   8.903  14.957  1.00  0.00     0.165 HD
HETATM    7  C19 UNL     1      -5.143   7.149  14.368  1.00  0.00     0.056 A 
ENDROOT
BRANCH   1   8
HETATM    8  C6  UNL     1      -6.499   5.178  13.499  1.00  0.00    -0.023 A 
HETATM    9  C5  UNL     1      -7.733   4.503  13.500  1.00  0.00     0.014 A 
HETATM   10  C4  UNL     1      -7.892   3.245  12.905  1.00  0.00     0.033 A 
HETATM   11  C3  UNL     1      -6.763   2.676  12.313  1.00  0.00     0.060 A 
HETATM   12  N2  UNL     1      -6.579   1.486  11.661  1.00  0.00    -0.300 N 
HETATM   13  C27 UNL     1      -5.522   3.295  12.298  1.00  0.00     0.016 A 
HETATM   14  N1  UNL     1      -5.325   1.287  11.223  1.00  0.00    -0.304 N 
HETATM   15  H4  UNL     1      -7.271   0.768  11.481  1.00  0.00     0.187 HD
HETATM   16  C2  UNL     1      -4.671   2.388  11.610  1.00  0.00     0.034 A 
ATOM     17  H1  UNL     1      -4.958   0.482  10.715  1.00  0.00     0.186 HD
HETATM   18  C1  UNL     1      -3.229   2.552  11.306  1.00  0.00     0.070 C 
HETATM   19  C26 UNL     1      -5.382   4.560  12.901  1.00  0.00     0.028 A 
ENDBRANCH   1   8
BRANCH   7  20
HETATM   20  C20 UNL     1      -3.804   6.567  14.104  1.00  0.00     0.025 A 
HETATM   21  C21 UNL     1      -3.260   6.518  12.805  1.00  0.00     0.020 A 
HETATM   22  C22 UNL     1      -1.983   5.999  12.570  1.00  0.00     0.043 A 
HETATM   23  C23 UNL     1      -1.235   5.507  13.632  1.00  0.00     0.119 A 
HETATM   24  F1  UNL     1      -0.011   5.013  13.403  1.00  0.00    -0.206 F 
HETATM   25  C24 UNL     1      -1.745   5.506  14.920  1.00  0.00     0.079 A 
HETATM   26  C25 UNL     1      -3.023   6.016  15.144  1.00  0.00     0.081 A 
BRANCH  26  27
HETATM   27  O2  UNL     1      -3.485   5.944  16.433  1.00  0.00    -0.360 OA
HETATM   28  H22 UNL     1      -4.461   6.049  16.380  1.00  0.00     0.217 HD
ENDBRANCH  26  27
ENDBRANCH   7  20
BRANCH   3  29
HETATM   29  N3  UNL     1      -8.722   9.131  15.291  1.00  0.00    -0.378 N 
HETATM   30  H8  UNL     1      -8.978   9.758  14.532  1.00  0.00     0.160 HD
BRANCH  29  31
HETATM   31  C10 UNL     1      -9.882   8.430  15.865  1.00  0.00     0.138 C 
BRANCH  31  32
HETATM   32  C11 UNL     1     -10.484   9.187  17.083  1.00  0.00     0.194 C 
BRANCH  32  33
HETATM   33  O1  UNL     1     -10.355  10.609  17.024  1.00  0.00    -0.399 OA
HETATM   34  H12 UNL     1     -10.897  10.917  16.278  1.00  0.00     0.209 HD
ENDBRANCH  32  33
ENDBRANCH  31  32
BRANCH  31  35
HETATM   35  C12 UNL     1     -10.940   8.206  14.785  1.00  0.00    -0.034 A 
HETATM   36  C13 UNL     1     -11.221   9.229  13.865  1.00  0.00     0.009 A 
HETATM   37  C14 UNL     1     -12.172   9.042  12.859  1.00  0.00     0.001 A 
HETATM   38  C15 UNL     1     -12.853   7.831  12.757  1.00  0.00     0.000 A 
HETATM   39  C16 UNL     1     -12.586   6.805  13.659  1.00  0.00     0.001 A 
HETATM   40  C17 UNL     1     -11.636   6.990  14.666  1.00  0.00     0.009 A 
ENDBRANCH  31  35
ENDBRANCH  29  31
ENDBRANCH   3  29
TORSDOF 8
ENDMDL
MODEL 5
REMARK minimizedAffinity -8.72612858
REMARK CNNscore 0.330366135
REMARK CNNaffinity 6.97190094
REMARK  8 active torsions:
REMARK  status: ('A' for Active; 'I' for Inactive)
REMARK    1  A    between atoms: C6_9  and  C7_10 
REMARK    2  A    between atoms: C9_12  and  N3_13 
REMARK    3  A    between atoms: N3_13  and  C10_14 
REMARK    4  A    between atoms: C10_14  and  C11_15 
REMARK    5  A    between atoms: C10_14  and  C12_17 
REMARK    6  A    between atoms: C11_15  and  O1_16 
REMARK    7  A    between atoms: C19_26  and  C20_27 
REMARK    8  A    between atoms: C25_33  and  O2_34 
ROOT
HETATM    1  C7  UNL     1      -5.954   6.411  14.112  1.00  0.00     0.004 A 
HETATM    2  C8  UNL     1      -6.476   7.589  14.687  1.00  0.00     0.045 A 
HETATM    3  C9  UNL     1      -7.833   7.919  14.624  1.00  0.00     0.045 A 
HETATM    4  C18 UNL     1      -8.642   6.964  14.023  1.00  0.00     0.117 A 
HETATM    5  N4  UNL     1      -8.206   5.814  13.449  1.00  0.00    -0.362 N 
ATOM      6  H4  UNL     1      -8.861   5.159  13.021  1.00  0.00     0.165 HD
HETATM    7  C19 UNL     1      -6.864   5.560  13.462  1.00  0.00     0.056 A 
ENDROOT
BRANCH   1   8
HETATM    8  C6  UNL     1      -4.518   6.123  14.272  1.00  0.00    -0.023 A 
HETATM    9  C5  UNL     1      -3.919   6.154  15.544  1.00  0.00     0.014 A 
HETATM   10  C4  UNL     1      -2.558   5.880  15.732  1.00  0.00     0.033 A 
HETATM   11  C3  UNL     1      -1.809   5.581  14.593  1.00  0.00     0.060 A 
HETATM   12  N2  UNL     1      -0.485   5.273  14.429  1.00  0.00    -0.300 N 
HETATM   13  C27 UNL     1      -2.350   5.549  13.316  1.00  0.00     0.016 A 
HETATM   14  N1  UNL     1      -0.126   5.043  13.156  1.00  0.00    -0.304 N 
HETATM   15  H4  UNL     1       0.226   5.203  15.149  1.00  0.00     0.187 HD
HETATM   16  C2  UNL     1      -1.262   5.211  12.467  1.00  0.00     0.034 A 
ATOM     17  H1  UNL     1       0.796   4.797  12.797  1.00  0.00     0.186 HD
HETATM   18  C1  UNL     1      -1.280   5.039  10.995  1.00  0.00     0.070 C 
HETATM   19  C26 UNL     1      -3.720   5.828  13.148  1.00  0.00     0.028 A 
ENDBRANCH   1   8
BRANCH   7  20
HETATM   20  C20 UNL     1      -6.510   4.296  12.771  1.00  0.00     0.025 A 
HETATM   21  C21 UNL     1      -5.482   4.239  11.809  1.00  0.00     0.020 A 
HETATM   22  C22 UNL     1      -5.132   3.036  11.188  1.00  0.00     0.043 A 
HETATM   23  C23 UNL     1      -5.817   1.872  11.510  1.00  0.00     0.119 A 
HETATM   24  F1  UNL     1      -5.476   0.721  10.915  1.00  0.00    -0.206 F 
HETATM   25  C24 UNL     1      -6.856   1.889  12.427  1.00  0.00     0.079 A 
HETATM   26  C25 UNL     1      -7.204   3.094  13.034  1.00  0.00     0.081 A 
BRANCH  26  27
HETATM   27  O2  UNL     1      -8.270   3.050  13.896  1.00  0.00    -0.360 OA
HETATM   28  H22 UNL     1      -8.576   3.978  14.000  1.00  0.00     0.217 HD
ENDBRANCH  26  27
ENDBRANCH   7  20
BRANCH   3  29
HETATM   29  N3  UNL     1      -8.270   9.073  15.271  1.00  0.00    -0.378 N 
HETATM   30  H8  UNL     1      -7.524   9.760  15.352  1.00  0.00     0.160 HD
BRANCH  29  31
HETATM   31  C10 UNL     1      -9.578   9.686  14.991  1.00  0.00     0.138 C 
BRANCH  31  32
HETATM   32  C11 UNL     1     -10.592   8.666  14.401  1.00  0.00     0.194 C 
BRANCH  32  33
HETATM   33  O1  UNL     1     -11.405   9.178  13.343  1.00  0.00    -0.399 OA
HETATM   34  H12 UNL     1     -10.816   9.367  12.593  1.00  0.00     0.209 HD
ENDBRANCH  32  33
ENDBRANCH  31  32
BRANCH  31  35
HETATM   35  C12 UNL     1     -10.131  10.332  16.261  1.00  0.00    -0.034 A 
HETATM   36  C13 UNL     1     -10.058  11.725  16.421  1.00  0.00     0.009 A 
HETATM   37  C14 UNL     1     -10.571  12.339  17.566  1.00  0.00     0.001 A 
HETATM   38  C15 UNL     1     -11.167  11.572  18.564  1.00  0.00     0.000 A 
HETATM   39  C16 UNL     1     -11.251  10.189  18.421  1.00  0.00     0.001 A 
HETATM   40  C17 UNL     1     -10.738   9.573  17.278  1.00  0.00     0.009 A 
ENDBRANCH  31  35
ENDBRANCH  29  31
ENDBRANCH   3  29
TORSDOF 8
ENDMDL
MODEL 6
REMARK minimizedAffinity -9.93569851
REMARK CNNscore 0.300147295
REMARK CNNaffinity 6.98116159
REMARK  8 active torsions:
REMARK  status: ('A' for Active; 'I' for Inactive)
REMARK    1  A    between atoms: C6_9  and  C7_10 
REMARK    2  A    between atoms: C9_12  and  N3_13 
REMARK    3  A    between atoms: N3_13  and  C10_14 
REMARK    4  A    between atoms: C10_14  and  C11_15 
REMARK    5  A    between atoms: C10_14  and  C12_17 
REMARK    6  A    between atoms: C11_15  and  O1_16 
REMARK    7  A    between atoms: C19_26  and  C20_27 
REMARK    8  A    between atoms: C25_33  and  O2_34 
ROOT
HETATM    1  C7  UNL     1      -2.881   6.004  14.240  1.00  0.00     0.004 A 
HETATM    2  C8  UNL     1      -1.484   6.138  14.390  1.00  0.00     0.045 A 
HETATM    3  C9  UNL     1      -0.907   6.979  15.345  1.00  0.00     0.045 A 
HETATM    4  C18 UNL     1      -1.807   7.612  16.191  1.00  0.00     0.117 A 
HETATM    5  N4  UNL     1      -3.159   7.528  16.102  1.00  0.00    -0.362 N 
ATOM      6  H4  UNL     1      -3.761   8.027  16.758  1.00  0.00     0.165 HD
HETATM    7  C19 UNL     1      -3.690   6.757  15.108  1.00  0.00     0.056 A 
ENDROOT
BRANCH   1   8
HETATM    8  C6  UNL     1      -3.397   5.055  13.238  1.00  0.00    -0.023 A 
HETATM    9  C5  UNL     1      -2.622   4.704  12.119  1.00  0.00     0.014 A 
HETATM   10  C4  UNL     1      -3.081   3.802  11.150  1.00  0.00     0.033 A 
HETATM   11  C3  UNL     1      -4.356   3.266  11.337  1.00  0.00     0.060 A 
HETATM   12  N2  UNL     1      -5.087   2.377  10.596  1.00  0.00    -0.300 N 
HETATM   13  C27 UNL     1      -5.163   3.590  12.418  1.00  0.00     0.016 A 
HETATM   14  N1  UNL     1      -6.297   2.098  11.107  1.00  0.00    -0.304 N 
HETATM   15  H4  UNL     1      -4.815   1.924   9.731  1.00  0.00     0.187 HD
HETATM   16  C2  UNL     1      -6.353   2.837  12.222  1.00  0.00     0.034 A 
ATOM     17  H1  UNL     1      -7.007   1.469  10.733  1.00  0.00     0.186 HD
HETATM   18  C1  UNL     1      -7.557   2.802  13.087  1.00  0.00     0.070 C 
HETATM   19  C26 UNL     1      -4.684   4.499  13.381  1.00  0.00     0.028 A 
ENDBRANCH   1   8
BRANCH   7  20
HETATM   20  C20 UNL     1      -5.174   6.779  15.090  1.00  0.00     0.025 A 
HETATM   21  C21 UNL     1      -5.937   5.965  15.950  1.00  0.00     0.020 A 
HETATM   22  C22 UNL     1      -7.334   6.017  15.951  1.00  0.00     0.043 A 
HETATM   23  C23 UNL     1      -7.991   6.875  15.079  1.00  0.00     0.119 A 
HETATM   24  F1  UNL     1      -9.329   6.924  15.084  1.00  0.00    -0.206 F 
HETATM   25  C24 UNL     1      -7.279   7.669  14.193  1.00  0.00     0.079 A 
HETATM   26  C25 UNL     1      -5.887   7.604  14.193  1.00  0.00     0.081 A 
BRANCH  26  27
HETATM   27  O2  UNL     1      -5.246   8.381  13.262  1.00  0.00    -0.360 OA
HETATM   28  H22 UNL     1      -4.338   8.015  13.179  1.00  0.00     0.217 HD
ENDBRANCH  26  27
ENDBRANCH   7  20
BRANCH   3  29
HETATM   29  N3  UNL     1       0.482   7.004  15.460  1.00  0.00    -0.378 N 
HETATM   30  H8  UNL     1       0.861   6.071  15.601  1.00  0.00     0.160 HD
BRANCH  29  31
HETATM   31  C10 UNL     1       1.329   7.838  14.592  1.00  0.00     0.138 C 
BRANCH  31  32
HETATM   32  C11 UNL     1       2.840   7.695  14.930  1.00  0.00     0.194 C 
BRANCH  32  33
HETATM   33  O1  UNL     1       3.161   6.579  15.764  1.00  0.00    -0.399 OA
HETATM   34  H12 UNL     1       2.968   5.774  15.254  1.00  0.00     0.209 HD
ENDBRANCH  32  33
ENDBRANCH  31  32
BRANCH  31  35
HETATM   35  C12 UNL     1       1.065   7.496  13.126  1.00  0.00    -0.034 A 
HETATM   36  C13 UNL     1       0.430   8.436  12.297  1.00  0.00     0.009 A 
HETATM   37  C14 UNL     1       0.193   8.152  10.950  1.00  0.00     0.001 A 
HETATM   38  C15 UNL     1       0.587   6.929  10.413  1.00  0.00     0.000 A 
HETATM   39  C16 UNL     1       1.218   5.986  11.219  1.00  0.00     0.001 A 
HETATM   40  C17 UNL     1       1.457   6.267  12.566  1.00  0.00     0.009 A 
ENDBRANCH  31  35
ENDBRANCH  29  31
ENDBRANCH   3  29
TORSDOF 8
ENDMDL
MODEL 7
REMARK minimizedAffinity -8.95109272
REMARK CNNscore 0.291619271
REMARK CNNaffinity 6.74522161
REMARK  8 active torsions:
REMARK  status: ('A' for Active; 'I' for Inactive)
REMARK    1  A    between atoms: C6_9  and  C7_10 
REMARK    2  A    between atoms: C9_12  and  N3_13 
REMARK    3  A    between atoms: N3_13  and  C10_14 
REMARK    4  A    between atoms: C10_14  and  C11_15 
REMARK    5  A    between atoms: C10_14  and  C12_17 
REMARK    6  A    between atoms: C11_15  and  O1_16 
REMARK    7  A    between atoms: C19_26  and  C20_27 
REMARK    8  A    between atoms: C25_33  and  O2_34 
ROOT
HETATM    1  C7  UNL     1      -7.262   6.102  14.392  1.00  0.00     0.004 A 
HETATM    2  C8  UNL     1      -8.597   6.370  14.761  1.00  0.00     0.045 A 
HETATM    3  C9  UNL     1      -8.972   7.536  15.434  1.00  0.00     0.045 A 
HETATM    4  C18 UNL     1      -7.947   8.449  15.642  1.00  0.00     0.117 A 
HETATM    5  N4  UNL     1      -6.645   8.255  15.314  1.00  0.00    -0.362 N 
ATOM      6  H4  UNL     1      -5.943   8.972  15.501  1.00  0.00     0.165 HD
HETATM    7  C19 UNL     1      -6.301   7.072  14.726  1.00  0.00     0.056 A 
ENDROOT
BRANCH   1   8
HETATM    8  C6  UNL     1      -6.970   4.869  13.641  1.00  0.00    -0.023 A 
HETATM    9  C5  UNL     1      -7.888   3.804  13.628  1.00  0.00     0.014 A 
HETATM   10  C4  UNL     1      -7.644   2.620  12.921  1.00  0.00     0.033 A 
HETATM   11  C3  UNL     1      -6.435   2.533  12.229  1.00  0.00     0.060 A 
HETATM   12  N2  UNL     1      -5.897   1.539  11.456  1.00  0.00    -0.300 N 
HETATM   13  C27 UNL     1      -5.491   3.551  12.221  1.00  0.00     0.016 A 
HETATM   14  N1  UNL     1      -4.689   1.829  10.947  1.00  0.00    -0.304 N 
HETATM   15  H4  UNL     1      -6.308   0.639  11.236  1.00  0.00     0.187 HD
HETATM   16  C2  UNL     1      -4.431   3.058  11.412  1.00  0.00     0.034 A 
ATOM     17  H1  UNL     1      -4.103   1.248  10.348  1.00  0.00     0.186 HD
HETATM   18  C1  UNL     1      -3.163   3.743  11.063  1.00  0.00     0.070 C 
HETATM   19  C26 UNL     1      -5.755   4.733  12.938  1.00  0.00     0.028 A 
ENDBRANCH   1   8
BRANCH   7  20
HETATM   20  C20 UNL     1      -4.846   6.964  14.453  1.00  0.00     0.025 A 
HETATM   21  C21 UNL     1      -4.006   6.140  15.228  1.00  0.00     0.020 A 
HETATM   22  C22 UNL     1      -2.642   6.018  14.941  1.00  0.00     0.043 A 
HETATM   23  C23 UNL     1      -2.096   6.732  13.883  1.00  0.00     0.119 A 
HETATM   24  F1  UNL     1      -0.790   6.610  13.610  1.00  0.00    -0.206 F 
HETATM   25  C24 UNL     1      -2.880   7.579  13.116  1.00  0.00     0.079 A 
HETATM   26  C25 UNL     1      -4.236   7.701  13.414  1.00  0.00     0.081 A 
BRANCH  26  27
HETATM   27  O2  UNL     1      -4.946   8.589  12.647  1.00  0.00    -0.360 OA
HETATM   28  H22 UNL     1      -5.768   8.788  13.147  1.00  0.00     0.217 HD
ENDBRANCH  26  27
ENDBRANCH   7  20
BRANCH   3  29
HETATM   29  N3  UNL     1     -10.323   7.744  15.708  1.00  0.00    -0.378 N 
HETATM   30  H8  UNL     1     -10.465   8.056  16.666  1.00  0.00     0.160 HD
BRANCH  29  31
HETATM   31  C10 UNL     1     -11.227   8.406  14.755  1.00  0.00     0.138 C 
BRANCH  31  32
HETATM   32  C11 UNL     1     -11.736   7.434  13.653  1.00  0.00     0.194 C 
BRANCH  32  33
HETATM   33  O1  UNL     1     -11.269   7.730  12.335  1.00  0.00    -0.399 OA
HETATM   34  H12 UNL     1     -10.307   7.589  12.332  1.00  0.00     0.209 HD
ENDBRANCH  32  33
ENDBRANCH  31  32
BRANCH  31  35
HETATM   35  C12 UNL     1     -12.398   9.039  15.505  1.00  0.00    -0.034 A 
HETATM   36  C13 UNL     1     -12.194   9.577  16.786  1.00  0.00     0.009 A 
HETATM   37  C14 UNL     1     -13.246  10.176  17.484  1.00  0.00     0.001 A 
HETATM   38  C15 UNL     1     -14.513  10.248  16.912  1.00  0.00     0.000 A 
HETATM   39  C16 UNL     1     -14.734   9.723  15.641  1.00  0.00     0.001 A 
HETATM   40  C17 UNL     1     -13.685   9.124  14.942  1.00  0.00     0.009 A 
ENDBRANCH  31  35
ENDBRANCH  29  31
ENDBRANCH   3  29
TORSDOF 8
ENDMDL
MODEL 8
REMARK minimizedAffinity -9.82942772
REMARK CNNscore 0.276017725
REMARK CNNaffinity 6.994699
REMARK  8 active torsions:
REMARK  status: ('A' for Active; 'I' for Inactive)
REMARK    1  A    between atoms: C6_9  and  C7_10 
REMARK    2  A    between atoms: C9_12  and  N3_13 
REMARK    3  A    between atoms: N3_13  and  C10_14 
REMARK    4  A    between atoms: C10_14  and  C11_15 
REMARK    5  A    between atoms: C10_14  and  C12_17 
REMARK    6  A    between atoms: C11_15  and  O1_16 
REMARK    7  A    between atoms: C19_26  and  C20_27 
REMARK    8  A    between atoms: C25_33  and  O2_34 
ROOT
HETATM    1  C7  UNL     1      -6.296   6.046  14.089  1.00  0.00     0.004 A 
HETATM    2  C8  UNL     1      -7.661   6.120  14.442  1.00  0.00     0.045 A 
HETATM    3  C9  UNL     1      -8.197   7.200  15.150  1.00  0.00     0.045 A 
HETATM    4  C18 UNL     1      -7.305   8.231  15.411  1.00  0.00     0.117 A 
HETATM    5  N4  UNL     1      -5.983   8.224  15.102  1.00  0.00    -0.362 N 
ATOM      6  H4  UNL     1      -5.386   9.019  15.329  1.00  0.00     0.165 HD
HETATM    7  C19 UNL     1      -5.477   7.120  14.478  1.00  0.00     0.056 A 
ENDROOT
BRANCH   1   8
HETATM    8  C6  UNL     1      -5.832   4.892  13.299  1.00  0.00    -0.023 A 
HETATM    9  C5  UNL     1      -6.743   3.919  12.851  1.00  0.00     0.014 A 
HETATM   10  C4  UNL     1      -6.335   2.813  12.094  1.00  0.00     0.033 A 
HETATM   11  C3  UNL     1      -4.974   2.708  11.806  1.00  0.00     0.060 A 
HETATM   12  N2  UNL     1      -4.260   1.773  11.105  1.00  0.00    -0.300 N 
HETATM   13  C27 UNL     1      -4.035   3.636  12.235  1.00  0.00     0.016 A 
HETATM   14  N1  UNL     1      -2.942   2.019  11.043  1.00  0.00    -0.304 N 
HETATM   15  H4  UNL     1      -4.617   0.944  10.644  1.00  0.00     0.187 HD
HETATM   16  C2  UNL     1      -2.794   3.157  11.733  1.00  0.00     0.034 A 
ATOM     17  H1  UNL     1      -2.221   1.468  10.578  1.00  0.00     0.186 HD
HETATM   18  C1  UNL     1      -1.454   3.769  11.896  1.00  0.00     0.070 C 
HETATM   19  C26 UNL     1      -4.464   4.741  12.995  1.00  0.00     0.028 A 
ENDBRANCH   1   8
BRANCH   7  20
HETATM   20  C20 UNL     1      -4.018   7.216  14.230  1.00  0.00     0.025 A 
HETATM   21  C21 UNL     1      -3.502   7.734  13.026  1.00  0.00     0.020 A 
HETATM   22  C22 UNL     1      -2.125   7.852  12.815  1.00  0.00     0.043 A 
HETATM   23  C23 UNL     1      -1.240   7.439  13.802  1.00  0.00     0.119 A 
HETATM   24  F1  UNL     1       0.078   7.556  13.597  1.00  0.00    -0.206 F 
HETATM   25  C24 UNL     1      -1.704   6.893  14.988  1.00  0.00     0.079 A 
HETATM   26  C25 UNL     1      -3.078   6.770  15.186  1.00  0.00     0.081 A 
BRANCH  26  27
HETATM   27  O2  UNL     1      -3.469   6.181  16.362  1.00  0.00    -0.360 OA
HETATM   28  H22 UNL     1      -4.400   5.896  16.229  1.00  0.00     0.217 HD
ENDBRANCH  26  27
ENDBRANCH   7  20
BRANCH   3  29
HETATM   29  N3  UNL     1      -9.567   7.217  15.405  1.00  0.00    -0.378 N 
HETATM   30  H8  UNL     1      -9.764   7.059  16.390  1.00  0.00     0.160 HD
BRANCH  29  31
HETATM   31  C10 UNL     1     -10.469   8.206  14.794  1.00  0.00     0.138 C 
BRANCH  31  32
HETATM   32  C11 UNL     1     -11.923   7.672  14.657  1.00  0.00     0.194 C 
BRANCH  32  33
HETATM   33  O1  UNL     1     -12.036   6.247  14.651  1.00  0.00    -0.399 OA
HETATM   34  H12 UNL     1     -11.764   5.933  15.530  1.00  0.00     0.209 HD
ENDBRANCH  32  33
ENDBRANCH  31  32
BRANCH  31  35
HETATM   35  C12 UNL     1     -10.440   9.503  15.602  1.00  0.00    -0.034 A 
HETATM   36  C13 UNL     1     -10.062  10.703  14.977  1.00  0.00     0.009 A 
HETATM   37  C14 UNL     1     -10.043  11.904  15.691  1.00  0.00     0.001 A 
HETATM   38  C15 UNL     1     -10.404  11.923  17.037  1.00  0.00     0.000 A 
HETATM   39  C16 UNL     1     -10.783  10.743  17.672  1.00  0.00     0.001 A 
HETATM   40  C17 UNL     1     -10.802   9.542  16.961  1.00  0.00     0.009 A 
ENDBRANCH  31  35
ENDBRANCH  29  31
ENDBRANCH   3  29
TORSDOF 8
ENDMDL
MODEL 9
REMARK minimizedAffinity -10.3042336
REMARK CNNscore 0.245966107
REMARK CNNaffinity 6.62147665
REMARK  8 active torsions:
REMARK  status: ('A' for Active; 'I' for Inactive)
REMARK    1  A    between atoms: C6_9  and  C7_10 
REMARK    2  A    between atoms: C9_12  and  N3_13 
REMARK    3  A    between atoms: N3_13  and  C10_14 
REMARK    4  A    between atoms: C10_14  and  C11_15 
REMARK    5  A    between atoms: C10_14  and  C12_17 
REMARK    6  A    between atoms: C11_15  and  O1_16 
REMARK    7  A    between atoms: C19_26  and  C20_27 
REMARK    8  A    between atoms: C25_33  and  O2_34 
ROOT
HETATM    1  C7  UNL     1      -7.435   5.978  13.815  1.00  0.00     0.004 A 
HETATM    2  C8  UNL     1      -8.835   5.903  13.976  1.00  0.00     0.045 A 
HETATM    3  C9  UNL     1      -9.582   6.930  14.558  1.00  0.00     0.045 A 
HETATM    4  C18 UNL     1      -8.856   8.065  14.894  1.00  0.00     0.117 A 
HETATM    5  N4  UNL     1      -7.512   8.204  14.769  1.00  0.00    -0.362 N 
ATOM      6  H4  UNL     1      -7.045   9.069  15.041  1.00  0.00     0.165 HD
HETATM    7  C19 UNL     1      -6.804   7.150  14.266  1.00  0.00     0.056 A 
ENDROOT
BRANCH   1   8
HETATM    8  C6  UNL     1      -6.739   4.866  13.145  1.00  0.00    -0.023 A 
HETATM    9  C5  UNL     1      -7.428   3.685  12.816  1.00  0.00     0.014 A 
HETATM   10  C4  UNL     1      -6.797   2.611  12.175  1.00  0.00     0.033 A 
HETATM   11  C3  UNL     1      -5.441   2.757  11.879  1.00  0.00     0.060 A 
HETATM   12  N2  UNL     1      -4.547   1.918  11.271  1.00  0.00    -0.300 N 
HETATM   13  C27 UNL     1      -4.715   3.896  12.194  1.00  0.00     0.016 A 
HETATM   14  N1  UNL     1      -3.306   2.419  11.164  1.00  0.00    -0.304 N 
HETATM   15  H4  UNL     1      -4.722   0.989  10.906  1.00  0.00     0.187 HD
HETATM   16  C2  UNL     1      -3.399   3.630  11.728  1.00  0.00     0.034 A 
ATOM     17  H1  UNL     1      -2.484   1.980  10.750  1.00  0.00     0.186 HD
HETATM   18  C1  UNL     1      -2.213   4.516  11.805  1.00  0.00     0.070 C 
HETATM   19  C26 UNL     1      -5.366   4.966  12.839  1.00  0.00     0.028 A 
ENDBRANCH   1   8
BRANCH   7  20
HETATM   20  C20 UNL     1      -5.343   7.409  14.215  1.00  0.00     0.025 A 
HETATM   21  C21 UNL     1      -4.752   8.116  13.150  1.00  0.00     0.020 A 
HETATM   22  C22 UNL     1      -3.380   8.384  13.127  1.00  0.00     0.043 A 
HETATM   23  C23 UNL     1      -2.574   7.935  14.166  1.00  0.00     0.119 A 
HETATM   24  F1  UNL     1      -1.261   8.197  14.142  1.00  0.00    -0.206 F 
HETATM   25  C24 UNL     1      -3.110   7.208  15.217  1.00  0.00     0.079 A 
HETATM   26  C25 UNL     1      -4.477   6.937  15.226  1.00  0.00     0.081 A 
BRANCH  26  27
HETATM   27  O2  UNL     1      -4.935   6.174  16.271  1.00  0.00    -0.360 OA
HETATM   28  H22 UNL     1      -5.810   5.824  15.991  1.00  0.00     0.217 HD
ENDBRANCH  26  27
ENDBRANCH   7  20
BRANCH   3  29
HETATM   29  N3  UNL     1     -10.967   6.795  14.623  1.00  0.00    -0.378 N 
HETATM   30  H8  UNL     1     -11.283   6.653  15.580  1.00  0.00     0.160 HD
BRANCH  29  31
HETATM   31  C10 UNL     1     -11.880   7.646  13.843  1.00  0.00     0.138 C 
BRANCH  31  32
HETATM   32  C11 UNL     1     -11.363   7.895  12.399  1.00  0.00     0.194 C 
BRANCH  32  33
HETATM   33  O1  UNL     1     -11.603   9.213  11.899  1.00  0.00    -0.399 OA
HETATM   34  H12 UNL     1     -11.072   9.825  12.436  1.00  0.00     0.209 HD
ENDBRANCH  32  33
ENDBRANCH  31  32
BRANCH  31  35
HETATM   35  C12 UNL     1     -13.277   7.026  13.822  1.00  0.00    -0.034 A 
HETATM   36  C13 UNL     1     -14.254   7.544  12.957  1.00  0.00     0.009 A 
HETATM   37  C14 UNL     1     -15.533   6.983  12.909  1.00  0.00     0.001 A 
HETATM   38  C15 UNL     1     -15.852   5.898  13.721  1.00  0.00     0.000 A 
HETATM   39  C16 UNL     1     -14.895   5.370  14.584  1.00  0.00     0.001 A 
HETATM   40  C17 UNL     1     -13.617   5.929  14.634  1.00  0.00     0.009 A 
ENDBRANCH  31  35
ENDBRANCH  29  31
ENDBRANCH   3  29
TORSDOF 8
ENDMDL
