MODEL 1
REMARK minimizedAffinity -8.9493084
REMARK  10 active torsions:
REMARK  status: ('A' for Active; 'I' for Inactive)
REMARK    1  A    between atoms: N1_2  and  C3_4 
REMARK    2  A    between atoms: C3_4  and  C4_5 
REMARK    3  A    between atoms: C4_5  and  C5_6 
REMARK    4  A    between atoms: C5_6  and  C6_7 
REMARK    5  A    between atoms: C7_8  and  C8_9 
REMARK    6  A    between atoms: C14_17  and  S1_18 
REMARK    7  A    between atoms: S1_18  and  N3_21 
REMARK    8  A    between atoms: N3_21  and  C15_22 
REMARK    9  A    between atoms: C15_22  and  C16_23 
REMARK   10  A    between atoms: C16_23  and  O4_24 
ROOT
HETATM    1  C8  UNL     1      -2.110   4.916  12.297  1.00  0.00     0.048 C 
HETATM    2  C9  UNL     1      -2.568   3.710  11.919  1.00  0.00     0.047 A 
HETATM    3  C10 UNL     1      -1.851   2.513  11.339  1.00  0.00     0.257 A 
HETATM    4  O1  UNL     1      -0.670   2.387  11.077  1.00  0.00    -0.267 OA
HETATM    5  N2  UNL     1      -2.830   1.551  11.146  1.00  0.00    -0.322 N 
HETATM    6  C11 UNL     1      -4.081   2.015  11.526  1.00  0.00     0.046 A 
HETATM    7  C12 UNL     1      -5.271   1.317  11.450  1.00  0.00     0.032 A 
HETATM    8  C13 UNL     1      -6.427   1.977  11.869  1.00  0.00     0.027 A 
HETATM    9  C14 UNL     1      -6.354   3.304  12.344  1.00  0.00     0.080 A 
HETATM   10  C17 UNL     1      -5.132   3.988  12.436  1.00  0.00     0.040 A 
HETATM   11  C18 UNL     1      -3.992   3.326  12.010  1.00  0.00     0.008 A 
HETATM   12  H14 UNL     1      -2.625   0.640  10.765  1.00  0.00     0.169 HD
ENDROOT
BRANCH   1  13
HETATM   13  C7  UNL     1      -0.787   5.442  12.251  1.00  0.00     0.040 A 
HETATM   14  C6  UNL     1      -0.090   6.238  13.167  1.00  0.00    -0.023 A 
HETATM   15  C20 UNL     1       1.192   6.510  12.599  1.00  0.00    -0.027 A 
HETATM   16  C19 UNL     1       1.238   5.872  11.383  1.00  0.00     0.016 A 
HETATM   17  C21 UNL     1       2.349   7.291  13.131  1.00  0.00     0.041 C 
HETATM   18  N4  UNL     1       0.053   5.226  11.184  1.00  0.00    -0.359 N 
HETATM   19  C24 UNL     1       2.367   5.889  10.414  1.00  0.00     0.057 C 
HETATM   20  H24 UNL     1      -0.163   4.667  10.365  1.00  0.00     0.166 HD
HETATM   21  C23 UNL     1       3.644   6.387  11.115  1.00  0.00     0.006 C 
HETATM   22  C22 UNL     1       3.371   7.604  12.019  1.00  0.00     0.005 C 
BRANCH  14  23
HETATM   23  C5  UNL     1      -0.582   6.732  14.497  1.00  0.00     0.043 C 
BRANCH  23  24
HETATM   24  C4  UNL     1      -2.012   6.292  14.832  1.00  0.00     0.035 C 
BRANCH  24  25
HETATM   25  C3  UNL     1      -2.839   7.412  15.481  1.00  0.00     0.271 C 
BRANCH  25  26
HETATM   26  N1  UNL     1      -4.056   7.829  14.767  1.00  0.00     0.080 N 
HETATM   27  C1  UNL     1      -3.828   8.031  13.339  1.00  0.00     0.309 C 
HETATM   28  C2  UNL     1      -4.711   8.985  15.367  1.00  0.00     0.309 C 
ENDBRANCH  25  26
ENDBRANCH  24  25
ENDBRANCH  23  24
ENDBRANCH  14  23
ENDBRANCH   1  13
BRANCH   9  29
HETATM   29  S1  UNL     1      -7.853   4.105  12.867  1.00  0.00     0.258 S 
HETATM   30  O2  UNL     1      -7.902   5.405  12.239  1.00  0.00    -0.201 OA
HETATM   31  O3  UNL     1      -8.941   3.158  12.760  1.00  0.00    -0.201 OA
BRANCH  29  32
HETATM   32  N3  UNL     1      -7.561   4.366  14.485  1.00  0.00    -0.313 N 
HETATM   33  H17 UNL     1      -7.297   3.567  15.060  1.00  0.00     0.172 HD
BRANCH  32  34
HETATM   34  C15 UNL     1      -7.731   5.690  15.088  1.00  0.00     0.158 C 
BRANCH  34  35
HETATM   35  C16 UNL     1      -6.778   5.848  16.273  1.00  0.00     0.184 C 
BRANCH  35  36
HETATM   36  O4  UNL     1      -7.159   6.969  17.070  1.00  0.00    -0.399 OA
HETATM   37  H22 UNL     1      -7.947   6.693  17.572  1.00  0.00     0.209 HD
ENDBRANCH  35  36
ENDBRANCH  34  35
ENDBRANCH  32  34
ENDBRANCH  29  32
ENDBRANCH   9  29
TORSDOF 10
ENDMDL
MODEL 2
REMARK minimizedAffinity -8.9147234
REMARK  10 active torsions:
REMARK  status: ('A' for Active; 'I' for Inactive)
REMARK    1  A    between atoms: N1_2  and  C3_4 
REMARK    2  A    between atoms: C3_4  and  C4_5 
REMARK    3  A    between atoms: C4_5  and  C5_6 
REMARK    4  A    between atoms: C5_6  and  C6_7 
REMARK    5  A    between atoms: C7_8  and  C8_9 
REMARK    6  A    between atoms: C14_17  and  S1_18 
REMARK    7  A    between atoms: S1_18  and  N3_21 
REMARK    8  A    between atoms: N3_21  and  C15_22 
REMARK    9  A    between atoms: C15_22  and  C16_23 
REMARK   10  A    between atoms: C16_23  and  O4_24 
ROOT
HETATM    1  C8  UNL     1      -2.001   5.549  12.827  1.00  0.00     0.048 C 
HETATM    2  C9  UNL     1      -2.348   4.387  12.246  1.00  0.00     0.047 A 
HETATM    3  C10 UNL     1      -1.517   3.351  11.524  1.00  0.00     0.257 A 
HETATM    4  O1  UNL     1      -0.322   3.355  11.302  1.00  0.00    -0.267 OA
HETATM    5  N2  UNL     1      -2.409   2.363  11.138  1.00  0.00    -0.322 N 
HETATM    6  C11 UNL     1      -3.705   2.669  11.526  1.00  0.00     0.046 A 
HETATM    7  C12 UNL     1      -4.833   1.907  11.287  1.00  0.00     0.032 A 
HETATM    8  C13 UNL     1      -6.052   2.406  11.747  1.00  0.00     0.027 A 
HETATM    9  C14 UNL     1      -6.102   3.644  12.423  1.00  0.00     0.080 A 
HETATM   10  C17 UNL     1      -4.943   4.392  12.677  1.00  0.00     0.040 A 
HETATM   11  C18 UNL     1      -3.739   3.890  12.209  1.00  0.00     0.008 A 
HETATM   12  H14 UNL     1      -2.119   1.541  10.632  1.00  0.00     0.169 HD
ENDROOT
BRANCH   1  13
HETATM   13  C7  UNL     1      -0.723   6.171  12.926  1.00  0.00     0.040 A 
HETATM   14  C6  UNL     1       0.111   6.704  11.937  1.00  0.00    -0.023 A 
HETATM   15  C20 UNL     1       1.295   7.166  12.588  1.00  0.00    -0.027 A 
HETATM   16  C19 UNL     1       1.142   6.915  13.931  1.00  0.00     0.016 A 
HETATM   17  C21 UNL     1       2.514   7.833  12.040  1.00  0.00     0.041 C 
HETATM   18  N4  UNL     1      -0.073   6.327  14.128  1.00  0.00    -0.359 N 
HETATM   19  C24 UNL     1       2.130   7.201  15.006  1.00  0.00     0.057 C 
HETATM   20  H24 UNL     1      -0.435   6.053  15.036  1.00  0.00     0.166 HD
HETATM   21  C23 UNL     1       3.195   8.181  14.483  1.00  0.00     0.006 C 
HETATM   22  C22 UNL     1       3.668   7.819  13.063  1.00  0.00     0.005 C 
BRANCH  14  23
HETATM   23  C5  UNL     1      -0.164   6.778  10.463  1.00  0.00     0.043 C 
BRANCH  23  24
HETATM   24  C4  UNL     1       0.086   8.164   9.855  1.00  0.00     0.035 C 
BRANCH  24  25
HETATM   25  C3  UNL     1       0.390   8.103   8.350  1.00  0.00     0.271 C 
BRANCH  25  26
HETATM   26  N1  UNL     1       1.661   7.472   7.962  1.00  0.00     0.080 N 
HETATM   27  C1  UNL     1       2.825   8.240   8.396  1.00  0.00     0.309 C 
HETATM   28  C2  UNL     1       1.738   7.154   6.541  1.00  0.00     0.309 C 
ENDBRANCH  25  26
ENDBRANCH  24  25
ENDBRANCH  23  24
ENDBRANCH  14  23
ENDBRANCH   1  13
BRANCH   9  29
HETATM   29  S1  UNL     1      -7.678   4.241  12.992  1.00  0.00     0.258 S 
HETATM   30  O2  UNL     1      -7.824   5.604  12.537  1.00  0.00    -0.201 OA
HETATM   31  O3  UNL     1      -8.676   3.229  12.723  1.00  0.00    -0.201 OA
BRANCH  29  32
HETATM   32  N3  UNL     1      -7.450   4.307  14.639  1.00  0.00    -0.313 N 
HETATM   33  H17 UNL     1      -7.049   3.493  15.102  1.00  0.00     0.172 HD
BRANCH  32  34
HETATM   34  C15 UNL     1      -7.864   5.475  15.421  1.00  0.00     0.158 C 
BRANCH  34  35
HETATM   35  C16 UNL     1      -6.685   5.992  16.246  1.00  0.00     0.184 C 
BRANCH  35  36
HETATM   36  O4  UNL     1      -7.110   7.041  17.115  1.00  0.00    -0.399 OA
HETATM   37  H22 UNL     1      -7.600   6.614  17.841  1.00  0.00     0.209 HD
ENDBRANCH  35  36
ENDBRANCH  34  35
ENDBRANCH  32  34
ENDBRANCH  29  32
ENDBRANCH   9  29
TORSDOF 10
ENDMDL
MODEL 3
REMARK minimizedAffinity -8.85523891
REMARK  10 active torsions:
REMARK  status: ('A' for Active; 'I' for Inactive)
REMARK    1  A    between atoms: N1_2  and  C3_4 
REMARK    2  A    between atoms: C3_4  and  C4_5 
REMARK    3  A    between atoms: C4_5  and  C5_6 
REMARK    4  A    between atoms: C5_6  and  C6_7 
REMARK    5  A    between atoms: C7_8  and  C8_9 
REMARK    6  A    between atoms: C14_17  and  S1_18 
REMARK    7  A    between atoms: S1_18  and  N3_21 
REMARK    8  A    between atoms: N3_21  and  C15_22 
REMARK    9  A    between atoms: C15_22  and  C16_23 
REMARK   10  A    between atoms: C16_23  and  O4_24 
ROOT
HETATM    1  C8  UNL     1      -1.907   4.821  11.835  1.00  0.00     0.048 C 
HETATM    2  C9  UNL     1      -1.029   5.331  12.715  1.00  0.00     0.047 A 
HETATM    3  C10 UNL     1      -1.130   5.542  14.208  1.00  0.00     0.257 A 
HETATM    4  O1  UNL     1      -2.061   5.295  14.950  1.00  0.00    -0.267 OA
HETATM    5  N2  UNL     1       0.080   6.102  14.587  1.00  0.00    -0.322 N 
HETATM    6  C11 UNL     1       0.922   6.276  13.498  1.00  0.00     0.046 A 
HETATM    7  C12 UNL     1       2.192   6.821  13.524  1.00  0.00     0.032 A 
HETATM    8  C13 UNL     1       2.869   6.924  12.308  1.00  0.00     0.027 A 
HETATM    9  C14 UNL     1       2.255   6.486  11.115  1.00  0.00     0.080 A 
HETATM   10  C17 UNL     1       0.973   5.915  11.113  1.00  0.00     0.040 A 
HETATM   11  C18 UNL     1       0.308   5.824  12.324  1.00  0.00     0.008 A 
HETATM   12  H14 UNL     1       0.287   6.348  15.543  1.00  0.00     0.169 HD
ENDROOT
BRANCH   1  13
HETATM   13  C7  UNL     1      -3.228   4.330  12.046  1.00  0.00     0.040 A 
HETATM   14  C6  UNL     1      -4.335   4.926  12.659  1.00  0.00    -0.023 A 
HETATM   15  C20 UNL     1      -5.396   3.971  12.634  1.00  0.00    -0.027 A 
HETATM   16  C19 UNL     1      -4.913   2.847  12.006  1.00  0.00     0.016 A 
HETATM   17  C21 UNL     1      -6.803   4.061  13.129  1.00  0.00     0.041 C 
HETATM   18  N4  UNL     1      -3.616   3.072  11.649  1.00  0.00    -0.359 N 
HETATM   19  C24 UNL     1      -5.650   1.577  11.770  1.00  0.00     0.057 C 
HETATM   20  H24 UNL     1      -3.034   2.401  11.156  1.00  0.00     0.166 HD
HETATM   21  C23 UNL     1      -7.160   1.810  11.962  1.00  0.00     0.006 C 
HETATM   22  C22 UNL     1      -7.459   2.667  13.206  1.00  0.00     0.005 C 
BRANCH  14  23
HETATM   23  C5  UNL     1      -4.412   6.305  13.247  1.00  0.00     0.043 C 
BRANCH  23  24
HETATM   24  C4  UNL     1      -5.818   6.919  13.209  1.00  0.00     0.035 C 
BRANCH  24  25
HETATM   25  C3  UNL     1      -6.260   7.469  14.573  1.00  0.00     0.271 C 
BRANCH  25  26
HETATM   26  N1  UNL     1      -7.428   6.825  15.194  1.00  0.00     0.080 N 
HETATM   27  C1  UNL     1      -8.693   7.306  14.643  1.00  0.00     0.309 C 
HETATM   28  C2  UNL     1      -7.424   6.899  16.650  1.00  0.00     0.309 C 
ENDBRANCH  25  26
ENDBRANCH  24  25
ENDBRANCH  23  24
ENDBRANCH  14  23
ENDBRANCH   1  13
BRANCH   9  29
HETATM   29  S1  UNL     1       3.154   6.639   9.588  1.00  0.00     0.258 S 
HETATM   30  O2  UNL     1       4.557   6.751   9.912  1.00  0.00    -0.201 OA
HETATM   31  O3  UNL     1       2.656   5.647   8.661  1.00  0.00    -0.201 OA
BRANCH  29  32
HETATM   32  N3  UNL     1       2.666   8.134   9.046  1.00  0.00    -0.313 N 
HETATM   33  H17 UNL     1       3.164   8.955   9.388  1.00  0.00     0.172 HD
BRANCH  32  34
HETATM   34  C15 UNL     1       1.520   8.284   8.146  1.00  0.00     0.158 C 
BRANCH  34  35
HETATM   35  C16 UNL     1       0.219   8.222   8.946  1.00  0.00     0.184 C 
BRANCH  35  36
HETATM   36  O4  UNL     1      -0.629   9.316   8.600  1.00  0.00    -0.399 OA
HETATM   37  H22 UNL     1      -1.004   9.106   7.725  1.00  0.00     0.209 HD
ENDBRANCH  35  36
ENDBRANCH  34  35
ENDBRANCH  32  34
ENDBRANCH  29  32
ENDBRANCH   9  29
TORSDOF 10
ENDMDL
MODEL 4
REMARK minimizedAffinity -8.77823925
REMARK  10 active torsions:
REMARK  status: ('A' for Active; 'I' for Inactive)
REMARK    1  A    between atoms: N1_2  and  C3_4 
REMARK    2  A    between atoms: C3_4  and  C4_5 
REMARK    3  A    between atoms: C4_5  and  C5_6 
REMARK    4  A    between atoms: C5_6  and  C6_7 
REMARK    5  A    between atoms: C7_8  and  C8_9 
REMARK    6  A    between atoms: C14_17  and  S1_18 
REMARK    7  A    between atoms: S1_18  and  N3_21 
REMARK    8  A    between atoms: N3_21  and  C15_22 
REMARK    9  A    between atoms: C15_22  and  C16_23 
REMARK   10  A    between atoms: C16_23  and  O4_24 
ROOT
HETATM    1  C8  UNL     1      -1.433   4.862  11.763  1.00  0.00     0.048 C 
HETATM    2  C9  UNL     1      -0.658   5.428  12.704  1.00  0.00     0.047 A 
HETATM    3  C10 UNL     1      -0.889   5.645  14.182  1.00  0.00     0.257 A 
HETATM    4  O1  UNL     1      -1.860   5.349  14.851  1.00  0.00    -0.267 OA
HETATM    5  N2  UNL     1       0.253   6.276  14.648  1.00  0.00    -0.322 N 
HETATM    6  C11 UNL     1       1.167   6.492  13.627  1.00  0.00     0.046 A 
HETATM    7  C12 UNL     1       2.398   7.109  13.747  1.00  0.00     0.032 A 
HETATM    8  C13 UNL     1       3.162   7.243  12.587  1.00  0.00     0.027 A 
HETATM    9  C14 UNL     1       2.670   6.761  11.355  1.00  0.00     0.080 A 
HETATM   10  C17 UNL     1       1.428   6.117  11.258  1.00  0.00     0.040 A 
HETATM   11  C18 UNL     1       0.676   5.996  12.414  1.00  0.00     0.008 A 
HETATM   12  H14 UNL     1       0.368   6.541  15.614  1.00  0.00     0.169 HD
ENDROOT
BRANCH   1  13
HETATM   13  C7  UNL     1      -2.736   4.296  11.876  1.00  0.00     0.040 A 
HETATM   14  C6  UNL     1      -3.933   4.852  12.339  1.00  0.00    -0.023 A 
HETATM   15  C20 UNL     1      -4.926   3.827  12.271  1.00  0.00    -0.027 A 
HETATM   16  C19 UNL     1      -4.315   2.705  11.766  1.00  0.00     0.016 A 
HETATM   17  C21 UNL     1      -6.379   3.851  12.620  1.00  0.00     0.041 C 
HETATM   18  N4  UNL     1      -3.004   2.994  11.523  1.00  0.00    -0.359 N 
HETATM   19  C24 UNL     1      -4.945   1.376  11.540  1.00  0.00     0.057 C 
HETATM   20  H24 UNL     1      -2.336   2.337  11.134  1.00  0.00     0.166 HD
HETATM   21  C23 UNL     1      -6.478   1.518  11.569  1.00  0.00     0.006 C 
HETATM   22  C22 UNL     1      -6.954   2.424  12.720  1.00  0.00     0.005 C 
BRANCH  14  23
HETATM   23  C5  UNL     1      -4.154   6.254  12.827  1.00  0.00     0.043 C 
BRANCH  23  24
HETATM   24  C4  UNL     1      -5.480   6.450  13.573  1.00  0.00     0.035 C 
BRANCH  24  25
HETATM   25  C3  UNL     1      -5.291   6.570  15.093  1.00  0.00     0.271 C 
BRANCH  25  26
HETATM   26  N1  UNL     1      -6.513   6.742  15.895  1.00  0.00     0.080 N 
HETATM   27  C1  UNL     1      -7.334   5.534  15.931  1.00  0.00     0.309 C 
HETATM   28  C2  UNL     1      -7.300   7.906  15.508  1.00  0.00     0.309 C 
ENDBRANCH  25  26
ENDBRANCH  24  25
ENDBRANCH  23  24
ENDBRANCH  14  23
ENDBRANCH   1  13
BRANCH   9  29
HETATM   29  S1  UNL     1       3.678   6.955   9.902  1.00  0.00     0.258 S 
HETATM   30  O2  UNL     1       3.225   8.135   9.203  1.00  0.00    -0.201 OA
HETATM   31  O3  UNL     1       5.063   6.767  10.275  1.00  0.00    -0.201 OA
BRANCH  29  32
HETATM   32  N3  UNL     1       3.216   5.647   8.982  1.00  0.00    -0.313 N 
HETATM   33  H17 UNL     1       2.455   5.773   8.317  1.00  0.00     0.172 HD
BRANCH  32  34
HETATM   34  C15 UNL     1       3.840   4.333   9.155  1.00  0.00     0.158 C 
BRANCH  34  35
HETATM   35  C16 UNL     1       4.129   3.711   7.789  1.00  0.00     0.184 C 
BRANCH  35  36
HETATM   36  O4  UNL     1       5.315   2.919   7.845  1.00  0.00    -0.399 OA
HETATM   37  H22 UNL     1       5.075   2.099   8.314  1.00  0.00     0.209 HD
ENDBRANCH  35  36
ENDBRANCH  34  35
ENDBRANCH  32  34
ENDBRANCH  29  32
ENDBRANCH   9  29
TORSDOF 10
ENDMDL
MODEL 5
REMARK minimizedAffinity -8.61577511
REMARK  10 active torsions:
REMARK  status: ('A' for Active; 'I' for Inactive)
REMARK    1  A    between atoms: N1_2  and  C3_4 
REMARK    2  A    between atoms: C3_4  and  C4_5 
REMARK    3  A    between atoms: C4_5  and  C5_6 
REMARK    4  A    between atoms: C5_6  and  C6_7 
REMARK    5  A    between atoms: C7_8  and  C8_9 
REMARK    6  A    between atoms: C14_17  and  S1_18 
REMARK    7  A    between atoms: S1_18  and  N3_21 
REMARK    8  A    between atoms: N3_21  and  C15_22 
REMARK    9  A    between atoms: C15_22  and  C16_23 
REMARK   10  A    between atoms: C16_23  and  O4_24 
ROOT
HETATM    1  C8  UNL     1      -1.982   6.165  12.675  1.00  0.00     0.048 C 
HETATM    2  C9  UNL     1      -0.957   6.622  13.413  1.00  0.00     0.047 A 
HETATM    3  C10 UNL     1      -0.900   7.097  14.847  1.00  0.00     0.257 A 
HETATM    4  O1  UNL     1      -1.804   7.178  15.657  1.00  0.00    -0.267 OA
HETATM    5  N2  UNL     1       0.421   7.449  15.071  1.00  0.00    -0.322 N 
HETATM    6  C11 UNL     1       1.197   7.259  13.936  1.00  0.00     0.046 A 
HETATM    7  C12 UNL     1       2.547   7.523  13.813  1.00  0.00     0.032 A 
HETATM    8  C13 UNL     1       3.137   7.278  12.573  1.00  0.00     0.027 A 
HETATM    9  C14 UNL     1       2.360   6.783  11.503  1.00  0.00     0.080 A 
HETATM   10  C17 UNL     1       0.995   6.499  11.654  1.00  0.00     0.040 A 
HETATM   11  C18 UNL     1       0.418   6.753  12.888  1.00  0.00     0.008 A 
HETATM   12  H14 UNL     1       0.744   7.804  15.957  1.00  0.00     0.169 HD
ENDROOT
BRANCH   1  13
HETATM   13  C7  UNL     1      -3.354   6.002  13.023  1.00  0.00     0.040 A 
HETATM   14  C6  UNL     1      -4.198   4.892  12.911  1.00  0.00    -0.023 A 
HETATM   15  C20 UNL     1      -5.488   5.295  13.373  1.00  0.00    -0.027 A 
HETATM   16  C19 UNL     1      -5.387   6.611  13.756  1.00  0.00     0.016 A 
HETATM   17  C21 UNL     1      -6.765   4.529  13.494  1.00  0.00     0.041 C 
HETATM   18  N4  UNL     1      -4.104   7.027  13.552  1.00  0.00    -0.359 N 
HETATM   19  C24 UNL     1      -6.483   7.469  14.280  1.00  0.00     0.057 C 
HETATM   20  H24 UNL     1      -3.764   7.959  13.768  1.00  0.00     0.166 HD
HETATM   21  C23 UNL     1      -7.666   6.588  14.719  1.00  0.00     0.006 C 
HETATM   22  C22 UNL     1      -7.966   5.473  13.700  1.00  0.00     0.005 C 
BRANCH  14  23
HETATM   23  C5  UNL     1      -3.838   3.528  12.397  1.00  0.00     0.043 C 
BRANCH  23  24
HETATM   24  C4  UNL     1      -3.724   3.451  10.869  1.00  0.00     0.035 C 
BRANCH  24  25
HETATM   25  C3  UNL     1      -2.285   3.192  10.397  1.00  0.00     0.271 C 
BRANCH  25  26
HETATM   26  N1  UNL     1      -1.434   2.391  11.290  1.00  0.00     0.080 N 
HETATM   27  C1  UNL     1      -0.235   3.108  11.716  1.00  0.00     0.309 C 
HETATM   28  C2  UNL     1      -1.100   1.079  10.747  1.00  0.00     0.309 C 
ENDBRANCH  25  26
ENDBRANCH  24  25
ENDBRANCH  23  24
ENDBRANCH  14  23
ENDBRANCH   1  13
BRANCH   9  29
HETATM   29  S1  UNL     1       3.154   6.486   9.939  1.00  0.00     0.258 S 
HETATM   30  O2  UNL     1       4.577   6.404  10.175  1.00  0.00    -0.201 OA
HETATM   31  O3  UNL     1       2.428   5.445   9.247  1.00  0.00    -0.201 OA
BRANCH  29  32
HETATM   32  N3  UNL     1       2.884   7.918   9.135  1.00  0.00    -0.313 N 
HETATM   33  H17 UNL     1       3.521   8.694   9.310  1.00  0.00     0.172 HD
BRANCH  32  34
HETATM   34  C15 UNL     1       1.734   8.088   8.244  1.00  0.00     0.158 C 
BRANCH  34  35
HETATM   35  C16 UNL     1       0.462   8.288   9.067  1.00  0.00     0.184 C 
BRANCH  35  36
HETATM   36  O4  UNL     1      -0.388   9.249   8.442  1.00  0.00    -0.399 OA
HETATM   37  H22 UNL     1      -0.795   8.800   7.679  1.00  0.00     0.209 HD
ENDBRANCH  35  36
ENDBRANCH  34  35
ENDBRANCH  32  34
ENDBRANCH  29  32
ENDBRANCH   9  29
TORSDOF 10
ENDMDL
MODEL 6
REMARK minimizedAffinity -8.53304482
REMARK  10 active torsions:
REMARK  status: ('A' for Active; 'I' for Inactive)
REMARK    1  A    between atoms: N1_2  and  C3_4 
REMARK    2  A    between atoms: C3_4  and  C4_5 
REMARK    3  A    between atoms: C4_5  and  C5_6 
REMARK    4  A    between atoms: C5_6  and  C6_7 
REMARK    5  A    between atoms: C7_8  and  C8_9 
REMARK    6  A    between atoms: C14_17  and  S1_18 
REMARK    7  A    between atoms: S1_18  and  N3_21 
REMARK    8  A    between atoms: N3_21  and  C15_22 
REMARK    9  A    between atoms: C15_22  and  C16_23 
REMARK   10  A    between atoms: C16_23  and  O4_24 
ROOT
HETATM    1  C8  UNL     1      -6.317   5.611  13.277  1.00  0.00     0.048 C 
HETATM    2  C9  UNL     1      -6.244   4.345  12.833  1.00  0.00     0.047 A 
HETATM    3  C10 UNL     1      -7.307   3.281  12.687  1.00  0.00     0.257 A 
HETATM    4  O1  UNL     1      -8.491   3.347  12.957  1.00  0.00    -0.267 OA
HETATM    5  N2  UNL     1      -6.654   2.170  12.179  1.00  0.00    -0.322 N 
HETATM    6  C11 UNL     1      -5.300   2.413  12.002  1.00  0.00     0.046 A 
HETATM    7  C12 UNL     1      -4.362   1.516  11.528  1.00  0.00     0.032 A 
HETATM    8  C13 UNL     1      -3.041   1.957  11.443  1.00  0.00     0.027 A 
HETATM    9  C14 UNL     1      -2.705   3.270  11.836  1.00  0.00     0.080 A 
HETATM   10  C17 UNL     1      -3.675   4.174  12.293  1.00  0.00     0.040 A 
HETATM   11  C18 UNL     1      -4.982   3.723  12.380  1.00  0.00     0.008 A 
HETATM   12  H14 UNL     1      -7.133   1.304  11.981  1.00  0.00     0.169 HD
ENDROOT
BRANCH   1  13
HETATM   13  C7  UNL     1      -7.439   6.342  13.765  1.00  0.00     0.040 A 
HETATM   14  C6  UNL     1      -7.528   7.317  14.764  1.00  0.00    -0.023 A 
HETATM   15  C20 UNL     1      -8.903   7.685  14.872  1.00  0.00    -0.027 A 
HETATM   16  C19 UNL     1      -9.594   6.945  13.943  1.00  0.00     0.016 A 
HETATM   17  C21 UNL     1      -9.580   8.682  15.755  1.00  0.00     0.041 C 
HETATM   18  N4  UNL     1      -8.710   6.148  13.276  1.00  0.00    -0.359 N 
HETATM   19  C24 UNL     1     -11.062   6.969  13.703  1.00  0.00     0.057 C 
HETATM   20  H24 UNL     1      -8.966   5.513  12.527  1.00  0.00     0.166 HD
HETATM   21  C23 UNL     1     -11.674   8.221  14.355  1.00  0.00     0.006 C 
HETATM   22  C22 UNL     1     -11.108   8.474  15.765  1.00  0.00     0.005 C 
BRANCH  14  23
HETATM   23  C5  UNL     1      -6.404   7.877  15.586  1.00  0.00     0.043 C 
BRANCH  23  24
HETATM   24  C4  UNL     1      -5.486   8.832  14.813  1.00  0.00     0.035 C 
BRANCH  24  25
HETATM   25  C3  UNL     1      -4.079   8.254  14.597  1.00  0.00     0.271 C 
BRANCH  25  26
HETATM   26  N1  UNL     1      -3.510   7.476  15.708  1.00  0.00     0.080 N 
HETATM   27  C1  UNL     1      -2.309   8.091  16.268  1.00  0.00     0.309 C 
HETATM   28  C2  UNL     1      -3.281   6.075  15.375  1.00  0.00     0.309 C 
ENDBRANCH  25  26
ENDBRANCH  24  25
ENDBRANCH  23  24
ENDBRANCH  14  23
ENDBRANCH   1  13
BRANCH   9  29
HETATM   29  S1  UNL     1      -1.007   3.788  11.711  1.00  0.00     0.258 S 
HETATM   30  O2  UNL     1      -0.177   2.611  11.810  1.00  0.00    -0.201 OA
HETATM   31  O3  UNL     1      -0.892   4.720  10.611  1.00  0.00    -0.201 OA
BRANCH  29  32
HETATM   32  N3  UNL     1      -0.800   4.641  13.125  1.00  0.00    -0.313 N 
HETATM   33  H17 UNL     1      -1.051   4.186  14.002  1.00  0.00     0.172 HD
BRANCH  32  34
HETATM   34  C15 UNL     1      -0.326   6.027  13.119  1.00  0.00     0.158 C 
BRANCH  34  35
HETATM   35  C16 UNL     1       1.202   6.053  13.097  1.00  0.00     0.184 C 
BRANCH  35  36
HETATM   36  O4  UNL     1       1.715   6.185  14.422  1.00  0.00    -0.399 OA
HETATM   37  H22 UNL     1       1.606   5.314  14.846  1.00  0.00     0.209 HD
ENDBRANCH  35  36
ENDBRANCH  34  35
ENDBRANCH  32  34
ENDBRANCH  29  32
ENDBRANCH   9  29
TORSDOF 10
ENDMDL
MODEL 7
REMARK minimizedAffinity -8.47815037
REMARK  10 active torsions:
REMARK  status: ('A' for Active; 'I' for Inactive)
REMARK    1  A    between atoms: N1_2  and  C3_4 
REMARK    2  A    between atoms: C3_4  and  C4_5 
REMARK    3  A    between atoms: C4_5  and  C5_6 
REMARK    4  A    between atoms: C5_6  and  C6_7 
REMARK    5  A    between atoms: C7_8  and  C8_9 
REMARK    6  A    between atoms: C14_17  and  S1_18 
REMARK    7  A    between atoms: S1_18  and  N3_21 
REMARK    8  A    between atoms: N3_21  and  C15_22 
REMARK    9  A    between atoms: C15_22  and  C16_23 
REMARK   10  A    between atoms: C16_23  and  O4_24 
ROOT
HETATM    1  C8  UNL     1      -2.061   5.591  12.382  1.00  0.00     0.048 C 
HETATM    2  C9  UNL     1      -2.838   4.568  11.990  1.00  0.00     0.047 A 
HETATM    3  C10 UNL     1      -2.558   3.407  11.063  1.00  0.00     0.257 A 
HETATM    4  O1  UNL     1      -1.539   3.151  10.450  1.00  0.00    -0.267 OA
HETATM    5  N2  UNL     1      -3.728   2.665  11.032  1.00  0.00    -0.322 N 
HETATM    6  C11 UNL     1      -4.714   3.237  11.824  1.00  0.00     0.046 A 
HETATM    7  C12 UNL     1      -5.999   2.762  12.003  1.00  0.00     0.032 A 
HETATM    8  C13 UNL     1      -6.844   3.500  12.832  1.00  0.00     0.027 A 
HETATM    9  C14 UNL     1      -6.380   4.683  13.446  1.00  0.00     0.080 A 
HETATM   10  C17 UNL     1      -5.064   5.137  13.270  1.00  0.00     0.040 A 
HETATM   11  C18 UNL     1      -4.236   4.400  12.440  1.00  0.00     0.008 A 
HETATM   12  H14 UNL     1      -3.822   1.824  10.483  1.00  0.00     0.169 HD
ENDROOT
BRANCH   1  13
HETATM   13  C7  UNL     1      -0.717   5.903  12.025  1.00  0.00     0.040 A 
HETATM   14  C6  UNL     1       0.371   6.287  12.816  1.00  0.00    -0.023 A 
HETATM   15  C20 UNL     1       1.472   6.515  11.935  1.00  0.00    -0.027 A 
HETATM   16  C19 UNL     1       1.030   6.256  10.660  1.00  0.00     0.016 A 
HETATM   17  C21 UNL     1       2.880   6.927  12.219  1.00  0.00     0.041 C 
HETATM   18  N4  UNL     1      -0.280   5.881  10.721  1.00  0.00    -0.359 N 
HETATM   19  C24 UNL     1       1.818   6.382   9.405  1.00  0.00     0.057 C 
HETATM   20  H24 UNL     1      -0.839   5.621   9.914  1.00  0.00     0.166 HD
HETATM   21  C23 UNL     1       3.318   6.459   9.740  1.00  0.00     0.006 C 
HETATM   22  C22 UNL     1       3.597   7.390  10.935  1.00  0.00     0.005 C 
BRANCH  14  23
HETATM   23  C5  UNL     1       0.396   6.444  14.309  1.00  0.00     0.043 C 
BRANCH  23  24
HETATM   24  C4  UNL     1      -0.676   7.398  14.850  1.00  0.00     0.035 C 
BRANCH  24  25
HETATM   25  C3  UNL     1      -0.098   8.463  15.794  1.00  0.00     0.271 C 
BRANCH  25  26
HETATM   26  N1  UNL     1      -0.911   9.672  15.998  1.00  0.00     0.080 N 
HETATM   27  C1  UNL     1      -1.942   9.489  17.016  1.00  0.00     0.309 C 
HETATM   28  C2  UNL     1      -1.476  10.204  14.764  1.00  0.00     0.309 C 
ENDBRANCH  25  26
ENDBRANCH  24  25
ENDBRANCH  23  24
ENDBRANCH  14  23
ENDBRANCH   1  13
BRANCH   9  29
HETATM   29  S1  UNL     1      -7.493   5.592  14.494  1.00  0.00     0.258 S 
HETATM   30  O2  UNL     1      -7.563   4.908  15.764  1.00  0.00    -0.201 OA
HETATM   31  O3  UNL     1      -7.170   6.999  14.395  1.00  0.00    -0.201 OA
BRANCH  29  32
HETATM   32  N3  UNL     1      -8.956   5.351  13.738  1.00  0.00    -0.313 N 
HETATM   33  H17 UNL     1      -9.275   4.393  13.604  1.00  0.00     0.172 HD
BRANCH  32  34
HETATM   34  C15 UNL     1      -9.745   6.474  13.224  1.00  0.00     0.158 C 
BRANCH  34  35
HETATM   35  C16 UNL     1     -10.576   7.084  14.352  1.00  0.00     0.184 C 
BRANCH  35  36
HETATM   36  O4  UNL     1     -11.682   6.238  14.667  1.00  0.00    -0.399 OA
HETATM   37  H22 UNL     1     -11.316   5.485  15.167  1.00  0.00     0.209 HD
ENDBRANCH  35  36
ENDBRANCH  34  35
ENDBRANCH  32  34
ENDBRANCH  29  32
ENDBRANCH   9  29
TORSDOF 10
ENDMDL
MODEL 8
REMARK minimizedAffinity -8.31165981
REMARK  10 active torsions:
REMARK  status: ('A' for Active; 'I' for Inactive)
REMARK    1  A    between atoms: N1_2  and  C3_4 
REMARK    2  A    between atoms: C3_4  and  C4_5 
REMARK    3  A    between atoms: C4_5  and  C5_6 
REMARK    4  A    between atoms: C5_6  and  C6_7 
REMARK    5  A    between atoms: C7_8  and  C8_9 
REMARK    6  A    between atoms: C14_17  and  S1_18 
REMARK    7  A    between atoms: S1_18  and  N3_21 
REMARK    8  A    between atoms: N3_21  and  C15_22 
REMARK    9  A    between atoms: C15_22  and  C16_23 
REMARK   10  A    between atoms: C16_23  and  O4_24 
ROOT
HETATM    1  C8  UNL     1      -7.989   6.082  13.375  1.00  0.00     0.048 C 
HETATM    2  C9  UNL     1      -8.332   6.608  14.563  1.00  0.00     0.047 A 
HETATM    3  C10 UNL     1      -7.730   6.433  15.938  1.00  0.00     0.257 A 
HETATM    4  O1  UNL     1      -6.781   5.748  16.271  1.00  0.00    -0.267 OA
HETATM    5  N2  UNL     1      -8.496   7.219  16.783  1.00  0.00    -0.322 N 
HETATM    6  C11 UNL     1      -9.518   7.857  16.095  1.00  0.00     0.046 A 
HETATM    7  C12 UNL     1     -10.469   8.700  16.638  1.00  0.00     0.032 A 
HETATM    8  C13 UNL     1     -11.427   9.226  15.771  1.00  0.00     0.027 A 
HETATM    9  C14 UNL     1     -11.403   8.892  14.400  1.00  0.00     0.080 A 
HETATM   10  C17 UNL     1     -10.416   8.053  13.863  1.00  0.00     0.040 A 
HETATM   11  C18 UNL     1      -9.474   7.530  14.734  1.00  0.00     0.008 A 
HETATM   12  H14 UNL     1      -8.312   7.289  17.772  1.00  0.00     0.169 HD
ENDROOT
BRANCH   1  13
HETATM   13  C7  UNL     1      -6.942   5.171  13.051  1.00  0.00     0.040 A 
HETATM   14  C6  UNL     1      -5.561   5.258  13.259  1.00  0.00    -0.023 A 
HETATM   15  C20 UNL     1      -4.976   4.080  12.701  1.00  0.00    -0.027 A 
HETATM   16  C19 UNL     1      -6.003   3.322  12.191  1.00  0.00     0.016 A 
HETATM   17  C21 UNL     1      -3.553   3.630  12.644  1.00  0.00     0.041 C 
HETATM   18  N4  UNL     1      -7.179   3.977  12.411  1.00  0.00    -0.359 N 
HETATM   19  C24 UNL     1      -5.878   2.018  11.487  1.00  0.00     0.057 C 
HETATM   20  H24 UNL     1      -8.091   3.621  12.142  1.00  0.00     0.166 HD
HETATM   21  C23 UNL     1      -4.483   1.420  11.747  1.00  0.00     0.006 C 
HETATM   22  C22 UNL     1      -3.370   2.478  11.636  1.00  0.00     0.005 C 
BRANCH  14  23
HETATM   23  C5  UNL     1      -4.814   6.373  13.931  1.00  0.00     0.043 C 
BRANCH  23  24
HETATM   24  C4  UNL     1      -3.963   7.216  12.973  1.00  0.00     0.035 C 
BRANCH  24  25
HETATM   25  C3  UNL     1      -2.550   7.480  13.513  1.00  0.00     0.271 C 
BRANCH  25  26
HETATM   26  N1  UNL     1      -2.185   6.794  14.763  1.00  0.00     0.080 N 
HETATM   27  C1  UNL     1      -1.862   7.725  15.841  1.00  0.00     0.309 C 
HETATM   28  C2  UNL     1      -1.134   5.799  14.590  1.00  0.00     0.309 C 
ENDBRANCH  25  26
ENDBRANCH  24  25
ENDBRANCH  23  24
ENDBRANCH  14  23
ENDBRANCH   1  13
BRANCH   9  29
HETATM   29  S1  UNL     1     -12.645   9.587  13.332  1.00  0.00     0.258 S 
HETATM   30  O2  UNL     1     -12.977  10.899  13.836  1.00  0.00    -0.201 OA
HETATM   31  O3  UNL     1     -12.244   9.368  11.960  1.00  0.00    -0.201 OA
BRANCH  29  32
HETATM   32  N3  UNL     1     -13.956   8.609  13.643  1.00  0.00    -0.313 N 
HETATM   33  H17 UNL     1     -14.452   8.737  14.523  1.00  0.00     0.172 HD
BRANCH  32  34
HETATM   34  C15 UNL     1     -14.360   7.554  12.710  1.00  0.00     0.158 C 
BRANCH  34  35
HETATM   35  C16 UNL     1     -15.811   7.768  12.280  1.00  0.00     0.184 C 
BRANCH  35  36
HETATM   36  O4  UNL     1     -15.864   8.286  10.951  1.00  0.00    -0.399 OA
HETATM   37  H22 UNL     1     -15.660   7.540  10.358  1.00  0.00     0.209 HD
ENDBRANCH  35  36
ENDBRANCH  34  35
ENDBRANCH  32  34
ENDBRANCH  29  32
ENDBRANCH   9  29
TORSDOF 10
ENDMDL
MODEL 9
REMARK minimizedAffinity -8.18881035
REMARK  10 active torsions:
REMARK  status: ('A' for Active; 'I' for Inactive)
REMARK    1  A    between atoms: N1_2  and  C3_4 
REMARK    2  A    between atoms: C3_4  and  C4_5 
REMARK    3  A    between atoms: C4_5  and  C5_6 
REMARK    4  A    between atoms: C5_6  and  C6_7 
REMARK    5  A    between atoms: C7_8  and  C8_9 
REMARK    6  A    between atoms: C14_17  and  S1_18 
REMARK    7  A    between atoms: S1_18  and  N3_21 
REMARK    8  A    between atoms: N3_21  and  C15_22 
REMARK    9  A    between atoms: C15_22  and  C16_23 
REMARK   10  A    between atoms: C16_23  and  O4_24 
ROOT
HETATM    1  C8  UNL     1      -2.011   5.003  12.037  1.00  0.00     0.048 C 
HETATM    2  C9  UNL     1      -2.465   3.768  11.764  1.00  0.00     0.047 A 
HETATM    3  C10 UNL     1      -1.748   2.534  11.266  1.00  0.00     0.257 A 
HETATM    4  O1  UNL     1      -0.571   2.398  10.990  1.00  0.00    -0.267 OA
HETATM    5  N2  UNL     1      -2.721   1.553  11.168  1.00  0.00    -0.322 N 
HETATM    6  C11 UNL     1      -3.968   2.035  11.536  1.00  0.00     0.046 A 
HETATM    7  C12 UNL     1      -5.153   1.324  11.538  1.00  0.00     0.032 A 
HETATM    8  C13 UNL     1      -6.307   2.005  11.928  1.00  0.00     0.027 A 
HETATM    9  C14 UNL     1      -6.237   3.366  12.296  1.00  0.00     0.080 A 
HETATM   10  C17 UNL     1      -5.021   4.065  12.309  1.00  0.00     0.040 A 
HETATM   11  C18 UNL     1      -3.883   3.381  11.913  1.00  0.00     0.008 A 
HETATM   12  H14 UNL     1      -2.515   0.616  10.855  1.00  0.00     0.169 HD
ENDROOT
BRANCH   1  13
HETATM   13  C7  UNL     1      -0.694   5.535  11.924  1.00  0.00     0.040 A 
HETATM   14  C6  UNL     1      -0.064   6.567  12.628  1.00  0.00    -0.023 A 
HETATM   15  C20 UNL     1       1.247   6.712  12.079  1.00  0.00    -0.027 A 
HETATM   16  C19 UNL     1       1.374   5.772  11.084  1.00  0.00     0.016 A 
HETATM   17  C21 UNL     1       2.361   7.639  12.443  1.00  0.00     0.041 C 
HETATM   18  N4  UNL     1       0.211   5.065  11.001  1.00  0.00    -0.359 N 
HETATM   19  C24 UNL     1       2.559   5.561  10.209  1.00  0.00     0.057 C 
HETATM   20  H24 UNL     1       0.052   4.300  10.352  1.00  0.00     0.166 HD
HETATM   21  C23 UNL     1       3.785   6.264  10.819  1.00  0.00     0.006 C 
HETATM   22  C22 UNL     1       3.443   7.671  11.345  1.00  0.00     0.005 C 
BRANCH  14  23
HETATM   23  C5  UNL     1      -0.640   7.385  13.747  1.00  0.00     0.043 C 
BRANCH  23  24
HETATM   24  C4  UNL     1      -0.443   6.764  15.135  1.00  0.00     0.035 C 
BRANCH  24  25
HETATM   25  C3  UNL     1      -0.278   7.820  16.238  1.00  0.00     0.271 C 
BRANCH  25  26
HETATM   26  N1  UNL     1       0.799   8.805  16.048  1.00  0.00     0.080 N 
HETATM   27  C1  UNL     1       2.129   8.211  16.161  1.00  0.00     0.309 C 
HETATM   28  C2  UNL     1       0.668   9.977  16.906  1.00  0.00     0.309 C 
ENDBRANCH  25  26
ENDBRANCH  24  25
ENDBRANCH  23  24
ENDBRANCH  14  23
ENDBRANCH   1  13
BRANCH   9  29
HETATM   29  S1  UNL     1      -7.734   4.194  12.785  1.00  0.00     0.258 S 
HETATM   30  O2  UNL     1      -7.944   5.298  11.878  1.00  0.00    -0.201 OA
HETATM   31  O3  UNL     1      -8.752   3.196  13.029  1.00  0.00    -0.201 OA
BRANCH  29  32
HETATM   32  N3  UNL     1      -7.303   4.853  14.251  1.00  0.00    -0.313 N 
HETATM   33  H17 UNL     1      -6.998   4.222  14.990  1.00  0.00     0.172 HD
BRANCH  32  34
HETATM   34  C15 UNL     1      -7.410   6.292  14.502  1.00  0.00     0.158 C 
BRANCH  34  35
HETATM   35  C16 UNL     1      -8.722   6.599  15.223  1.00  0.00     0.184 C 
BRANCH  35  36
HETATM   36  O4  UNL     1      -9.485   7.550  14.481  1.00  0.00    -0.399 OA
HETATM   37  H22 UNL     1      -9.862   7.068  13.722  1.00  0.00     0.209 HD
ENDBRANCH  35  36
ENDBRANCH  34  35
ENDBRANCH  32  34
ENDBRANCH  29  32
ENDBRANCH   9  29
TORSDOF 10
ENDMDL
