MODEL 1
REMARK minimizedAffinity -7.56460571
REMARK  10 active torsions:
REMARK  status: ('A' for Active; 'I' for Inactive)
REMARK    1  A    between atoms: O1_2  and  C2_3 
REMARK    2  A    between atoms: C2_3  and  C3_4 
REMARK    3  A    between atoms: C3_4  and  O2_5 
REMARK    4  A    between atoms: O2_5  and  C4_6 
REMARK    5  A    between atoms: C10_15  and  N3_16 
REMARK    6  A    between atoms: N3_16  and  C11_17 
REMARK    7  A    between atoms: C19_27  and  O3_28 
REMARK    8  A    between atoms: O3_28  and  C20_29 
REMARK    9  A    between atoms: C20_29  and  C21_30 
REMARK   10  A    between atoms: C21_30  and  O4_31 
ROOT
HETATM    1  C4  UNL     1      -0.981  52.866 -25.301  1.00  0.00     0.104 A 
HETATM    2  C5  UNL     1       0.089  53.080 -24.426  1.00  0.00     0.070 A 
HETATM    3  C6  UNL     1       0.011  52.759 -23.078  1.00  0.00     0.047 A 
HETATM    4  N1  UNL     1       1.082  52.994 -22.305  1.00  0.00    -0.364 N 
ATOM      5  H1  UNL     1       1.930  53.401 -22.698  1.00  0.00     0.165 HD
HETATM    6  C7  UNL     1       1.011  52.678 -20.992  1.00  0.00     0.113 A 
HETATM    7  C8  UNL     1      -0.101  52.120 -20.391  1.00  0.00     0.087 A 
HETATM    8  C9  UNL     1      -0.060  51.807 -18.999  1.00  0.00     0.103 C 
HETATM    9  N2  UNL     1      -0.041  51.559 -17.865  1.00  0.00    -0.191 NA
HETATM   10  C10 UNL     1      -1.228  51.874 -21.188  1.00  0.00     0.067 A 
HETATM   11  C17 UNL     1      -1.179  52.199 -22.574  1.00  0.00     0.022 A 
HETATM   12  C18 UNL     1      -2.266  51.997 -23.456  1.00  0.00     0.055 A 
HETATM   13  C19 UNL     1      -2.177  52.319 -24.811  1.00  0.00     0.103 A 
ENDROOT
BRANCH  10  14
HETATM   14  N3  UNL     1      -2.383  51.238 -20.646  1.00  0.00    -0.353 N 
HETATM   15  H10 UNL     1      -2.628  51.599 -19.719  1.00  0.00     0.166 HD
BRANCH  14  16
HETATM   16  C11 UNL     1      -2.647  49.836 -20.667  1.00  0.00     0.054 A 
HETATM   17  C12 UNL     1      -1.631  48.892 -20.878  1.00  0.00     0.033 A 
HETATM   18  C13 UNL     1      -1.929  47.529 -20.967  1.00  0.00     0.026 A 
HETATM   19  C14 UNL     1      -3.249  47.095 -20.866  1.00  0.00     0.035 A 
HETATM   20 CL1  UNL     1      -3.606  45.417 -20.984  1.00  0.00    -0.084 Cl
HETATM   21  C15 UNL     1      -4.279  48.010 -20.682  1.00  0.00     0.050 A 
HETATM   22  C16 UNL     1      -3.978  49.370 -20.593  1.00  0.00     0.062 A 
HETATM   23 CL2  UNL     1      -5.286  50.483 -20.384  1.00  0.00    -0.082 Cl
ENDBRANCH  14  16
ENDBRANCH  10  14
BRANCH  13  24
HETATM   24  O3  UNL     1      -3.176  52.132 -25.729  1.00  0.00    -0.346 OA
BRANCH  24  25
HETATM   25  C20 UNL     1      -3.426  50.823 -26.238  1.00  0.00     0.201 C 
BRANCH  25  26
HETATM   26  C21 UNL     1      -3.065  50.723 -27.721  1.00  0.00     0.193 C 
BRANCH  26  27
HETATM   27  O4  UNL     1      -3.609  49.547 -28.319  1.00  0.00    -0.394 OA
HETATM   28  C22 UNL     1      -3.871  48.516 -27.376  1.00  0.00     0.201 C 
ENDBRANCH  26  27
ENDBRANCH  25  26
ENDBRANCH  24  25
ENDBRANCH  13  24
BRANCH   1  29
HETATM   29  O2  UNL     1      -0.959  53.156 -26.643  1.00  0.00    -0.346 OA
BRANCH  29  30
HETATM   30  C3  UNL     1       0.310  53.307 -27.275  1.00  0.00     0.201 C 
BRANCH  30  31
HETATM   31  C2  UNL     1       0.612  52.033 -28.064  1.00  0.00     0.193 C 
BRANCH  31  32
HETATM   32  O1  UNL     1       2.006  51.724 -28.069  1.00  0.00    -0.394 OA
HETATM   33  C1  UNL     1       2.537  51.537 -26.763  1.00  0.00     0.201 C 
ENDBRANCH  31  32
ENDBRANCH  30  31
ENDBRANCH  29  30
ENDBRANCH   1  29
TORSDOF 10
ENDMDL
MODEL 2
REMARK minimizedAffinity -7.52039814
REMARK  10 active torsions:
REMARK  status: ('A' for Active; 'I' for Inactive)
REMARK    1  A    between atoms: O1_2  and  C2_3 
REMARK    2  A    between atoms: C2_3  and  C3_4 
REMARK    3  A    between atoms: C3_4  and  O2_5 
REMARK    4  A    between atoms: O2_5  and  C4_6 
REMARK    5  A    between atoms: C10_15  and  N3_16 
REMARK    6  A    between atoms: N3_16  and  C11_17 
REMARK    7  A    between atoms: C19_27  and  O3_28 
REMARK    8  A    between atoms: O3_28  and  C20_29 
REMARK    9  A    between atoms: C20_29  and  C21_30 
REMARK   10  A    between atoms: C21_30  and  O4_31 
ROOT
HETATM    1  C4  UNL     1      -2.896  52.253 -24.846  1.00  0.00     0.104 A 
HETATM    2  C5  UNL     1      -3.985  52.158 -23.974  1.00  0.00     0.070 A 
HETATM    3  C6  UNL     1      -3.872  51.577 -22.718  1.00  0.00     0.047 A 
HETATM    4  N1  UNL     1      -4.964  51.527 -21.940  1.00  0.00    -0.364 N 
ATOM      5  H1  UNL     1      -5.854  51.903 -22.265  1.00  0.00     0.165 HD
HETATM    6  C7  UNL     1      -4.856  50.966 -20.714  1.00  0.00     0.113 A 
HETATM    7  C8  UNL     1      -3.684  50.441 -20.206  1.00  0.00     0.087 A 
HETATM    8  C9  UNL     1      -3.679  49.889 -18.889  1.00  0.00     0.103 C 
HETATM    9  N2  UNL     1      -3.666  49.428 -17.823  1.00  0.00    -0.191 NA
HETATM   10  C10 UNL     1      -2.537  50.483 -21.012  1.00  0.00     0.067 A 
HETATM   11  C17 UNL     1      -2.625  51.068 -22.307  1.00  0.00     0.022 A 
HETATM   12  C18 UNL     1      -1.527  51.150 -23.196  1.00  0.00     0.055 A 
HETATM   13  C19 UNL     1      -1.650  51.740 -24.455  1.00  0.00     0.103 A 
ENDROOT
BRANCH  10  14
HETATM   14  N3  UNL     1      -1.281  50.021 -20.522  1.00  0.00    -0.353 N 
HETATM   15  H10 UNL     1      -1.238  49.000 -20.462  1.00  0.00     0.166 HD
BRANCH  14  16
HETATM   16  C11 UNL     1      -0.569  50.567 -19.413  1.00  0.00     0.054 A 
HETATM   17  C12 UNL     1      -0.435  49.872 -18.202  1.00  0.00     0.033 A 
HETATM   18  C13 UNL     1       0.204  50.461 -17.106  1.00  0.00     0.026 A 
HETATM   19  C14 UNL     1       0.701  51.759 -17.203  1.00  0.00     0.035 A 
HETATM   20 CL1  UNL     1       1.481  52.477 -15.848  1.00  0.00    -0.084 Cl
HETATM   21  C15 UNL     1       0.561  52.481 -18.383  1.00  0.00     0.050 A 
HETATM   22  C16 UNL     1      -0.078  51.890 -19.474  1.00  0.00     0.062 A 
HETATM   23 CL2  UNL     1      -0.252  52.823 -20.921  1.00  0.00    -0.082 Cl
ENDBRANCH  14  16
ENDBRANCH  10  14
BRANCH  13  24
HETATM   24  O3  UNL     1      -0.630  51.876 -25.360  1.00  0.00    -0.346 OA
BRANCH  24  25
HETATM   25  C20 UNL     1       0.692  52.138 -24.893  1.00  0.00     0.201 C 
BRANCH  25  26
HETATM   26  C21 UNL     1       1.740  51.750 -25.938  1.00  0.00     0.193 C 
BRANCH  26  27
HETATM   27  O4  UNL     1       1.628  52.543 -27.119  1.00  0.00    -0.394 OA
HETATM   28  C22 UNL     1       1.305  51.776 -28.272  1.00  0.00     0.201 C 
ENDBRANCH  26  27
ENDBRANCH  25  26
ENDBRANCH  24  25
ENDBRANCH  13  24
BRANCH   1  29
HETATM   29  O2  UNL     1      -2.946  52.823 -26.094  1.00  0.00    -0.346 OA
BRANCH  29  30
HETATM   30  C3  UNL     1      -2.284  52.153 -27.165  1.00  0.00     0.201 C 
BRANCH  30  31
HETATM   31  C2  UNL     1      -3.201  51.043 -27.679  1.00  0.00     0.193 C 
BRANCH  31  32
HETATM   32  O1  UNL     1      -2.732  49.746 -27.309  1.00  0.00    -0.394 OA
HETATM   33  C1  UNL     1      -3.784  48.856 -26.958  1.00  0.00     0.201 C 
ENDBRANCH  31  32
ENDBRANCH  30  31
ENDBRANCH  29  30
ENDBRANCH   1  29
TORSDOF 10
ENDMDL
MODEL 3
REMARK minimizedAffinity -7.50264263
REMARK  10 active torsions:
REMARK  status: ('A' for Active; 'I' for Inactive)
REMARK    1  A    between atoms: O1_2  and  C2_3 
REMARK    2  A    between atoms: C2_3  and  C3_4 
REMARK    3  A    between atoms: C3_4  and  O2_5 
REMARK    4  A    between atoms: O2_5  and  C4_6 
REMARK    5  A    between atoms: C10_15  and  N3_16 
REMARK    6  A    between atoms: N3_16  and  C11_17 
REMARK    7  A    between atoms: C19_27  and  O3_28 
REMARK    8  A    between atoms: O3_28  and  C20_29 
REMARK    9  A    between atoms: C20_29  and  C21_30 
REMARK   10  A    between atoms: C21_30  and  O4_31 
ROOT
HETATM    1  C4  UNL     1      -0.991  52.926 -25.189  1.00  0.00     0.104 A 
HETATM    2  C5  UNL     1       0.092  53.098 -24.319  1.00  0.00     0.070 A 
HETATM    3  C6  UNL     1       0.015  52.760 -22.976  1.00  0.00     0.047 A 
HETATM    4  N1  UNL     1       1.098  52.953 -22.208  1.00  0.00    -0.364 N 
ATOM      5  H1  UNL     1       1.954  53.343 -22.602  1.00  0.00     0.165 HD
HETATM    6  C7  UNL     1       1.028  52.621 -20.899  1.00  0.00     0.113 A 
HETATM    7  C8  UNL     1      -0.094  52.084 -20.298  1.00  0.00     0.087 A 
HETATM    8  C9  UNL     1      -0.051  51.750 -18.910  1.00  0.00     0.103 C 
HETATM    9  N2  UNL     1      -0.030  51.486 -17.780  1.00  0.00    -0.191 NA
HETATM   10  C10 UNL     1      -1.234  51.881 -21.089  1.00  0.00     0.067 A 
HETATM   11  C17 UNL     1      -1.186  52.225 -22.470  1.00  0.00     0.022 A 
HETATM   12  C18 UNL     1      -2.285  52.065 -23.346  1.00  0.00     0.055 A 
HETATM   13  C19 UNL     1      -2.197  52.405 -24.698  1.00  0.00     0.103 A 
ENDROOT
BRANCH  10  14
HETATM   14  N3  UNL     1      -2.401  51.269 -20.547  1.00  0.00    -0.353 N 
HETATM   15  H10 UNL     1      -2.258  50.936 -19.588  1.00  0.00     0.166 HD
BRANCH  14  16
HETATM   16  C11 UNL     1      -3.244  50.339 -21.225  1.00  0.00     0.054 A 
HETATM   17  C12 UNL     1      -4.579  50.639 -21.537  1.00  0.00     0.033 A 
HETATM   18  C13 UNL     1      -5.405  49.683 -22.137  1.00  0.00     0.026 A 
HETATM   19  C14 UNL     1      -4.911  48.409 -22.413  1.00  0.00     0.035 A 
HETATM   20 CL1  UNL     1      -5.937  47.238 -23.144  1.00  0.00    -0.084 Cl
HETATM   21  C15 UNL     1      -3.600  48.077 -22.092  1.00  0.00     0.050 A 
HETATM   22  C16 UNL     1      -2.779  49.034 -21.493  1.00  0.00     0.062 A 
HETATM   23 CL2  UNL     1      -1.158  48.580 -21.089  1.00  0.00    -0.082 Cl
ENDBRANCH  14  16
ENDBRANCH  10  14
BRANCH  13  24
HETATM   24  O3  UNL     1      -3.208  52.259 -25.610  1.00  0.00    -0.346 OA
BRANCH  24  25
HETATM   25  C20 UNL     1      -3.490  50.967 -26.144  1.00  0.00     0.201 C 
BRANCH  25  26
HETATM   26  C21 UNL     1      -3.050  50.859 -27.606  1.00  0.00     0.193 C 
BRANCH  26  27
HETATM   27  O4  UNL     1      -3.556  49.677 -28.225  1.00  0.00    -0.394 OA
HETATM   28  C22 UNL     1      -3.869  48.653 -27.290  1.00  0.00     0.201 C 
ENDBRANCH  26  27
ENDBRANCH  25  26
ENDBRANCH  24  25
ENDBRANCH  13  24
BRANCH   1  29
HETATM   29  O2  UNL     1      -0.971  53.234 -26.527  1.00  0.00    -0.346 OA
BRANCH  29  30
HETATM   30  C3  UNL     1       0.297  53.334 -27.173  1.00  0.00     0.201 C 
BRANCH  30  31
HETATM   31  C2  UNL     1       0.583  52.009 -27.880  1.00  0.00     0.193 C 
BRANCH  31  32
HETATM   32  O1  UNL     1       1.983  51.736 -27.959  1.00  0.00    -0.394 OA
HETATM   33  C1  UNL     1       2.573  51.500 -26.687  1.00  0.00     0.201 C 
ENDBRANCH  31  32
ENDBRANCH  30  31
ENDBRANCH  29  30
ENDBRANCH   1  29
TORSDOF 10
ENDMDL
MODEL 4
REMARK minimizedAffinity -7.32474136
REMARK  10 active torsions:
REMARK  status: ('A' for Active; 'I' for Inactive)
REMARK    1  A    between atoms: O1_2  and  C2_3 
REMARK    2  A    between atoms: C2_3  and  C3_4 
REMARK    3  A    between atoms: C3_4  and  O2_5 
REMARK    4  A    between atoms: O2_5  and  C4_6 
REMARK    5  A    between atoms: C10_15  and  N3_16 
REMARK    6  A    between atoms: N3_16  and  C11_17 
REMARK    7  A    between atoms: C19_27  and  O3_28 
REMARK    8  A    between atoms: O3_28  and  C20_29 
REMARK    9  A    between atoms: C20_29  and  C21_30 
REMARK   10  A    between atoms: C21_30  and  O4_31 
ROOT
HETATM    1  C4  UNL     1      -0.555  52.149 -25.012  1.00  0.00     0.104 A 
HETATM    2  C5  UNL     1       0.242  53.011 -24.252  1.00  0.00     0.070 A 
HETATM    3  C6  UNL     1       0.356  52.882 -22.875  1.00  0.00     0.047 A 
HETATM    4  N1  UNL     1       1.143  53.748 -22.218  1.00  0.00    -0.364 N 
ATOM      5  H1  UNL     1       1.641  54.484 -22.718  1.00  0.00     0.165 HD
HETATM    6  C7  UNL     1       1.260  53.623 -20.877  1.00  0.00     0.113 A 
HETATM    7  C8  UNL     1       0.621  52.649 -20.133  1.00  0.00     0.087 A 
HETATM    8  C9  UNL     1       0.832  52.596 -18.722  1.00  0.00     0.103 C 
HETATM    9  N2  UNL     1       0.988  52.551 -17.573  1.00  0.00    -0.191 NA
HETATM   10  C10 UNL     1      -0.207  51.741 -20.808  1.00  0.00     0.067 A 
HETATM   11  C17 UNL     1      -0.349  51.853 -22.221  1.00  0.00     0.022 A 
HETATM   12  C18 UNL     1      -1.167  50.991 -22.988  1.00  0.00     0.055 A 
HETATM   13  C19 UNL     1      -1.272  51.126 -24.374  1.00  0.00     0.103 A 
ENDROOT
BRANCH  10  14
HETATM   14  N3  UNL     1      -0.842  50.672 -20.111  1.00  0.00    -0.353 N 
HETATM   15  H10 UNL     1      -0.251  49.836 -20.057  1.00  0.00     0.166 HD
BRANCH  14  16
HETATM   16  C11 UNL     1      -2.195  50.255 -20.281  1.00  0.00     0.054 A 
HETATM   17  C12 UNL     1      -3.274  51.110 -20.009  1.00  0.00     0.033 A 
HETATM   18  C13 UNL     1      -4.592  50.653 -20.113  1.00  0.00     0.026 A 
HETATM   19  C14 UNL     1      -4.846  49.331 -20.472  1.00  0.00     0.035 A 
HETATM   20 CL1  UNL     1      -6.470  48.777 -20.591  1.00  0.00    -0.084 Cl
HETATM   21  C15 UNL     1      -3.796  48.455 -20.723  1.00  0.00     0.050 A 
HETATM   22  C16 UNL     1      -2.482  48.915 -20.618  1.00  0.00     0.062 A 
HETATM   23 CL2  UNL     1      -1.199  47.793 -20.919  1.00  0.00    -0.082 Cl
ENDBRANCH  14  16
ENDBRANCH  10  14
BRANCH  13  24
HETATM   24  O3  UNL     1      -2.025  50.318 -25.185  1.00  0.00    -0.346 OA
BRANCH  24  25
HETATM   25  C20 UNL     1      -3.233  49.750 -24.684  1.00  0.00     0.201 C 
BRANCH  25  26
HETATM   26  C21 UNL     1      -3.554  48.424 -25.375  1.00  0.00     0.193 C 
BRANCH  26  27
HETATM   27  O4  UNL     1      -3.032  48.378 -26.702  1.00  0.00    -0.394 OA
HETATM   28  C22 UNL     1      -4.033  48.552 -27.697  1.00  0.00     0.201 C 
ENDBRANCH  26  27
ENDBRANCH  25  26
ENDBRANCH  24  25
ENDBRANCH  13  24
BRANCH   1  29
HETATM   29  O2  UNL     1      -0.700  52.222 -26.376  1.00  0.00    -0.346 OA
BRANCH  29  30
HETATM   30  C3  UNL     1       0.062  51.325 -27.180  1.00  0.00     0.201 C 
BRANCH  30  31
HETATM   31  C2  UNL     1       1.094  52.137 -27.963  1.00  0.00     0.193 C 
BRANCH  31  32
HETATM   32  O1  UNL     1       2.299  52.327 -27.222  1.00  0.00    -0.394 OA
HETATM   33  C1  UNL     1       2.665  51.187 -26.456  1.00  0.00     0.201 C 
ENDBRANCH  31  32
ENDBRANCH  30  31
ENDBRANCH  29  30
ENDBRANCH   1  29
TORSDOF 10
ENDMDL
MODEL 5
REMARK minimizedAffinity -7.1509757
REMARK  10 active torsions:
REMARK  status: ('A' for Active; 'I' for Inactive)
REMARK    1  A    between atoms: O1_2  and  C2_3 
REMARK    2  A    between atoms: C2_3  and  C3_4 
REMARK    3  A    between atoms: C3_4  and  O2_5 
REMARK    4  A    between atoms: O2_5  and  C4_6 
REMARK    5  A    between atoms: C10_15  and  N3_16 
REMARK    6  A    between atoms: N3_16  and  C11_17 
REMARK    7  A    between atoms: C19_27  and  O3_28 
REMARK    8  A    between atoms: O3_28  and  C20_29 
REMARK    9  A    between atoms: C20_29  and  C21_30 
REMARK   10  A    between atoms: C21_30  and  O4_31 
ROOT
HETATM    1  C4  UNL     1      -1.823  52.567 -24.470  1.00  0.00     0.104 A 
HETATM    2  C5  UNL     1      -3.197  52.410 -24.682  1.00  0.00     0.070 A 
HETATM    3  C6  UNL     1      -3.959  51.522 -23.936  1.00  0.00     0.047 A 
HETATM    4  N1  UNL     1      -5.271  51.431 -24.199  1.00  0.00    -0.364 N 
ATOM      5  H1  UNL     1      -5.696  51.999 -24.933  1.00  0.00     0.165 HD
HETATM    6  C7  UNL     1      -6.017  50.571 -23.471  1.00  0.00     0.113 A 
HETATM    7  C8  UNL     1      -5.512  49.776 -22.460  1.00  0.00     0.087 A 
HETATM    8  C9  UNL     1      -6.395  48.915 -21.740  1.00  0.00     0.103 C 
HETATM    9  N2  UNL     1      -7.103  48.204 -21.156  1.00  0.00    -0.191 NA
HETATM   10  C10 UNL     1      -4.141  49.858 -22.178  1.00  0.00     0.067 A 
HETATM   11  C17 UNL     1      -3.333  50.756 -22.932  1.00  0.00     0.022 A 
HETATM   12  C18 UNL     1      -1.941  50.904 -22.729  1.00  0.00     0.055 A 
HETATM   13  C19 UNL     1      -1.184  51.803 -23.482  1.00  0.00     0.103 A 
ENDROOT
BRANCH  10  14
HETATM   14  N3  UNL     1      -3.569  49.116 -21.104  1.00  0.00    -0.353 N 
HETATM   15  H10 UNL     1      -4.225  48.437 -20.706  1.00  0.00     0.166 HD
BRANCH  14  16
HETATM   16  C11 UNL     1      -2.784  49.658 -20.044  1.00  0.00     0.054 A 
HETATM   17  C12 UNL     1      -3.231  50.738 -19.267  1.00  0.00     0.033 A 
HETATM   18  C13 UNL     1      -2.411  51.298 -18.282  1.00  0.00     0.026 A 
HETATM   19  C14 UNL     1      -1.127  50.797 -18.075  1.00  0.00     0.035 A 
HETATM   20 CL1  UNL     1      -0.124  51.496 -16.866  1.00  0.00    -0.084 Cl
HETATM   21  C15 UNL     1      -0.649  49.743 -18.847  1.00  0.00     0.050 A 
HETATM   22  C16 UNL     1      -1.471  49.188 -19.829  1.00  0.00     0.062 A 
HETATM   23 CL2  UNL     1      -0.837  47.891 -20.784  1.00  0.00    -0.082 Cl
ENDBRANCH  14  16
ENDBRANCH  10  14
BRANCH  13  24
HETATM   24  O3  UNL     1       0.160  52.017 -23.328  1.00  0.00    -0.346 OA
BRANCH  24  25
HETATM   25  C20 UNL     1       0.669  52.391 -22.049  1.00  0.00     0.201 C 
BRANCH  25  26
HETATM   26  C21 UNL     1       1.168  53.836 -22.048  1.00  0.00     0.193 C 
BRANCH  26  27
HETATM   27  O4  UNL     1       1.444  54.300 -20.727  1.00  0.00    -0.394 OA
HETATM   28  C22 UNL     1       1.195  53.316 -19.731  1.00  0.00     0.201 C 
ENDBRANCH  26  27
ENDBRANCH  25  26
ENDBRANCH  24  25
ENDBRANCH  13  24
BRANCH   1  29
HETATM   29  O2  UNL     1      -1.022  53.434 -25.171  1.00  0.00    -0.346 OA
BRANCH  29  30
HETATM   30  C3  UNL     1      -0.188  52.897 -26.195  1.00  0.00     0.201 C 
BRANCH  30  31
HETATM   31  C2  UNL     1      -0.513  53.612 -27.507  1.00  0.00     0.193 C 
BRANCH  31  32
HETATM   32  O1  UNL     1       0.255  53.105 -28.598  1.00  0.00    -0.394 OA
HETATM   33  C1  UNL     1       0.970  51.920 -28.269  1.00  0.00     0.201 C 
ENDBRANCH  31  32
ENDBRANCH  30  31
ENDBRANCH  29  30
ENDBRANCH   1  29
TORSDOF 10
ENDMDL
MODEL 6
REMARK minimizedAffinity -7.14827919
REMARK  10 active torsions:
REMARK  status: ('A' for Active; 'I' for Inactive)
REMARK    1  A    between atoms: O1_2  and  C2_3 
REMARK    2  A    between atoms: C2_3  and  C3_4 
REMARK    3  A    between atoms: C3_4  and  O2_5 
REMARK    4  A    between atoms: O2_5  and  C4_6 
REMARK    5  A    between atoms: C10_15  and  N3_16 
REMARK    6  A    between atoms: N3_16  and  C11_17 
REMARK    7  A    between atoms: C19_27  and  O3_28 
REMARK    8  A    between atoms: O3_28  and  C20_29 
REMARK    9  A    between atoms: C20_29  and  C21_30 
REMARK   10  A    between atoms: C21_30  and  O4_31 
ROOT
HETATM    1  C4  UNL     1       0.584  52.471 -19.139  1.00  0.00     0.104 A 
HETATM    2  C5  UNL     1       1.081  53.491 -19.957  1.00  0.00     0.070 A 
HETATM    3  C6  UNL     1       0.904  53.479 -21.334  1.00  0.00     0.047 A 
HETATM    4  N1  UNL     1       1.410  54.496 -22.049  1.00  0.00    -0.364 N 
ATOM      5  H1  UNL     1       1.915  55.255 -21.591  1.00  0.00     0.165 HD
HETATM    6  C7  UNL     1       1.236  54.491 -23.389  1.00  0.00     0.113 A 
HETATM    7  C8  UNL     1       0.560  53.501 -24.076  1.00  0.00     0.087 A 
HETATM    8  C9  UNL     1       0.417  53.605 -25.493  1.00  0.00     0.103 C 
HETATM    9  N2  UNL     1       0.305  53.676 -26.646  1.00  0.00    -0.191 NA
HETATM   10  C10 UNL     1       0.030  52.431 -23.340  1.00  0.00     0.067 A 
HETATM   11  C17 UNL     1       0.202  52.412 -21.927  1.00  0.00     0.022 A 
HETATM   12  C18 UNL     1      -0.287  51.374 -21.100  1.00  0.00     0.055 A 
HETATM   13  C19 UNL     1      -0.108  51.396 -19.716  1.00  0.00     0.103 A 
ENDROOT
BRANCH  10  14
HETATM   14  N3  UNL     1      -0.736  51.412 -23.979  1.00  0.00    -0.353 N 
HETATM   15  H10 UNL     1      -0.455  51.266 -24.953  1.00  0.00     0.166 HD
BRANCH  14  16
HETATM   16  C11 UNL     1      -2.151  51.257 -23.890  1.00  0.00     0.054 A 
HETATM   17  C12 UNL     1      -2.906  51.897 -22.895  1.00  0.00     0.033 A 
HETATM   18  C13 UNL     1      -4.282  51.669 -22.785  1.00  0.00     0.026 A 
HETATM   19  C14 UNL     1      -4.915  50.785 -23.657  1.00  0.00     0.035 A 
HETATM   20 CL1  UNL     1      -6.606  50.507 -23.510  1.00  0.00    -0.084 Cl
HETATM   21  C15 UNL     1      -4.187  50.119 -24.637  1.00  0.00     0.050 A 
HETATM   22  C16 UNL     1      -2.814  50.349 -24.742  1.00  0.00     0.062 A 
HETATM   23 CL2  UNL     1      -1.936  49.488 -25.960  1.00  0.00    -0.082 Cl
ENDBRANCH  14  16
ENDBRANCH  10  14
BRANCH  13  24
HETATM   24  O3  UNL     1      -0.571  50.440 -18.850  1.00  0.00    -0.346 OA
BRANCH  24  25
HETATM   25  C20 UNL     1      -1.843  49.840 -19.083  1.00  0.00     0.201 C 
BRANCH  25  26
HETATM   26  C21 UNL     1      -1.716  48.334 -19.316  1.00  0.00     0.193 C 
BRANCH  26  27
HETATM   27  O4  UNL     1      -0.898  48.041 -20.448  1.00  0.00    -0.394 OA
HETATM   28  C22 UNL     1      -1.619  47.429 -21.509  1.00  0.00     0.201 C 
ENDBRANCH  26  27
ENDBRANCH  25  26
ENDBRANCH  24  25
ENDBRANCH  13  24
BRANCH   1  29
HETATM   29  O2  UNL     1       0.721  52.433 -17.773  1.00  0.00    -0.346 OA
BRANCH  29  30
HETATM   30  C3  UNL     1       2.039  52.465 -17.230  1.00  0.00     0.201 C 
BRANCH  30  31
HETATM   31  C2  UNL     1       1.964  52.064 -15.757  1.00  0.00     0.193 C 
BRANCH  31  32
HETATM   32  O1  UNL     1       0.811  52.605 -15.113  1.00  0.00    -0.394 OA
HETATM   33  C1  UNL     1       0.121  51.650 -14.316  1.00  0.00     0.201 C 
ENDBRANCH  31  32
ENDBRANCH  30  31
ENDBRANCH  29  30
ENDBRANCH   1  29
TORSDOF 10
ENDMDL
MODEL 7
REMARK minimizedAffinity -7.09250164
REMARK  10 active torsions:
REMARK  status: ('A' for Active; 'I' for Inactive)
REMARK    1  A    between atoms: O1_2  and  C2_3 
REMARK    2  A    between atoms: C2_3  and  C3_4 
REMARK    3  A    between atoms: C3_4  and  O2_5 
REMARK    4  A    between atoms: O2_5  and  C4_6 
REMARK    5  A    between atoms: C10_15  and  N3_16 
REMARK    6  A    between atoms: N3_16  and  C11_17 
REMARK    7  A    between atoms: C19_27  and  O3_28 
REMARK    8  A    between atoms: O3_28  and  C20_29 
REMARK    9  A    between atoms: C20_29  and  C21_30 
REMARK   10  A    between atoms: C21_30  and  O4_31 
ROOT
HETATM    1  C4  UNL     1       0.707  53.060 -23.412  1.00  0.00     0.104 A 
HETATM    2  C5  UNL     1       0.993  53.617 -22.161  1.00  0.00     0.070 A 
HETATM    3  C6  UNL     1       0.650  52.978 -20.978  1.00  0.00     0.047 A 
HETATM    4  N1  UNL     1       0.961  53.578 -19.818  1.00  0.00    -0.364 N 
ATOM      5  H1  UNL     1       1.435  54.481 -19.809  1.00  0.00     0.165 HD
HETATM    6  C7  UNL     1       0.633  52.956 -18.663  1.00  0.00     0.113 A 
HETATM    7  C8  UNL     1      -0.003  51.731 -18.599  1.00  0.00     0.087 A 
HETATM    8  C9  UNL     1      -0.285  51.156 -17.323  1.00  0.00     0.103 C 
HETATM    9  N2  UNL     1      -0.528  50.685 -16.290  1.00  0.00    -0.191 NA
HETATM   10  C10 UNL     1      -0.337  51.098 -19.804  1.00  0.00     0.067 A 
HETATM   11  C17 UNL     1      -0.003  51.732 -21.035  1.00  0.00     0.022 A 
HETATM   12  C18 UNL     1      -0.306  51.177 -22.300  1.00  0.00     0.055 A 
HETATM   13  C19 UNL     1       0.046  51.825 -23.485  1.00  0.00     0.103 A 
ENDROOT
BRANCH  10  14
HETATM   14  N3  UNL     1      -0.932  49.802 -19.809  1.00  0.00    -0.353 N 
HETATM   15  H10 UNL     1      -0.237  49.053 -19.744  1.00  0.00     0.166 HD
BRANCH  14  16
HETATM   16  C11 UNL     1      -1.979  49.371 -20.677  1.00  0.00     0.054 A 
HETATM   17  C12 UNL     1      -1.760  48.423 -21.688  1.00  0.00     0.033 A 
HETATM   18  C13 UNL     1      -2.785  48.073 -22.573  1.00  0.00     0.026 A 
HETATM   19  C14 UNL     1      -4.035  48.680 -22.469  1.00  0.00     0.035 A 
HETATM   20 CL1  UNL     1      -5.287  48.247 -23.565  1.00  0.00    -0.084 Cl
HETATM   21  C15 UNL     1      -4.273  49.640 -21.492  1.00  0.00     0.050 A 
HETATM   22  C16 UNL     1      -3.247  49.987 -20.611  1.00  0.00     0.062 A 
HETATM   23 CL2  UNL     1      -3.572  51.200 -19.420  1.00  0.00    -0.082 Cl
ENDBRANCH  14  16
ENDBRANCH  10  14
BRANCH  13  24
HETATM   24  O3  UNL     1      -0.193  51.340 -24.744  1.00  0.00    -0.346 OA
BRANCH  24  25
HETATM   25  C20 UNL     1      -1.423  50.672 -25.017  1.00  0.00     0.201 C 
BRANCH  25  26
HETATM   26  C21 UNL     1      -2.438  51.615 -25.664  1.00  0.00     0.193 C 
BRANCH  26  27
HETATM   27  O4  UNL     1      -3.778  51.161 -25.476  1.00  0.00    -0.394 OA
HETATM   28  C22 UNL     1      -4.475  51.893 -24.476  1.00  0.00     0.201 C 
ENDBRANCH  26  27
ENDBRANCH  25  26
ENDBRANCH  24  25
ENDBRANCH  13  24
BRANCH   1  29
HETATM   29  O2  UNL     1       1.028  53.641 -24.615  1.00  0.00    -0.346 OA
BRANCH  29  30
HETATM   30  C3  UNL     1       0.083  54.531 -25.203  1.00  0.00     0.201 C 
BRANCH  30  31
HETATM   31  C2  UNL     1       0.003  54.231 -26.700  1.00  0.00     0.193 C 
BRANCH  31  32
HETATM   32  O1  UNL     1       0.855  53.148 -27.074  1.00  0.00    -0.394 OA
HETATM   33  C1  UNL     1       0.328  52.372 -28.144  1.00  0.00     0.201 C 
ENDBRANCH  31  32
ENDBRANCH  30  31
ENDBRANCH  29  30
ENDBRANCH   1  29
TORSDOF 10
ENDMDL
MODEL 8
REMARK minimizedAffinity -7.05882549
REMARK  10 active torsions:
REMARK  status: ('A' for Active; 'I' for Inactive)
REMARK    1  A    between atoms: O1_2  and  C2_3 
REMARK    2  A    between atoms: C2_3  and  C3_4 
REMARK    3  A    between atoms: C3_4  and  O2_5 
REMARK    4  A    between atoms: O2_5  and  C4_6 
REMARK    5  A    between atoms: C10_15  and  N3_16 
REMARK    6  A    between atoms: N3_16  and  C11_17 
REMARK    7  A    between atoms: C19_27  and  O3_28 
REMARK    8  A    between atoms: O3_28  and  C20_29 
REMARK    9  A    between atoms: C20_29  and  C21_30 
REMARK   10  A    between atoms: C21_30  and  O4_31 
ROOT
HETATM    1  C4  UNL     1      -0.912  52.556 -25.360  1.00  0.00     0.104 A 
HETATM    2  C5  UNL     1      -0.123  52.945 -24.272  1.00  0.00     0.070 A 
HETATM    3  C6  UNL     1      -0.202  52.305 -23.043  1.00  0.00     0.047 A 
HETATM    4  N1  UNL     1       0.590  52.737 -22.049  1.00  0.00    -0.364 N 
ATOM      5  H1  UNL     1       1.230  53.519 -22.194  1.00  0.00     0.165 HD
HETATM    6  C7  UNL     1       0.520  52.113 -20.852  1.00  0.00     0.113 A 
HETATM    7  C8  UNL     1      -0.316  51.047 -20.585  1.00  0.00     0.087 A 
HETATM    8  C9  UNL     1      -0.295  50.449 -19.288  1.00  0.00     0.103 C 
HETATM    9  N2  UNL     1      -0.292  49.963 -18.234  1.00  0.00    -0.191 NA
HETATM   10  C10 UNL     1      -1.151  50.589 -21.613  1.00  0.00     0.067 A 
HETATM   11  C17 UNL     1      -1.098  51.231 -22.884  1.00  0.00     0.022 A 
HETATM   12  C18 UNL     1      -1.906  50.848 -23.980  1.00  0.00     0.055 A 
HETATM   13  C19 UNL     1      -1.818  51.495 -25.214  1.00  0.00     0.103 A 
ENDROOT
BRANCH  10  14
HETATM   14  N3  UNL     1      -1.989  49.451 -21.424  1.00  0.00    -0.353 N 
HETATM   15  H10 UNL     1      -1.540  48.582 -21.727  1.00  0.00     0.166 HD
BRANCH  14  16
HETATM   16  C11 UNL     1      -3.376  49.377 -21.747  1.00  0.00     0.054 A 
HETATM   17  C12 UNL     1      -3.857  48.546 -22.770  1.00  0.00     0.033 A 
HETATM   18  C13 UNL     1      -5.212  48.547 -23.115  1.00  0.00     0.026 A 
HETATM   19  C14 UNL     1      -6.100  49.393 -22.453  1.00  0.00     0.035 A 
HETATM   20 CL1  UNL     1      -7.764  49.392 -22.889  1.00  0.00    -0.084 Cl
HETATM   21  C15 UNL     1      -5.648  50.245 -21.452  1.00  0.00     0.050 A 
HETATM   22  C16 UNL     1      -4.294  50.241 -21.111  1.00  0.00     0.062 A 
HETATM   23 CL2  UNL     1      -3.762  51.329 -19.874  1.00  0.00    -0.082 Cl
ENDBRANCH  14  16
ENDBRANCH  10  14
BRANCH  13  24
HETATM   24  O3  UNL     1      -2.549  51.167 -26.325  1.00  0.00    -0.346 OA
BRANCH  24  25
HETATM   25  C20 UNL     1      -2.831  49.796 -26.600  1.00  0.00     0.201 C 
BRANCH  25  26
HETATM   26  C21 UNL     1      -3.648  49.642 -27.884  1.00  0.00     0.193 C 
BRANCH  26  27
HETATM   27  O4  UNL     1      -3.836  48.270 -28.230  1.00  0.00    -0.394 OA
HETATM   28  C22 UNL     1      -5.134  48.001 -28.743  1.00  0.00     0.201 C 
ENDBRANCH  26  27
ENDBRANCH  25  26
ENDBRANCH  24  25
ENDBRANCH  13  24
BRANCH   1  29
HETATM   29  O2  UNL     1      -0.872  53.145 -26.600  1.00  0.00    -0.346 OA
BRANCH  29  30
HETATM   30  C3  UNL     1      -0.808  52.296 -27.744  1.00  0.00     0.201 C 
BRANCH  30  31
HETATM   31  C2  UNL     1       0.530  51.557 -27.722  1.00  0.00     0.193 C 
BRANCH  31  32
HETATM   32  O1  UNL     1       1.603  52.405 -27.312  1.00  0.00    -0.394 OA
HETATM   33  C1  UNL     1       2.661  51.694 -26.682  1.00  0.00     0.201 C 
ENDBRANCH  31  32
ENDBRANCH  30  31
ENDBRANCH  29  30
ENDBRANCH   1  29
TORSDOF 10
ENDMDL
MODEL 9
REMARK minimizedAffinity -7.05238438
REMARK  10 active torsions:
REMARK  status: ('A' for Active; 'I' for Inactive)
REMARK    1  A    between atoms: O1_2  and  C2_3 
REMARK    2  A    between atoms: C2_3  and  C3_4 
REMARK    3  A    between atoms: C3_4  and  O2_5 
REMARK    4  A    between atoms: O2_5  and  C4_6 
REMARK    5  A    between atoms: C10_15  and  N3_16 
REMARK    6  A    between atoms: N3_16  and  C11_17 
REMARK    7  A    between atoms: C19_27  and  O3_28 
REMARK    8  A    between atoms: O3_28  and  C20_29 
REMARK    9  A    between atoms: C20_29  and  C21_30 
REMARK   10  A    between atoms: C21_30  and  O4_31 
ROOT
HETATM    1  C4  UNL     1      -0.594  52.178 -24.675  1.00  0.00     0.104 A 
HETATM    2  C5  UNL     1       0.150  53.099 -23.928  1.00  0.00     0.070 A 
HETATM    3  C6  UNL     1       0.372  52.932 -22.569  1.00  0.00     0.047 A 
HETATM    4  N1  UNL     1       1.099  53.858 -21.925  1.00  0.00    -0.364 N 
ATOM      5  H1  UNL     1       1.474  54.666 -22.422  1.00  0.00     0.165 HD
HETATM    6  C7  UNL     1       1.321  53.697 -20.601  1.00  0.00     0.113 A 
HETATM    7  C8  UNL     1       0.850  52.628 -19.864  1.00  0.00     0.087 A 
HETATM    8  C9  UNL     1       1.163  52.547 -18.472  1.00  0.00     0.103 C 
HETATM    9  N2  UNL     1       1.402  52.477 -17.339  1.00  0.00    -0.191 NA
HETATM   10  C10 UNL     1       0.087  51.656 -20.524  1.00  0.00     0.067 A 
HETATM   11  C17 UNL     1      -0.163  51.803 -21.919  1.00  0.00     0.022 A 
HETATM   12  C18 UNL     1      -0.928  50.881 -22.670  1.00  0.00     0.055 A 
HETATM   13  C19 UNL     1      -1.144  51.055 -24.039  1.00  0.00     0.103 A 
ENDROOT
BRANCH  10  14
HETATM   14  N3  UNL     1      -0.372  50.494 -19.837  1.00  0.00    -0.353 N 
HETATM   15  H10 UNL     1      -0.939  49.885 -20.435  1.00  0.00     0.166 HD
BRANCH  14  16
HETATM   16  C11 UNL     1      -0.920  50.468 -18.521  1.00  0.00     0.054 A 
HETATM   17  C12 UNL     1      -0.269  49.823 -17.458  1.00  0.00     0.033 A 
HETATM   18  C13 UNL     1      -0.863  49.750 -16.194  1.00  0.00     0.026 A 
HETATM   19  C14 UNL     1      -2.124  50.304 -15.983  1.00  0.00     0.035 A 
HETATM   20 CL1  UNL     1      -2.850  50.204 -14.427  1.00  0.00    -0.084 Cl
HETATM   21  C15 UNL     1      -2.803  50.929 -17.024  1.00  0.00     0.050 A 
HETATM   22  C16 UNL     1      -2.206  50.999 -18.284  1.00  0.00     0.062 A 
HETATM   23 CL2  UNL     1      -3.087  51.765 -19.561  1.00  0.00    -0.082 Cl
ENDBRANCH  14  16
ENDBRANCH  10  14
BRANCH  13  24
HETATM   24  O3  UNL     1      -1.853  50.196 -24.836  1.00  0.00    -0.346 OA
BRANCH  24  25
HETATM   25  C20 UNL     1      -1.722  50.284 -26.253  1.00  0.00     0.201 C 
BRANCH  25  26
HETATM   26  C21 UNL     1      -3.075  50.522 -26.925  1.00  0.00     0.193 C 
BRANCH  26  27
HETATM   27  O4  UNL     1      -3.317  49.585 -27.975  1.00  0.00    -0.394 OA
HETATM   28  C22 UNL     1      -3.756  48.320 -27.498  1.00  0.00     0.201 C 
ENDBRANCH  26  27
ENDBRANCH  25  26
ENDBRANCH  24  25
ENDBRANCH  13  24
BRANCH   1  29
HETATM   29  O2  UNL     1      -0.840  52.286 -26.021  1.00  0.00    -0.346 OA
BRANCH  29  30
HETATM   30  C3  UNL     1       0.278  52.366 -26.903  1.00  0.00     0.201 C 
BRANCH  30  31
HETATM   31  C2  UNL     1       0.037  53.510 -27.886  1.00  0.00     0.193 C 
BRANCH  31  32
HETATM   32  O1  UNL     1      -0.732  54.563 -27.304  1.00  0.00    -0.394 OA
HETATM   33  C1  UNL     1       0.066  55.655 -26.864  1.00  0.00     0.201 C 
ENDBRANCH  31  32
ENDBRANCH  30  31
ENDBRANCH  29  30
ENDBRANCH   1  29
TORSDOF 10
ENDMDL
