MODEL 1
REMARK minimizedAffinity -8.46189117
REMARK  8 active torsions:
REMARK  status: ('A' for Active; 'I' for Inactive)
REMARK    1  A    between atoms: O1_2  and  C2_3 
REMARK    2  A    between atoms: C5_6  and  N1_7 
REMARK    3  A    between atoms: N1_7  and  C6_8 
REMARK    4  A    between atoms: C17_24  and  O3_25 
REMARK    5  A    between atoms: O3_25  and  C18_26 
REMARK    6  A    between atoms: C18_26  and  C19_27 
REMARK    7  A    between atoms: C19_27  and  C20_28 
REMARK    8  A    between atoms: C20_28  and  N4_29 
ROOT
HETATM    1  C2  UNL     1      -1.388  50.175 -20.706  1.00  0.00     0.102 A 
HETATM    2  C3  UNL     1      -0.781  51.037 -19.789  1.00  0.00     0.057 A 
HETATM    3  C4  UNL     1       0.041  52.108 -20.224  1.00  0.00     0.038 A 
HETATM    4  C5  UNL     1       0.688  53.032 -19.376  1.00  0.00     0.119 A 
HETATM    5  N2  UNL     1       1.426  54.048 -19.861  1.00  0.00    -0.338 N 
ATOM      6  H2  UNL     1       1.877  54.724 -19.244  1.00  0.00     0.168 HD
HETATM    7  C14 UNL     1       1.541  54.128 -21.188  1.00  0.00     0.182 A 
HETATM    8  N3  UNL     1       0.986  53.302 -22.080  1.00  0.00    -0.351 N 
ATOM      9  H3  UNL     1       1.126  53.425 -23.083  1.00  0.00     0.166 HD
HETATM   10  C15 UNL     1       0.239  52.308 -21.594  1.00  0.00     0.050 A 
HETATM   11  C16 UNL     1      -0.368  51.444 -22.496  1.00  0.00     0.070 A 
HETATM   12  C17 UNL     1      -1.185  50.387 -22.079  1.00  0.00     0.104 A 
ENDROOT
BRANCH   4  13
HETATM   13  N1  UNL     1       0.552  52.883 -17.973  1.00  0.00    -0.339 N 
HETATM   14  H5  UNL     1      -0.349  52.466 -17.750  1.00  0.00     0.167 HD
BRANCH  13  15
HETATM   15  C6  UNL     1       1.508  52.445 -17.034  1.00  0.00     0.068 A 
HETATM   16  C7  UNL     1       2.813  52.940 -16.957  1.00  0.00     0.032 A 
HETATM   17  C8  UNL     1       3.699  52.511 -15.949  1.00  0.00     0.003 A 
HETATM   18  C9  UNL     1       3.290  51.592 -14.981  1.00  0.00     0.010 A 
HETATM   19  C10 UNL     1       1.989  51.135 -15.031  1.00  0.00    -0.020 A 
HETATM   20  C11 UNL     1       1.125  51.562 -16.030  1.00  0.00     0.101 A 
HETATM   21  C13 UNL     1       1.300  50.146 -14.175  1.00  0.00     0.068 C 
HETATM   22  O2  UNL     1      -0.130  51.004 -15.939  1.00  0.00    -0.348 OA
HETATM   23  C12 UNL     1      -0.139  50.404 -14.622  1.00  0.00     0.180 C 
ENDBRANCH  13  15
ENDBRANCH   4  13
BRANCH   1  24
HETATM   24  O1  UNL     1      -2.200  49.123 -20.369  1.00  0.00    -0.353 OA
HETATM   25  C1  UNL     1      -1.624  48.046 -19.643  1.00  0.00     0.210 C 
ENDBRANCH   1  24
BRANCH  12  26
HETATM   26  O3  UNL     1      -1.816  49.510 -22.923  1.00  0.00    -0.348 OA
BRANCH  26  27
HETATM   27  C18 UNL     1      -2.803  49.996 -23.838  1.00  0.00     0.177 C 
BRANCH  27  28
HETATM   28  C19 UNL     1      -2.205  51.051 -24.771  1.00  0.00     0.057 C 
BRANCH  28  29
HETATM   29  C20 UNL     1      -2.022  50.546 -26.205  1.00  0.00     0.274 C 
BRANCH  29  30
HETATM   30  N4  UNL     1      -0.916  51.186 -26.928  1.00  0.00     0.092 N 
HETATM   31  C21 UNL     1       0.386  50.751 -26.371  1.00  0.00     0.298 C 
HETATM   32  C22 UNL     1       1.514  51.733 -26.714  1.00  0.00     0.198 C 
HETATM   33  O4  UNL     1       1.316  53.027 -26.131  1.00  0.00    -0.388 OA
HETATM   34  C23 UNL     1      -0.067  53.346 -25.931  1.00  0.00     0.198 C 
HETATM   35  C24 UNL     1      -0.999  52.664 -26.945  1.00  0.00     0.298 C 
ENDBRANCH  29  30
ENDBRANCH  28  29
ENDBRANCH  27  28
ENDBRANCH  26  27
ENDBRANCH  12  26
TORSDOF 8
ENDMDL
MODEL 2
REMARK minimizedAffinity -8.43141365
REMARK  8 active torsions:
REMARK  status: ('A' for Active; 'I' for Inactive)
REMARK    1  A    between atoms: O1_2  and  C2_3 
REMARK    2  A    between atoms: C5_6  and  N1_7 
REMARK    3  A    between atoms: N1_7  and  C6_8 
REMARK    4  A    between atoms: C17_24  and  O3_25 
REMARK    5  A    between atoms: O3_25  and  C18_26 
REMARK    6  A    between atoms: C18_26  and  C19_27 
REMARK    7  A    between atoms: C19_27  and  C20_28 
REMARK    8  A    between atoms: C20_28  and  N4_29 
ROOT
HETATM    1  C2  UNL     1      -1.083  49.688 -19.748  1.00  0.00     0.102 A 
HETATM    2  C3  UNL     1      -0.497  50.728 -19.022  1.00  0.00     0.057 A 
HETATM    3  C4  UNL     1       0.143  51.811 -19.679  1.00  0.00     0.038 A 
HETATM    4  C5  UNL     1       0.755  52.906 -19.033  1.00  0.00     0.119 A 
HETATM    5  N2  UNL     1       1.313  53.917 -19.723  1.00  0.00    -0.338 N 
ATOM      6  H2  UNL     1       1.738  54.716 -19.252  1.00  0.00     0.168 HD
HETATM    7  C14 UNL     1       1.285  53.826 -21.054  1.00  0.00     0.182 A 
HETATM    8  N3  UNL     1       0.748  52.830 -21.766  1.00  0.00    -0.351 N 
ATOM      9  H3  UNL     1       0.772  52.828 -22.786  1.00  0.00     0.166 HD
HETATM   10  C15 UNL     1       0.178  51.839 -21.077  1.00  0.00     0.050 A 
HETATM   11  C16 UNL     1      -0.407  50.800 -21.787  1.00  0.00     0.070 A 
HETATM   12  C17 UNL     1      -1.045  49.729 -21.150  1.00  0.00     0.104 A 
ENDROOT
BRANCH   4  13
HETATM   13  N1  UNL     1       0.778  52.938 -17.616  1.00  0.00    -0.339 N 
HETATM   14  H5  UNL     1      -0.145  52.728 -17.245  1.00  0.00     0.167 HD
BRANCH  13  15
HETATM   15  C6  UNL     1       1.755  52.429 -16.737  1.00  0.00     0.068 A 
HETATM   16  C7  UNL     1       3.092  52.837 -16.731  1.00  0.00     0.032 A 
HETATM   17  C8  UNL     1       4.004  52.342 -15.779  1.00  0.00     0.003 A 
HETATM   18  C9  UNL     1       3.592  51.441 -14.795  1.00  0.00     0.010 A 
HETATM   19  C10 UNL     1       2.263  51.070 -14.773  1.00  0.00    -0.020 A 
HETATM   20  C11 UNL     1       1.372  51.563 -15.718  1.00  0.00     0.101 A 
HETATM   21  C13 UNL     1       1.560  50.120 -13.886  1.00  0.00     0.068 C 
HETATM   22  O2  UNL     1       0.091  51.087 -15.559  1.00  0.00    -0.348 OA
HETATM   23  C12 UNL     1       0.118  50.475 -14.247  1.00  0.00     0.180 C 
ENDBRANCH  13  15
ENDBRANCH   4  13
BRANCH   1  24
HETATM   24  O1  UNL     1      -1.725  48.613 -19.190  1.00  0.00    -0.353 OA
HETATM   25  C1  UNL     1      -1.754  48.519 -17.773  1.00  0.00     0.210 C 
ENDBRANCH   1  24
BRANCH  12  26
HETATM   26  O3  UNL     1      -1.647  48.682 -21.799  1.00  0.00    -0.348 OA
BRANCH  26  27
HETATM   27  C18 UNL     1      -3.054  48.725 -22.055  1.00  0.00     0.177 C 
BRANCH  27  28
HETATM   28  C19 UNL     1      -3.337  48.614 -23.554  1.00  0.00     0.057 C 
BRANCH  28  29
HETATM   29  C20 UNL     1      -3.288  49.965 -24.274  1.00  0.00     0.274 C 
BRANCH  29  30
HETATM   30  N4  UNL     1      -2.671  49.913 -25.605  1.00  0.00     0.092 N 
HETATM   31  C21 UNL     1      -3.222  50.981 -26.472  1.00  0.00     0.298 C 
HETATM   32  C22 UNL     1      -3.018  50.673 -27.962  1.00  0.00     0.198 C 
HETATM   33  O4  UNL     1      -3.727  49.501 -28.384  1.00  0.00    -0.388 OA
HETATM   34  C23 UNL     1      -3.915  48.548 -27.330  1.00  0.00     0.198 C 
HETATM   35  C24 UNL     1      -2.806  48.595 -26.266  1.00  0.00     0.298 C 
ENDBRANCH  29  30
ENDBRANCH  28  29
ENDBRANCH  27  28
ENDBRANCH  26  27
ENDBRANCH  12  26
TORSDOF 8
ENDMDL
MODEL 3
REMARK minimizedAffinity -8.27753544
REMARK  8 active torsions:
REMARK  status: ('A' for Active; 'I' for Inactive)
REMARK    1  A    between atoms: O1_2  and  C2_3 
REMARK    2  A    between atoms: C5_6  and  N1_7 
REMARK    3  A    between atoms: N1_7  and  C6_8 
REMARK    4  A    between atoms: C17_24  and  O3_25 
REMARK    5  A    between atoms: O3_25  and  C18_26 
REMARK    6  A    between atoms: C18_26  and  C19_27 
REMARK    7  A    between atoms: C19_27  and  C20_28 
REMARK    8  A    between atoms: C20_28  and  N4_29 
ROOT
HETATM    1  C2  UNL     1      -3.909  48.914 -24.777  1.00  0.00     0.102 A 
HETATM    2  C3  UNL     1      -2.931  49.654 -24.108  1.00  0.00     0.057 A 
HETATM    3  C4  UNL     1      -1.884  50.297 -24.819  1.00  0.00     0.038 A 
HETATM    4  C5  UNL     1      -0.860  51.071 -24.234  1.00  0.00     0.119 A 
HETATM    5  N2  UNL     1       0.082  51.682 -24.976  1.00  0.00    -0.338 N 
ATOM      6  H2  UNL     1       0.810  52.255 -24.549  1.00  0.00     0.168 HD
HETATM    7  C14 UNL     1       0.019  51.501 -26.296  1.00  0.00     0.182 A 
HETATM    8  N3  UNL     1      -0.895  50.780 -26.952  1.00  0.00    -0.351 N 
ATOM      9  H3  UNL     1      -0.873  50.684 -27.967  1.00  0.00     0.166 HD
HETATM   10  C15 UNL     1      -1.839  50.192 -26.213  1.00  0.00     0.050 A 
HETATM   11  C16 UNL     1      -2.814  49.452 -26.866  1.00  0.00     0.070 A 
HETATM   12  C17 UNL     1      -3.854  48.819 -26.176  1.00  0.00     0.104 A 
ENDROOT
BRANCH   4  13
HETATM   13  N1  UNL     1      -0.827  51.206 -22.823  1.00  0.00    -0.339 N 
HETATM   14  H5  UNL     1      -0.840  50.290 -22.382  1.00  0.00     0.167 HD
BRANCH  13  15
HETATM   15  C6  UNL     1      -0.056  52.085 -22.037  1.00  0.00     0.068 A 
HETATM   16  C7  UNL     1       0.643  53.183 -22.548  1.00  0.00     0.032 A 
HETATM   17  C8  UNL     1       1.339  54.066 -21.699  1.00  0.00     0.003 A 
HETATM   18  C9  UNL     1       1.333  53.882 -20.315  1.00  0.00     0.010 A 
HETATM   19  C10 UNL     1       0.608  52.823 -19.807  1.00  0.00    -0.020 A 
HETATM   20  C11 UNL     1      -0.073  51.958 -20.653  1.00  0.00     0.101 A 
HETATM   21  C13 UNL     1       0.452  52.367 -18.409  1.00  0.00     0.068 C 
HETATM   22  O2  UNL     1      -0.736  50.953 -19.985  1.00  0.00    -0.348 OA
HETATM   23  C12 UNL     1      -0.704  51.387 -18.604  1.00  0.00     0.180 C 
ENDBRANCH  13  15
ENDBRANCH   4  13
BRANCH   1  24
HETATM   24  O1  UNL     1      -4.954  48.271 -24.166  1.00  0.00    -0.353 OA
HETATM   25  C1  UNL     1      -6.022  49.065 -23.669  1.00  0.00     0.210 C 
ENDBRANCH   1  24
BRANCH  12  26
HETATM   26  O3  UNL     1      -4.850  48.084 -26.768  1.00  0.00    -0.348 OA
BRANCH  26  27
HETATM   27  C18 UNL     1      -4.989  48.101 -28.192  1.00  0.00     0.177 C 
BRANCH  27  28
HETATM   28  C19 UNL     1      -6.403  47.690 -28.605  1.00  0.00     0.057 C 
BRANCH  28  29
HETATM   29  C20 UNL     1      -6.755  48.112 -30.034  1.00  0.00     0.274 C 
BRANCH  29  30
HETATM   30  N4  UNL     1      -5.939  47.462 -31.068  1.00  0.00     0.092 N 
HETATM   31  C21 UNL     1      -5.110  48.464 -31.778  1.00  0.00     0.298 C 
HETATM   32  C22 UNL     1      -4.649  47.958 -33.151  1.00  0.00     0.198 C 
HETATM   33  O4  UNL     1      -5.741  47.729 -34.050  1.00  0.00    -0.388 OA
HETATM   34  C23 UNL     1      -6.960  47.390 -33.377  1.00  0.00     0.198 C 
HETATM   35  C24 UNL     1      -6.733  46.674 -32.036  1.00  0.00     0.298 C 
ENDBRANCH  29  30
ENDBRANCH  28  29
ENDBRANCH  27  28
ENDBRANCH  26  27
ENDBRANCH  12  26
TORSDOF 8
ENDMDL
MODEL 4
REMARK minimizedAffinity -8.16969204
REMARK  8 active torsions:
REMARK  status: ('A' for Active; 'I' for Inactive)
REMARK    1  A    between atoms: O1_2  and  C2_3 
REMARK    2  A    between atoms: C5_6  and  N1_7 
REMARK    3  A    between atoms: N1_7  and  C6_8 
REMARK    4  A    between atoms: C17_24  and  O3_25 
REMARK    5  A    between atoms: O3_25  and  C18_26 
REMARK    6  A    between atoms: C18_26  and  C19_27 
REMARK    7  A    between atoms: C19_27  and  C20_28 
REMARK    8  A    between atoms: C20_28  and  N4_29 
ROOT
HETATM    1  C2  UNL     1      -2.889  50.687 -22.256  1.00  0.00     0.102 A 
HETATM    2  C3  UNL     1      -2.284  51.133 -21.079  1.00  0.00     0.057 A 
HETATM    3  C4  UNL     1      -1.047  51.829 -21.109  1.00  0.00     0.038 A 
HETATM    4  C5  UNL     1      -0.365  52.324 -19.977  1.00  0.00     0.119 A 
HETATM    5  N2  UNL     1       0.789  53.007 -20.084  1.00  0.00    -0.338 N 
ATOM      6  H2  UNL     1       1.269  53.378 -19.264  1.00  0.00     0.168 HD
HETATM    7  C14 UNL     1       1.277  53.175 -21.314  1.00  0.00     0.182 A 
HETATM    8  N3  UNL     1       0.724  52.738 -22.450  1.00  0.00    -0.351 N 
ATOM      9  H3  UNL     1       1.163  52.900 -23.356  1.00  0.00     0.166 HD
HETATM   10  C15 UNL     1      -0.431  52.078 -22.340  1.00  0.00     0.050 A 
HETATM   11  C16 UNL     1      -1.041  51.628 -23.502  1.00  0.00     0.070 A 
HETATM   12  C17 UNL     1      -2.263  50.945 -23.486  1.00  0.00     0.104 A 
ENDROOT
BRANCH   4  13
HETATM   13  N1  UNL     1      -0.918  52.093 -18.692  1.00  0.00    -0.339 N 
HETATM   14  H5  UNL     1      -1.933  52.126 -18.735  1.00  0.00     0.167 HD
BRANCH  13  15
HETATM   15  C6  UNL     1      -0.528  51.150 -17.719  1.00  0.00     0.068 A 
HETATM   16  C7  UNL     1      -1.065  49.863 -17.617  1.00  0.00     0.032 A 
HETATM   17  C8  UNL     1      -0.582  48.943 -16.666  1.00  0.00     0.003 A 
HETATM   18  C9  UNL     1       0.466  49.285 -15.808  1.00  0.00     0.010 A 
HETATM   19  C10 UNL     1       1.024  50.540 -15.937  1.00  0.00    -0.020 A 
HETATM   20  C11 UNL     1       0.539  51.440 -16.877  1.00  0.00     0.101 A 
HETATM   21  C13 UNL     1       2.103  51.180 -15.154  1.00  0.00     0.068 C 
HETATM   22  O2  UNL     1       1.202  52.647 -16.867  1.00  0.00    -0.348 OA
HETATM   23  C12 UNL     1       2.373  52.383 -16.058  1.00  0.00     0.180 C 
ENDBRANCH  13  15
ENDBRANCH   4  13
BRANCH   1  24
HETATM   24  O1  UNL     1      -4.083  50.016 -22.313  1.00  0.00    -0.353 OA
HETATM   25  C1  UNL     1      -4.898  50.012 -21.150  1.00  0.00     0.210 C 
ENDBRANCH   1  24
BRANCH  12  26
HETATM   26  O3  UNL     1      -2.915  50.487 -24.601  1.00  0.00    -0.348 OA
BRANCH  26  27
HETATM   27  C18 UNL     1      -3.722  51.386 -25.367  1.00  0.00     0.177 C 
BRANCH  27  28
HETATM   28  C19 UNL     1      -2.877  52.124 -26.407  1.00  0.00     0.057 C 
BRANCH  28  29
HETATM   29  C20 UNL     1      -2.214  51.181 -27.416  1.00  0.00     0.274 C 
BRANCH  29  30
HETATM   30  N4  UNL     1      -0.797  51.473 -27.666  1.00  0.00     0.092 N 
HETATM   31  C21 UNL     1       0.054  50.804 -26.654  1.00  0.00     0.298 C 
HETATM   32  C22 UNL     1       1.438  51.458 -26.545  1.00  0.00     0.198 C 
HETATM   33  O4  UNL     1       1.373  52.814 -26.085  1.00  0.00    -0.388 OA
HETATM   34  C23 UNL     1       0.142  53.464 -26.426  1.00  0.00     0.198 C 
HETATM   35  C24 UNL     1      -0.493  52.920 -27.717  1.00  0.00     0.298 C 
ENDBRANCH  29  30
ENDBRANCH  28  29
ENDBRANCH  27  28
ENDBRANCH  26  27
ENDBRANCH  12  26
TORSDOF 8
ENDMDL
MODEL 5
REMARK minimizedAffinity -8.08538055
REMARK  8 active torsions:
REMARK  status: ('A' for Active; 'I' for Inactive)
REMARK    1  A    between atoms: O1_2  and  C2_3 
REMARK    2  A    between atoms: C5_6  and  N1_7 
REMARK    3  A    between atoms: N1_7  and  C6_8 
REMARK    4  A    between atoms: C17_24  and  O3_25 
REMARK    5  A    between atoms: O3_25  and  C18_26 
REMARK    6  A    between atoms: C18_26  and  C19_27 
REMARK    7  A    between atoms: C19_27  and  C20_28 
REMARK    8  A    between atoms: C20_28  and  N4_29 
ROOT
HETATM    1  C2  UNL     1      -0.439  50.793 -19.494  1.00  0.00     0.102 A 
HETATM    2  C3  UNL     1      -0.347  51.013 -20.870  1.00  0.00     0.057 A 
HETATM    3  C4  UNL     1       0.234  52.200 -21.386  1.00  0.00     0.038 A 
HETATM    4  C5  UNL     1       0.377  52.506 -22.756  1.00  0.00     0.119 A 
HETATM    5  N2  UNL     1       0.972  53.639 -23.173  1.00  0.00    -0.338 N 
ATOM      6  H2  UNL     1       1.090  53.847 -24.164  1.00  0.00     0.168 HD
HETATM    7  C14 UNL     1       1.400  54.478 -22.227  1.00  0.00     0.182 A 
HETATM    8  N3  UNL     1       1.302  54.296 -20.907  1.00  0.00    -0.351 N 
ATOM      9  H3  UNL     1       1.648  54.989 -20.244  1.00  0.00     0.166 HD
HETATM   10  C15 UNL     1       0.729  53.161 -20.498  1.00  0.00     0.050 A 
HETATM   11  C16 UNL     1       0.630  52.933 -19.133  1.00  0.00     0.070 A 
HETATM   12  C17 UNL     1       0.064  51.763 -18.613  1.00  0.00     0.104 A 
ENDROOT
BRANCH   4  13
HETATM   13  N1  UNL     1      -0.119  51.590 -23.716  1.00  0.00    -0.339 N 
HETATM   14  H5  UNL     1      -1.042  51.260 -23.443  1.00  0.00     0.167 HD
BRANCH  13  15
HETATM   15  C6  UNL     1      -0.052  51.660 -25.122  1.00  0.00     0.068 A 
HETATM   16  C7  UNL     1       1.137  51.812 -25.843  1.00  0.00     0.032 A 
HETATM   17  C8  UNL     1       1.144  51.803 -27.251  1.00  0.00     0.003 A 
HETATM   18  C9  UNL     1      -0.038  51.621 -27.971  1.00  0.00     0.010 A 
HETATM   19  C10 UNL     1      -1.205  51.429 -27.261  1.00  0.00    -0.020 A 
HETATM   20  C11 UNL     1      -1.202  51.441 -25.873  1.00  0.00     0.101 A 
HETATM   21  C13 UNL     1      -2.590  51.250 -27.747  1.00  0.00     0.068 C 
HETATM   22  O2  UNL     1      -2.449  51.243 -25.323  1.00  0.00    -0.348 OA
HETATM   23  C12 UNL     1      -3.244  50.789 -26.445  1.00  0.00     0.180 C 
ENDBRANCH  13  15
ENDBRANCH   4  13
BRANCH   1  24
HETATM   24  O1  UNL     1      -0.978  49.672 -18.917  1.00  0.00    -0.353 OA
HETATM   25  C1  UNL     1      -1.225  48.550 -19.752  1.00  0.00     0.210 C 
ENDBRANCH   1  24
BRANCH  12  26
HETATM   26  O3  UNL     1      -0.051  51.480 -17.276  1.00  0.00    -0.348 OA
BRANCH  26  27
HETATM   27  C18 UNL     1       1.128  51.354 -16.477  1.00  0.00     0.177 C 
BRANCH  27  28
HETATM   28  C19 UNL     1       0.792  50.787 -15.097  1.00  0.00     0.057 C 
BRANCH  28  29
HETATM   29  C20 UNL     1       1.200  51.719 -13.952  1.00  0.00     0.274 C 
BRANCH  29  30
HETATM   30  N4  UNL     1       0.095  52.519 -13.408  1.00  0.00     0.092 N 
HETATM   31  C21 UNL     1       0.401  52.950 -12.025  1.00  0.00     0.298 C 
HETATM   32  C22 UNL     1      -0.867  53.327 -11.247  1.00  0.00     0.198 C 
HETATM   33  O4  UNL     1      -1.752  52.215 -11.063  1.00  0.00    -0.388 OA
HETATM   34  C23 UNL     1      -1.643  51.234 -12.102  1.00  0.00     0.198 C 
HETATM   35  C24 UNL     1      -1.212  51.827 -13.453  1.00  0.00     0.298 C 
ENDBRANCH  29  30
ENDBRANCH  28  29
ENDBRANCH  27  28
ENDBRANCH  26  27
ENDBRANCH  12  26
TORSDOF 8
ENDMDL
MODEL 6
REMARK minimizedAffinity -8.06215477
REMARK  8 active torsions:
REMARK  status: ('A' for Active; 'I' for Inactive)
REMARK    1  A    between atoms: O1_2  and  C2_3 
REMARK    2  A    between atoms: C5_6  and  N1_7 
REMARK    3  A    between atoms: N1_7  and  C6_8 
REMARK    4  A    between atoms: C17_24  and  O3_25 
REMARK    5  A    between atoms: O3_25  and  C18_26 
REMARK    6  A    between atoms: C18_26  and  C19_27 
REMARK    7  A    between atoms: C19_27  and  C20_28 
REMARK    8  A    between atoms: C20_28  and  N4_29 
ROOT
HETATM    1  C2  UNL     1      -2.379  49.998 -24.976  1.00  0.00     0.102 A 
HETATM    2  C3  UNL     1      -1.313  50.646 -24.348  1.00  0.00     0.057 A 
HETATM    3  C4  UNL     1      -0.780  51.854 -24.868  1.00  0.00     0.038 A 
HETATM    4  C5  UNL     1       0.287  52.583 -24.301  1.00  0.00     0.119 A 
HETATM    5  N2  UNL     1       0.717  53.742 -24.832  1.00  0.00    -0.338 N 
ATOM      6  H2  UNL     1       1.477  54.274 -24.407  1.00  0.00     0.168 HD
HETATM    7  C14 UNL     1       0.104  54.162 -25.940  1.00  0.00     0.182 A 
HETATM    8  N3  UNL     1      -0.903  53.546 -26.567  1.00  0.00    -0.351 N 
ATOM      9  H3  UNL     1      -1.318  53.927 -27.417  1.00  0.00     0.166 HD
HETATM   10  C15 UNL     1      -1.339  52.406 -26.026  1.00  0.00     0.050 A 
HETATM   11  C16 UNL     1      -2.397  51.752 -26.642  1.00  0.00     0.070 A 
HETATM   12  C17 UNL     1      -2.934  50.563 -26.135  1.00  0.00     0.104 A 
ENDROOT
BRANCH   4  13
HETATM   13  N1  UNL     1       0.919  52.075 -23.139  1.00  0.00    -0.339 N 
HETATM   14  H5  UNL     1       1.913  51.943 -23.308  1.00  0.00     0.167 HD
BRANCH  13  15
HETATM   15  C6  UNL     1       0.726  52.449 -21.794  1.00  0.00     0.068 A 
HETATM   16  C7  UNL     1       0.946  53.739 -21.300  1.00  0.00     0.032 A 
HETATM   17  C8  UNL     1       0.667  54.066 -19.959  1.00  0.00     0.003 A 
HETATM   18  C9  UNL     1       0.140  53.113 -19.085  1.00  0.00     0.010 A 
HETATM   19  C10 UNL     1      -0.118  51.852 -19.582  1.00  0.00    -0.020 A 
HETATM   20  C11 UNL     1       0.163  51.539 -20.906  1.00  0.00     0.101 A 
HETATM   21  C13 UNL     1      -0.633  50.650 -18.892  1.00  0.00     0.068 C 
HETATM   22  O2  UNL     1      -0.146  50.238 -21.235  1.00  0.00    -0.348 OA
HETATM   23  C12 UNL     1      -0.943  49.786 -20.114  1.00  0.00     0.180 C 
ENDBRANCH  13  15
ENDBRANCH   4  13
BRANCH   1  24
HETATM   24  O1  UNL     1      -2.954  48.834 -24.534  1.00  0.00    -0.353 OA
HETATM   25  C1  UNL     1      -3.539  48.834 -23.239  1.00  0.00     0.210 C 
ENDBRANCH   1  24
BRANCH  12  26
HETATM   26  O3  UNL     1      -3.983  49.879 -26.695  1.00  0.00    -0.348 OA
BRANCH  26  27
HETATM   27  C18 UNL     1      -3.730  48.922 -27.728  1.00  0.00     0.177 C 
BRANCH  27  28
HETATM   28  C19 UNL     1      -4.987  48.104 -28.029  1.00  0.00     0.057 C 
BRANCH  28  29
HETATM   29  C20 UNL     1      -5.399  48.163 -29.503  1.00  0.00     0.274 C 
BRANCH  29  30
HETATM   30  N4  UNL     1      -6.667  47.482 -29.797  1.00  0.00     0.092 N 
HETATM   31  C21 UNL     1      -7.104  47.779 -31.181  1.00  0.00     0.298 C 
HETATM   32  C22 UNL     1      -8.608  47.540 -31.372  1.00  0.00     0.198 C 
HETATM   33  O4  UNL     1      -9.412  48.416 -30.572  1.00  0.00    -0.388 OA
HETATM   34  C23 UNL     1      -8.757  48.835 -29.368  1.00  0.00     0.198 C 
HETATM   35  C24 UNL     1      -7.746  47.805 -28.837  1.00  0.00     0.298 C 
ENDBRANCH  29  30
ENDBRANCH  28  29
ENDBRANCH  27  28
ENDBRANCH  26  27
ENDBRANCH  12  26
TORSDOF 8
ENDMDL
MODEL 7
REMARK minimizedAffinity -7.9853363
REMARK  8 active torsions:
REMARK  status: ('A' for Active; 'I' for Inactive)
REMARK    1  A    between atoms: O1_2  and  C2_3 
REMARK    2  A    between atoms: C5_6  and  N1_7 
REMARK    3  A    between atoms: N1_7  and  C6_8 
REMARK    4  A    between atoms: C17_24  and  O3_25 
REMARK    5  A    between atoms: O3_25  and  C18_26 
REMARK    6  A    between atoms: C18_26  and  C19_27 
REMARK    7  A    between atoms: C19_27  and  C20_28 
REMARK    8  A    between atoms: C20_28  and  N4_29 
ROOT
HETATM    1  C2  UNL     1      -2.489  49.528 -26.333  1.00  0.00     0.102 A 
HETATM    2  C3  UNL     1      -3.405  49.058 -27.277  1.00  0.00     0.057 A 
HETATM    3  C4  UNL     1      -4.635  48.473 -26.877  1.00  0.00     0.038 A 
HETATM    4  C5  UNL     1      -5.623  47.978 -27.754  1.00  0.00     0.119 A 
HETATM    5  N2  UNL     1      -6.783  47.467 -27.303  1.00  0.00    -0.338 N 
ATOM      6  H2  UNL     1      -7.502  47.128 -27.942  1.00  0.00     0.168 HD
HETATM    7  C14 UNL     1      -6.949  47.425 -25.980  1.00  0.00     0.182 A 
HETATM    8  N3  UNL     1      -6.076  47.851 -25.061  1.00  0.00    -0.351 N 
ATOM      9  H3  UNL     1      -6.272  47.778 -24.063  1.00  0.00     0.166 HD
HETATM   10  C15 UNL     1      -4.935  48.374 -25.514  1.00  0.00     0.050 A 
HETATM   11  C16 UNL     1      -4.016  48.843 -24.586  1.00  0.00     0.070 A 
HETATM   12  C17 UNL     1      -2.803  49.427 -24.969  1.00  0.00     0.104 A 
ENDROOT
BRANCH   4  13
HETATM   13  N1  UNL     1      -5.382  48.025 -29.150  1.00  0.00    -0.339 N 
HETATM   14  H5  UNL     1      -4.602  47.419 -29.393  1.00  0.00     0.167 HD
BRANCH  13  15
HETATM   15  C6  UNL     1      -6.313  48.023 -30.208  1.00  0.00     0.068 A 
HETATM   16  C7  UNL     1      -7.671  48.323 -30.057  1.00  0.00     0.032 A 
HETATM   17  C8  UNL     1      -8.535  48.373 -31.168  1.00  0.00     0.003 A 
HETATM   18  C9  UNL     1      -8.057  48.144 -32.459  1.00  0.00     0.010 A 
HETATM   19  C10 UNL     1      -6.709  47.890 -32.614  1.00  0.00    -0.020 A 
HETATM   20  C11 UNL     1      -5.865  47.841 -31.512  1.00  0.00     0.101 A 
HETATM   21  C13 UNL     1      -5.939  47.579 -33.836  1.00  0.00     0.068 C 
HETATM   22  O2  UNL     1      -4.556  47.568 -31.841  1.00  0.00    -0.348 OA
HETATM   23  C12 UNL     1      -4.526  47.742 -33.278  1.00  0.00     0.180 C 
ENDBRANCH  13  15
ENDBRANCH   4  13
BRANCH   1  24
HETATM   24  O1  UNL     1      -1.286  50.111 -26.637  1.00  0.00    -0.353 OA
HETATM   25  C1  UNL     1      -1.305  51.316 -27.390  1.00  0.00     0.210 C 
ENDBRANCH   1  24
BRANCH  12  26
HETATM   26  O3  UNL     1      -1.863  49.915 -24.098  1.00  0.00    -0.348 OA
BRANCH  26  27
HETATM   27  C18 UNL     1      -2.190  50.057 -22.712  1.00  0.00     0.177 C 
BRANCH  27  28
HETATM   28  C19 UNL     1      -1.860  51.466 -22.217  1.00  0.00     0.057 C 
BRANCH  28  29
HETATM   29  C20 UNL     1      -1.516  51.510 -20.725  1.00  0.00     0.274 C 
BRANCH  29  30
HETATM   30  N4  UNL     1      -0.093  51.745 -20.446  1.00  0.00     0.092 N 
HETATM   31  C21 UNL     1       0.062  52.729 -19.349  1.00  0.00     0.298 C 
HETATM   32  C22 UNL     1       1.450  53.385 -19.359  1.00  0.00     0.198 C 
HETATM   33  O4  UNL     1       1.685  54.160 -20.541  1.00  0.00    -0.388 OA
HETATM   34  C23 UNL     1       0.954  53.686 -21.678  1.00  0.00     0.198 C 
HETATM   35  C24 UNL     1       0.678  52.174 -21.634  1.00  0.00     0.298 C 
ENDBRANCH  29  30
ENDBRANCH  28  29
ENDBRANCH  27  28
ENDBRANCH  26  27
ENDBRANCH  12  26
TORSDOF 8
ENDMDL
MODEL 8
REMARK minimizedAffinity -7.9753108
REMARK  8 active torsions:
REMARK  status: ('A' for Active; 'I' for Inactive)
REMARK    1  A    between atoms: O1_2  and  C2_3 
REMARK    2  A    between atoms: C5_6  and  N1_7 
REMARK    3  A    between atoms: N1_7  and  C6_8 
REMARK    4  A    between atoms: C17_24  and  O3_25 
REMARK    5  A    between atoms: O3_25  and  C18_26 
REMARK    6  A    between atoms: C18_26  and  C19_27 
REMARK    7  A    between atoms: C19_27  and  C20_28 
REMARK    8  A    between atoms: C20_28  and  N4_29 
ROOT
HETATM    1  C2  UNL     1      -0.496  50.720 -19.243  1.00  0.00     0.102 A 
HETATM    2  C3  UNL     1      -0.427  50.906 -20.626  1.00  0.00     0.057 A 
HETATM    3  C4  UNL     1       0.152  52.077 -21.180  1.00  0.00     0.038 A 
HETATM    4  C5  UNL     1       0.273  52.350 -22.559  1.00  0.00     0.119 A 
HETATM    5  N2  UNL     1       0.867  53.468 -23.013  1.00  0.00    -0.338 N 
ATOM      6  H2  UNL     1       0.968  53.652 -24.011  1.00  0.00     0.168 HD
HETATM    7  C14 UNL     1       1.317  54.326 -22.095  1.00  0.00     0.182 A 
HETATM    8  N3  UNL     1       1.242  54.176 -20.769  1.00  0.00    -0.351 N 
ATOM      9  H3  UNL     1       1.604  54.883 -20.129  1.00  0.00     0.166 HD
HETATM   10  C15 UNL     1       0.669  53.056 -20.324  1.00  0.00     0.050 A 
HETATM   11  C16 UNL     1       0.593  52.860 -18.952  1.00  0.00     0.070 A 
HETATM   12  C17 UNL     1       0.029  51.707 -18.395  1.00  0.00     0.104 A 
ENDROOT
BRANCH   4  13
HETATM   13  N1  UNL     1      -0.247  51.414 -23.488  1.00  0.00    -0.339 N 
HETATM   14  H5  UNL     1      -0.715  50.655 -22.998  1.00  0.00     0.167 HD
BRANCH  13  15
HETATM   15  C6  UNL     1      -0.912  51.655 -24.707  1.00  0.00     0.068 A 
HETATM   16  C7  UNL     1      -2.264  51.999 -24.807  1.00  0.00     0.032 A 
HETATM   17  C8  UNL     1      -2.852  52.297 -26.051  1.00  0.00     0.003 A 
HETATM   18  C9  UNL     1      -2.095  52.279 -27.223  1.00  0.00     0.010 A 
HETATM   19  C10 UNL     1      -0.751  51.982 -27.121  1.00  0.00    -0.020 A 
HETATM   20  C11 UNL     1      -0.181  51.688 -25.889  1.00  0.00     0.101 A 
HETATM   21  C13 UNL     1       0.274  51.855 -28.179  1.00  0.00     0.068 C 
HETATM   22  O2  UNL     1       1.165  51.407 -25.965  1.00  0.00    -0.348 OA
HETATM   23  C12 UNL     1       1.524  51.835 -27.300  1.00  0.00     0.180 C 
ENDBRANCH  13  15
ENDBRANCH   4  13
BRANCH   1  24
HETATM   24  O1  UNL     1      -1.032  49.616 -18.630  1.00  0.00    -0.353 OA
HETATM   25  C1  UNL     1      -1.334  48.489 -19.440  1.00  0.00     0.210 C 
ENDBRANCH   1  24
BRANCH  12  26
HETATM   26  O3  UNL     1      -0.064  51.456 -17.049  1.00  0.00    -0.348 OA
BRANCH  26  27
HETATM   27  C18 UNL     1       1.129  51.309 -16.274  1.00  0.00     0.177 C 
BRANCH  27  28
HETATM   28  C19 UNL     1       0.943  51.894 -14.874  1.00  0.00     0.057 C 
BRANCH  28  29
HETATM   29  C20 UNL     1      -0.211  51.246 -14.103  1.00  0.00     0.274 C 
BRANCH  29  30
HETATM   30  N4  UNL     1      -1.099  52.208 -13.436  1.00  0.00     0.092 N 
HETATM   31  C21 UNL     1      -0.653  52.442 -12.043  1.00  0.00     0.298 C 
HETATM   32  C22 UNL     1      -1.781  53.003 -11.167  1.00  0.00     0.198 C 
HETATM   33  O4  UNL     1      -2.873  52.087 -11.019  1.00  0.00    -0.388 OA
HETATM   34  C23 UNL     1      -3.016  51.200 -12.136  1.00  0.00     0.198 C 
HETATM   35  C24 UNL     1      -2.524  51.808 -13.460  1.00  0.00     0.298 C 
ENDBRANCH  29  30
ENDBRANCH  28  29
ENDBRANCH  27  28
ENDBRANCH  26  27
ENDBRANCH  12  26
TORSDOF 8
ENDMDL
MODEL 9
REMARK minimizedAffinity -7.91290045
REMARK  8 active torsions:
REMARK  status: ('A' for Active; 'I' for Inactive)
REMARK    1  A    between atoms: O1_2  and  C2_3 
REMARK    2  A    between atoms: C5_6  and  N1_7 
REMARK    3  A    between atoms: N1_7  and  C6_8 
REMARK    4  A    between atoms: C17_24  and  O3_25 
REMARK    5  A    between atoms: O3_25  and  C18_26 
REMARK    6  A    between atoms: C18_26  and  C19_27 
REMARK    7  A    between atoms: C19_27  and  C20_28 
REMARK    8  A    between atoms: C20_28  and  N4_29 
ROOT
HETATM    1  C2  UNL     1      -0.529  50.079 -18.428  1.00  0.00     0.102 A 
HETATM    2  C3  UNL     1      -0.592  50.517 -19.753  1.00  0.00     0.057 A 
HETATM    3  C4  UNL     1      -0.035  51.764 -20.139  1.00  0.00     0.038 A 
HETATM    4  C5  UNL     1      -0.042  52.286 -21.450  1.00  0.00     0.119 A 
HETATM    5  N2  UNL     1       0.537  53.463 -21.750  1.00  0.00    -0.338 N 
ATOM      6  H2  UNL     1       0.545  53.827 -22.703  1.00  0.00     0.168 HD
HETATM    7  C14 UNL     1       1.101  54.131 -20.742  1.00  0.00     0.182 A 
HETATM    8  N3  UNL     1       1.152  53.738 -19.465  1.00  0.00    -0.351 N 
ATOM      9  H3  UNL     1       1.597  54.310 -18.747  1.00  0.00     0.166 HD
HETATM   10  C15 UNL     1       0.593  52.561 -19.176  1.00  0.00     0.050 A 
HETATM   11  C16 UNL     1       0.647  52.116 -17.863  1.00  0.00     0.070 A 
HETATM   12  C17 UNL     1       0.106  50.886 -17.472  1.00  0.00     0.104 A 
ENDROOT
BRANCH   4  13
HETATM   13  N1  UNL     1      -0.679  51.545 -22.477  1.00  0.00    -0.339 N 
HETATM   14  H5  UNL     1      -1.686  51.541 -22.336  1.00  0.00     0.167 HD
BRANCH  13  15
HETATM   15  C6  UNL     1      -0.407  51.538 -23.860  1.00  0.00     0.068 A 
HETATM   16  C7  UNL     1       0.740  52.092 -24.436  1.00  0.00     0.032 A 
HETATM   17  C8  UNL     1       0.987  51.990 -25.819  1.00  0.00     0.003 A 
HETATM   18  C9  UNL     1       0.099  51.311 -26.655  1.00  0.00     0.010 A 
HETATM   19  C10 UNL     1      -1.011  50.726 -26.082  1.00  0.00    -0.020 A 
HETATM   20  C11 UNL     1      -1.246  50.835 -24.717  1.00  0.00     0.101 A 
HETATM   21  C13 UNL     1      -2.124  49.987 -26.714  1.00  0.00     0.068 C 
HETATM   22  O2  UNL     1      -2.400  50.203 -24.312  1.00  0.00    -0.348 OA
HETATM   23  C12 UNL     1      -2.766  49.398 -25.458  1.00  0.00     0.180 C 
ENDBRANCH  13  15
ENDBRANCH   4  13
BRANCH   1  24
HETATM   24  O1  UNL     1      -1.035  48.887 -17.977  1.00  0.00    -0.353 OA
HETATM   25  C1  UNL     1      -2.259  48.431 -18.535  1.00  0.00     0.210 C 
ENDBRANCH   1  24
BRANCH  12  26
HETATM   26  O3  UNL     1       0.138  50.391 -16.193  1.00  0.00    -0.348 OA
BRANCH  26  27
HETATM   27  C18 UNL     1      -0.857  50.802 -15.251  1.00  0.00     0.177 C 
BRANCH  27  28
HETATM   28  C19 UNL     1      -0.221  51.555 -14.082  1.00  0.00     0.057 C 
BRANCH  28  29
HETATM   29  C20 UNL     1      -1.015  51.418 -12.780  1.00  0.00     0.274 C 
BRANCH  29  30
HETATM   30  N4  UNL     1      -1.821  52.599 -12.443  1.00  0.00     0.092 N 
HETATM   31  C21 UNL     1      -1.495  53.074 -11.078  1.00  0.00     0.298 C 
HETATM   32  C22 UNL     1      -2.617  53.941 -10.490  1.00  0.00     0.198 C 
HETATM   33  O4  UNL     1      -3.839  53.214 -10.308  1.00  0.00    -0.388 OA
HETATM   34  C23 UNL     1      -3.989  52.130 -11.234  1.00  0.00     0.198 C 
HETATM   35  C24 UNL     1      -3.278  52.375 -12.575  1.00  0.00     0.298 C 
ENDBRANCH  29  30
ENDBRANCH  28  29
ENDBRANCH  27  28
ENDBRANCH  26  27
ENDBRANCH  12  26
TORSDOF 8
ENDMDL
