MODEL 1
REMARK minimizedAffinity -9.03357792
REMARK  6 active torsions:
REMARK  status: ('A' for Active; 'I' for Inactive)
REMARK    1  A    between atoms: O1_2  and  C2_3 
REMARK    2  A    between atoms: C5_6  and  N1_7 
REMARK    3  A    between atoms: N1_7  and  C6_8 
REMARK    4  A    between atoms: C16_25  and  O4_26 
REMARK    5  A    between atoms: O4_26  and  C17_27 
REMARK    6  A    between atoms: C17_27  and  C18_28 
ROOT
HETATM    1  C18 UNL     1       0.864  52.258 -17.669  1.00  0.00    -0.030 A 
HETATM    2  C19 UNL     1       2.012  52.736 -17.031  1.00  0.00     0.026 A 
HETATM    3  C20 UNL     1       2.467  52.082 -15.896  1.00  0.00     0.089 A 
HETATM    4  N4  UNL     1       1.870  50.994 -15.366  1.00  0.00    -0.357 N 
ATOM      5  H4  UNL     1       2.236  50.536 -14.531  1.00  0.00     0.166 HD
HETATM    6  C21 UNL     1       0.760  50.536 -15.997  1.00  0.00     0.114 A 
HETATM    7  C22 UNL     1       0.140  49.374 -15.421  1.00  0.00     0.117 C 
HETATM    8  N5  UNL     1      -0.382  48.429 -14.988  1.00  0.00    -0.190 NA
HETATM    9  C23 UNL     1       0.233  51.125 -17.140  1.00  0.00     0.050 A 
ENDROOT
BRANCH   1  10
HETATM   10  C17 UNL     1       0.353  52.916 -18.930  1.00  0.00     0.214 C 
BRANCH  10  11
HETATM   11  O4  UNL     1       0.254  51.932 -19.956  1.00  0.00    -0.344 OA
BRANCH  11  12
HETATM   12  C16 UNL     1      -0.964  51.749 -20.561  1.00  0.00     0.104 A 
HETATM   13  C2  UNL     1      -1.027  52.073 -21.925  1.00  0.00     0.102 A 
HETATM   14  C3  UNL     1      -2.231  51.901 -22.609  1.00  0.00     0.056 A 
HETATM   15  C4  UNL     1      -3.383  51.407 -21.945  1.00  0.00     0.032 A 
HETATM   16  C5  UNL     1      -4.636  51.193 -22.550  1.00  0.00     0.098 A 
HETATM   17  C14 UNL     1      -3.317  51.107 -20.579  1.00  0.00     0.049 A 
HETATM   18  N2  UNL     1      -5.697  50.734 -21.860  1.00  0.00    -0.342 N 
HETATM   19  C13 UNL     1      -5.510  50.500 -20.559  1.00  0.00     0.182 A 
ATOM     20  H2  UNL     1      -6.599  50.574 -22.308  1.00  0.00     0.167 HD
HETATM   21  N3  UNL     1      -4.365  50.657 -19.885  1.00  0.00    -0.351 N 
ATOM     22  H3  UNL     1      -4.296  50.444 -18.889  1.00  0.00     0.166 HD
HETATM   23  C15 UNL     1      -2.111  51.279 -19.911  1.00  0.00     0.070 A 
BRANCH  13  24
HETATM   24  O1  UNL     1       0.130  52.542 -22.489  1.00  0.00    -0.353 OA
HETATM   25  C1  UNL     1       0.129  52.808 -23.885  1.00  0.00     0.210 C 
ENDBRANCH  13  24
BRANCH  16  26
HETATM   26  N1  UNL     1      -4.771  51.415 -23.949  1.00  0.00    -0.241 NA
HETATM   27  H5  UNL     1      -4.605  52.405 -24.126  1.00  0.00     0.135 HD
BRANCH  26  28
HETATM   28  C6  UNL     1      -4.158  50.633 -24.959  1.00  0.00     0.072 A 
HETATM   29  C7  UNL     1      -4.325  49.233 -25.000  1.00  0.00     0.058 A 
HETATM   30 CL1  UNL     1      -5.307  48.435 -23.817  1.00  0.00    -0.082 Cl
HETATM   31  C8  UNL     1      -3.713  48.444 -25.994  1.00  0.00     0.028 A 
HETATM   32  C9  UNL     1      -2.905  49.037 -26.966  1.00  0.00     0.041 A 
HETATM   33  C10 UNL     1      -2.728  50.403 -26.903  1.00  0.00     0.106 A 
HETATM   34  C11 UNL     1      -3.326  51.178 -25.931  1.00  0.00     0.128 A 
HETATM   35  O3  UNL     1      -1.951  51.130 -27.752  1.00  0.00    -0.323 OA
HETATM   36  O2  UNL     1      -2.957  52.490 -26.041  1.00  0.00    -0.321 OA
HETATM   37  C12 UNL     1      -2.128  52.455 -27.215  1.00  0.00     0.352 A 
ENDBRANCH  26  28
ENDBRANCH  16  26
ENDBRANCH  11  12
ENDBRANCH  10  11
ENDBRANCH   1  10
TORSDOF 6
ENDMDL
MODEL 2
REMARK minimizedAffinity -9.00803852
REMARK  6 active torsions:
REMARK  status: ('A' for Active; 'I' for Inactive)
REMARK    1  A    between atoms: O1_2  and  C2_3 
REMARK    2  A    between atoms: C5_6  and  N1_7 
REMARK    3  A    between atoms: N1_7  and  C6_8 
REMARK    4  A    between atoms: C16_25  and  O4_26 
REMARK    5  A    between atoms: O4_26  and  C17_27 
REMARK    6  A    between atoms: C17_27  and  C18_28 
ROOT
HETATM    1  C18 UNL     1       1.118  52.201 -17.346  1.00  0.00    -0.030 A 
HETATM    2  C19 UNL     1       2.353  52.646 -16.867  1.00  0.00     0.026 A 
HETATM    3  C20 UNL     1       2.854  52.095 -15.698  1.00  0.00     0.089 A 
HETATM    4  N4  UNL     1       2.222  51.138 -14.987  1.00  0.00    -0.357 N 
ATOM      5  H4  UNL     1       2.624  50.753 -14.132  1.00  0.00     0.166 HD
HETATM    6  C21 UNL     1       1.026  50.711 -15.464  1.00  0.00     0.114 A 
HETATM    7  C22 UNL     1       0.369  49.688 -14.697  1.00  0.00     0.117 C 
HETATM    8  N5  UNL     1      -0.186  48.854 -14.106  1.00  0.00    -0.190 NA
HETATM    9  C23 UNL     1       0.448  51.202 -16.628  1.00  0.00     0.050 A 
ENDROOT
BRANCH   1  10
HETATM   10  C17 UNL     1       0.550  52.746 -18.636  1.00  0.00     0.214 C 
BRANCH  10  11
HETATM   11  O4  UNL     1       0.204  51.654 -19.485  1.00  0.00    -0.344 OA
BRANCH  11  12
HETATM   12  C16 UNL     1      -0.196  51.934 -20.768  1.00  0.00     0.104 A 
HETATM   13  C2  UNL     1      -1.441  51.412 -21.150  1.00  0.00     0.102 A 
HETATM   14  C3  UNL     1      -1.918  51.668 -22.436  1.00  0.00     0.056 A 
HETATM   15  C4  UNL     1      -1.163  52.442 -23.354  1.00  0.00     0.032 A 
HETATM   16  C5  UNL     1      -1.563  52.759 -24.667  1.00  0.00     0.098 A 
HETATM   17  C14 UNL     1       0.088  52.941 -22.971  1.00  0.00     0.049 A 
HETATM   18  N2  UNL     1      -0.792  53.488 -25.495  1.00  0.00    -0.342 N 
HETATM   19  C13 UNL     1       0.386  53.893 -25.016  1.00  0.00     0.182 A 
ATOM     20  H2  UNL     1      -1.094  53.720 -26.441  1.00  0.00     0.167 HD
HETATM   21  N3  UNL     1       0.862  53.660 -23.787  1.00  0.00    -0.351 N 
ATOM     22  H3  UNL     1       1.771  54.014 -23.489  1.00  0.00     0.166 HD
HETATM   23  C15 UNL     1       0.548  52.683 -21.686  1.00  0.00     0.070 A 
BRANCH  13  24
HETATM   24  O1  UNL     1      -2.106  50.677 -20.204  1.00  0.00    -0.353 OA
HETATM   25  C1  UNL     1      -3.111  51.329 -19.440  1.00  0.00     0.210 C 
ENDBRANCH  13  24
BRANCH  16  26
HETATM   26  N1  UNL     1      -2.848  52.341 -25.113  1.00  0.00    -0.241 NA
HETATM   27  H5  UNL     1      -3.121  52.944 -25.889  1.00  0.00     0.135 HD
BRANCH  26  28
HETATM   28  C6  UNL     1      -3.217  51.001 -25.387  1.00  0.00     0.072 A 
HETATM   29  C7  UNL     1      -2.569  50.256 -26.395  1.00  0.00     0.058 A 
HETATM   30 CL1  UNL     1      -1.284  50.966 -27.316  1.00  0.00    -0.082 Cl
HETATM   31  C8  UNL     1      -2.933  48.926 -26.682  1.00  0.00     0.028 A 
HETATM   32  C9  UNL     1      -3.967  48.311 -25.974  1.00  0.00     0.041 A 
HETATM   33  C10 UNL     1      -4.612  49.055 -25.008  1.00  0.00     0.106 A 
HETATM   34  C11 UNL     1      -4.257  50.357 -24.725  1.00  0.00     0.128 A 
HETATM   35  O3  UNL     1      -5.656  48.616 -24.252  1.00  0.00    -0.323 OA
HETATM   36  O2  UNL     1      -5.073  50.901 -23.773  1.00  0.00    -0.321 OA
HETATM   37  C12 UNL     1      -5.920  49.784 -23.452  1.00  0.00     0.352 A 
ENDBRANCH  26  28
ENDBRANCH  16  26
ENDBRANCH  11  12
ENDBRANCH  10  11
ENDBRANCH   1  10
TORSDOF 6
ENDMDL
MODEL 3
REMARK minimizedAffinity -8.98868084
REMARK  6 active torsions:
REMARK  status: ('A' for Active; 'I' for Inactive)
REMARK    1  A    between atoms: O1_2  and  C2_3 
REMARK    2  A    between atoms: C5_6  and  N1_7 
REMARK    3  A    between atoms: N1_7  and  C6_8 
REMARK    4  A    between atoms: C16_25  and  O4_26 
REMARK    5  A    between atoms: O4_26  and  C17_27 
REMARK    6  A    between atoms: C17_27  and  C18_28 
ROOT
HETATM    1  C18 UNL     1      -5.128  48.025 -27.825  1.00  0.00    -0.030 A 
HETATM    2  C19 UNL     1      -6.279  47.569 -27.177  1.00  0.00     0.026 A 
HETATM    3  C20 UNL     1      -7.385  47.227 -27.941  1.00  0.00     0.089 A 
HETATM    4  N4  UNL     1      -7.417  47.299 -29.289  1.00  0.00    -0.357 N 
ATOM      5  H4  UNL     1      -8.248  47.035 -29.818  1.00  0.00     0.166 HD
HETATM    6  C21 UNL     1      -6.292  47.738 -29.906  1.00  0.00     0.114 A 
HETATM    7  C22 UNL     1      -6.344  47.803 -31.341  1.00  0.00     0.117 C 
HETATM    8  N5  UNL     1      -6.348  47.859 -32.503  1.00  0.00    -0.190 NA
HETATM    9  C23 UNL     1      -5.138  48.099 -29.224  1.00  0.00     0.050 A 
ENDROOT
BRANCH   1  10
HETATM   10  C17 UNL     1      -3.887  48.373 -27.036  1.00  0.00     0.214 C 
BRANCH  10  11
HETATM   11  O4  UNL     1      -4.158  49.521 -26.234  1.00  0.00    -0.344 OA
BRANCH  11  12
HETATM   12  C16 UNL     1      -3.093  50.249 -25.767  1.00  0.00     0.104 A 
HETATM   13  C2  UNL     1      -2.518  49.797 -24.570  1.00  0.00     0.102 A 
HETATM   14  C3  UNL     1      -1.422  50.482 -24.042  1.00  0.00     0.056 A 
HETATM   15  C4  UNL     1      -0.889  51.621 -24.697  1.00  0.00     0.032 A 
HETATM   16  C5  UNL     1       0.215  52.370 -24.248  1.00  0.00     0.098 A 
HETATM   17  C14 UNL     1      -1.483  52.077 -25.881  1.00  0.00     0.049 A 
HETATM   18  N2  UNL     1       0.665  53.453 -24.910  1.00  0.00    -0.342 N 
HETATM   19  C13 UNL     1       0.004  53.795 -26.018  1.00  0.00     0.182 A 
ATOM     20  H2  UNL     1       1.470  53.985 -24.582  1.00  0.00     0.167 HD
HETATM   21  N3  UNL     1      -1.047  53.153 -26.541  1.00  0.00    -0.351 N 
ATOM     22  H3  UNL     1      -1.493  53.469 -27.402  1.00  0.00     0.166 HD
HETATM   23  C15 UNL     1      -2.570  51.384 -26.397  1.00  0.00     0.070 A 
BRANCH  13  24
HETATM   24  O1  UNL     1      -3.093  48.690 -24.002  1.00  0.00    -0.353 OA
HETATM   25  C1  UNL     1      -2.677  48.322 -22.694  1.00  0.00     0.210 C 
ENDBRANCH  13  24
BRANCH  16  26
HETATM   26  N1  UNL     1       0.913  51.937 -23.086  1.00  0.00    -0.241 NA
HETATM   27  H5  UNL     1       1.910  52.049 -23.260  1.00  0.00     0.135 HD
BRANCH  26  28
HETATM   28  C6  UNL     1       0.604  52.330 -21.760  1.00  0.00     0.072 A 
HETATM   29  C7  UNL     1       0.901  53.628 -21.295  1.00  0.00     0.058 A 
HETATM   30 CL1  UNL     1       1.639  54.787 -22.351  1.00  0.00    -0.082 Cl
HETATM   31  C8  UNL     1       0.607  54.027 -19.976  1.00  0.00     0.028 A 
HETATM   32  C9  UNL     1       0.020  53.129 -19.083  1.00  0.00     0.041 A 
HETATM   33  C10 UNL     1      -0.244  51.854 -19.539  1.00  0.00     0.106 A 
HETATM   34  C11 UNL     1       0.042  51.461 -20.830  1.00  0.00     0.128 A 
HETATM   35  O3  UNL     1      -0.784  50.853 -18.791  1.00  0.00    -0.323 OA
HETATM   36  O2  UNL     1      -0.255  50.142 -21.028  1.00  0.00    -0.321 OA
HETATM   37  C12 UNL     1      -0.815  49.782 -19.753  1.00  0.00     0.352 A 
ENDBRANCH  26  28
ENDBRANCH  16  26
ENDBRANCH  11  12
ENDBRANCH  10  11
ENDBRANCH   1  10
TORSDOF 6
ENDMDL
MODEL 4
REMARK minimizedAffinity -8.73391151
REMARK  6 active torsions:
REMARK  status: ('A' for Active; 'I' for Inactive)
REMARK    1  A    between atoms: O1_2  and  C2_3 
REMARK    2  A    between atoms: C5_6  and  N1_7 
REMARK    3  A    between atoms: N1_7  and  C6_8 
REMARK    4  A    between atoms: C16_25  and  O4_26 
REMARK    5  A    between atoms: O4_26  and  C17_27 
REMARK    6  A    between atoms: C17_27  and  C18_28 
ROOT
HETATM    1  C18 UNL     1      -0.014  51.569 -20.717  1.00  0.00    -0.030 A 
HETATM    2  C19 UNL     1       0.283  52.748 -21.405  1.00  0.00     0.026 A 
HETATM    3  C20 UNL     1       0.789  53.826 -20.696  1.00  0.00     0.089 A 
HETATM    4  N4  UNL     1       1.026  53.807 -19.367  1.00  0.00    -0.357 N 
ATOM      5  H4  UNL     1       1.403  54.619 -18.879  1.00  0.00     0.166 HD
HETATM    6  C21 UNL     1       0.738  52.655 -18.711  1.00  0.00     0.114 A 
HETATM    7  C22 UNL     1       1.000  52.651 -17.298  1.00  0.00     0.117 C 
HETATM    8  N5  UNL     1       1.209  52.610 -16.154  1.00  0.00    -0.190 NA
HETATM    9  C23 UNL     1       0.231  51.524 -19.338  1.00  0.00     0.050 A 
ENDROOT
BRANCH   1  10
HETATM   10  C17 UNL     1      -0.533  50.356 -21.455  1.00  0.00     0.214 C 
BRANCH  10  11
HETATM   11  O4  UNL     1      -1.902  50.571 -21.789  1.00  0.00    -0.344 OA
BRANCH  11  12
HETATM   12  C16 UNL     1      -2.308  50.284 -23.068  1.00  0.00     0.104 A 
HETATM   13  C2  UNL     1      -2.912  49.031 -23.253  1.00  0.00     0.102 A 
HETATM   14  C3  UNL     1      -3.360  48.674 -24.526  1.00  0.00     0.056 A 
HETATM   15  C4  UNL     1      -3.213  49.558 -25.625  1.00  0.00     0.032 A 
HETATM   16  C5  UNL     1      -3.639  49.292 -26.940  1.00  0.00     0.098 A 
HETATM   17  C14 UNL     1      -2.590  50.798 -25.435  1.00  0.00     0.049 A 
HETATM   18  N2  UNL     1      -3.456  50.169 -27.945  1.00  0.00    -0.342 N 
HETATM   19  C13 UNL     1      -2.836  51.310 -27.639  1.00  0.00     0.182 A 
ATOM     20  H2  UNL     1      -3.776  49.971 -28.893  1.00  0.00     0.167 HD
HETATM   21  N3  UNL     1      -2.399  51.671 -26.427  1.00  0.00    -0.351 N 
ATOM     22  H3  UNL     1      -1.943  52.570 -26.268  1.00  0.00     0.166 HD
HETATM   23  C15 UNL     1      -2.152  51.141 -24.163  1.00  0.00     0.070 A 
BRANCH  13  24
HETATM   24  O1  UNL     1      -3.016  48.239 -22.139  1.00  0.00    -0.353 OA
HETATM   25  C1  UNL     1      -2.072  47.189 -21.979  1.00  0.00     0.210 C 
ENDBRANCH  13  24
BRANCH  16  26
HETATM   26  N1  UNL     1      -4.336  48.080 -27.205  1.00  0.00    -0.241 NA
HETATM   27  H5  UNL     1      -4.364  47.540 -26.341  1.00  0.00     0.135 HD
BRANCH  26  28
HETATM   28  C6  UNL     1      -5.582  47.988 -27.874  1.00  0.00     0.072 A 
HETATM   29  C7  UNL     1      -6.776  47.741 -27.165  1.00  0.00     0.058 A 
HETATM   30 CL1  UNL     1      -6.747  47.561 -25.441  1.00  0.00    -0.082 Cl
HETATM   31  C8  UNL     1      -8.019  47.640 -27.820  1.00  0.00     0.028 A 
HETATM   32  C9  UNL     1      -8.095  47.770 -29.208  1.00  0.00     0.041 A 
HETATM   33  C10 UNL     1      -6.920  47.986 -29.896  1.00  0.00     0.106 A 
HETATM   34  C11 UNL     1      -5.702  48.087 -29.256  1.00  0.00     0.128 A 
HETATM   35  O3  UNL     1      -6.817  48.105 -31.248  1.00  0.00    -0.323 OA
HETATM   36  O2  UNL     1      -4.680  48.245 -30.150  1.00  0.00    -0.321 OA
HETATM   37  C12 UNL     1      -5.397  48.299 -31.395  1.00  0.00     0.352 A 
ENDBRANCH  26  28
ENDBRANCH  16  26
ENDBRANCH  11  12
ENDBRANCH  10  11
ENDBRANCH   1  10
TORSDOF 6
ENDMDL
MODEL 5
REMARK minimizedAffinity -8.70179081
REMARK  6 active torsions:
REMARK  status: ('A' for Active; 'I' for Inactive)
REMARK    1  A    between atoms: O1_2  and  C2_3 
REMARK    2  A    between atoms: C5_6  and  N1_7 
REMARK    3  A    between atoms: N1_7  and  C6_8 
REMARK    4  A    between atoms: C16_25  and  O4_26 
REMARK    5  A    between atoms: O4_26  and  C17_27 
REMARK    6  A    between atoms: C17_27  and  C18_28 
ROOT
HETATM    1  C18 UNL     1       1.592  51.834 -15.554  1.00  0.00    -0.030 A 
HETATM    2  C19 UNL     1       0.442  51.658 -14.778  1.00  0.00     0.026 A 
HETATM    3  C20 UNL     1       0.540  50.950 -13.591  1.00  0.00     0.089 A 
HETATM    4  N4  UNL     1       1.690  50.419 -13.125  1.00  0.00    -0.357 N 
ATOM      5  H4  UNL     1       1.724  49.907 -12.243  1.00  0.00     0.166 HD
HETATM    6  C21 UNL     1       2.799  50.600 -13.884  1.00  0.00     0.114 A 
HETATM    7  C22 UNL     1       4.015  50.032 -13.370  1.00  0.00     0.117 C 
HETATM    8  N5  UNL     1       5.019  49.594 -12.979  1.00  0.00    -0.190 NA
HETATM    9  C23 UNL     1       2.798  51.298 -15.085  1.00  0.00     0.050 A 
ENDROOT
BRANCH   1  10
HETATM   10  C17 UNL     1       1.541  52.630 -16.838  1.00  0.00     0.214 C 
BRANCH  10  11
HETATM   11  O4  UNL     1       0.421  52.195 -17.606  1.00  0.00    -0.344 OA
BRANCH  11  12
HETATM   12  C16 UNL     1       0.488  52.318 -18.971  1.00  0.00     0.104 A 
HETATM   13  C2  UNL     1       0.065  51.202 -19.708  1.00  0.00     0.102 A 
HETATM   14  C3  UNL     1       0.093  51.258 -21.103  1.00  0.00     0.056 A 
HETATM   15  C4  UNL     1       0.542  52.423 -21.776  1.00  0.00     0.032 A 
HETATM   16  C5  UNL     1       0.599  52.578 -23.175  1.00  0.00     0.098 A 
HETATM   17  C14 UNL     1       0.982  53.524 -21.032  1.00  0.00     0.049 A 
HETATM   18  N2  UNL     1       1.049  53.706 -23.754  1.00  0.00    -0.342 N 
HETATM   19  C13 UNL     1       1.455  54.679 -22.935  1.00  0.00     0.182 A 
ATOM     20  H2  UNL     1       1.080  53.812 -24.768  1.00  0.00     0.167 HD
HETATM   21  N3  UNL     1       1.436  54.646 -21.597  1.00  0.00    -0.351 N 
ATOM     22  H3  UNL     1       1.752  55.437 -21.038  1.00  0.00     0.166 HD
HETATM   23  C15 UNL     1       0.945  53.456 -19.645  1.00  0.00     0.070 A 
BRANCH  13  24
HETATM   24  O1  UNL     1      -0.354  50.119 -18.981  1.00  0.00    -0.353 OA
HETATM   25  C1  UNL     1      -1.177  49.159 -19.630  1.00  0.00     0.210 C 
ENDBRANCH  13  24
BRANCH  16  26
HETATM   26  N1  UNL     1       0.112  51.527 -24.003  1.00  0.00    -0.241 NA
HETATM   27  H5  UNL     1      -0.007  50.700 -23.420  1.00  0.00     0.135 HD
BRANCH  26  28
HETATM   28  C6  UNL     1      -0.970  51.643 -24.909  1.00  0.00     0.072 A 
HETATM   29  C7  UNL     1      -2.142  50.874 -24.750  1.00  0.00     0.058 A 
HETATM   30 CL1  UNL     1      -2.290  49.773 -23.419  1.00  0.00    -0.082 Cl
HETATM   31  C8  UNL     1      -3.222  50.974 -25.649  1.00  0.00     0.028 A 
HETATM   32  C9  UNL     1      -3.149  51.840 -26.742  1.00  0.00     0.041 A 
HETATM   33  C10 UNL     1      -1.990  52.569 -26.904  1.00  0.00     0.106 A 
HETATM   34  C11 UNL     1      -0.932  52.474 -26.024  1.00  0.00     0.128 A 
HETATM   35  O3  UNL     1      -1.748  53.432 -27.929  1.00  0.00    -0.323 OA
HETATM   36  O2  UNL     1       0.121  53.248 -26.424  1.00  0.00    -0.321 OA
HETATM   37  C12 UNL     1      -0.419  53.879 -27.597  1.00  0.00     0.352 A 
ENDBRANCH  26  28
ENDBRANCH  16  26
ENDBRANCH  11  12
ENDBRANCH  10  11
ENDBRANCH   1  10
TORSDOF 6
ENDMDL
MODEL 6
REMARK minimizedAffinity -8.69618988
REMARK  6 active torsions:
REMARK  status: ('A' for Active; 'I' for Inactive)
REMARK    1  A    between atoms: O1_2  and  C2_3 
REMARK    2  A    between atoms: C5_6  and  N1_7 
REMARK    3  A    between atoms: N1_7  and  C6_8 
REMARK    4  A    between atoms: C16_25  and  O4_26 
REMARK    5  A    between atoms: O4_26  and  C17_27 
REMARK    6  A    between atoms: C17_27  and  C18_28 
ROOT
HETATM    1  C18 UNL     1       2.181  51.737 -15.741  1.00  0.00    -0.030 A 
HETATM    2  C19 UNL     1       3.313  51.709 -14.922  1.00  0.00     0.026 A 
HETATM    3  C20 UNL     1       3.386  50.760 -13.915  1.00  0.00     0.089 A 
HETATM    4  N4  UNL     1       2.425  49.843 -13.676  1.00  0.00    -0.357 N 
ATOM      5  H4  UNL     1       2.516  49.156 -12.927  1.00  0.00     0.166 HD
HETATM    6  C21 UNL     1       1.333  49.876 -14.480  1.00  0.00     0.114 A 
HETATM    7  C22 UNL     1       0.323  48.890 -14.214  1.00  0.00     0.117 C 
HETATM    8  N5  UNL     1      -0.511  48.099 -14.033  1.00  0.00    -0.190 NA
HETATM    9  C23 UNL     1       1.174  50.789 -15.515  1.00  0.00     0.050 A 
ENDROOT
BRANCH   1  10
HETATM   10  C17 UNL     1       2.074  52.730 -16.875  1.00  0.00     0.214 C 
BRANCH  10  11
HETATM   11  O4  UNL     1       0.773  52.635 -17.451  1.00  0.00    -0.344 OA
BRANCH  11  12
HETATM   12  C16 UNL     1       0.670  52.648 -18.819  1.00  0.00     0.104 A 
HETATM   13  C2  UNL     1      -0.034  51.576 -19.391  1.00  0.00     0.102 A 
HETATM   14  C3  UNL     1      -0.189  51.530 -20.777  1.00  0.00     0.056 A 
HETATM   15  C4  UNL     1       0.351  52.545 -21.607  1.00  0.00     0.032 A 
HETATM   16  C5  UNL     1       0.240  52.588 -23.010  1.00  0.00     0.098 A 
HETATM   17  C14 UNL     1       1.069  53.598 -21.029  1.00  0.00     0.049 A 
HETATM   18  N2  UNL     1       0.789  53.575 -23.743  1.00  0.00    -0.342 N 
HETATM   19  C13 UNL     1       1.463  54.514 -23.075  1.00  0.00     0.182 A 
ATOM     20  H2  UNL     1       0.696  53.603 -24.758  1.00  0.00     0.167 HD
HETATM   21  N3  UNL     1       1.623  54.578 -21.748  1.00  0.00    -0.351 N 
ATOM     22  H3  UNL     1       2.143  55.337 -21.308  1.00  0.00     0.166 HD
HETATM   23  C15 UNL     1       1.214  53.635 -19.648  1.00  0.00     0.070 A 
BRANCH  13  24
HETATM   24  O1  UNL     1      -0.524  50.640 -18.519  1.00  0.00    -0.353 OA
HETATM   25  C1  UNL     1      -1.883  50.751 -18.119  1.00  0.00     0.210 C 
ENDBRANCH  13  24
BRANCH  16  26
HETATM   26  N1  UNL     1      -0.527  51.587 -23.669  1.00  0.00    -0.241 NA
HETATM   27  H5  UNL     1      -1.211  51.229 -23.005  1.00  0.00     0.135 HD
BRANCH  26  28
HETATM   28  C6  UNL     1      -1.121  51.730 -24.948  1.00  0.00     0.072 A 
HETATM   29  C7  UNL     1      -2.517  51.873 -25.093  1.00  0.00     0.058 A 
HETATM   30 CL1  UNL     1      -3.542  51.896 -23.696  1.00  0.00    -0.082 Cl
HETATM   31  C8  UNL     1      -3.119  52.008 -26.359  1.00  0.00     0.028 A 
HETATM   32  C9  UNL     1      -2.339  51.988 -27.516  1.00  0.00     0.041 A 
HETATM   33  C10 UNL     1      -0.978  51.822 -27.366  1.00  0.00     0.106 A 
HETATM   34  C11 UNL     1      -0.385  51.691 -26.128  1.00  0.00     0.128 A 
HETATM   35  O3  UNL     1      -0.082  51.751 -28.389  1.00  0.00    -0.323 OA
HETATM   36  O2  UNL     1       0.962  51.483 -26.237  1.00  0.00    -0.321 OA
HETATM   37  C12 UNL     1       1.147  51.567 -27.661  1.00  0.00     0.352 A 
ENDBRANCH  26  28
ENDBRANCH  16  26
ENDBRANCH  11  12
ENDBRANCH  10  11
ENDBRANCH   1  10
TORSDOF 6
ENDMDL
MODEL 7
REMARK minimizedAffinity -8.68019772
REMARK  6 active torsions:
REMARK  status: ('A' for Active; 'I' for Inactive)
REMARK    1  A    between atoms: O1_2  and  C2_3 
REMARK    2  A    between atoms: C5_6  and  N1_7 
REMARK    3  A    between atoms: N1_7  and  C6_8 
REMARK    4  A    between atoms: C16_25  and  O4_26 
REMARK    5  A    between atoms: O4_26  and  C17_27 
REMARK    6  A    between atoms: C17_27  and  C18_28 
ROOT
HETATM    1  C18 UNL     1       1.758  52.267 -16.746  1.00  0.00    -0.030 A 
HETATM    2  C19 UNL     1       3.086  52.642 -16.526  1.00  0.00     0.026 A 
HETATM    3  C20 UNL     1       3.739  52.158 -15.403  1.00  0.00     0.089 A 
HETATM    4  N4  UNL     1       3.171  51.330 -14.502  1.00  0.00    -0.357 N 
ATOM      5  H4  UNL     1       3.685  50.991 -13.689  1.00  0.00     0.166 HD
HETATM    6  C21 UNL     1       1.884  50.969 -14.729  1.00  0.00     0.114 A 
HETATM    7  C22 UNL     1       1.296  50.083 -13.761  1.00  0.00     0.117 C 
HETATM    8  N5  UNL     1       0.792  49.360 -13.003  1.00  0.00    -0.190 NA
HETATM    9  C23 UNL     1       1.151  51.402 -15.826  1.00  0.00     0.050 A 
ENDROOT
BRANCH   1  10
HETATM   10  C17 UNL     1       1.017  52.741 -17.975  1.00  0.00     0.214 C 
BRANCH  10  11
HETATM   11  O4  UNL     1       0.265  51.653 -18.508  1.00  0.00    -0.344 OA
BRANCH  11  12
HETATM   12  C16 UNL     1      -0.238  51.776 -19.779  1.00  0.00     0.104 A 
HETATM   13  C2  UNL     1      -1.545  51.303 -19.969  1.00  0.00     0.102 A 
HETATM   14  C3  UNL     1      -2.127  51.406 -21.234  1.00  0.00     0.056 A 
HETATM   15  C4  UNL     1      -1.417  51.980 -22.319  1.00  0.00     0.032 A 
HETATM   16  C5  UNL     1      -1.920  52.135 -23.625  1.00  0.00     0.098 A 
HETATM   17  C14 UNL     1      -0.105  52.431 -22.124  1.00  0.00     0.049 A 
HETATM   18  N2  UNL     1      -1.188  52.677 -24.616  1.00  0.00    -0.342 N 
HETATM   19  C13 UNL     1       0.054  53.054 -24.307  1.00  0.00     0.182 A 
ATOM     20  H2  UNL     1      -1.565  52.793 -25.557  1.00  0.00     0.167 HD
HETATM   21  N3  UNL     1       0.630  52.964 -23.103  1.00  0.00    -0.351 N 
ATOM     22  H3  UNL     1       1.585  53.286 -22.941  1.00  0.00     0.166 HD
HETATM   23  C15 UNL     1       0.460  52.325 -20.860  1.00  0.00     0.070 A 
BRANCH  13  24
HETATM   24  O1  UNL     1      -2.161  50.764 -18.870  1.00  0.00    -0.353 OA
HETATM   25  C1  UNL     1      -3.288  49.926 -19.083  1.00  0.00     0.210 C 
ENDBRANCH  13  24
BRANCH  16  26
HETATM   26  N1  UNL     1      -3.267  51.759 -23.891  1.00  0.00    -0.241 NA
HETATM   27  H5  UNL     1      -3.773  52.593 -24.185  1.00  0.00     0.135 HD
BRANCH  26  28
HETATM   28  C6  UNL     1      -3.658  50.651 -24.682  1.00  0.00     0.072 A 
HETATM   29  C7  UNL     1      -4.269  49.518 -24.102  1.00  0.00     0.058 A 
HETATM   30 CL1  UNL     1      -4.571  49.467 -22.396  1.00  0.00    -0.082 Cl
HETATM   31  C8  UNL     1      -4.655  48.407 -24.877  1.00  0.00     0.028 A 
HETATM   32  C9  UNL     1      -4.426  48.396 -26.254  1.00  0.00     0.041 A 
HETATM   33  C10 UNL     1      -3.807  49.496 -26.808  1.00  0.00     0.106 A 
HETATM   34  C11 UNL     1      -3.428  50.586 -26.052  1.00  0.00     0.128 A 
HETATM   35  O3  UNL     1      -3.485  49.631 -28.125  1.00  0.00    -0.323 OA
HETATM   36  O2  UNL     1      -2.785  51.523 -26.812  1.00  0.00    -0.321 OA
HETATM   37  C12 UNL     1      -2.867  50.932 -28.121  1.00  0.00     0.352 A 
ENDBRANCH  26  28
ENDBRANCH  16  26
ENDBRANCH  11  12
ENDBRANCH  10  11
ENDBRANCH   1  10
TORSDOF 6
ENDMDL
MODEL 8
REMARK minimizedAffinity -8.64251614
REMARK  6 active torsions:
REMARK  status: ('A' for Active; 'I' for Inactive)
REMARK    1  A    between atoms: O1_2  and  C2_3 
REMARK    2  A    between atoms: C5_6  and  N1_7 
REMARK    3  A    between atoms: N1_7  and  C6_8 
REMARK    4  A    between atoms: C16_25  and  O4_26 
REMARK    5  A    between atoms: O4_26  and  C17_27 
REMARK    6  A    between atoms: C17_27  and  C18_28 
ROOT
HETATM    1  C18 UNL     1      -1.744  51.447 -22.416  1.00  0.00    -0.030 A 
HETATM    2  C19 UNL     1      -1.957  50.764 -21.215  1.00  0.00     0.026 A 
HETATM    3  C20 UNL     1      -1.159  51.069 -20.123  1.00  0.00     0.089 A 
HETATM    4  N4  UNL     1      -0.184  52.001 -20.143  1.00  0.00    -0.357 N 
ATOM      5  H4  UNL     1       0.381  52.201 -19.317  1.00  0.00     0.166 HD
HETATM    6  C21 UNL     1       0.010  52.660 -21.312  1.00  0.00     0.114 A 
HETATM    7  C22 UNL     1       1.050  53.653 -21.313  1.00  0.00     0.117 C 
HETATM    8  N5  UNL     1       1.877  54.469 -21.347  1.00  0.00    -0.190 NA
HETATM    9  C23 UNL     1      -0.742  52.424 -22.456  1.00  0.00     0.050 A 
ENDROOT
BRANCH   1  10
HETATM   10  C17 UNL     1      -2.614  51.174 -23.622  1.00  0.00     0.214 C 
BRANCH  10  11
HETATM   11  O4  UNL     1      -2.392  49.834 -24.057  1.00  0.00    -0.344 OA
BRANCH  11  12
HETATM   12  C16 UNL     1      -3.179  49.344 -25.068  1.00  0.00     0.104 A 
HETATM   13  C2  UNL     1      -2.639  49.426 -26.360  1.00  0.00     0.102 A 
HETATM   14  C3  UNL     1      -3.379  48.936 -27.437  1.00  0.00     0.056 A 
HETATM   15  C4  UNL     1      -4.661  48.361 -27.241  1.00  0.00     0.032 A 
HETATM   16  C5  UNL     1      -5.476  47.834 -28.261  1.00  0.00     0.098 A 
HETATM   17  C14 UNL     1      -5.200  48.302 -25.950  1.00  0.00     0.049 A 
HETATM   18  N2  UNL     1      -6.692  47.313 -28.010  1.00  0.00    -0.342 N 
HETATM   19  C13 UNL     1      -7.100  47.329 -26.739  1.00  0.00     0.182 A 
ATOM     20  H2  UNL     1      -7.273  46.926 -28.754  1.00  0.00     0.167 HD
HETATM   21  N3  UNL     1      -6.407  47.793 -25.692  1.00  0.00    -0.351 N 
ATOM     22  H3  UNL     1      -6.783  47.760 -24.744  1.00  0.00     0.166 HD
HETATM   23  C15 UNL     1      -4.451  48.790 -24.887  1.00  0.00     0.070 A 
BRANCH  13  24
HETATM   24  O1  UNL     1      -1.396  49.994 -26.462  1.00  0.00    -0.353 OA
HETATM   25  C1  UNL     1      -1.250  51.127 -27.308  1.00  0.00     0.210 C 
ENDBRANCH  13  24
BRANCH  16  26
HETATM   26  N1  UNL     1      -4.975  47.799 -29.592  1.00  0.00    -0.241 NA
HETATM   27  H5  UNL     1      -4.190  47.150 -29.615  1.00  0.00     0.135 HD
BRANCH  26  28
HETATM   28  C6  UNL     1      -5.770  47.640 -30.755  1.00  0.00     0.072 A 
HETATM   29  C7  UNL     1      -5.335  46.840 -31.833  1.00  0.00     0.058 A 
HETATM   30 CL1  UNL     1      -3.814  46.014 -31.749  1.00  0.00    -0.082 Cl
HETATM   31  C8  UNL     1      -6.112  46.681 -32.997  1.00  0.00     0.028 A 
HETATM   32  C9  UNL     1      -7.341  47.332 -33.117  1.00  0.00     0.041 A 
HETATM   33  C10 UNL     1      -7.747  48.131 -32.069  1.00  0.00     0.106 A 
HETATM   34  C11 UNL     1      -6.988  48.288 -30.928  1.00  0.00     0.128 A 
HETATM   35  O3  UNL     1      -8.899  48.855 -32.039  1.00  0.00    -0.323 OA
HETATM   36  O2  UNL     1      -7.569  49.169 -30.059  1.00  0.00    -0.321 OA
HETATM   37  C12 UNL     1      -8.791  49.484 -30.748  1.00  0.00     0.352 A 
ENDBRANCH  26  28
ENDBRANCH  16  26
ENDBRANCH  11  12
ENDBRANCH  10  11
ENDBRANCH   1  10
TORSDOF 6
ENDMDL
MODEL 9
REMARK minimizedAffinity -8.59943962
REMARK  6 active torsions:
REMARK  status: ('A' for Active; 'I' for Inactive)
REMARK    1  A    between atoms: O1_2  and  C2_3 
REMARK    2  A    between atoms: C5_6  and  N1_7 
REMARK    3  A    between atoms: N1_7  and  C6_8 
REMARK    4  A    between atoms: C16_25  and  O4_26 
REMARK    5  A    between atoms: O4_26  and  C17_27 
REMARK    6  A    between atoms: C17_27  and  C18_28 
ROOT
HETATM    1  C18 UNL     1      -0.419  49.966 -17.501  1.00  0.00    -0.030 A 
HETATM    2  C19 UNL     1       0.196  51.175 -17.163  1.00  0.00     0.026 A 
HETATM    3  C20 UNL     1       0.998  51.223 -16.033  1.00  0.00     0.089 A 
HETATM    4  N4  UNL     1       1.233  50.162 -15.234  1.00  0.00    -0.357 N 
ATOM      5  H4  UNL     1       1.833  50.235 -14.412  1.00  0.00     0.166 HD
HETATM    6  C21 UNL     1       0.635  48.994 -15.574  1.00  0.00     0.114 A 
HETATM    7  C22 UNL     1       0.900  47.874 -14.713  1.00  0.00     0.117 C 
HETATM    8  N5  UNL     1       1.101  46.944 -14.044  1.00  0.00    -0.190 NA
HETATM    9  C23 UNL     1      -0.182  48.850 -16.689  1.00  0.00     0.050 A 
ENDROOT
BRANCH   1  10
HETATM   10  C17 UNL     1      -1.272  49.857 -18.744  1.00  0.00     0.214 C 
BRANCH  10  11
HETATM   11  O4  UNL     1      -1.688  51.164 -19.134  1.00  0.00    -0.344 OA
BRANCH  11  12
HETATM   12  C16 UNL     1      -2.349  51.302 -20.329  1.00  0.00     0.104 A 
HETATM   13  C2  UNL     1      -1.613  51.884 -21.372  1.00  0.00     0.102 A 
HETATM   14  C3  UNL     1      -2.216  52.045 -22.621  1.00  0.00     0.056 A 
HETATM   15  C4  UNL     1      -3.554  51.631 -22.843  1.00  0.00     0.032 A 
HETATM   16  C5  UNL     1      -4.243  51.744 -24.066  1.00  0.00     0.098 A 
HETATM   17  C14 UNL     1      -4.287  51.070 -21.790  1.00  0.00     0.049 A 
HETATM   18  N2  UNL     1      -5.521  51.343 -24.208  1.00  0.00    -0.342 N 
HETATM   19  C13 UNL     1      -6.116  50.839 -23.125  1.00  0.00     0.182 A 
ATOM     20  H2  UNL     1      -6.010  51.422 -25.100  1.00  0.00     0.167 HD
HETATM   21  N3  UNL     1      -5.556  50.675 -21.921  1.00  0.00    -0.351 N 
ATOM     22  H3  UNL     1      -6.073  50.269 -21.141  1.00  0.00     0.166 HD
HETATM   23  C15 UNL     1      -3.673  50.912 -20.554  1.00  0.00     0.070 A 
BRANCH  13  24
HETATM   24  O1  UNL     1      -0.328  52.255 -21.074  1.00  0.00    -0.353 OA
HETATM   25  C1  UNL     1       0.595  52.380 -22.148  1.00  0.00     0.210 C 
ENDBRANCH  13  24
BRANCH  16  26
HETATM   26  N1  UNL     1      -3.550  52.247 -25.202  1.00  0.00    -0.241 NA
HETATM   27  H5  UNL     1      -3.536  53.263 -25.136  1.00  0.00     0.135 HD
BRANCH  26  28
HETATM   28  C6  UNL     1      -2.296  51.774 -25.663  1.00  0.00     0.072 A 
HETATM   29  C7  UNL     1      -2.141  50.454 -26.134  1.00  0.00     0.058 A 
HETATM   30 CL1  UNL     1      -3.499  49.377 -26.177  1.00  0.00    -0.082 Cl
HETATM   31  C8  UNL     1      -0.898  49.970 -26.587  1.00  0.00     0.028 A 
HETATM   32  C9  UNL     1       0.228  50.795 -26.565  1.00  0.00     0.041 A 
HETATM   33  C10 UNL     1       0.073  52.076 -26.079  1.00  0.00     0.106 A 
HETATM   34  C11 UNL     1      -1.143  52.553 -25.636  1.00  0.00     0.128 A 
HETATM   35  O3  UNL     1       1.072  52.994 -25.963  1.00  0.00    -0.323 OA
HETATM   36  O2  UNL     1      -1.035  53.826 -25.152  1.00  0.00    -0.321 OA
HETATM   37  C12 UNL     1       0.352  54.109 -25.403  1.00  0.00     0.352 A 
ENDBRANCH  26  28
ENDBRANCH  16  26
ENDBRANCH  11  12
ENDBRANCH  10  11
ENDBRANCH   1  10
TORSDOF 6
ENDMDL
