MODEL 1
REMARK minimizedAffinity -10.6359253
REMARK  7 active torsions:
REMARK  status: ('A' for Active; 'I' for Inactive)
REMARK    1  A    between atoms: C2_2  and  C3_3 
REMARK    2  A    between atoms: C2_2  and  N4_22 
REMARK    3  A    between atoms: C7_7  and  C8_8 
REMARK    4  A    between atoms: C18_30  and  C19_31 
REMARK    5  A    between atoms: N9_35  and  C21_36 
REMARK    6  A    between atoms: C21_36  and  C22_37 
REMARK    7  A    between atoms: C22_37  and  O1_38 
ROOT
HETATM    1  N4  UNL     1      -7.076   5.110  13.790  1.00  0.00    -0.248 N 
HETATM    2  N5  UNL     1      -6.012   5.231  14.623  1.00  0.00    -0.016 NA
HETATM    3  N6  UNL     1      -6.321   6.147  15.540  1.00  0.00    -0.266 N 
ATOM      4  H6  UNL     1      -5.719   6.461  16.301  1.00  0.00     0.186 HD
HETATM    5  C16 UNL     1      -7.586   6.590  15.281  1.00  0.00     0.164 A 
HETATM    6  N7  UNL     1      -8.308   7.514  15.964  1.00  0.00    -0.346 N 
ATOM      7  H7  UNL     1      -7.964   8.010  16.787  1.00  0.00     0.167 HD
HETATM    8  C17 UNL     1      -9.544   7.704  15.423  1.00  0.00     0.120 A 
HETATM    9  C18 UNL     1     -10.042   7.036  14.297  1.00  0.00     0.062 A 
HETATM   10  N10 UNL     1      -9.317   6.109  13.614  1.00  0.00    -0.336 N 
ATOM     11  H10 UNL     1      -9.651   5.607  12.791  1.00  0.00     0.168 HD
HETATM   12  C24 UNL     1      -8.096   5.938  14.166  1.00  0.00     0.168 A 
ENDROOT
BRANCH   1  13
HETATM   13  C2  UNL     1      -7.071   4.172  12.672  1.00  0.00     0.140 C 
HETATM   14  C1  UNL     1      -8.018   2.987  12.898  1.00  0.00     0.039 C 
BRANCH  13  15
HETATM   15  C3  UNL     1      -5.654   3.736  12.349  1.00  0.00     0.005 A 
HETATM   16  C4  UNL     1      -4.543   4.563  12.566  1.00  0.00     0.026 A 
HETATM   17  C5  UNL     1      -3.242   4.126  12.249  1.00  0.00    -0.008 A 
HETATM   18  C6  UNL     1      -2.118   4.942  12.461  1.00  0.00     0.027 A 
HETATM   19  C13 UNL     1      -3.035   2.840  11.709  1.00  0.00     0.045 A 
HETATM   20  C7  UNL     1      -0.839   4.483  12.142  1.00  0.00    -0.007 A 
HETATM   21  C12 UNL     1      -0.753   3.199  11.619  1.00  0.00     0.100 A 
HETATM   22  N3  UNL     1      -1.813   2.381  11.400  1.00  0.00    -0.364 N 
ATOM     23  H3  UNL     1      -1.685   1.446  11.013  1.00  0.00     0.165 HD
HETATM   24  C14 UNL     1      -4.137   2.032  11.493  1.00  0.00     0.073 A 
HETATM   25  C15 UNL     1      -5.421   2.472  11.805  1.00  0.00     0.127 A 
HETATM   26  F1  UNL     1      -6.453   1.645  11.578  1.00  0.00    -0.205 F 
BRANCH  20  27
HETATM   27  C8  UNL     1       0.348   5.292  12.350  1.00  0.00     0.009 A 
HETATM   28  C9  UNL     1       0.799   5.999  13.490  1.00  0.00     0.121 A 
HETATM   29  N1  UNL     1       1.963   6.622  13.289  1.00  0.00    -0.310 N 
HETATM   30  N2  UNL     1       2.267   6.315  12.016  1.00  0.00    -0.307 N 
ATOM     31  H1  UNL     1       2.495   7.194  13.946  1.00  0.00     0.186 HD
HETATM   32  C10 UNL     1       3.488   6.823  11.438  1.00  0.00     0.177 C 
HETATM   33  C11 UNL     1       1.335   5.522  11.411  1.00  0.00     0.123 A 
ENDBRANCH  20  27
ENDBRANCH  13  15
ENDBRANCH   1  13
BRANCH   9  34
HETATM   34  C19 UNL     1     -11.372   7.283  13.767  1.00  0.00     0.026 A 
HETATM   35  C20 UNL     1     -11.791   8.266  12.839  1.00  0.00     0.122 A 
HETATM   36  N8  UNL     1     -13.098   8.201  12.569  1.00  0.00    -0.309 N 
HETATM   37  N9  UNL     1     -13.522   7.161  13.314  1.00  0.00    -0.301 N 
ATOM     38  H8  UNL     1     -13.644   8.796  11.946  1.00  0.00     0.186 HD
HETATM   39  C23 UNL     1     -12.527   6.580  14.052  1.00  0.00     0.125 A 
BRANCH  37  40
HETATM   40  C21 UNL     1     -14.923   6.770  13.267  1.00  0.00     0.174 C 
BRANCH  40  41
HETATM   41  C22 UNL     1     -15.759   7.749  12.449  1.00  0.00     0.185 C 
BRANCH  41  42
HETATM   42  O1  UNL     1     -15.751   7.409  11.063  1.00  0.00    -0.399 OA
HETATM   43  H20 UNL     1     -14.805   7.297  10.816  1.00  0.00     0.209 HD
ENDBRANCH  41  42
ENDBRANCH  40  41
ENDBRANCH  37  40
ENDBRANCH   9  34
TORSDOF 7
ENDMDL
MODEL 2
REMARK minimizedAffinity -10.6069374
REMARK  7 active torsions:
REMARK  status: ('A' for Active; 'I' for Inactive)
REMARK    1  A    between atoms: C2_2  and  C3_3 
REMARK    2  A    between atoms: C2_2  and  N4_22 
REMARK    3  A    between atoms: C7_7  and  C8_8 
REMARK    4  A    between atoms: C18_30  and  C19_31 
REMARK    5  A    between atoms: N9_35  and  C21_36 
REMARK    6  A    between atoms: C21_36  and  C22_37 
REMARK    7  A    between atoms: C22_37  and  O1_38 
ROOT
HETATM    1  N4  UNL     1       1.448   6.863  11.525  1.00  0.00    -0.248 N 
HETATM    2  N5  UNL     1       0.972   6.720  10.262  1.00  0.00    -0.016 NA
HETATM    3  N6  UNL     1       2.008   6.815   9.428  1.00  0.00    -0.266 N 
ATOM      4  H6  UNL     1       1.967   6.753   8.411  1.00  0.00     0.186 HD
HETATM    5  C16 UNL     1       3.133   7.009  10.178  1.00  0.00     0.164 A 
HETATM    6  N7  UNL     1       4.413   7.151   9.749  1.00  0.00    -0.346 N 
ATOM      7  H7  UNL     1       4.689   7.131   8.767  1.00  0.00     0.167 HD
HETATM    8  C17 UNL     1       5.285   7.322  10.781  1.00  0.00     0.120 A 
HETATM    9  C18 UNL     1       4.934   7.350  12.137  1.00  0.00     0.062 A 
HETATM   10  N10 UNL     1       3.650   7.207  12.565  1.00  0.00    -0.336 N 
ATOM     11  H10 UNL     1       3.363   7.224  13.544  1.00  0.00     0.168 HD
HETATM   12  C24 UNL     1       2.803   7.040  11.526  1.00  0.00     0.168 A 
ENDROOT
BRANCH   1  13
HETATM   13  C2  UNL     1       0.568   6.798  12.687  1.00  0.00     0.140 C 
HETATM   14  C1  UNL     1       1.341   6.594  13.995  1.00  0.00     0.039 C 
BRANCH  13  15
HETATM   15  C3  UNL     1      -0.514   5.754  12.477  1.00  0.00     0.005 A 
HETATM   16  C4  UNL     1      -1.868   6.009  12.741  1.00  0.00     0.026 A 
HETATM   17  C5  UNL     1      -2.844   5.015  12.538  1.00  0.00    -0.008 A 
HETATM   18  C6  UNL     1      -4.204   5.254  12.798  1.00  0.00     0.027 A 
HETATM   19  C13 UNL     1      -2.474   3.740  12.061  1.00  0.00     0.045 A 
HETATM   20  C7  UNL     1      -5.153   4.252  12.585  1.00  0.00    -0.007 A 
HETATM   21  C12 UNL     1      -4.676   3.037  12.109  1.00  0.00     0.100 A 
HETATM   22  N3  UNL     1      -3.372   2.768  11.847  1.00  0.00    -0.364 N 
ATOM     23  H3  UNL     1      -3.085   1.854  11.498  1.00  0.00     0.165 HD
HETATM   24  C14 UNL     1      -1.136   3.496  11.807  1.00  0.00     0.073 A 
HETATM   25  C15 UNL     1      -0.175   4.483  12.013  1.00  0.00     0.127 A 
HETATM   26  F1  UNL     1       1.107   4.191  11.747  1.00  0.00    -0.205 F 
BRANCH  20  27
HETATM   27  C8  UNL     1      -6.567   4.460  12.835  1.00  0.00     0.009 A 
HETATM   28  C9  UNL     1      -7.635   3.535  12.936  1.00  0.00     0.121 A 
HETATM   29  N1  UNL     1      -8.807   4.122  13.193  1.00  0.00    -0.310 N 
HETATM   30  N2  UNL     1      -8.497   5.428  13.260  1.00  0.00    -0.307 N 
ATOM     31  H1  UNL     1      -9.720   3.682  13.310  1.00  0.00     0.186 HD
HETATM   32  C10 UNL     1      -9.537   6.390  13.532  1.00  0.00     0.177 C 
HETATM   33  C11 UNL     1      -7.171   5.683  13.055  1.00  0.00     0.123 A 
ENDBRANCH  20  27
ENDBRANCH  13  15
ENDBRANCH   1  13
BRANCH   9  34
HETATM   34  C19 UNL     1       5.913   7.537  13.194  1.00  0.00     0.026 A 
HETATM   35  C20 UNL     1       5.706   7.640  14.590  1.00  0.00     0.122 A 
HETATM   36  N8  UNL     1       6.843   7.803  15.273  1.00  0.00    -0.309 N 
HETATM   37  N9  UNL     1       7.791   7.792  14.314  1.00  0.00    -0.301 N 
ATOM     38  H8  UNL     1       6.965   7.911  16.280  1.00  0.00     0.186 HD
HETATM   39  C23 UNL     1       7.284   7.638  13.052  1.00  0.00     0.125 A 
BRANCH  37  40
HETATM   40  C21 UNL     1       9.190   7.932  14.687  1.00  0.00     0.174 C 
BRANCH  40  41
HETATM   41  C22 UNL     1       9.349   8.350  16.145  1.00  0.00     0.185 C 
BRANCH  41  42
HETATM   42  O1  UNL     1       9.047   7.275  17.032  1.00  0.00    -0.399 OA
HETATM   43  H20 UNL     1       8.172   6.926  16.749  1.00  0.00     0.209 HD
ENDBRANCH  41  42
ENDBRANCH  40  41
ENDBRANCH  37  40
ENDBRANCH   9  34
TORSDOF 7
ENDMDL
MODEL 3
REMARK minimizedAffinity -10.3831596
REMARK  7 active torsions:
REMARK  status: ('A' for Active; 'I' for Inactive)
REMARK    1  A    between atoms: C2_2  and  C3_3 
REMARK    2  A    between atoms: C2_2  and  N4_22 
REMARK    3  A    between atoms: C7_7  and  C8_8 
REMARK    4  A    between atoms: C18_30  and  C19_31 
REMARK    5  A    between atoms: N9_35  and  C21_36 
REMARK    6  A    between atoms: C21_36  and  C22_37 
REMARK    7  A    between atoms: C22_37  and  O1_38 
ROOT
HETATM    1  N4  UNL     1      -1.717   6.187  12.480  1.00  0.00    -0.248 N 
HETATM    2  N5  UNL     1      -2.716   7.061  12.767  1.00  0.00    -0.016 NA
HETATM    3  N6  UNL     1      -2.187   8.284  12.789  1.00  0.00    -0.266 N 
ATOM      4  H6  UNL     1      -2.688   9.151  12.983  1.00  0.00     0.186 HD
HETATM    5  C16 UNL     1      -0.856   8.170  12.505  1.00  0.00     0.164 A 
HETATM    6  N7  UNL     1       0.069   9.159  12.413  1.00  0.00    -0.346 N 
ATOM      7  H7  UNL     1      -0.138  10.147  12.557  1.00  0.00     0.167 HD
HETATM    8  C17 UNL     1       1.306   8.679  12.105  1.00  0.00     0.120 A 
HETATM    9  C18 UNL     1       1.618   7.328  11.899  1.00  0.00     0.062 A 
HETATM   10  N10 UNL     1       0.689   6.338  11.992  1.00  0.00    -0.336 N 
ATOM     11  H10 UNL     1       0.885   5.348  11.849  1.00  0.00     0.168 HD
HETATM   12  C24 UNL     1      -0.529   6.837  12.299  1.00  0.00     0.168 A 
ENDROOT
BRANCH   1  13
HETATM   13  C2  UNL     1      -1.962   4.754  12.368  1.00  0.00     0.140 C 
HETATM   14  C1  UNL     1      -1.301   4.142  11.127  1.00  0.00     0.039 C 
BRANCH  13  15
HETATM   15  C3  UNL     1      -3.449   4.460  12.444  1.00  0.00     0.005 A 
HETATM   16  C4  UNL     1      -4.357   5.321  13.076  1.00  0.00     0.026 A 
HETATM   17  C5  UNL     1      -5.730   5.013  13.130  1.00  0.00    -0.008 A 
HETATM   18  C6  UNL     1      -6.652   5.866  13.759  1.00  0.00     0.027 A 
HETATM   19  C13 UNL     1      -6.217   3.827  12.543  1.00  0.00     0.045 A 
HETATM   20  C7  UNL     1      -8.009   5.539  13.796  1.00  0.00    -0.007 A 
HETATM   21  C12 UNL     1      -8.377   4.348  13.182  1.00  0.00     0.100 A 
HETATM   22  N3  UNL     1      -7.517   3.499  12.565  1.00  0.00    -0.364 N 
ATOM     23  H3  UNL     1      -7.850   2.637  12.132  1.00  0.00     0.165 HD
HETATM   24  C14 UNL     1      -5.314   2.980  11.926  1.00  0.00     0.073 A 
HETATM   25  C15 UNL     1      -3.957   3.289  11.878  1.00  0.00     0.127 A 
HETATM   26  F1  UNL     1      -3.128   2.433  11.264  1.00  0.00    -0.205 F 
BRANCH  20  27
HETATM   27  C8  UNL     1      -8.995   6.394  14.431  1.00  0.00     0.009 A 
HETATM   28  C9  UNL     1      -9.077   6.887  15.755  1.00  0.00     0.121 A 
HETATM   29  N1  UNL     1     -10.142   7.668  15.953  1.00  0.00    -0.310 N 
HETATM   30  N2  UNL     1     -10.749   7.682  14.755  1.00  0.00    -0.307 N 
ATOM     31  H1  UNL     1     -10.427   8.141  16.811  1.00  0.00     0.186 HD
HETATM   32  C10 UNL     1     -11.962   8.445  14.583  1.00  0.00     0.177 C 
HETATM   33  C11 UNL     1     -10.103   6.938  13.809  1.00  0.00     0.123 A 
ENDBRANCH  20  27
ENDBRANCH  13  15
ENDBRANCH   1  13
BRANCH   9  34
HETATM   34  C19 UNL     1       2.960   6.877  11.573  1.00  0.00     0.026 A 
HETATM   35  C20 UNL     1       3.375   5.974  10.566  1.00  0.00     0.122 A 
HETATM   36  N8  UNL     1       4.698   5.791  10.546  1.00  0.00    -0.309 N 
HETATM   37  N9  UNL     1       5.142   6.591  11.537  1.00  0.00    -0.301 N 
ATOM     38  H8  UNL     1       5.244   5.190   9.928  1.00  0.00     0.186 HD
HETATM   39  C23 UNL     1       4.139   7.260  12.184  1.00  0.00     0.125 A 
BRANCH  37  40
HETATM   40  C21 UNL     1       6.569   6.669  11.810  1.00  0.00     0.174 C 
BRANCH  40  41
HETATM   41  C22 UNL     1       6.855   7.348  13.146  1.00  0.00     0.185 C 
BRANCH  41  42
HETATM   42  O1  UNL     1       6.584   6.477  14.243  1.00  0.00    -0.399 OA
HETATM   43  H20 UNL     1       5.677   6.126  14.092  1.00  0.00     0.209 HD
ENDBRANCH  41  42
ENDBRANCH  40  41
ENDBRANCH  37  40
ENDBRANCH   9  34
TORSDOF 7
ENDMDL
MODEL 4
REMARK minimizedAffinity -10.1398468
REMARK  7 active torsions:
REMARK  status: ('A' for Active; 'I' for Inactive)
REMARK    1  A    between atoms: C2_2  and  C3_3 
REMARK    2  A    between atoms: C2_2  and  N4_22 
REMARK    3  A    between atoms: C7_7  and  C8_8 
REMARK    4  A    between atoms: C18_30  and  C19_31 
REMARK    5  A    between atoms: N9_35  and  C21_36 
REMARK    6  A    between atoms: C21_36  and  C22_37 
REMARK    7  A    between atoms: C22_37  and  O1_38 
ROOT
HETATM    1  N4  UNL     1      -0.036   6.321  14.079  1.00  0.00    -0.248 N 
HETATM    2  N5  UNL     1      -1.126   6.470  14.873  1.00  0.00    -0.016 NA
HETATM    3  N6  UNL     1      -0.761   7.201  15.926  1.00  0.00    -0.266 N 
ATOM      4  H6  UNL     1      -1.362   7.478  16.702  1.00  0.00     0.186 HD
HETATM    5  C16 UNL     1       0.560   7.515  15.780  1.00  0.00     0.164 A 
HETATM    6  N7  UNL     1       1.344   8.251  16.609  1.00  0.00    -0.346 N 
ATOM      7  H7  UNL     1       1.016   8.669  17.479  1.00  0.00     0.167 HD
HETATM    8  C17 UNL     1       2.619   8.367  16.143  1.00  0.00     0.120 A 
HETATM    9  C18 UNL     1       3.095   7.806  14.949  1.00  0.00     0.062 A 
HETATM   10  N10 UNL     1       2.307   7.068  14.120  1.00  0.00    -0.336 N 
ATOM     11  H10 UNL     1       2.625   6.647  13.247  1.00  0.00     0.168 HD
HETATM   12  C24 UNL     1       1.049   6.966  14.602  1.00  0.00     0.168 A 
ENDROOT
BRANCH   1  13
HETATM   13  C2  UNL     1      -0.096   5.575  12.827  1.00  0.00     0.140 C 
HETATM   14  C1  UNL     1       0.336   6.419  11.622  1.00  0.00     0.039 C 
BRANCH  13  15
HETATM   15  C3  UNL     1      -1.468   4.952  12.643  1.00  0.00     0.005 A 
HETATM   16  C4  UNL     1      -2.644   5.572  13.090  1.00  0.00     0.026 A 
HETATM   17  C5  UNL     1      -3.899   4.961  12.906  1.00  0.00    -0.008 A 
HETATM   18  C6  UNL     1      -5.086   5.569  13.347  1.00  0.00     0.027 A 
HETATM   19  C13 UNL     1      -3.994   3.709  12.262  1.00  0.00     0.045 A 
HETATM   20  C7  UNL     1      -6.319   4.944  13.149  1.00  0.00    -0.007 A 
HETATM   21  C12 UNL     1      -6.294   3.715  12.500  1.00  0.00     0.100 A 
HETATM   22  N3  UNL     1      -5.170   3.096  12.059  1.00  0.00    -0.364 N 
ATOM     23  H3  UNL     1      -5.217   2.193  11.589  1.00  0.00     0.165 HD
HETATM   24  C14 UNL     1      -2.829   3.102  11.828  1.00  0.00     0.073 A 
HETATM   25  C15 UNL     1      -1.590   3.711  12.017  1.00  0.00     0.127 A 
HETATM   26  F1  UNL     1      -0.494   3.078  11.573  1.00  0.00    -0.205 F 
BRANCH  20  27
HETATM   27  C8  UNL     1      -7.568   5.539  13.585  1.00  0.00     0.009 A 
HETATM   28  C9  UNL     1      -8.010   5.925  14.873  1.00  0.00     0.121 A 
HETATM   29  N1  UNL     1      -9.234   6.458  14.864  1.00  0.00    -0.310 N 
HETATM   30  N2  UNL     1      -9.585   6.418  13.568  1.00  0.00    -0.307 N 
ATOM     31  H1  UNL     1      -9.774   6.811  15.654  1.00  0.00     0.186 HD
HETATM   32  C10 UNL     1     -10.875   6.925  13.166  1.00  0.00     0.177 C 
HETATM   33  C11 UNL     1      -8.624   5.879  12.761  1.00  0.00     0.123 A 
ENDBRANCH  20  27
ENDBRANCH  13  15
ENDBRANCH   1  13
BRANCH   9  34
HETATM   34  C19 UNL     1       4.469   7.964  14.506  1.00  0.00     0.026 A 
HETATM   35  C20 UNL     1       4.955   8.495  13.287  1.00  0.00     0.122 A 
HETATM   36  N8  UNL     1       6.289   8.495  13.216  1.00  0.00    -0.309 N 
HETATM   37  N9  UNL     1       6.668   7.974  14.401  1.00  0.00    -0.301 N 
ATOM     38  H8  UNL     1       6.881   8.812  12.448  1.00  0.00     0.186 HD
HETATM   39  C23 UNL     1       5.614   7.638  15.207  1.00  0.00     0.125 A 
BRANCH  37  40
HETATM   40  C21 UNL     1       8.084   7.829  14.700  1.00  0.00     0.174 C 
BRANCH  40  41
HETATM   41  C22 UNL     1       8.433   8.379  16.079  1.00  0.00     0.185 C 
BRANCH  41  42
HETATM   42  O1  UNL     1       8.983   7.368  16.921  1.00  0.00    -0.399 OA
HETATM   43  H20 UNL     1       8.359   6.608  16.875  1.00  0.00     0.209 HD
ENDBRANCH  41  42
ENDBRANCH  40  41
ENDBRANCH  37  40
ENDBRANCH   9  34
TORSDOF 7
ENDMDL
MODEL 5
REMARK minimizedAffinity -10.0986509
REMARK  7 active torsions:
REMARK  status: ('A' for Active; 'I' for Inactive)
REMARK    1  A    between atoms: C2_2  and  C3_3 
REMARK    2  A    between atoms: C2_2  and  N4_22 
REMARK    3  A    between atoms: C7_7  and  C8_8 
REMARK    4  A    between atoms: C18_30  and  C19_31 
REMARK    5  A    between atoms: N9_35  and  C21_36 
REMARK    6  A    between atoms: C21_36  and  C22_37 
REMARK    7  A    between atoms: C22_37  and  O1_38 
ROOT
HETATM    1  N4  UNL     1      -4.324   5.028  13.698  1.00  0.00    -0.248 N 
HETATM    2  N5  UNL     1      -3.698   4.007  13.059  1.00  0.00    -0.016 NA
HETATM    3  N6  UNL     1      -4.630   3.298  12.423  1.00  0.00    -0.266 N 
ATOM      4  H6  UNL     1      -4.468   2.464  11.858  1.00  0.00     0.186 HD
HETATM    5  C16 UNL     1      -5.839   3.886  12.662  1.00  0.00     0.164 A 
HETATM    6  N7  UNL     1      -7.060   3.507  12.206  1.00  0.00    -0.346 N 
ATOM      7  H7  UNL     1      -7.218   2.696  11.608  1.00  0.00     0.167 HD
HETATM    8  C17 UNL     1      -8.051   4.335  12.641  1.00  0.00     0.120 A 
HETATM    9  C18 UNL     1      -7.863   5.456  13.460  1.00  0.00     0.062 A 
HETATM   10  N10 UNL     1      -6.638   5.834  13.915  1.00  0.00    -0.336 N 
ATOM     11  H10 UNL     1      -6.470   6.644  14.513  1.00  0.00     0.168 HD
HETATM   12  C24 UNL     1      -5.672   5.000  13.474  1.00  0.00     0.168 A 
ENDROOT
BRANCH   1  13
HETATM   13  C2  UNL     1      -3.584   6.008  14.485  1.00  0.00     0.140 C 
HETATM   14  C1  UNL     1      -4.508   6.966  15.246  1.00  0.00     0.039 C 
BRANCH  13  15
HETATM   15  C3  UNL     1      -2.574   6.736  13.616  1.00  0.00     0.005 A 
HETATM   16  C4  UNL     1      -1.286   6.236  13.377  1.00  0.00     0.026 A 
HETATM   17  C5  UNL     1      -0.374   6.941  12.568  1.00  0.00    -0.008 A 
HETATM   18  C6  UNL     1       0.919   6.453  12.320  1.00  0.00     0.027 A 
HETATM   19  C13 UNL     1      -0.746   8.167  11.979  1.00  0.00     0.045 A 
HETATM   20  C7  UNL     1       1.803   7.170  11.510  1.00  0.00    -0.007 A 
HETATM   21  C12 UNL     1       1.329   8.363  10.979  1.00  0.00     0.100 A 
HETATM   22  N3  UNL     1       0.088   8.867  11.196  1.00  0.00    -0.364 N 
ATOM     23  H3  UNL     1      -0.201   9.751  10.777  1.00  0.00     0.165 HD
HETATM   24  C14 UNL     1      -2.017   8.656  12.223  1.00  0.00     0.073 A 
HETATM   25  C15 UNL     1      -2.913   7.955  13.027  1.00  0.00     0.127 A 
HETATM   26  F1  UNL     1      -4.133   8.474  13.226  1.00  0.00    -0.205 F 
BRANCH  20  27
HETATM   27  C8  UNL     1       3.146   6.700  11.224  1.00  0.00     0.009 A 
HETATM   28  C9  UNL     1       3.610   5.723  10.311  1.00  0.00     0.121 A 
HETATM   29  N1  UNL     1       4.937   5.582  10.331  1.00  0.00    -0.310 N 
HETATM   30  N2  UNL     1       5.334   6.471  11.257  1.00  0.00    -0.307 N 
ATOM     31  H1  UNL     1       5.514   4.950   9.775  1.00  0.00     0.186 HD
HETATM   32  C10 UNL     1       6.739   6.606  11.555  1.00  0.00     0.177 C 
HETATM   33  C11 UNL     1       4.302   7.166  11.821  1.00  0.00     0.123 A 
ENDBRANCH  20  27
ENDBRANCH  13  15
ENDBRANCH   1  13
BRANCH   9  34
HETATM   34  C19 UNL     1      -8.963   6.302  13.891  1.00  0.00     0.026 A 
HETATM   35  C20 UNL     1      -9.213   6.853  15.171  1.00  0.00     0.122 A 
HETATM   36  N8  UNL     1     -10.323   7.594  15.209  1.00  0.00    -0.309 N 
HETATM   37  N9  UNL     1     -10.787   7.533  13.944  1.00  0.00    -0.301 N 
ATOM     38  H8  UNL     1     -10.726   8.088  16.005  1.00  0.00     0.186 HD
HETATM   39  C23 UNL     1     -10.008   6.769  13.117  1.00  0.00     0.125 A 
BRANCH  37  40
HETATM   40  C21 UNL     1     -12.003   8.249  13.591  1.00  0.00     0.174 C 
BRANCH  40  41
HETATM   41  C22 UNL     1     -11.701   9.602  12.954  1.00  0.00     0.185 C 
BRANCH  41  42
HETATM   42  O1  UNL     1     -12.314   9.723  11.672  1.00  0.00    -0.399 OA
HETATM   43  H20 UNL     1     -12.060   8.915  11.172  1.00  0.00     0.209 HD
ENDBRANCH  41  42
ENDBRANCH  40  41
ENDBRANCH  37  40
ENDBRANCH   9  34
TORSDOF 7
ENDMDL
MODEL 6
REMARK minimizedAffinity -9.97723103
REMARK  7 active torsions:
REMARK  status: ('A' for Active; 'I' for Inactive)
REMARK    1  A    between atoms: C2_2  and  C3_3 
REMARK    2  A    between atoms: C2_2  and  N4_22 
REMARK    3  A    between atoms: C7_7  and  C8_8 
REMARK    4  A    between atoms: C18_30  and  C19_31 
REMARK    5  A    between atoms: N9_35  and  C21_36 
REMARK    6  A    between atoms: C21_36  and  C22_37 
REMARK    7  A    between atoms: C22_37  and  O1_38 
ROOT
HETATM    1  N4  UNL     1      -7.675   5.698  14.482  1.00  0.00    -0.248 N 
HETATM    2  N5  UNL     1      -6.872   5.531  15.563  1.00  0.00    -0.016 NA
HETATM    3  N6  UNL     1      -7.360   6.284  16.548  1.00  0.00    -0.266 N 
ATOM      4  H6  UNL     1      -6.970   6.373  17.486  1.00  0.00     0.186 HD
HETATM    5  C16 UNL     1      -8.477   6.916  16.078  1.00  0.00     0.164 A 
HETATM    6  N7  UNL     1      -9.296   7.772  16.739  1.00  0.00    -0.346 N 
ATOM      7  H7  UNL     1      -9.159   8.057  17.709  1.00  0.00     0.167 HD
HETATM    8  C17 UNL     1     -10.323   8.208  15.957  1.00  0.00     0.120 A 
HETATM    9  C18 UNL     1     -10.538   7.831  14.624  1.00  0.00     0.062 A 
HETATM   10  N10 UNL     1      -9.714   6.972  13.964  1.00  0.00    -0.336 N 
ATOM     11  H10 UNL     1      -9.843   6.680  12.995  1.00  0.00     0.168 HD
HETATM   12  C24 UNL     1      -8.703   6.555  14.757  1.00  0.00     0.168 A 
ENDROOT
BRANCH   1  13
HETATM   13  C2  UNL     1      -7.426   4.998  13.226  1.00  0.00     0.140 C 
HETATM   14  C1  UNL     1      -8.139   3.643  13.160  1.00  0.00     0.039 C 
BRANCH  13  15
HETATM   15  C3  UNL     1      -5.934   4.888  12.965  1.00  0.00     0.005 A 
HETATM   16  C4  UNL     1      -5.056   5.967  13.143  1.00  0.00     0.026 A 
HETATM   17  C5  UNL     1      -3.678   5.829  12.886  1.00  0.00    -0.008 A 
HETATM   18  C6  UNL     1      -2.786   6.899  13.060  1.00  0.00     0.027 A 
HETATM   19  C13 UNL     1      -3.157   4.594  12.446  1.00  0.00     0.045 A 
HETATM   20  C7  UNL     1      -1.424   6.735  12.802  1.00  0.00    -0.007 A 
HETATM   21  C12 UNL     1      -1.020   5.475  12.377  1.00  0.00     0.100 A 
HETATM   22  N3  UNL     1      -1.851   4.417  12.197  1.00  0.00    -0.364 N 
ATOM     23  H3  UNL     1      -1.493   3.516  11.882  1.00  0.00     0.165 HD
HETATM   24  C14 UNL     1      -4.031   3.536  12.268  1.00  0.00     0.073 A 
HETATM   25  C15 UNL     1      -5.393   3.681  12.521  1.00  0.00     0.127 A 
HETATM   26  F1  UNL     1      -6.193   2.621  12.335  1.00  0.00    -0.205 F 
BRANCH  20  27
HETATM   27  C8  UNL     1      -0.467   7.813  12.973  1.00  0.00     0.009 A 
HETATM   28  C9  UNL     1      -0.591   9.065  13.622  1.00  0.00     0.121 A 
HETATM   29  N1  UNL     1       0.533   9.786  13.577  1.00  0.00    -0.310 N 
HETATM   30  N2  UNL     1       1.385   8.998  12.900  1.00  0.00    -0.307 N 
ATOM     31  H1  UNL     1       0.703  10.714  13.965  1.00  0.00     0.186 HD
HETATM   32  C10 UNL     1       2.731   9.456  12.655  1.00  0.00     0.177 C 
HETATM   33  C11 UNL     1       0.837   7.807  12.517  1.00  0.00     0.123 A 
ENDBRANCH  20  27
ENDBRANCH  13  15
ENDBRANCH   1  13
BRANCH   9  34
HETATM   34  C19 UNL     1     -11.654   8.331  13.841  1.00  0.00     0.026 A 
HETATM   35  C20 UNL     1     -11.635   9.034  12.613  1.00  0.00     0.122 A 
HETATM   36  N8  UNL     1     -12.858   9.338  12.169  1.00  0.00    -0.309 N 
HETATM   37  N9  UNL     1     -13.672   8.816  13.108  1.00  0.00    -0.301 N 
ATOM     38  H8  UNL     1     -13.114   9.844  11.322  1.00  0.00     0.186 HD
HETATM   39  C23 UNL     1     -12.999   8.205  14.131  1.00  0.00     0.125 A 
BRANCH  37  40
HETATM   40  C21 UNL     1     -15.114   8.939  12.955  1.00  0.00     0.174 C 
BRANCH  40  41
HETATM   41  C22 UNL     1     -15.676   7.886  12.005  1.00  0.00     0.185 C 
BRANCH  41  42
HETATM   42  O1  UNL     1     -16.069   8.464  10.761  1.00  0.00    -0.399 OA
HETATM   43  H20 UNL     1     -16.643   9.231  10.987  1.00  0.00     0.209 HD
ENDBRANCH  41  42
ENDBRANCH  40  41
ENDBRANCH  37  40
ENDBRANCH   9  34
TORSDOF 7
ENDMDL
MODEL 7
REMARK minimizedAffinity -9.92051601
REMARK  7 active torsions:
REMARK  status: ('A' for Active; 'I' for Inactive)
REMARK    1  A    between atoms: C2_2  and  C3_3 
REMARK    2  A    between atoms: C2_2  and  N4_22 
REMARK    3  A    between atoms: C7_7  and  C8_8 
REMARK    4  A    between atoms: C18_30  and  C19_31 
REMARK    5  A    between atoms: N9_35  and  C21_36 
REMARK    6  A    between atoms: C21_36  and  C22_37 
REMARK    7  A    between atoms: C22_37  and  O1_38 
ROOT
HETATM    1  N4  UNL     1      -6.223   6.442  14.299  1.00  0.00    -0.248 N 
HETATM    2  N5  UNL     1      -7.509   6.484  14.731  1.00  0.00    -0.016 NA
HETATM    3  N6  UNL     1      -8.148   5.446  14.193  1.00  0.00    -0.266 N 
ATOM      4  H6  UNL     1      -9.131   5.211  14.327  1.00  0.00     0.186 HD
HETATM    5  C16 UNL     1      -7.252   4.751  13.431  1.00  0.00     0.164 A 
HETATM    6  N7  UNL     1      -7.464   3.621  12.709  1.00  0.00    -0.346 N 
ATOM      7  H7  UNL     1      -8.363   3.144  12.650  1.00  0.00     0.167 HD
HETATM    8  C17 UNL     1      -6.335   3.199  12.073  1.00  0.00     0.120 A 
HETATM    9  C18 UNL     1      -5.087   3.833  12.140  1.00  0.00     0.062 A 
HETATM   10  N10 UNL     1      -4.878   4.965  12.864  1.00  0.00    -0.336 N 
ATOM     11  H10 UNL     1      -3.982   5.450  12.931  1.00  0.00     0.168 HD
HETATM   12  C24 UNL     1      -6.009   5.367  13.484  1.00  0.00     0.168 A 
ENDROOT
BRANCH   1  13
HETATM   13  C2  UNL     1      -5.242   7.438  14.716  1.00  0.00     0.140 C 
HETATM   14  C1  UNL     1      -5.464   8.797  14.042  1.00  0.00     0.039 C 
BRANCH  13  15
HETATM   15  C3  UNL     1      -3.832   6.912  14.521  1.00  0.00     0.005 A 
HETATM   16  C4  UNL     1      -3.085   7.167  13.362  1.00  0.00     0.026 A 
HETATM   17  C5  UNL     1      -1.780   6.658  13.215  1.00  0.00    -0.008 A 
HETATM   18  C6  UNL     1      -1.019   6.904  12.060  1.00  0.00     0.027 A 
HETATM   19  C13 UNL     1      -1.199   5.881  14.240  1.00  0.00     0.045 A 
HETATM   20  C7  UNL     1       0.274   6.391  11.941  1.00  0.00    -0.007 A 
HETATM   21  C12 UNL     1       0.746   5.644  13.013  1.00  0.00     0.100 A 
HETATM   22  N3  UNL     1       0.042   5.384  14.143  1.00  0.00    -0.364 N 
ATOM     23  H3  UNL     1       0.446   4.827  14.897  1.00  0.00     0.165 HD
HETATM   24  C14 UNL     1      -1.945   5.630  15.378  1.00  0.00     0.073 A 
HETATM   25  C15 UNL     1      -3.236   6.134  15.515  1.00  0.00     0.127 A 
HETATM   26  F1  UNL     1      -3.911   5.862  16.642  1.00  0.00    -0.205 F 
BRANCH  20  27
HETATM   27  C8  UNL     1       1.095   6.626  10.768  1.00  0.00     0.009 A 
HETATM   28  C9  UNL     1       2.036   5.794  10.114  1.00  0.00     0.121 A 
HETATM   29  N1  UNL     1       2.583   6.372   9.042  1.00  0.00    -0.310 N 
HETATM   30  N2  UNL     1       1.995   7.580   9.001  1.00  0.00    -0.307 N 
ATOM     31  H1  UNL     1       3.282   5.988   8.406  1.00  0.00     0.186 HD
HETATM   32  C10 UNL     1       2.345   8.503   7.949  1.00  0.00     0.177 C 
HETATM   33  C11 UNL     1       1.096   7.781  10.009  1.00  0.00     0.123 A 
ENDBRANCH  20  27
ENDBRANCH  13  15
ENDBRANCH   1  13
BRANCH   9  34
HETATM   34  C19 UNL     1      -3.918   3.332  11.437  1.00  0.00     0.026 A 
HETATM   35  C20 UNL     1      -3.602   3.422  10.060  1.00  0.00     0.122 A 
HETATM   36  N8  UNL     1      -2.432   2.853   9.758  1.00  0.00    -0.309 N 
HETATM   37  N9  UNL     1      -1.983   2.404  10.948  1.00  0.00    -0.301 N 
ATOM     38  H8  UNL     1      -1.985   2.775   8.844  1.00  0.00     0.186 HD
HETATM   39  C23 UNL     1      -2.839   2.665  11.984  1.00  0.00     0.125 A 
BRANCH  37  40
HETATM   40  C21 UNL     1      -0.699   1.725  11.019  1.00  0.00     0.174 C 
BRANCH  40  41
HETATM   41  C22 UNL     1      -0.714   0.400  10.263  1.00  0.00     0.185 C 
BRANCH  41  42
HETATM   42  O1  UNL     1      -0.663   0.605   8.852  1.00  0.00    -0.399 OA
HETATM   43  H20 UNL     1      -1.370   1.258   8.647  1.00  0.00     0.209 HD
ENDBRANCH  41  42
ENDBRANCH  40  41
ENDBRANCH  37  40
ENDBRANCH   9  34
TORSDOF 7
ENDMDL
MODEL 8
REMARK minimizedAffinity -9.90284252
REMARK  7 active torsions:
REMARK  status: ('A' for Active; 'I' for Inactive)
REMARK    1  A    between atoms: C2_2  and  C3_3 
REMARK    2  A    between atoms: C2_2  and  N4_22 
REMARK    3  A    between atoms: C7_7  and  C8_8 
REMARK    4  A    between atoms: C18_30  and  C19_31 
REMARK    5  A    between atoms: N9_35  and  C21_36 
REMARK    6  A    between atoms: C21_36  and  C22_37 
REMARK    7  A    between atoms: C22_37  and  O1_38 
ROOT
HETATM    1  N4  UNL     1      -4.255   7.576  15.163  1.00  0.00    -0.248 N 
HETATM    2  N5  UNL     1      -5.167   8.462  15.639  1.00  0.00    -0.016 NA
HETATM    3  N6  UNL     1      -6.368   8.074  15.210  1.00  0.00    -0.266 N 
ATOM      4  H6  UNL     1      -7.253   8.543  15.400  1.00  0.00     0.186 HD
HETATM    5  C16 UNL     1      -6.202   6.937  14.472  1.00  0.00     0.164 A 
HETATM    6  N7  UNL     1      -7.153   6.195  13.851  1.00  0.00    -0.346 N 
ATOM      7  H7  UNL     1      -8.148   6.418  13.864  1.00  0.00     0.167 HD
HETATM    8  C17 UNL     1      -6.625   5.116  13.208  1.00  0.00     0.120 A 
HETATM    9  C18 UNL     1      -5.264   4.784  13.176  1.00  0.00     0.062 A 
HETATM   10  N10 UNL     1      -4.312   5.530  13.799  1.00  0.00    -0.336 N 
ATOM     11  H10 UNL     1      -3.315   5.315  13.792  1.00  0.00     0.168 HD
HETATM   12  C24 UNL     1      -4.857   6.594  14.428  1.00  0.00     0.168 A 
ENDROOT
BRANCH   1  13
HETATM   13  C2  UNL     1      -2.834   7.705  15.461  1.00  0.00     0.140 C 
HETATM   14  C1  UNL     1      -2.553   8.769  16.529  1.00  0.00     0.039 C 
BRANCH  13  15
HETATM   15  C3  UNL     1      -2.040   7.931  14.187  1.00  0.00     0.005 A 
HETATM   16  C4  UNL     1      -0.819   7.289  13.935  1.00  0.00     0.026 A 
HETATM   17  C5  UNL     1      -0.109   7.527  12.742  1.00  0.00    -0.008 A 
HETATM   18  C6  UNL     1       1.115   6.891  12.475  1.00  0.00     0.027 A 
HETATM   19  C13 UNL     1      -0.619   8.418  11.775  1.00  0.00     0.045 A 
HETATM   20  C7  UNL     1       1.798   7.142  11.283  1.00  0.00    -0.007 A 
HETATM   21  C12 UNL     1       1.200   8.034  10.401  1.00  0.00     0.100 A 
HETATM   22  N3  UNL     1       0.021   8.668  10.624  1.00  0.00    -0.364 N 
ATOM     23  H3  UNL     1      -0.366   9.314   9.936  1.00  0.00     0.165 HD
HETATM   24  C14 UNL     1      -1.822   9.052  12.034  1.00  0.00     0.073 A 
HETATM   25  C15 UNL     1      -2.518   8.814  13.217  1.00  0.00     0.127 A 
HETATM   26  F1  UNL     1      -3.680   9.453  13.413  1.00  0.00    -0.205 F 
BRANCH  20  27
HETATM   27  C8  UNL     1       3.062   6.503  10.965  1.00  0.00     0.009 A 
HETATM   28  C9  UNL     1       3.361   5.423  10.100  1.00  0.00     0.121 A 
HETATM   29  N1  UNL     1       4.664   5.132  10.066  1.00  0.00    -0.310 N 
HETATM   30  N2  UNL     1       5.209   6.026  10.909  1.00  0.00    -0.307 N 
ATOM     31  H1  UNL     1       5.134   4.404   9.528  1.00  0.00     0.186 HD
HETATM   32  C10 UNL     1       6.635   6.016  11.128  1.00  0.00     0.177 C 
HETATM   33  C11 UNL     1       4.293   6.869  11.472  1.00  0.00     0.123 A 
ENDBRANCH  20  27
ENDBRANCH  13  15
ENDBRANCH   1  13
BRANCH   9  34
HETATM   34  C19 UNL     1      -4.761   3.618  12.470  1.00  0.00     0.026 A 
HETATM   35  C20 UNL     1      -5.453   2.729  11.614  1.00  0.00     0.122 A 
HETATM   36  N8  UNL     1      -4.670   1.761  11.128  1.00  0.00    -0.309 N 
HETATM   37  N9  UNL     1      -3.463   2.035  11.662  1.00  0.00    -0.301 N 
ATOM     38  H8  UNL     1      -4.926   0.997  10.502  1.00  0.00     0.186 HD
HETATM   39  C23 UNL     1      -3.466   3.135  12.475  1.00  0.00     0.125 A 
BRANCH  37  40
HETATM   40  C21 UNL     1      -2.328   1.183  11.340  1.00  0.00     0.174 C 
BRANCH  40  41
HETATM   41  C22 UNL     1      -1.069   1.998  11.057  1.00  0.00     0.185 C 
BRANCH  41  42
HETATM   42  O1  UNL     1       0.032   1.155  10.721  1.00  0.00    -0.399 OA
HETATM   43  H20 UNL     1       0.077   0.473  11.428  1.00  0.00     0.209 HD
ENDBRANCH  41  42
ENDBRANCH  40  41
ENDBRANCH  37  40
ENDBRANCH   9  34
TORSDOF 7
ENDMDL
MODEL 9
REMARK minimizedAffinity -9.85499763
REMARK  7 active torsions:
REMARK  status: ('A' for Active; 'I' for Inactive)
REMARK    1  A    between atoms: C2_2  and  C3_3 
REMARK    2  A    between atoms: C2_2  and  N4_22 
REMARK    3  A    between atoms: C7_7  and  C8_8 
REMARK    4  A    between atoms: C18_30  and  C19_31 
REMARK    5  A    between atoms: N9_35  and  C21_36 
REMARK    6  A    between atoms: C21_36  and  C22_37 
REMARK    7  A    between atoms: C22_37  and  O1_38 
ROOT
HETATM    1  N4  UNL     1      -0.492   8.524  11.263  1.00  0.00    -0.248 N 
HETATM    2  N5  UNL     1      -1.309   8.871  10.236  1.00  0.00    -0.016 NA
HETATM    3  N6  UNL     1      -0.588   8.828   9.116  1.00  0.00    -0.266 N 
ATOM      4  H6  UNL     1      -0.924   9.043   8.177  1.00  0.00     0.186 HD
HETATM    5  C16 UNL     1       0.679   8.443   9.448  1.00  0.00     0.164 A 
HETATM    6  N7  UNL     1       1.742   8.259   8.624  1.00  0.00    -0.346 N 
ATOM      7  H7  UNL     1       1.711   8.399   7.615  1.00  0.00     0.167 HD
HETATM    8  C17 UNL     1       2.856   7.865   9.303  1.00  0.00     0.120 A 
HETATM    9  C18 UNL     1       2.926   7.661  10.687  1.00  0.00     0.062 A 
HETATM   10  N10 UNL     1       1.859   7.846  11.511  1.00  0.00    -0.336 N 
ATOM     11  H10 UNL     1       1.880   7.707  12.521  1.00  0.00     0.168 HD
HETATM   12  C24 UNL     1       0.768   8.238  10.818  1.00  0.00     0.168 A 
ENDROOT
BRANCH   1  13
HETATM   13  C2  UNL     1      -0.975   8.459  12.638  1.00  0.00     0.140 C 
HETATM   14  C1  UNL     1       0.160   8.257  13.648  1.00  0.00     0.039 C 
BRANCH  13  15
HETATM   15  C3  UNL     1      -2.069   7.415  12.769  1.00  0.00     0.005 A 
HETATM   16  C4  UNL     1      -3.364   7.730  13.205  1.00  0.00     0.026 A 
HETATM   17  C5  UNL     1      -4.353   6.733  13.319  1.00  0.00    -0.008 A 
HETATM   18  C6  UNL     1      -5.654   7.033  13.754  1.00  0.00     0.027 A 
HETATM   19  C13 UNL     1      -4.054   5.394  12.991  1.00  0.00     0.045 A 
HETATM   20  C7  UNL     1      -6.617   6.027  13.854  1.00  0.00    -0.007 A 
HETATM   21  C12 UNL     1      -6.214   4.745  13.501  1.00  0.00     0.100 A 
HETATM   22  N3  UNL     1      -4.967   4.416  13.078  1.00  0.00    -0.364 N 
ATOM     23  H3  UNL     1      -4.732   3.454  12.833  1.00  0.00     0.165 HD
HETATM   24  C14 UNL     1      -2.773   5.091  12.566  1.00  0.00     0.073 A 
HETATM   25  C15 UNL     1      -1.799   6.081  12.459  1.00  0.00     0.127 A 
HETATM   26  F1  UNL     1      -0.575   5.730  12.039  1.00  0.00    -0.205 F 
BRANCH  20  27
HETATM   27  C8  UNL     1      -7.974   6.294  14.294  1.00  0.00     0.009 A 
HETATM   28  C9  UNL     1      -8.499   6.520  15.589  1.00  0.00     0.121 A 
HETATM   29  N1  UNL     1      -9.815   6.748  15.583  1.00  0.00    -0.310 N 
HETATM   30  N2  UNL     1     -10.141   6.672  14.282  1.00  0.00    -0.307 N 
ATOM     31  H1  UNL     1     -10.427   6.935  16.378  1.00  0.00     0.186 HD
HETATM   32  C10 UNL     1     -11.513   6.873  13.882  1.00  0.00     0.177 C 
HETATM   33  C11 UNL     1      -9.076   6.404  13.469  1.00  0.00     0.123 A 
ENDBRANCH  20  27
ENDBRANCH  13  15
ENDBRANCH   1  13
BRANCH   9  34
HETATM   34  C19 UNL     1       4.147   7.240  11.354  1.00  0.00     0.026 A 
HETATM   35  C20 UNL     1       4.994   6.147  11.052  1.00  0.00     0.122 A 
HETATM   36  N8  UNL     1       6.041   6.060  11.876  1.00  0.00    -0.309 N 
HETATM   37  N9  UNL     1       5.878   7.110  12.706  1.00  0.00    -0.301 N 
ATOM     38  H8  UNL     1       6.788   5.364  11.878  1.00  0.00     0.186 HD
HETATM   39  C23 UNL     1       4.757   7.845  12.436  1.00  0.00     0.125 A 
BRANCH  37  40
HETATM   40  C21 UNL     1       6.858   7.354  13.754  1.00  0.00     0.174 C 
BRANCH  40  41
HETATM   41  C22 UNL     1       6.212   7.918  15.015  1.00  0.00     0.185 C 
BRANCH  41  42
HETATM   42  O1  UNL     1       5.306   6.985  15.600  1.00  0.00    -0.399 OA
HETATM   43  H20 UNL     1       4.712   6.691  14.873  1.00  0.00     0.209 HD
ENDBRANCH  41  42
ENDBRANCH  40  41
ENDBRANCH  37  40
ENDBRANCH   9  34
TORSDOF 7
ENDMDL
