MODEL 1
REMARK minimizedAffinity -7.49333429
REMARK  9 active torsions:
REMARK  status: ('A' for Active; 'I' for Inactive)
REMARK       I    between atoms: N1_1  and  C1_2 
REMARK    1  A    between atoms: C1_2  and  C2_4 
REMARK    2  A    between atoms: C2_4  and  C3_5 
REMARK    3  A    between atoms: C3_5  and  C4_6 
REMARK    4  A    between atoms: C5_7  and  S1_8 
REMARK    5  A    between atoms: S1_8  and  S2_9 
REMARK    6  A    between atoms: S2_9  and  C6_10 
REMARK    7  A    between atoms: C13_18  and  C14_19 
REMARK    8  A    between atoms: C14_19  and  C15_20 
REMARK    9  A    between atoms: C15_20  and  C16_21 
REMARK       I    between atoms: C16_21  and  N3_22 
ROOT
HETATM    1  S1  UNL     1      13.206  34.555  17.710  1.00  0.00    -0.032 SA
ENDROOT
BRANCH   1   2
HETATM    2  C5  UNL     1      11.639  34.886  18.372  1.00  0.00     0.088 A 
HETATM    3  C4  UNL     1      11.074  34.692  19.616  1.00  0.00    -0.011 A 
HETATM    4  C22 UNL     1       9.753  35.252  19.546  1.00  0.00    -0.000 A 
HETATM    5  C17 UNL     1       9.568  35.747  18.254  1.00  0.00     0.043 A 
HETATM    6  C21 UNL     1       8.699  35.395  20.471  1.00  0.00     0.014 A 
HETATM    7  N4  UNL     1      10.720  35.481  17.554  1.00  0.00    -0.349 N 
HETATM    8  C18 UNL     1       8.392  36.385  17.842  1.00  0.00     0.030 A 
HETATM    9  H18 UNL     1      10.893  35.752  16.596  1.00  0.00     0.166 HD
HETATM   10  C19 UNL     1       7.366  36.517  18.782  1.00  0.00     0.002 A 
HETATM   11  C20 UNL     1       7.514  36.027  20.076  1.00  0.00     0.001 A 
BRANCH   3  12
HETATM   12  C3  UNL     1      11.708  34.048  20.814  1.00  0.00     0.051 C 
BRANCH  12  13
HETATM   13  C2  UNL     1      12.521  35.034  21.647  1.00  0.00     0.107 C 
BRANCH  13  14
HETATM   14  C1  UNL     1      11.660  35.706  22.691  1.00  0.00     0.215 C 
HETATM   15  N1  UNL     1      11.425  37.036  22.488  1.00  0.00    -0.370 N 
HETATM   16  H1  UNL     1      12.076  37.592  21.950  1.00  0.00     0.159 HD
HETATM   17  H2  UNL     1      10.939  37.508  23.240  1.00  0.00     0.159 HD
HETATM   18  O1  UNL     1      11.164  35.114  23.646  1.00  0.00    -0.274 OA
ENDBRANCH  13  14
ENDBRANCH  12  13
ENDBRANCH   3  12
ENDBRANCH   1   2
BRANCH   1  19
HETATM   19  S2  UNL     1      13.457  36.275  16.601  1.00  0.00    -0.032 SA
BRANCH  19  20
HETATM   20  C6  UNL     1      14.852  35.803  15.686  1.00  0.00     0.088 A 
HETATM   21  N2  UNL     1      14.671  35.453  14.379  1.00  0.00    -0.349 N 
HETATM   22  C7  UNL     1      15.857  35.026  13.836  1.00  0.00     0.043 A 
HETATM   23  H7  UNL     1      13.777  35.448  13.905  1.00  0.00     0.166 HD
HETATM   24  C8  UNL     1      16.135  34.521  12.560  1.00  0.00     0.030 A 
HETATM   25  C12 UNL     1      16.837  35.188  14.819  1.00  0.00    -0.000 A 
HETATM   26  C9  UNL     1      17.459  34.179  12.274  1.00  0.00     0.002 A 
HETATM   27  C10 UNL     1      18.462  34.336  13.228  1.00  0.00     0.001 A 
HETATM   28  C11 UNL     1      18.165  34.838  14.501  1.00  0.00     0.014 A 
HETATM   29  C13 UNL     1      16.193  35.702  15.996  1.00  0.00    -0.011 A 
BRANCH  29  30
HETATM   30  C14 UNL     1      16.859  36.040  17.296  1.00  0.00     0.051 C 
BRANCH  30  31
HETATM   31  C15 UNL     1      17.186  34.795  18.116  1.00  0.00     0.107 C 
BRANCH  31  32
HETATM   32  C16 UNL     1      16.637  34.901  19.519  1.00  0.00     0.215 C 
HETATM   33  N3  UNL     1      15.962  33.791  19.943  1.00  0.00    -0.370 N 
HETATM   34  H16 UNL     1      15.544  33.819  20.864  1.00  0.00     0.159 HD
HETATM   35  H17 UNL     1      15.761  33.005  19.341  1.00  0.00     0.159 HD
HETATM   36  O2  UNL     1      16.778  35.869  20.255  1.00  0.00    -0.274 OA
ENDBRANCH  31  32
ENDBRANCH  30  31
ENDBRANCH  29  30
ENDBRANCH  19  20
ENDBRANCH   1  19
TORSDOF 9
ENDMDL
MODEL 2
REMARK minimizedAffinity -7.42678881
REMARK  9 active torsions:
REMARK  status: ('A' for Active; 'I' for Inactive)
REMARK       I    between atoms: N1_1  and  C1_2 
REMARK    1  A    between atoms: C1_2  and  C2_4 
REMARK    2  A    between atoms: C2_4  and  C3_5 
REMARK    3  A    between atoms: C3_5  and  C4_6 
REMARK    4  A    between atoms: C5_7  and  S1_8 
REMARK    5  A    between atoms: S1_8  and  S2_9 
REMARK    6  A    between atoms: S2_9  and  C6_10 
REMARK    7  A    between atoms: C13_18  and  C14_19 
REMARK    8  A    between atoms: C14_19  and  C15_20 
REMARK    9  A    between atoms: C15_20  and  C16_21 
REMARK       I    between atoms: C16_21  and  N3_22 
ROOT
HETATM    1  S1  UNL     1      13.271  34.653  17.431  1.00  0.00    -0.032 SA
ENDROOT
BRANCH   1   2
HETATM    2  C5  UNL     1      11.727  34.879  18.186  1.00  0.00     0.088 A 
HETATM    3  C4  UNL     1      11.217  34.537  19.421  1.00  0.00    -0.011 A 
HETATM    4  C22 UNL     1       9.885  35.076  19.466  1.00  0.00    -0.000 A 
HETATM    5  C17 UNL     1       9.640  35.706  18.244  1.00  0.00     0.043 A 
HETATM    6  C21 UNL     1       8.868  35.094  20.441  1.00  0.00     0.014 A 
HETATM    7  N4  UNL     1      10.766  35.542  17.475  1.00  0.00    -0.349 N 
HETATM    8  C18 UNL     1       8.439  36.362  17.952  1.00  0.00     0.030 A 
HETATM    9  H18 UNL     1      10.896  35.920  16.547  1.00  0.00     0.166 HD
HETATM   10  C19 UNL     1       7.450  36.369  18.939  1.00  0.00     0.002 A 
HETATM   11  C20 UNL     1       7.658  35.743  20.165  1.00  0.00     0.001 A 
BRANCH   3  12
HETATM   12  C3  UNL     1      11.908  33.778  20.516  1.00  0.00     0.051 C 
BRANCH  12  13
HETATM   13  C2  UNL     1      12.904  34.639  21.286  1.00  0.00     0.107 C 
BRANCH  13  14
HETATM   14  C1  UNL     1      12.194  35.590  22.221  1.00  0.00     0.215 C 
HETATM   15  N1  UNL     1      12.364  36.917  21.946  1.00  0.00    -0.370 N 
HETATM   16  H1  UNL     1      13.186  37.232  21.449  1.00  0.00     0.159 HD
HETATM   17  H2  UNL     1      11.977  37.553  22.633  1.00  0.00     0.159 HD
HETATM   18  O1  UNL     1      11.479  35.221  23.149  1.00  0.00    -0.274 OA
ENDBRANCH  13  14
ENDBRANCH  12  13
ENDBRANCH   3  12
ENDBRANCH   1   2
BRANCH   1  19
HETATM   19  S2  UNL     1      13.414  36.459  16.447  1.00  0.00    -0.032 SA
BRANCH  19  20
HETATM   20  C6  UNL     1      14.847  36.149  15.522  1.00  0.00     0.088 A 
HETATM   21  N2  UNL     1      14.719  35.433  14.366  1.00  0.00    -0.349 N 
HETATM   22  C7  UNL     1      15.954  35.205  13.812  1.00  0.00     0.043 A 
HETATM   23  H7  UNL     1      13.844  35.068  14.011  1.00  0.00     0.166 HD
HETATM   24  C8  UNL     1      16.311  34.474  12.672  1.00  0.00     0.030 A 
HETATM   25  C12 UNL     1      16.888  35.871  14.611  1.00  0.00    -0.000 A 
HETATM   26  C9  UNL     1      17.665  34.430  12.331  1.00  0.00     0.002 A 
HETATM   27  C10 UNL     1      18.620  35.089  13.100  1.00  0.00     0.001 A 
HETATM   28  C11 UNL     1      18.247  35.812  14.239  1.00  0.00     0.014 A 
HETATM   29  C13 UNL     1      16.174  36.488  15.695  1.00  0.00    -0.011 A 
BRANCH  29  30
HETATM   30  C14 UNL     1      16.769  37.318  16.791  1.00  0.00     0.051 C 
BRANCH  30  31
HETATM   31  C15 UNL     1      17.010  38.761  16.356  1.00  0.00     0.107 C 
BRANCH  31  32
HETATM   32  C16 UNL     1      15.708  39.509  16.189  1.00  0.00     0.215 C 
HETATM   33  N3  UNL     1      15.084  39.817  17.365  1.00  0.00    -0.370 N 
HETATM   34  H16 UNL     1      14.191  40.290  17.313  1.00  0.00     0.159 HD
HETATM   35  H17 UNL     1      15.409  39.490  18.264  1.00  0.00     0.159 HD
HETATM   36  O2  UNL     1      15.229  39.850  15.116  1.00  0.00    -0.274 OA
ENDBRANCH  31  32
ENDBRANCH  30  31
ENDBRANCH  29  30
ENDBRANCH  19  20
ENDBRANCH   1  19
TORSDOF 9
ENDMDL
MODEL 3
REMARK minimizedAffinity -7.40376806
REMARK  9 active torsions:
REMARK  status: ('A' for Active; 'I' for Inactive)
REMARK       I    between atoms: N1_1  and  C1_2 
REMARK    1  A    between atoms: C1_2  and  C2_4 
REMARK    2  A    between atoms: C2_4  and  C3_5 
REMARK    3  A    between atoms: C3_5  and  C4_6 
REMARK    4  A    between atoms: C5_7  and  S1_8 
REMARK    5  A    between atoms: S1_8  and  S2_9 
REMARK    6  A    between atoms: S2_9  and  C6_10 
REMARK    7  A    between atoms: C13_18  and  C14_19 
REMARK    8  A    between atoms: C14_19  and  C15_20 
REMARK    9  A    between atoms: C15_20  and  C16_21 
REMARK       I    between atoms: C16_21  and  N3_22 
ROOT
HETATM    1  S1  UNL     1      13.535  36.498  16.323  1.00  0.00    -0.032 SA
ENDROOT
BRANCH   1   2
HETATM    2  C5  UNL     1      14.923  36.170  15.339  1.00  0.00     0.088 A 
HETATM    3  C4  UNL     1      16.247  36.554  15.408  1.00  0.00    -0.011 A 
HETATM    4  C22 UNL     1      16.915  35.880  14.329  1.00  0.00    -0.000 A 
HETATM    5  C17 UNL     1      15.960  35.128  13.641  1.00  0.00     0.043 A 
HETATM    6  C21 UNL     1      18.250  35.831  13.881  1.00  0.00     0.014 A 
HETATM    7  N4  UNL     1      14.754  35.350  14.259  1.00  0.00    -0.349 N 
HETATM    8  C18 UNL     1      16.272  34.324  12.539  1.00  0.00     0.030 A 
HETATM    9  H18 UNL     1      13.879  34.913  14.001  1.00  0.00     0.166 HD
HETATM   10  C19 UNL     1      17.605  34.291  12.120  1.00  0.00     0.002 A 
HETATM   11  C20 UNL     1      18.581  35.034  12.778  1.00  0.00     0.001 A 
BRANCH   3  12
HETATM   12  C3  UNL     1      16.879  37.471  16.414  1.00  0.00     0.051 C 
BRANCH  12  13
HETATM   13  C2  UNL     1      17.186  38.849  15.838  1.00  0.00     0.107 C 
BRANCH  13  14
HETATM   14  C1  UNL     1      15.915  39.600  15.513  1.00  0.00     0.215 C 
HETATM   15  N1  UNL     1      15.151  39.949  16.590  1.00  0.00    -0.370 N 
HETATM   16  H1  UNL     1      15.207  39.417  17.448  1.00  0.00     0.159 HD
HETATM   17  H2  UNL     1      14.251  40.357  16.366  1.00  0.00     0.159 HD
HETATM   18  O1  UNL     1      15.587  39.918  14.373  1.00  0.00    -0.274 OA
ENDBRANCH  13  14
ENDBRANCH  12  13
ENDBRANCH   3  12
ENDBRANCH   1   2
BRANCH   1  19
HETATM   19  S2  UNL     1      13.439  34.713  17.349  1.00  0.00    -0.032 SA
BRANCH  19  20
HETATM   20  C6  UNL     1      11.888  34.916  18.098  1.00  0.00     0.088 A 
HETATM   21  N2  UNL     1      10.917  35.566  17.390  1.00  0.00    -0.349 N 
HETATM   22  C7  UNL     1       9.791  35.715  18.162  1.00  0.00     0.043 A 
HETATM   23  H7  UNL     1      11.039  35.939  16.458  1.00  0.00     0.166 HD
HETATM   24  C8  UNL     1       8.583  36.363  17.878  1.00  0.00     0.030 A 
HETATM   25  C12 UNL     1      10.039  35.066  19.374  1.00  0.00    -0.000 A 
HETATM   26  C9  UNL     1       7.590  36.339  18.861  1.00  0.00     0.002 A 
HETATM   27  C10 UNL     1       7.801  35.692  20.077  1.00  0.00     0.001 A 
HETATM   28  C11 UNL     1       9.017  35.053  20.346  1.00  0.00     0.014 A 
HETATM   29  C13 UNL     1      11.375  34.540  19.323  1.00  0.00    -0.011 A 
BRANCH  29  30
HETATM   30  C14 UNL     1      12.063  33.756  20.400  1.00  0.00     0.051 C 
BRANCH  30  31
HETATM   31  C15 UNL     1      13.043  34.612  21.198  1.00  0.00     0.107 C 
BRANCH  31  32
HETATM   32  C16 UNL     1      12.319  35.555  22.128  1.00  0.00     0.215 C 
HETATM   33  N3  UNL     1      12.575  36.878  21.896  1.00  0.00    -0.370 N 
HETATM   34  H16 UNL     1      12.142  37.554  22.511  1.00  0.00     0.159 HD
HETATM   35  H17 UNL     1      13.262  37.198  21.228  1.00  0.00     0.159 HD
HETATM   36  O2  UNL     1      11.545  35.211  23.011  1.00  0.00    -0.274 OA
ENDBRANCH  31  32
ENDBRANCH  30  31
ENDBRANCH  29  30
ENDBRANCH  19  20
ENDBRANCH   1  19
TORSDOF 9
ENDMDL
MODEL 4
REMARK minimizedAffinity -7.28532934
REMARK  9 active torsions:
REMARK  status: ('A' for Active; 'I' for Inactive)
REMARK       I    between atoms: N1_1  and  C1_2 
REMARK    1  A    between atoms: C1_2  and  C2_4 
REMARK    2  A    between atoms: C2_4  and  C3_5 
REMARK    3  A    between atoms: C3_5  and  C4_6 
REMARK    4  A    between atoms: C5_7  and  S1_8 
REMARK    5  A    between atoms: S1_8  and  S2_9 
REMARK    6  A    between atoms: S2_9  and  C6_10 
REMARK    7  A    between atoms: C13_18  and  C14_19 
REMARK    8  A    between atoms: C14_19  and  C15_20 
REMARK    9  A    between atoms: C15_20  and  C16_21 
REMARK       I    between atoms: C16_21  and  N3_22 
ROOT
HETATM    1  S1  UNL     1      13.556  36.266  16.608  1.00  0.00    -0.032 SA
ENDROOT
BRANCH   1   2
HETATM    2  C5  UNL     1      14.930  35.806  15.655  1.00  0.00     0.088 A 
HETATM    3  C4  UNL     1      16.279  35.700  15.926  1.00  0.00    -0.011 A 
HETATM    4  C22 UNL     1      16.887  35.192  14.727  1.00  0.00    -0.000 A 
HETATM    5  C17 UNL     1      15.880  35.028  13.775  1.00  0.00     0.043 A 
HETATM    6  C21 UNL     1      18.205  34.844  14.369  1.00  0.00     0.014 A 
HETATM    7  N4  UNL     1      14.706  35.440  14.358  1.00  0.00    -0.349 N 
HETATM    8  C18 UNL     1      16.118  34.525  12.490  1.00  0.00     0.030 A 
HETATM    9  H18 UNL     1      13.796  35.407  13.919  1.00  0.00     0.166 HD
HETATM   10  C19 UNL     1      17.434  34.184  12.165  1.00  0.00     0.002 A 
HETATM   11  C20 UNL     1      18.464  34.342  13.087  1.00  0.00     0.001 A 
BRANCH   3  12
HETATM   12  C3  UNL     1      16.979  36.025  17.212  1.00  0.00     0.051 C 
BRANCH  12  13
HETATM   13  C2  UNL     1      17.035  34.835  18.165  1.00  0.00     0.107 C 
BRANCH  13  14
HETATM   14  C1  UNL     1      16.242  35.106  19.423  1.00  0.00     0.215 C 
HETATM   15  N1  UNL     1      15.938  36.418  19.652  1.00  0.00    -0.370 N 
HETATM   16  H1  UNL     1      16.518  37.150  19.264  1.00  0.00     0.159 HD
HETATM   17  H2  UNL     1      15.502  36.610  20.545  1.00  0.00     0.159 HD
HETATM   18  O1  UNL     1      15.855  34.224  20.185  1.00  0.00    -0.274 OA
ENDBRANCH  13  14
ENDBRANCH  12  13
ENDBRANCH   3  12
ENDBRANCH   1   2
BRANCH   1  19
HETATM   19  S2  UNL     1      13.224  34.476  17.575  1.00  0.00    -0.032 SA
BRANCH  19  20
HETATM   20  C6  UNL     1      11.691  34.844  18.299  1.00  0.00     0.088 A 
HETATM   21  N2  UNL     1      10.721  35.383  17.503  1.00  0.00    -0.349 N 
HETATM   22  C7  UNL     1       9.613  35.691  18.253  1.00  0.00     0.043 A 
HETATM   23  H7  UNL     1      10.834  35.585  16.519  1.00  0.00     0.166 HD
HETATM   24  C8  UNL     1       8.413  36.308  17.877  1.00  0.00     0.030 A 
HETATM   25  C12 UNL     1       9.869  35.257  19.556  1.00  0.00    -0.000 A 
HETATM   26  C9  UNL     1       7.438  36.478  18.863  1.00  0.00     0.002 A 
HETATM   27  C10 UNL     1       7.657  36.049  20.170  1.00  0.00     0.001 A 
HETATM   28  C11 UNL     1       8.865  35.438  20.529  1.00  0.00     0.014 A 
HETATM   29  C13 UNL     1      11.193  34.699  19.579  1.00  0.00    -0.011 A 
BRANCH  29  30
HETATM   30  C14 UNL     1      11.884  34.099  20.765  1.00  0.00     0.051 C 
BRANCH  30  31
HETATM   31  C15 UNL     1      12.602  35.151  21.606  1.00  0.00     0.107 C 
BRANCH  31  32
HETATM   32  C16 UNL     1      12.407  36.537  21.038  1.00  0.00     0.215 C 
HETATM   33  N3  UNL     1      11.455  37.278  21.682  1.00  0.00    -0.370 N 
HETATM   34  H16 UNL     1      11.259  38.203  21.322  1.00  0.00     0.159 HD
HETATM   35  H17 UNL     1      10.864  36.904  22.410  1.00  0.00     0.159 HD
HETATM   36  O2  UNL     1      13.038  37.004  20.099  1.00  0.00    -0.274 OA
ENDBRANCH  31  32
ENDBRANCH  30  31
ENDBRANCH  29  30
ENDBRANCH  19  20
ENDBRANCH   1  19
TORSDOF 9
ENDMDL
MODEL 5
REMARK minimizedAffinity -7.22851515
REMARK  9 active torsions:
REMARK  status: ('A' for Active; 'I' for Inactive)
REMARK       I    between atoms: N1_1  and  C1_2 
REMARK    1  A    between atoms: C1_2  and  C2_4 
REMARK    2  A    between atoms: C2_4  and  C3_5 
REMARK    3  A    between atoms: C3_5  and  C4_6 
REMARK    4  A    between atoms: C5_7  and  S1_8 
REMARK    5  A    between atoms: S1_8  and  S2_9 
REMARK    6  A    between atoms: S2_9  and  C6_10 
REMARK    7  A    between atoms: C13_18  and  C14_19 
REMARK    8  A    between atoms: C14_19  and  C15_20 
REMARK    9  A    between atoms: C15_20  and  C16_21 
REMARK       I    between atoms: C16_21  and  N3_22 
ROOT
HETATM    1  S1  UNL     1      17.151  49.575   4.681  1.00  0.00    -0.032 SA
ENDROOT
BRANCH   1   2
HETATM    2  C5  UNL     1      17.435  48.131   5.597  1.00  0.00     0.088 A 
HETATM    3  C4  UNL     1      16.847  46.882   5.605  1.00  0.00    -0.011 A 
HETATM    4  C22 UNL     1      17.594  46.096   6.547  1.00  0.00    -0.000 A 
HETATM    5  C17 UNL     1      18.594  46.909   7.083  1.00  0.00     0.043 A 
HETATM    6  C21 UNL     1      17.518  44.758   6.985  1.00  0.00     0.014 A 
HETATM    7  N4  UNL     1      18.452  48.150   6.510  1.00  0.00    -0.349 N 
HETATM    8  C18 UNL     1      19.526  46.455   8.023  1.00  0.00     0.030 A 
HETATM    9  H18 UNL     1      19.056  48.942   6.680  1.00  0.00     0.166 HD
HETATM   10  C19 UNL     1      19.430  45.123   8.435  1.00  0.00     0.002 A 
HETATM   11  C20 UNL     1      18.440  44.286   7.927  1.00  0.00     0.001 A 
BRANCH   3  12
HETATM   12  C3  UNL     1      15.679  46.419   4.785  1.00  0.00     0.051 C 
BRANCH  12  13
HETATM   13  C2  UNL     1      16.102  45.572   3.589  1.00  0.00     0.107 C 
BRANCH  13  14
HETATM   14  C1  UNL     1      15.196  45.812   2.403  1.00  0.00     0.215 C 
HETATM   15  N1  UNL     1      15.523  46.887   1.626  1.00  0.00    -0.370 N 
HETATM   16  H1  UNL     1      16.040  47.661   2.020  1.00  0.00     0.159 HD
HETATM   17  H2  UNL     1      14.857  47.109   0.896  1.00  0.00     0.159 HD
HETATM   18  O1  UNL     1      14.248  45.086   2.115  1.00  0.00    -0.274 OA
ENDBRANCH  13  14
ENDBRANCH  12  13
ENDBRANCH   3  12
ENDBRANCH   1   2
BRANCH   1  19
HETATM   19  S2  UNL     1      18.076  50.932   5.928  1.00  0.00    -0.032 SA
BRANCH  19  20
HETATM   20  C6  UNL     1      17.250  52.370   5.420  1.00  0.00     0.088 A 
HETATM   21  N2  UNL     1      15.897  52.427   5.600  1.00  0.00    -0.349 N 
HETATM   22  C7  UNL     1      15.399  53.589   5.064  1.00  0.00     0.043 A 
HETATM   23  H7  UNL     1      15.341  51.688   6.009  1.00  0.00     0.166 HD
HETATM   24  C8  UNL     1      14.078  54.043   4.965  1.00  0.00     0.030 A 
HETATM   25  C12 UNL     1      16.492  54.324   4.598  1.00  0.00    -0.000 A 
HETATM   26  C9  UNL     1      13.867  55.294   4.379  1.00  0.00     0.002 A 
HETATM   27  C10 UNL     1      14.935  56.056   3.912  1.00  0.00     0.001 A 
HETATM   28  C11 UNL     1      16.249  55.585   4.016  1.00  0.00     0.014 A 
HETATM   29  C13 UNL     1      17.677  53.549   4.843  1.00  0.00    -0.011 A 
BRANCH  29  30
HETATM   30  C14 UNL     1      19.084  53.950   4.518  1.00  0.00     0.051 C 
BRANCH  30  31
HETATM   31  C15 UNL     1      19.744  54.714   5.662  1.00  0.00     0.107 C 
BRANCH  31  32
HETATM   32  C16 UNL     1      18.885  54.695   6.904  1.00  0.00     0.215 C 
HETATM   33  N3  UNL     1      19.265  53.770   7.835  1.00  0.00    -0.370 N 
HETATM   34  H16 UNL     1      18.705  53.690   8.674  1.00  0.00     0.159 HD
HETATM   35  H17 UNL     1      19.994  53.090   7.671  1.00  0.00     0.159 HD
HETATM   36  O2  UNL     1      17.936  55.440   7.110  1.00  0.00    -0.274 OA
ENDBRANCH  31  32
ENDBRANCH  30  31
ENDBRANCH  29  30
ENDBRANCH  19  20
ENDBRANCH   1  19
TORSDOF 9
ENDMDL
MODEL 6
REMARK minimizedAffinity -7.05869675
REMARK  9 active torsions:
REMARK  status: ('A' for Active; 'I' for Inactive)
REMARK       I    between atoms: N1_1  and  C1_2 
REMARK    1  A    between atoms: C1_2  and  C2_4 
REMARK    2  A    between atoms: C2_4  and  C3_5 
REMARK    3  A    between atoms: C3_5  and  C4_6 
REMARK    4  A    between atoms: C5_7  and  S1_8 
REMARK    5  A    between atoms: S1_8  and  S2_9 
REMARK    6  A    between atoms: S2_9  and  C6_10 
REMARK    7  A    between atoms: C13_18  and  C14_19 
REMARK    8  A    between atoms: C14_19  and  C15_20 
REMARK    9  A    between atoms: C15_20  and  C16_21 
REMARK       I    between atoms: C16_21  and  N3_22 
ROOT
HETATM    1  S1  UNL     1      14.819  59.335   7.159  1.00  0.00    -0.032 SA
ENDROOT
BRANCH   1   2
HETATM    2  C5  UNL     1      14.732  58.576   8.715  1.00  0.00     0.088 A 
HETATM    3  C4  UNL     1      13.686  58.265   9.561  1.00  0.00    -0.011 A 
HETATM    4  C22 UNL     1      14.268  57.569  10.675  1.00  0.00    -0.000 A 
HETATM    5  C17 UNL     1      15.647  57.505  10.464  1.00  0.00     0.043 A 
HETATM    6  C21 UNL     1      13.745  56.977  11.842  1.00  0.00     0.014 A 
HETATM    7  N4  UNL     1      15.902  58.154   9.280  1.00  0.00    -0.349 N 
HETATM    8  C18 UNL     1      16.526  56.872  11.350  1.00  0.00     0.030 A 
HETATM    9  H18 UNL     1      16.812  58.242   8.850  1.00  0.00     0.166 HD
HETATM   10  C19 UNL     1      15.978  56.288  12.496  1.00  0.00     0.002 A 
HETATM   11  C20 UNL     1      14.609  56.341  12.742  1.00  0.00     0.001 A 
BRANCH   3  12
HETATM   12  C3  UNL     1      12.230  58.565   9.359  1.00  0.00     0.051 C 
BRANCH  12  13
HETATM   13  C2  UNL     1      11.862  59.985   9.777  1.00  0.00     0.107 C 
BRANCH  13  14
HETATM   14  C1  UNL     1      10.408  60.280   9.484  1.00  0.00     0.215 C 
HETATM   15  N1  UNL     1       9.935  59.774   8.307  1.00  0.00    -0.370 N 
HETATM   16  H1  UNL     1      10.568  59.590   7.540  1.00  0.00     0.159 HD
HETATM   17  H2  UNL     1       8.995  60.061   8.061  1.00  0.00     0.159 HD
HETATM   18  O1  UNL     1       9.673  60.898  10.250  1.00  0.00    -0.274 OA
ENDBRANCH  13  14
ENDBRANCH  12  13
ENDBRANCH   3  12
ENDBRANCH   1   2
BRANCH   1  19
HETATM   19  S2  UNL     1      15.422  57.709   6.044  1.00  0.00    -0.032 SA
BRANCH  19  20
HETATM   20  C6  UNL     1      14.723  58.154   4.520  1.00  0.00     0.088 A 
HETATM   21  N2  UNL     1      14.448  59.475   4.305  1.00  0.00    -0.349 N 
HETATM   22  C7  UNL     1      13.821  59.634   3.094  1.00  0.00     0.043 A 
HETATM   23  H7  UNL     1      14.622  60.213   4.974  1.00  0.00     0.166 HD
HETATM   24  C8  UNL     1      13.307  60.789   2.490  1.00  0.00     0.030 A 
HETATM   25  C12 UNL     1      13.771  58.375   2.492  1.00  0.00    -0.000 A 
HETATM   26  C9  UNL     1      12.732  60.653   1.224  1.00  0.00     0.002 A 
HETATM   27  C10 UNL     1      12.673  59.414   0.592  1.00  0.00     0.001 A 
HETATM   28  C11 UNL     1      13.188  58.269   1.212  1.00  0.00     0.014 A 
HETATM   29  C13 UNL     1      14.365  57.432   3.400  1.00  0.00    -0.011 A 
BRANCH  29  30
HETATM   30  C14 UNL     1      14.538  55.962   3.166  1.00  0.00     0.051 C 
BRANCH  30  31
HETATM   31  C15 UNL     1      13.884  55.124   4.261  1.00  0.00     0.107 C 
BRANCH  31  32
HETATM   32  C16 UNL     1      14.858  54.130   4.848  1.00  0.00     0.215 C 
HETATM   33  N3  UNL     1      14.284  53.202   5.671  1.00  0.00    -0.370 N 
HETATM   34  H16 UNL     1      14.895  52.531   6.119  1.00  0.00     0.159 HD
HETATM   35  H17 UNL     1      13.312  53.232   5.944  1.00  0.00     0.159 HD
HETATM   36  O2  UNL     1      16.060  54.108   4.618  1.00  0.00    -0.274 OA
ENDBRANCH  31  32
ENDBRANCH  30  31
ENDBRANCH  29  30
ENDBRANCH  19  20
ENDBRANCH   1  19
TORSDOF 9
ENDMDL
MODEL 7
REMARK minimizedAffinity -6.99717426
REMARK  9 active torsions:
REMARK  status: ('A' for Active; 'I' for Inactive)
REMARK       I    between atoms: N1_1  and  C1_2 
REMARK    1  A    between atoms: C1_2  and  C2_4 
REMARK    2  A    between atoms: C2_4  and  C3_5 
REMARK    3  A    between atoms: C3_5  and  C4_6 
REMARK    4  A    between atoms: C5_7  and  S1_8 
REMARK    5  A    between atoms: S1_8  and  S2_9 
REMARK    6  A    between atoms: S2_9  and  C6_10 
REMARK    7  A    between atoms: C13_18  and  C14_19 
REMARK    8  A    between atoms: C14_19  and  C15_20 
REMARK    9  A    between atoms: C15_20  and  C16_21 
REMARK       I    between atoms: C16_21  and  N3_22 
ROOT
HETATM    1  S1  UNL     1      12.912  35.731  16.967  1.00  0.00    -0.032 SA
ENDROOT
BRANCH   1   2
HETATM    2  C5  UNL     1      11.472  35.537  17.913  1.00  0.00     0.088 A 
HETATM    3  C4  UNL     1      11.161  34.773  19.019  1.00  0.00    -0.011 A 
HETATM    4  C22 UNL     1       9.813  35.120  19.377  1.00  0.00    -0.000 A 
HETATM    5  C17 UNL     1       9.360  36.069  18.459  1.00  0.00     0.043 A 
HETATM    6  C21 UNL     1       8.939  34.721  20.408  1.00  0.00     0.014 A 
HETATM    7  N4  UNL     1      10.379  36.279  17.562  1.00  0.00    -0.349 N 
HETATM    8  C18 UNL     1       8.086  36.647  18.524  1.00  0.00     0.030 A 
HETATM    9  H18 UNL     1      10.355  36.940  16.798  1.00  0.00     0.166 HD
HETATM   10  C19 UNL     1       7.243  36.235  19.560  1.00  0.00     0.002 A 
HETATM   11  C20 UNL     1       7.660  35.285  20.487  1.00  0.00     0.001 A 
BRANCH   3  12
HETATM   12  C3  UNL     1      12.047  33.792  19.729  1.00  0.00     0.051 C 
BRANCH  12  13
HETATM   13  C2  UNL     1      12.511  34.300  21.090  1.00  0.00     0.107 C 
BRANCH  13  14
HETATM   14  C1  UNL     1      13.991  34.608  21.081  1.00  0.00     0.215 C 
HETATM   15  N1  UNL     1      14.729  33.904  20.174  1.00  0.00    -0.370 N 
HETATM   16  H1  UNL     1      14.409  33.003  19.846  1.00  0.00     0.159 HD
HETATM   17  H2  UNL     1      15.732  34.032  20.241  1.00  0.00     0.159 HD
HETATM   18  O1  UNL     1      14.512  35.453  21.804  1.00  0.00    -0.274 OA
ENDBRANCH  13  14
ENDBRANCH  12  13
ENDBRANCH   3  12
ENDBRANCH   1   2
BRANCH   1  19
HETATM   19  S2  UNL     1      13.952  36.995  18.220  1.00  0.00    -0.032 SA
BRANCH  19  20
HETATM   20  C6  UNL     1      14.823  37.900  17.026  1.00  0.00     0.088 A 
HETATM   21  N2  UNL     1      14.973  39.243  17.225  1.00  0.00    -0.349 N 
HETATM   22  C7  UNL     1      15.605  39.813  16.147  1.00  0.00     0.043 A 
HETATM   23  H7  UNL     1      14.609  39.749  18.022  1.00  0.00     0.166 HD
HETATM   24  C8  UNL     1      15.913  41.154  15.888  1.00  0.00     0.030 A 
HETATM   25  C12 UNL     1      15.934  38.775  15.272  1.00  0.00    -0.000 A 
HETATM   26  C9  UNL     1      16.589  41.444  14.700  1.00  0.00     0.002 A 
HETATM   27  C10 UNL     1      16.940  40.431  13.810  1.00  0.00     0.001 A 
HETATM   28  C11 UNL     1      16.619  39.096  14.083  1.00  0.00     0.014 A 
HETATM   29  C13 UNL     1      15.448  37.550  15.845  1.00  0.00    -0.011 A 
BRANCH  29  30
HETATM   30  C14 UNL     1      15.587  36.178  15.258  1.00  0.00     0.051 C 
BRANCH  30  31
HETATM   31  C15 UNL     1      17.047  35.752  15.131  1.00  0.00     0.107 C 
BRANCH  31  32
HETATM   32  C16 UNL     1      17.361  35.275  13.733  1.00  0.00     0.215 C 
HETATM   33  N3  UNL     1      16.294  35.302  12.879  1.00  0.00    -0.370 N 
HETATM   34  H16 UNL     1      16.439  34.962  11.937  1.00  0.00     0.159 HD
HETATM   35  H17 UNL     1      15.355  35.527  13.175  1.00  0.00     0.159 HD
HETATM   36  O2  UNL     1      18.463  34.908  13.349  1.00  0.00    -0.274 OA
ENDBRANCH  31  32
ENDBRANCH  30  31
ENDBRANCH  29  30
ENDBRANCH  19  20
ENDBRANCH   1  19
TORSDOF 9
ENDMDL
MODEL 8
REMARK minimizedAffinity -6.93500328
REMARK  9 active torsions:
REMARK  status: ('A' for Active; 'I' for Inactive)
REMARK       I    between atoms: N1_1  and  C1_2 
REMARK    1  A    between atoms: C1_2  and  C2_4 
REMARK    2  A    between atoms: C2_4  and  C3_5 
REMARK    3  A    between atoms: C3_5  and  C4_6 
REMARK    4  A    between atoms: C5_7  and  S1_8 
REMARK    5  A    between atoms: S1_8  and  S2_9 
REMARK    6  A    between atoms: S2_9  and  C6_10 
REMARK    7  A    between atoms: C13_18  and  C14_19 
REMARK    8  A    between atoms: C14_19  and  C15_20 
REMARK    9  A    between atoms: C15_20  and  C16_21 
REMARK       I    between atoms: C16_21  and  N3_22 
ROOT
HETATM    1  S1  UNL     1      14.987  59.223   4.079  1.00  0.00    -0.032 SA
ENDROOT
BRANCH   1   2
HETATM    2  C5  UNL     1      14.410  58.380   2.678  1.00  0.00     0.088 A 
HETATM    3  C4  UNL     1      14.376  57.047   2.322  1.00  0.00    -0.011 A 
HETATM    4  C22 UNL     1      13.697  56.991   1.056  1.00  0.00    -0.000 A 
HETATM    5  C17 UNL     1      13.366  58.297   0.692  1.00  0.00     0.043 A 
HETATM    6  C21 UNL     1      13.324  55.943   0.190  1.00  0.00     0.014 A 
HETATM    7  N4  UNL     1      13.841  59.122   1.683  1.00  0.00    -0.349 N 
HETATM    8  C18 UNL     1      12.673  58.610  -0.483  1.00  0.00     0.030 A 
HETATM    9  H18 UNL     1      13.722  60.126   1.710  1.00  0.00     0.166 HD
HETATM   10  C19 UNL     1      12.312  57.551  -1.321  1.00  0.00     0.002 A 
HETATM   11  C20 UNL     1      12.633  56.237  -0.992  1.00  0.00     0.001 A 
BRANCH   3  12
HETATM   12  C3  UNL     1      14.912  55.881   3.098  1.00  0.00     0.051 C 
BRANCH  12  13
HETATM   13  C2  UNL     1      13.883  55.294   4.058  1.00  0.00     0.107 C 
BRANCH  13  14
HETATM   14  C1  UNL     1      14.553  54.645   5.247  1.00  0.00     0.215 C 
HETATM   15  N1  UNL     1      14.173  53.358   5.503  1.00  0.00    -0.370 N 
HETATM   16  H1  UNL     1      13.267  53.026   5.203  1.00  0.00     0.159 HD
HETATM   17  H2  UNL     1      14.542  52.961   6.359  1.00  0.00     0.159 HD
HETATM   18  O1  UNL     1      15.410  55.200   5.930  1.00  0.00    -0.274 OA
ENDBRANCH  13  14
ENDBRANCH  12  13
ENDBRANCH   3  12
ENDBRANCH   1   2
BRANCH   1  19
HETATM   19  S2  UNL     1      13.216  59.350   5.128  1.00  0.00    -0.032 SA
BRANCH  19  20
HETATM   20  C6  UNL     1      12.980  61.066   5.048  1.00  0.00     0.088 A 
HETATM   21  N2  UNL     1      13.755  61.778   4.177  1.00  0.00    -0.349 N 
HETATM   22  C7  UNL     1      13.500  63.121   4.308  1.00  0.00     0.043 A 
HETATM   23  H7  UNL     1      14.460  61.375   3.575  1.00  0.00     0.166 HD
HETATM   24  C8  UNL     1      14.093  64.218   3.671  1.00  0.00     0.030 A 
HETATM   25  C12 UNL     1      12.469  63.251   5.243  1.00  0.00    -0.000 A 
HETATM   26  C9  UNL     1      13.610  65.490   3.991  1.00  0.00     0.002 A 
HETATM   27  C10 UNL     1      12.577  65.654   4.912  1.00  0.00     0.001 A 
HETATM   28  C11 UNL     1      11.999  64.546   5.543  1.00  0.00     0.014 A 
HETATM   29  C13 UNL     1      12.127  61.933   5.701  1.00  0.00    -0.011 A 
BRANCH  29  30
HETATM   30  C14 UNL     1      11.064  61.588   6.700  1.00  0.00     0.051 C 
BRANCH  30  31
HETATM   31  C15 UNL     1      11.647  61.004   7.983  1.00  0.00     0.107 C 
BRANCH  31  32
HETATM   32  C16 UNL     1      11.200  59.576   8.191  1.00  0.00     0.215 C 
HETATM   33  N3  UNL     1       9.920  59.324   7.781  1.00  0.00    -0.370 N 
HETATM   34  H16 UNL     1       9.557  58.391   7.926  1.00  0.00     0.159 HD
HETATM   35  H17 UNL     1       9.292  60.046   7.458  1.00  0.00     0.159 HD
HETATM   36  O2  UNL     1      11.896  58.686   8.660  1.00  0.00    -0.274 OA
ENDBRANCH  31  32
ENDBRANCH  30  31
ENDBRANCH  29  30
ENDBRANCH  19  20
ENDBRANCH   1  19
TORSDOF 9
ENDMDL
MODEL 9
REMARK minimizedAffinity -6.92725182
REMARK  9 active torsions:
REMARK  status: ('A' for Active; 'I' for Inactive)
REMARK       I    between atoms: N1_1  and  C1_2 
REMARK    1  A    between atoms: C1_2  and  C2_4 
REMARK    2  A    between atoms: C2_4  and  C3_5 
REMARK    3  A    between atoms: C3_5  and  C4_6 
REMARK    4  A    between atoms: C5_7  and  S1_8 
REMARK    5  A    between atoms: S1_8  and  S2_9 
REMARK    6  A    between atoms: S2_9  and  C6_10 
REMARK    7  A    between atoms: C13_18  and  C14_19 
REMARK    8  A    between atoms: C14_19  and  C15_20 
REMARK    9  A    between atoms: C15_20  and  C16_21 
REMARK       I    between atoms: C16_21  and  N3_22 
ROOT
HETATM    1  S1  UNL     1      18.262  50.788   5.663  1.00  0.00    -0.032 SA
ENDROOT
BRANCH   1   2
HETATM    2  C5  UNL     1      17.414  52.256   5.299  1.00  0.00     0.088 A 
HETATM    3  C4  UNL     1      17.814  53.488   4.823  1.00  0.00    -0.011 A 
HETATM    4  C22 UNL     1      16.613  54.262   4.665  1.00  0.00    -0.000 A 
HETATM    5  C17 UNL     1      15.538  53.469   5.069  1.00  0.00     0.043 A 
HETATM    6  C21 UNL     1      16.341  55.565   4.201  1.00  0.00     0.014 A 
HETATM    7  N4  UNL     1      16.060  52.266   5.480  1.00  0.00    -0.349 N 
HETATM    8  C18 UNL     1      14.209  53.904   5.025  1.00  0.00     0.030 A 
HETATM    9  H18 UNL     1      15.517  51.476   5.799  1.00  0.00     0.166 HD
HETATM   10  C19 UNL     1      13.969  55.199   4.556  1.00  0.00     0.002 A 
HETATM   11  C20 UNL     1      15.018  56.020   4.152  1.00  0.00     0.001 A 
BRANCH   3  12
HETATM   12  C3  UNL     1      19.211  53.936   4.509  1.00  0.00     0.051 C 
BRANCH  12  13
HETATM   13  C2  UNL     1      20.034  54.210   5.763  1.00  0.00     0.107 C 
BRANCH  13  14
HETATM   14  C1  UNL     1      19.313  55.159   6.692  1.00  0.00     0.215 C 
HETATM   15  N1  UNL     1      19.337  56.473   6.320  1.00  0.00    -0.370 N 
HETATM   16  H1  UNL     1      20.085  56.823   5.736  1.00  0.00     0.159 HD
HETATM   17  H2  UNL     1      18.947  57.120   6.994  1.00  0.00     0.159 HD
HETATM   18  O1  UNL     1      18.708  54.796   7.698  1.00  0.00    -0.274 OA
ENDBRANCH  13  14
ENDBRANCH  12  13
ENDBRANCH   3  12
ENDBRANCH   1   2
BRANCH   1  19
HETATM   19  S2  UNL     1      17.114  49.475   4.564  1.00  0.00    -0.032 SA
BRANCH  19  20
HETATM   20  C6  UNL     1      17.376  48.040   5.502  1.00  0.00     0.088 A 
HETATM   21  N2  UNL     1      18.432  48.026   6.368  1.00  0.00    -0.349 N 
HETATM   22  C7  UNL     1      18.542  46.791   6.957  1.00  0.00     0.043 A 
HETATM   23  H7  UNL     1      19.075  48.795   6.500  1.00  0.00     0.166 HD
HETATM   24  C8  UNL     1      19.499  46.304   7.856  1.00  0.00     0.030 A 
HETATM   25  C12 UNL     1      17.467  46.025   6.502  1.00  0.00    -0.000 A 
HETATM   26  C9  UNL     1      19.347  44.992   8.313  1.00  0.00     0.002 A 
HETATM   27  C10 UNL     1      18.281  44.203   7.886  1.00  0.00     0.001 A 
HETATM   28  C11 UNL     1      17.336  44.706   6.983  1.00  0.00     0.014 A 
HETATM   29  C13 UNL     1      16.712  46.832   5.584  1.00  0.00    -0.011 A 
BRANCH  29  30
HETATM   30  C14 UNL     1      15.466  46.424   4.859  1.00  0.00     0.051 C 
BRANCH  30  31
HETATM   31  C15 UNL     1      15.570  46.663   3.355  1.00  0.00     0.107 C 
BRANCH  31  32
HETATM   32  C16 UNL     1      15.329  45.391   2.578  1.00  0.00     0.215 C 
HETATM   33  N3  UNL     1      16.396  44.537   2.555  1.00  0.00    -0.370 N 
HETATM   34  H16 UNL     1      16.302  43.683   2.021  1.00  0.00     0.159 HD
HETATM   35  H17 UNL     1      17.300  44.774   2.939  1.00  0.00     0.159 HD
HETATM   36  O2  UNL     1      14.280  45.099   2.020  1.00  0.00    -0.274 OA
ENDBRANCH  31  32
ENDBRANCH  30  31
ENDBRANCH  29  30
ENDBRANCH  19  20
ENDBRANCH   1  19
TORSDOF 9
ENDMDL
