MODEL 1
REMARK minimizedAffinity -8.85007
REMARK  7 active torsions:
REMARK  status: ('A' for Active; 'I' for Inactive)
REMARK    1  A    between atoms: N1_2  and  C3_4 
REMARK    2  A    between atoms: C3_4  and  C4_5 
REMARK    3  A    between atoms: C4_5  and  C5_6 
REMARK    4  A    between atoms: C5_6  and  C6_7 
REMARK    5  A    between atoms: C7_8  and  C8_9 
REMARK    6  A    between atoms: C14_17  and  C15_18 
REMARK    7  A    between atoms: C15_18  and  O3_20 
ROOT
HETATM    1  C6  UNL     1      -0.229   6.393  12.869  1.00  0.00    -0.023 A 
HETATM    2  C7  UNL     1      -0.918   5.560  11.984  1.00  0.00     0.040 A 
HETATM    3  N3  UNL     1      -0.066   5.285  10.939  1.00  0.00    -0.359 N 
HETATM    4  C18 UNL     1       1.132   5.907  11.139  1.00  0.00     0.016 A 
HETATM    5  C19 UNL     1       1.073   6.597  12.328  1.00  0.00    -0.027 A 
HETATM    6  C20 UNL     1       2.223   7.400  12.839  1.00  0.00     0.041 C 
HETATM    7  C21 UNL     1       3.530   7.029  12.110  1.00  0.00     0.005 C 
HETATM    8  C22 UNL     1       3.329   6.900  10.588  1.00  0.00     0.006 C 
HETATM    9  C23 UNL     1       2.301   5.812  10.227  1.00  0.00     0.057 C 
HETATM   10  H19 UNL     1      -0.285   4.705  10.135  1.00  0.00     0.166 HD
ENDROOT
BRANCH   2  11
HETATM   11  C8  UNL     1      -2.239   5.030  12.054  1.00  0.00     0.048 C 
HETATM   12  C9  UNL     1      -2.686   3.793  11.777  1.00  0.00     0.047 A 
HETATM   13  C10 UNL     1      -1.961   2.556  11.300  1.00  0.00     0.257 A 
HETATM   14  C17 UNL     1      -4.106   3.407  11.907  1.00  0.00     0.007 A 
HETATM   15  O1  UNL     1      -0.775   2.414  11.066  1.00  0.00    -0.267 OA
HETATM   16  N2  UNL     1      -2.935   1.580  11.178  1.00  0.00    -0.322 N 
HETATM   17  C11 UNL     1      -4.187   2.063  11.531  1.00  0.00     0.046 A 
HETATM   18  H14 UNL     1      -2.727   0.640  10.875  1.00  0.00     0.169 HD
HETATM   19  C12 UNL     1      -5.373   1.357  11.528  1.00  0.00     0.031 A 
HETATM   20  C13 UNL     1      -6.527   2.039  11.923  1.00  0.00     0.020 A 
HETATM   21  C14 UNL     1      -6.469   3.397  12.309  1.00  0.00     0.038 A 
HETATM   22  C16 UNL     1      -5.247   4.090  12.302  1.00  0.00     0.033 A 
BRANCH  21  23
HETATM   23  C15 UNL     1      -7.734   4.055  12.718  1.00  0.00     0.176 C 
HETATM   24  O2  UNL     1      -7.953   5.252  12.696  1.00  0.00    -0.646 OA
BRANCH  23  25
HETATM   25  O3  UNL     1      -8.664   3.180  13.136  1.00  0.00    -0.773 OA
HETATM   26  H17 UNL     1      -9.435   3.741  13.365  1.00  0.00     0.167 HD
ENDBRANCH  23  25
ENDBRANCH  21  23
ENDBRANCH   2  11
BRANCH   1  27
HETATM   27  C5  UNL     1      -0.742   6.974  14.153  1.00  0.00     0.043 C 
BRANCH  27  28
HETATM   28  C4  UNL     1      -1.967   6.223  14.684  1.00  0.00     0.035 C 
BRANCH  28  29
HETATM   29  C3  UNL     1      -3.111   7.196  14.990  1.00  0.00     0.271 C 
BRANCH  29  30
HETATM   30  N1  UNL     1      -4.380   6.827  14.341  1.00  0.00     0.080 N 
HETATM   31  C1  UNL     1      -4.887   7.956  13.556  1.00  0.00     0.309 C 
HETATM   32  C2  UNL     1      -5.395   6.406  15.310  1.00  0.00     0.309 C 
ENDBRANCH  29  30
ENDBRANCH  28  29
ENDBRANCH  27  28
ENDBRANCH   1  27
TORSDOF 7
ENDMDL
MODEL 2
REMARK minimizedAffinity -8.71163559
REMARK  7 active torsions:
REMARK  status: ('A' for Active; 'I' for Inactive)
REMARK    1  A    between atoms: N1_2  and  C3_4 
REMARK    2  A    between atoms: C3_4  and  C4_5 
REMARK    3  A    between atoms: C4_5  and  C5_6 
REMARK    4  A    between atoms: C5_6  and  C6_7 
REMARK    5  A    between atoms: C7_8  and  C8_9 
REMARK    6  A    between atoms: C14_17  and  C15_18 
REMARK    7  A    between atoms: C15_18  and  O3_20 
ROOT
HETATM    1  C6  UNL     1       0.034   6.618  12.123  1.00  0.00    -0.023 A 
HETATM    2  C7  UNL     1      -0.863   6.130  13.076  1.00  0.00     0.040 A 
HETATM    3  N3  UNL     1      -0.293   6.334  14.312  1.00  0.00    -0.359 N 
HETATM    4  C18 UNL     1       0.923   6.939  14.169  1.00  0.00     0.016 A 
HETATM    5  C19 UNL     1       1.157   7.138  12.828  1.00  0.00    -0.027 A 
HETATM    6  C20 UNL     1       2.412   7.771  12.325  1.00  0.00     0.041 C 
HETATM    7  C21 UNL     1       3.162   8.499  13.459  1.00  0.00     0.005 C 
HETATM    8  C22 UNL     1       3.216   7.661  14.751  1.00  0.00     0.006 C 
HETATM    9  C23 UNL     1       1.811   7.336  15.292  1.00  0.00     0.057 C 
HETATM   10  H19 UNL     1      -0.706   6.080  15.203  1.00  0.00     0.166 HD
ENDROOT
BRANCH   2  11
HETATM   11  C8  UNL     1      -2.145   5.529  12.916  1.00  0.00     0.048 C 
HETATM   12  C9  UNL     1      -2.487   4.375  12.319  1.00  0.00     0.047 A 
HETATM   13  C10 UNL     1      -1.649   3.331  11.618  1.00  0.00     0.257 A 
HETATM   14  C17 UNL     1      -3.882   3.893  12.245  1.00  0.00     0.007 A 
HETATM   15  O1  UNL     1      -0.444   3.313  11.447  1.00  0.00    -0.267 OA
HETATM   16  N2  UNL     1      -2.543   2.363  11.193  1.00  0.00    -0.322 N 
HETATM   17  C11 UNL     1      -3.846   2.679  11.555  1.00  0.00     0.046 A 
HETATM   18  H14 UNL     1      -2.252   1.537  10.691  1.00  0.00     0.169 HD
HETATM   19  C12 UNL     1      -4.976   1.932  11.293  1.00  0.00     0.031 A 
HETATM   20  C13 UNL     1      -6.197   2.435  11.751  1.00  0.00     0.020 A 
HETATM   21  C14 UNL     1      -6.258   3.660  12.453  1.00  0.00     0.038 A 
HETATM   22  C16 UNL     1      -5.089   4.398  12.704  1.00  0.00     0.033 A 
BRANCH  21  23
HETATM   23  C15 UNL     1      -7.589   4.131  12.910  1.00  0.00     0.176 C 
HETATM   24  O2  UNL     1      -7.931   5.293  13.028  1.00  0.00    -0.646 OA
BRANCH  23  25
HETATM   25  O3  UNL     1      -8.426   3.121  13.199  1.00  0.00    -0.773 OA
HETATM   26  H17 UNL     1      -9.254   3.568  13.477  1.00  0.00     0.167 HD
ENDBRANCH  23  25
ENDBRANCH  21  23
ENDBRANCH   2  11
BRANCH   1  27
HETATM   27  C5  UNL     1      -0.133   6.609  10.632  1.00  0.00     0.043 C 
BRANCH  27  28
HETATM   28  C4  UNL     1       0.091   7.992  10.013  1.00  0.00     0.035 C 
BRANCH  28  29
HETATM   29  C3  UNL     1       0.754   7.870   8.636  1.00  0.00     0.271 C 
BRANCH  29  30
HETATM   30  N1  UNL     1       2.209   7.650   8.706  1.00  0.00     0.080 N 
HETATM   31  C1  UNL     1       2.902   8.612   7.845  1.00  0.00     0.309 C 
HETATM   32  C2  UNL     1       2.581   6.287   8.321  1.00  0.00     0.309 C 
ENDBRANCH  29  30
ENDBRANCH  28  29
ENDBRANCH  27  28
ENDBRANCH   1  27
TORSDOF 7
ENDMDL
MODEL 3
REMARK minimizedAffinity -8.67818832
REMARK  7 active torsions:
REMARK  status: ('A' for Active; 'I' for Inactive)
REMARK    1  A    between atoms: N1_2  and  C3_4 
REMARK    2  A    between atoms: C3_4  and  C4_5 
REMARK    3  A    between atoms: C4_5  and  C5_6 
REMARK    4  A    between atoms: C5_6  and  C6_7 
REMARK    5  A    between atoms: C7_8  and  C8_9 
REMARK    6  A    between atoms: C14_17  and  C15_18 
REMARK    7  A    between atoms: C15_18  and  O3_20 
ROOT
HETATM    1  C6  UNL     1      -0.345   6.743  12.618  1.00  0.00    -0.023 A 
HETATM    2  C7  UNL     1      -0.910   5.649  11.959  1.00  0.00     0.040 A 
HETATM    3  N3  UNL     1       0.073   5.103  11.165  1.00  0.00    -0.359 N 
HETATM    4  C18 UNL     1       1.232   5.809  11.307  1.00  0.00     0.016 A 
HETATM    5  C19 UNL     1       1.016   6.829  12.205  1.00  0.00    -0.027 A 
HETATM    6  C20 UNL     1       2.085   7.800  12.578  1.00  0.00     0.041 C 
HETATM    7  C21 UNL     1       3.478   7.281  12.168  1.00  0.00     0.005 C 
HETATM    8  C22 UNL     1       3.479   6.680  10.749  1.00  0.00     0.006 C 
HETATM    9  C23 UNL     1       2.511   5.489  10.622  1.00  0.00     0.057 C 
HETATM   10  H19 UNL     1      -0.036   4.294  10.561  1.00  0.00     0.166 HD
ENDROOT
BRANCH   2  11
HETATM   11  C8  UNL     1      -2.226   5.108  12.027  1.00  0.00     0.048 C 
HETATM   12  C9  UNL     1      -2.659   3.862  11.771  1.00  0.00     0.047 A 
HETATM   13  C10 UNL     1      -1.919   2.622  11.326  1.00  0.00     0.257 A 
HETATM   14  C17 UNL     1      -4.077   3.465  11.895  1.00  0.00     0.007 A 
HETATM   15  O1  UNL     1      -0.729   2.486  11.105  1.00  0.00    -0.267 OA
HETATM   16  N2  UNL     1      -2.882   1.635  11.215  1.00  0.00    -0.322 N 
HETATM   17  C11 UNL     1      -4.143   2.114  11.546  1.00  0.00     0.046 A 
HETATM   18  H14 UNL     1      -2.663   0.691  10.932  1.00  0.00     0.169 HD
HETATM   19  C12 UNL     1      -5.322   1.396  11.546  1.00  0.00     0.031 A 
HETATM   20  C13 UNL     1      -6.485   2.076  11.917  1.00  0.00     0.020 A 
HETATM   21  C14 UNL     1      -6.443   3.442  12.276  1.00  0.00     0.038 A 
HETATM   22  C16 UNL     1      -5.227   4.146  12.266  1.00  0.00     0.033 A 
BRANCH  21  23
HETATM   23  C15 UNL     1      -7.718   4.096  12.660  1.00  0.00     0.176 C 
HETATM   24  O2  UNL     1      -7.983   5.276  12.521  1.00  0.00    -0.646 OA
BRANCH  23  25
HETATM   25  O3  UNL     1      -8.600   3.239  13.203  1.00  0.00    -0.773 OA
HETATM   26  H17 UNL     1      -9.383   3.795  13.400  1.00  0.00     0.167 HD
ENDBRANCH  23  25
ENDBRANCH  21  23
ENDBRANCH   2  11
BRANCH   1  27
HETATM   27  C5  UNL     1      -1.024   7.669  13.584  1.00  0.00     0.043 C 
BRANCH  27  28
HETATM   28  C4  UNL     1      -1.151   7.059  14.983  1.00  0.00     0.035 C 
BRANCH  28  29
HETATM   29  C3  UNL     1       0.134   7.277  15.791  1.00  0.00     0.271 C 
BRANCH  29  30
HETATM   30  N1  UNL     1       0.587   8.679  15.797  1.00  0.00     0.080 N 
HETATM   31  C1  UNL     1       1.991   8.748  16.212  1.00  0.00     0.309 C 
HETATM   32  C2  UNL     1      -0.228   9.519  16.677  1.00  0.00     0.309 C 
ENDBRANCH  29  30
ENDBRANCH  28  29
ENDBRANCH  27  28
ENDBRANCH   1  27
TORSDOF 7
ENDMDL
MODEL 4
REMARK minimizedAffinity -8.6151371
REMARK  7 active torsions:
REMARK  status: ('A' for Active; 'I' for Inactive)
REMARK    1  A    between atoms: N1_2  and  C3_4 
REMARK    2  A    between atoms: C3_4  and  C4_5 
REMARK    3  A    between atoms: C4_5  and  C5_6 
REMARK    4  A    between atoms: C5_6  and  C6_7 
REMARK    5  A    between atoms: C7_8  and  C8_9 
REMARK    6  A    between atoms: C14_17  and  C15_18 
REMARK    7  A    between atoms: C15_18  and  O3_20 
ROOT
HETATM    1  C6  UNL     1      -7.834   7.124  14.807  1.00  0.00    -0.023 A 
HETATM    2  C7  UNL     1      -7.696   6.187  13.781  1.00  0.00     0.040 A 
HETATM    3  N3  UNL     1      -8.936   6.030  13.206  1.00  0.00    -0.359 N 
HETATM    4  C18 UNL     1      -9.844   6.838  13.828  1.00  0.00     0.016 A 
HETATM    5  C19 UNL     1      -9.197   7.538  14.821  1.00  0.00    -0.027 A 
HETATM    6  C20 UNL     1      -9.910   8.507  15.704  1.00  0.00     0.041 C 
HETATM    7  C21 UNL     1     -11.279   8.897  15.113  1.00  0.00     0.005 C 
HETATM    8  C22 UNL     1     -12.049   7.675  14.574  1.00  0.00     0.006 C 
HETATM    9  C23 UNL     1     -11.278   6.950  13.455  1.00  0.00     0.057 C 
HETATM   10  H19 UNL     1      -9.156   5.410  12.433  1.00  0.00     0.166 HD
ENDROOT
BRANCH   2  11
HETATM   11  C8  UNL     1      -6.547   5.479  13.324  1.00  0.00     0.048 C 
HETATM   12  C9  UNL     1      -6.439   4.225  12.855  1.00  0.00     0.047 A 
HETATM   13  C10 UNL     1      -7.476   3.144  12.655  1.00  0.00     0.257 A 
HETATM   14  C17 UNL     1      -5.154   3.641  12.416  1.00  0.00     0.007 A 
HETATM   15  O1  UNL     1      -8.672   3.188  12.877  1.00  0.00    -0.267 OA
HETATM   16  N2  UNL     1      -6.784   2.056  12.149  1.00  0.00    -0.322 N 
HETATM   17  C11 UNL     1      -5.432   2.335  12.004  1.00  0.00     0.046 A 
HETATM   18  H14 UNL     1      -7.237   1.185  11.918  1.00  0.00     0.169 HD
HETATM   19  C12 UNL     1      -4.462   1.478  11.526  1.00  0.00     0.031 A 
HETATM   20  C13 UNL     1      -3.153   1.964  11.460  1.00  0.00     0.020 A 
HETATM   21  C14 UNL     1      -2.849   3.282  11.869  1.00  0.00     0.038 A 
HETATM   22  C16 UNL     1      -3.858   4.132  12.353  1.00  0.00     0.033 A 
BRANCH  21  23
HETATM   23  C15 UNL     1      -1.437   3.729  11.770  1.00  0.00     0.176 C 
HETATM   24  O2  UNL     1      -0.575   3.215  11.083  1.00  0.00    -0.646 OA
BRANCH  23  25
HETATM   25  O3  UNL     1      -1.175   4.799  12.539  1.00  0.00    -0.773 OA
HETATM   26  H17 UNL     1      -0.226   4.986  12.374  1.00  0.00     0.167 HD
ENDBRANCH  23  25
ENDBRANCH  21  23
ENDBRANCH   2  11
BRANCH   1  27
HETATM   27  C5  UNL     1      -6.762   7.619  15.733  1.00  0.00     0.043 C 
BRANCH  27  28
HETATM   28  C4  UNL     1      -5.995   8.810  15.151  1.00  0.00     0.035 C 
BRANCH  28  29
HETATM   29  C3  UNL     1      -4.522   8.767  15.574  1.00  0.00     0.271 C 
BRANCH  29  30
HETATM   30  N1  UNL     1      -3.627   8.262  14.518  1.00  0.00     0.080 N 
HETATM   31  C1  UNL     1      -4.268   8.406  13.209  1.00  0.00     0.309 C 
HETATM   32  C2  UNL     1      -3.255   6.862  14.733  1.00  0.00     0.309 C 
ENDBRANCH  29  30
ENDBRANCH  28  29
ENDBRANCH  27  28
ENDBRANCH   1  27
TORSDOF 7
ENDMDL
MODEL 5
REMARK minimizedAffinity -8.59030247
REMARK  7 active torsions:
REMARK  status: ('A' for Active; 'I' for Inactive)
REMARK    1  A    between atoms: N1_2  and  C3_4 
REMARK    2  A    between atoms: C3_4  and  C4_5 
REMARK    3  A    between atoms: C4_5  and  C5_6 
REMARK    4  A    between atoms: C5_6  and  C6_7 
REMARK    5  A    between atoms: C7_8  and  C8_9 
REMARK    6  A    between atoms: C14_17  and  C15_18 
REMARK    7  A    between atoms: C15_18  and  O3_20 
ROOT
HETATM    1  C6  UNL     1      -3.196   5.815  13.265  1.00  0.00    -0.023 A 
HETATM    2  C7  UNL     1      -2.250   6.728  12.794  1.00  0.00     0.040 A 
HETATM    3  N3  UNL     1      -2.692   7.985  13.140  1.00  0.00    -0.359 N 
HETATM    4  C18 UNL     1      -3.875   7.892  13.816  1.00  0.00     0.016 A 
HETATM    5  C19 UNL     1      -4.216   6.563  13.920  1.00  0.00    -0.027 A 
HETATM    6  C20 UNL     1      -5.467   6.114  14.597  1.00  0.00     0.041 C 
HETATM    7  C21 UNL     1      -6.064   7.238  15.468  1.00  0.00     0.005 C 
HETATM    8  C22 UNL     1      -6.055   8.600  14.746  1.00  0.00     0.006 C 
HETATM    9  C23 UNL     1      -4.631   9.047  14.367  1.00  0.00     0.057 C 
HETATM   10  H19 UNL     1      -2.217   8.857  12.932  1.00  0.00     0.166 HD
ENDROOT
BRANCH   2  11
HETATM   11  C8  UNL     1      -1.028   6.515  12.093  1.00  0.00     0.048 C 
HETATM   12  C9  UNL     1       0.040   7.318  11.960  1.00  0.00     0.047 A 
HETATM   13  C10 UNL     1       0.316   8.705  12.494  1.00  0.00     0.257 A 
HETATM   14  C17 UNL     1       1.241   6.934  11.189  1.00  0.00     0.007 A 
HETATM   15  O1  UNL     1      -0.396   9.407  13.188  1.00  0.00    -0.267 OA
HETATM   16  N2  UNL     1       1.577   9.037  12.030  1.00  0.00    -0.322 N 
HETATM   17  C11 UNL     1       2.126   8.012  11.271  1.00  0.00     0.046 A 
HETATM   18  H14 UNL     1       2.019   9.919  12.240  1.00  0.00     0.169 HD
HETATM   19  C12 UNL     1       3.366   8.011  10.664  1.00  0.00     0.031 A 
HETATM   20  C13 UNL     1       3.726   6.869   9.943  1.00  0.00     0.020 A 
HETATM   21  C14 UNL     1       2.848   5.766   9.848  1.00  0.00     0.038 A 
HETATM   22  C16 UNL     1       1.592   5.797  10.477  1.00  0.00     0.033 A 
BRANCH  21  23
HETATM   23  C15 UNL     1       3.299   4.588   9.067  1.00  0.00     0.176 C 
HETATM   24  O2  UNL     1       3.658   4.600   7.905  1.00  0.00    -0.646 OA
BRANCH  23  25
HETATM   25  O3  UNL     1       3.275   3.450   9.782  1.00  0.00    -0.773 OA
HETATM   26  H17 UNL     1       3.597   2.768   9.156  1.00  0.00     0.167 HD
ENDBRANCH  23  25
ENDBRANCH  21  23
ENDBRANCH   2  11
BRANCH   1  27
HETATM   27  C5  UNL     1      -3.165   4.322  13.121  1.00  0.00     0.043 C 
BRANCH  27  28
HETATM   28  C4  UNL     1      -4.567   3.721  12.989  1.00  0.00     0.035 C 
BRANCH  28  29
HETATM   29  C3  UNL     1      -4.881   3.389  11.525  1.00  0.00     0.271 C 
BRANCH  29  30
HETATM   30  N1  UNL     1      -6.153   2.667  11.350  1.00  0.00     0.080 N 
HETATM   31  C1  UNL     1      -7.047   2.951  12.476  1.00  0.00     0.309 C 
HETATM   32  C2  UNL     1      -5.955   1.221  11.231  1.00  0.00     0.309 C 
ENDBRANCH  29  30
ENDBRANCH  28  29
ENDBRANCH  27  28
ENDBRANCH   1  27
TORSDOF 7
ENDMDL
MODEL 6
REMARK minimizedAffinity -8.57837963
REMARK  7 active torsions:
REMARK  status: ('A' for Active; 'I' for Inactive)
REMARK    1  A    between atoms: N1_2  and  C3_4 
REMARK    2  A    between atoms: C3_4  and  C4_5 
REMARK    3  A    between atoms: C4_5  and  C5_6 
REMARK    4  A    between atoms: C5_6  and  C6_7 
REMARK    5  A    between atoms: C7_8  and  C8_9 
REMARK    6  A    between atoms: C14_17  and  C15_18 
REMARK    7  A    between atoms: C15_18  and  O3_20 
ROOT
HETATM    1  C6  UNL     1      -4.344   4.948  12.604  1.00  0.00    -0.023 A 
HETATM    2  C7  UNL     1      -3.318   4.383  11.844  1.00  0.00     0.040 A 
HETATM    3  N3  UNL     1      -3.759   3.149  11.421  1.00  0.00    -0.359 N 
HETATM    4  C18 UNL     1      -5.024   2.925  11.880  1.00  0.00     0.016 A 
HETATM    5  C19 UNL     1      -5.425   4.019  12.611  1.00  0.00    -0.027 A 
HETATM    6  C20 UNL     1      -6.764   4.092  13.266  1.00  0.00     0.041 C 
HETATM    7  C21 UNL     1      -7.721   3.026  12.697  1.00  0.00     0.005 C 
HETATM    8  C22 UNL     1      -7.039   1.653  12.545  1.00  0.00     0.006 C 
HETATM    9  C23 UNL     1      -5.828   1.707  11.596  1.00  0.00     0.057 C 
HETATM   10  H19 UNL     1      -3.231   2.497  10.849  1.00  0.00     0.166 HD
ENDROOT
BRANCH   2  11
HETATM   11  C8  UNL     1      -2.033   4.893  11.501  1.00  0.00     0.048 C 
HETATM   12  C9  UNL     1      -1.031   5.309  12.295  1.00  0.00     0.047 A 
HETATM   13  C10 UNL     1      -0.920   5.383  13.800  1.00  0.00     0.257 A 
HETATM   14  C17 UNL     1       0.254   5.813  11.767  1.00  0.00     0.007 A 
HETATM   15  O1  UNL     1      -1.741   5.063  14.639  1.00  0.00    -0.267 OA
HETATM   16  N2  UNL     1       0.339   5.900  14.053  1.00  0.00    -0.322 N 
HETATM   17  C11 UNL     1       1.032   6.152  12.876  1.00  0.00     0.046 A 
HETATM   18  H14 UNL     1       0.685   6.056  14.988  1.00  0.00     0.169 HD
HETATM   19  C12 UNL     1       2.309   6.664  12.767  1.00  0.00     0.031 A 
HETATM   20  C13 UNL     1       2.822   6.839  11.478  1.00  0.00     0.020 A 
HETATM   21  C14 UNL     1       2.053   6.501  10.342  1.00  0.00     0.038 A 
HETATM   22  C16 UNL     1       0.755   5.982  10.485  1.00  0.00     0.033 A 
BRANCH  21  23
HETATM   23  C15 UNL     1       2.663   6.713   9.006  1.00  0.00     0.176 C 
HETATM   24  O2  UNL     1       3.073   7.773   8.571  1.00  0.00    -0.646 OA
BRANCH  23  25
HETATM   25  O3  UNL     1       2.729   5.585   8.279  1.00  0.00    -0.773 OA
HETATM   26  H17 UNL     1       3.150   5.865   7.439  1.00  0.00     0.167 HD
ENDBRANCH  23  25
ENDBRANCH  21  23
ENDBRANCH   2  11
BRANCH   1  27
HETATM   27  C5  UNL     1      -4.334   6.281  13.292  1.00  0.00     0.043 C 
BRANCH  27  28
HETATM   28  C4  UNL     1      -5.746   6.781  13.611  1.00  0.00     0.035 C 
BRANCH  28  29
HETATM   29  C3  UNL     1      -5.712   7.829  14.730  1.00  0.00     0.271 C 
BRANCH  29  30
HETATM   30  N1  UNL     1      -6.814   7.686  15.697  1.00  0.00     0.080 N 
HETATM   31  C1  UNL     1      -6.876   6.305  16.184  1.00  0.00     0.309 C 
HETATM   32  C2  UNL     1      -8.107   8.063  15.121  1.00  0.00     0.309 C 
ENDBRANCH  29  30
ENDBRANCH  28  29
ENDBRANCH  27  28
ENDBRANCH   1  27
TORSDOF 7
ENDMDL
MODEL 7
REMARK minimizedAffinity -8.53172874
REMARK  7 active torsions:
REMARK  status: ('A' for Active; 'I' for Inactive)
REMARK    1  A    between atoms: N1_2  and  C3_4 
REMARK    2  A    between atoms: C3_4  and  C4_5 
REMARK    3  A    between atoms: C4_5  and  C5_6 
REMARK    4  A    between atoms: C5_6  and  C6_7 
REMARK    5  A    between atoms: C7_8  and  C8_9 
REMARK    6  A    between atoms: C14_17  and  C15_18 
REMARK    7  A    between atoms: C15_18  and  O3_20 
ROOT
HETATM    1  C6  UNL     1      -0.643   7.162  11.918  1.00  0.00    -0.023 A 
HETATM    2  C7  UNL     1      -1.244   5.902  11.972  1.00  0.00     0.040 A 
HETATM    3  N3  UNL     1      -0.306   4.987  11.552  1.00  0.00    -0.359 N 
HETATM    4  C18 UNL     1       0.861   5.624  11.245  1.00  0.00     0.016 A 
HETATM    5  C19 UNL     1       0.695   6.972  11.466  1.00  0.00    -0.027 A 
HETATM    6  C20 UNL     1       1.785   7.959  11.215  1.00  0.00     0.041 C 
HETATM    7  C21 UNL     1       3.153   7.259  11.088  1.00  0.00     0.005 C 
HETATM    8  C22 UNL     1       3.078   5.993  10.212  1.00  0.00     0.006 C 
HETATM    9  C23 UNL     1       2.102   4.949  10.783  1.00  0.00     0.057 C 
HETATM   10  H19 UNL     1      -0.449   3.984  11.480  1.00  0.00     0.166 HD
ENDROOT
BRANCH   2  11
HETATM   11  C8  UNL     1      -2.557   5.521  12.375  1.00  0.00     0.048 C 
HETATM   12  C9  UNL     1      -3.323   4.499  11.958  1.00  0.00     0.047 A 
HETATM   13  C10 UNL     1      -3.069   3.419  10.933  1.00  0.00     0.257 A 
HETATM   14  C17 UNL     1      -4.678   4.244  12.491  1.00  0.00     0.007 A 
HETATM   15  O1  UNL     1      -2.078   3.237  10.250  1.00  0.00    -0.267 OA
HETATM   16  N2  UNL     1      -4.218   2.646  10.918  1.00  0.00    -0.322 N 
HETATM   17  C11 UNL     1      -5.160   3.116  11.822  1.00  0.00     0.046 A 
HETATM   18  H14 UNL     1      -4.324   1.842  10.317  1.00  0.00     0.169 HD
HETATM   19  C12 UNL     1      -6.408   2.579  12.064  1.00  0.00     0.031 A 
HETATM   20  C13 UNL     1      -7.203   3.211  13.024  1.00  0.00     0.020 A 
HETATM   21  C14 UNL     1      -6.735   4.352  13.714  1.00  0.00     0.038 A 
HETATM   22  C16 UNL     1      -5.459   4.876  13.446  1.00  0.00     0.033 A 
BRANCH  21  23
HETATM   23  C15 UNL     1      -7.634   4.969  14.721  1.00  0.00     0.176 C 
HETATM   24  O2  UNL     1      -8.126   6.080  14.650  1.00  0.00    -0.646 OA
BRANCH  23  25
HETATM   25  O3  UNL     1      -7.871   4.163  15.770  1.00  0.00    -0.773 OA
HETATM   26  H17 UNL     1      -8.472   4.686  16.342  1.00  0.00     0.167 HD
ENDBRANCH  23  25
ENDBRANCH  21  23
ENDBRANCH   2  11
BRANCH   1  27
HETATM   27  C5  UNL     1      -1.267   8.481  12.267  1.00  0.00     0.043 C 
BRANCH  27  28
HETATM   28  C4  UNL     1      -1.518   8.625  13.771  1.00  0.00     0.035 C 
BRANCH  28  29
HETATM   29  C3  UNL     1      -2.676   9.595  14.038  1.00  0.00     0.271 C 
BRANCH  29  30
HETATM   30  N1  UNL     1      -3.887   8.930  14.548  1.00  0.00     0.080 N 
HETATM   31  C1  UNL     1      -3.514   7.793  15.394  1.00  0.00     0.309 C 
HETATM   32  C2  UNL     1      -4.764   8.474  13.468  1.00  0.00     0.309 C 
ENDBRANCH  29  30
ENDBRANCH  28  29
ENDBRANCH  27  28
ENDBRANCH   1  27
TORSDOF 7
ENDMDL
MODEL 8
REMARK minimizedAffinity -8.39050865
REMARK  7 active torsions:
REMARK  status: ('A' for Active; 'I' for Inactive)
REMARK    1  A    between atoms: N1_2  and  C3_4 
REMARK    2  A    between atoms: C3_4  and  C4_5 
REMARK    3  A    between atoms: C4_5  and  C5_6 
REMARK    4  A    between atoms: C5_6  and  C6_7 
REMARK    5  A    between atoms: C7_8  and  C8_9 
REMARK    6  A    between atoms: C14_17  and  C15_18 
REMARK    7  A    between atoms: C15_18  and  O3_20 
ROOT
HETATM    1  C6  UNL     1      -4.465   5.101  12.969  1.00  0.00    -0.023 A 
HETATM    2  C7  UNL     1      -3.513   4.587  12.085  1.00  0.00     0.040 A 
HETATM    3  N3  UNL     1      -4.041   3.437  11.545  1.00  0.00    -0.359 N 
HETATM    4  C18 UNL     1      -5.290   3.216  12.051  1.00  0.00     0.016 A 
HETATM    5  C19 UNL     1      -5.591   4.230  12.930  1.00  0.00    -0.027 A 
HETATM    6  C20 UNL     1      -6.886   4.283  13.670  1.00  0.00     0.041 C 
HETATM    7  C21 UNL     1      -7.929   3.340  13.036  1.00  0.00     0.005 C 
HETATM    8  C22 UNL     1      -7.329   1.966  12.680  1.00  0.00     0.006 C 
HETATM    9  C23 UNL     1      -6.171   2.081  11.672  1.00  0.00     0.057 C 
HETATM   10  H19 UNL     1      -3.581   2.836  10.869  1.00  0.00     0.166 HD
ENDROOT
BRANCH   2  11
HETATM   11  C8  UNL     1      -2.223   5.077  11.729  1.00  0.00     0.048 C 
HETATM   12  C9  UNL     1      -1.187   5.422  12.511  1.00  0.00     0.047 A 
HETATM   13  C10 UNL     1      -1.028   5.416  14.013  1.00  0.00     0.257 A 
HETATM   14  C17 UNL     1       0.097   5.914  11.969  1.00  0.00     0.007 A 
HETATM   15  O1  UNL     1      -1.834   5.078  14.861  1.00  0.00    -0.267 OA
HETATM   16  N2  UNL     1       0.253   5.882  14.252  1.00  0.00    -0.322 N 
HETATM   17  C11 UNL     1       0.918   6.174  13.069  1.00  0.00     0.046 A 
HETATM   18  H14 UNL     1       0.631   5.980  15.183  1.00  0.00     0.169 HD
HETATM   19  C12 UNL     1       2.207   6.652  12.945  1.00  0.00     0.031 A 
HETATM   20  C13 UNL     1       2.686   6.877  11.652  1.00  0.00     0.020 A 
HETATM   21  C14 UNL     1       1.874   6.620  10.524  1.00  0.00     0.038 A 
HETATM   22  C16 UNL     1       0.565   6.133  10.682  1.00  0.00     0.033 A 
BRANCH  21  23
HETATM   23  C15 UNL     1       2.451   6.881   9.182  1.00  0.00     0.176 C 
HETATM   24  O2  UNL     1       2.924   7.937   8.805  1.00  0.00    -0.646 OA
BRANCH  23  25
HETATM   25  O3  UNL     1       2.404   5.806   8.378  1.00  0.00    -0.773 OA
HETATM   26  H17 UNL     1       2.815   6.115   7.543  1.00  0.00     0.167 HD
ENDBRANCH  23  25
ENDBRANCH  21  23
ENDBRANCH   2  11
BRANCH   1  27
HETATM   27  C5  UNL     1      -4.347   6.339  13.810  1.00  0.00     0.043 C 
BRANCH  27  28
HETATM   28  C4  UNL     1      -4.997   7.557  13.147  1.00  0.00     0.035 C 
BRANCH  28  29
HETATM   29  C3  UNL     1      -4.144   8.813  13.363  1.00  0.00     0.271 C 
BRANCH  29  30
HETATM   30  N1  UNL     1      -2.714   8.519  13.560  1.00  0.00     0.080 N 
HETATM   31  C1  UNL     1      -2.257   9.092  14.830  1.00  0.00     0.309 C 
HETATM   32  C2  UNL     1      -1.888   9.031  12.464  1.00  0.00     0.309 C 
ENDBRANCH  29  30
ENDBRANCH  28  29
ENDBRANCH  27  28
ENDBRANCH   1  27
TORSDOF 7
ENDMDL
MODEL 9
REMARK minimizedAffinity -8.34438992
REMARK  7 active torsions:
REMARK  status: ('A' for Active; 'I' for Inactive)
REMARK    1  A    between atoms: N1_2  and  C3_4 
REMARK    2  A    between atoms: C3_4  and  C4_5 
REMARK    3  A    between atoms: C4_5  and  C5_6 
REMARK    4  A    between atoms: C5_6  and  C6_7 
REMARK    5  A    between atoms: C7_8  and  C8_9 
REMARK    6  A    between atoms: C14_17  and  C15_18 
REMARK    7  A    between atoms: C15_18  and  O3_20 
ROOT
HETATM    1  C6  UNL     1       0.656   6.335  12.653  1.00  0.00    -0.023 A 
HETATM    2  C7  UNL     1      -0.422   5.954  11.850  1.00  0.00     0.040 A 
HETATM    3  N3  UNL     1       0.035   5.916  10.552  1.00  0.00    -0.359 N 
HETATM    4  C18 UNL     1       1.358   6.249  10.513  1.00  0.00     0.016 A 
HETATM    5  C19 UNL     1       1.781   6.508  11.797  1.00  0.00    -0.027 A 
HETATM    6  C20 UNL     1       3.183   6.915  12.105  1.00  0.00     0.041 C 
HETATM    7  C21 UNL     1       4.124   6.614  10.921  1.00  0.00     0.005 C 
HETATM    8  C22 UNL     1       3.508   7.027   9.570  1.00  0.00     0.006 C 
HETATM    9  C23 UNL     1       2.189   6.287   9.282  1.00  0.00     0.057 C 
HETATM   10  H19 UNL     1      -0.520   5.674   9.737  1.00  0.00     0.166 HD
ENDROOT
BRANCH   2  11
HETATM   11  C8  UNL     1      -1.766   5.635  12.197  1.00  0.00     0.048 C 
HETATM   12  C9  UNL     1      -2.514   4.572  11.858  1.00  0.00     0.047 A 
HETATM   13  C10 UNL     1      -2.200   3.366  11.003  1.00  0.00     0.257 A 
HETATM   14  C17 UNL     1      -3.909   4.394  12.313  1.00  0.00     0.007 A 
HETATM   15  O1  UNL     1      -1.163   3.092  10.427  1.00  0.00    -0.267 OA
HETATM   16  N2  UNL     1      -3.355   2.603  11.000  1.00  0.00    -0.322 N 
HETATM   17  C11 UNL     1      -4.356   3.191  11.761  1.00  0.00     0.046 A 
HETATM   18  H14 UNL     1      -3.427   1.729  10.502  1.00  0.00     0.169 HD
HETATM   19  C12 UNL     1      -5.627   2.697  11.973  1.00  0.00     0.031 A 
HETATM   20  C13 UNL     1      -6.482   3.452  12.780  1.00  0.00     0.020 A 
HETATM   21  C14 UNL     1      -6.051   4.671  13.351  1.00  0.00     0.038 A 
HETATM   22  C16 UNL     1      -4.751   5.149  13.116  1.00  0.00     0.033 A 
BRANCH  21  23
HETATM   23  C15 UNL     1      -7.014   5.418  14.198  1.00  0.00     0.176 C 
HETATM   24  O2  UNL     1      -6.830   6.518  14.683  1.00  0.00    -0.646 OA
BRANCH  23  25
HETATM   25  O3  UNL     1      -8.161   4.746  14.396  1.00  0.00    -0.773 OA
HETATM   26  H17 UNL     1      -8.696   5.347  14.957  1.00  0.00     0.167 HD
ENDBRANCH  23  25
ENDBRANCH  21  23
ENDBRANCH   2  11
BRANCH   1  27
HETATM   27  C5  UNL     1       0.653   6.528  14.141  1.00  0.00     0.043 C 
BRANCH  27  28
HETATM   28  C4  UNL     1      -0.081   7.805  14.560  1.00  0.00     0.035 C 
BRANCH  28  29
HETATM   29  C3  UNL     1      -1.219   7.483  15.537  1.00  0.00     0.271 C 
BRANCH  29  30
HETATM   30  N1  UNL     1      -1.647   8.643  16.337  1.00  0.00     0.080 N 
HETATM   31  C1  UNL     1      -2.732   9.350  15.651  1.00  0.00     0.309 C 
HETATM   32  C2  UNL     1      -0.544   9.570  16.600  1.00  0.00     0.309 C 
ENDBRANCH  29  30
ENDBRANCH  28  29
ENDBRANCH  27  28
ENDBRANCH   1  27
TORSDOF 7
ENDMDL
