MODEL 1
REMARK minimizedAffinity -10.4294567
REMARK CNNscore 0.932223141
REMARK CNNaffinity 7.65253019
REMARK  8 active torsions:
REMARK  status: ('A' for Active; 'I' for Inactive)
REMARK    1  A    between atoms: C4_4  and  C5_5 
REMARK    2  A    between atoms: C7_7  and  O1_8 
REMARK    3  A    between atoms: C13_19  and  N3_20 
REMARK    4  A    between atoms: N3_20  and  C14_21 
REMARK    5  A    between atoms: C18_25  and  S1_26 
REMARK    6  A    between atoms: S1_26  and  C19_27 
REMARK    7  A    between atoms: C19_27  and  C20_28 
REMARK    8  A    between atoms: C20_28  and  N4_29 
ROOT
HETATM    1  C1  UNL     1      -1.229  49.964 -21.539  1.00  0.00     0.050 C 
HETATM    2  C2  UNL     1      -0.532  51.142 -22.167  1.00  0.00    -0.032 A 
HETATM    3  C3  UNL     1      -0.502  51.260 -23.568  1.00  0.00     0.021 A 
HETATM    4  C4  UNL     1       0.148  52.333 -24.182  1.00  0.00    -0.021 A 
HETATM    5  C11 UNL     1       0.765  53.285 -23.362  1.00  0.00     0.045 A 
HETATM    6  C12 UNL     1       0.744  53.175 -21.976  1.00  0.00     0.077 A 
HETATM    7  N1  UNL     1       1.343  54.095 -21.215  1.00  0.00    -0.284 N 
ATOM      8  H1  UNL     1       1.821  54.887 -21.645  1.00  0.00     0.187 HD
HETATM    9  N2  UNL     1       1.311  53.965 -19.856  1.00  0.00    -0.131 N 
ATOM     10  H2  UNL     1       1.768  54.662 -19.269  1.00  0.00     0.205 HD
HETATM   11  C13 UNL     1       0.678  52.921 -19.285  1.00  0.00     0.697 A 
HETATM   12  N5  UNL     1       0.062  51.982 -20.016  1.00  0.00    -0.188 N 
ATOM     13  H5  UNL     1      -0.416  51.199 -19.569  1.00  0.00     0.184 HD
HETATM   14  C26 UNL     1       0.092  52.099 -21.357  1.00  0.00     0.083 A 
ENDROOT
BRANCH  11  15
HETATM   15  N3  UNL     1       0.703  52.879 -17.891  1.00  0.00    -0.190 N 
HETATM   16  H10 UNL     1      -0.194  53.172 -17.533  1.00  0.00     0.184 HD
BRANCH  15  17
HETATM   17  C14 UNL     1       1.675  52.534 -16.944  1.00  0.00     0.050 A 
HETATM   18  C15 UNL     1       3.045  52.749 -17.118  1.00  0.00     0.030 A 
HETATM   19  C16 UNL     1       3.967  52.386 -16.131  1.00  0.00     0.004 A 
HETATM   20  C17 UNL     1       3.531  51.788 -14.951  1.00  0.00     0.018 A 
HETATM   21  C18 UNL     1       2.172  51.547 -14.756  1.00  0.00     0.002 A 
HETATM   22  C25 UNL     1       1.257  51.933 -15.744  1.00  0.00     0.048 A 
BRANCH  21  23
HETATM   23  S1  UNL     1       1.573  50.791 -13.256  1.00  0.00    -0.128 SA
BRANCH  23  24
HETATM   24  C19 UNL     1       1.521  52.246 -12.150  1.00  0.00     0.109 C 
BRANCH  24  25
HETATM   25  C20 UNL     1       2.783  52.501 -11.300  1.00  0.00     0.283 C 
BRANCH  25  26
HETATM   26  N4  UNL     1       3.276  53.859 -11.074  1.00  0.00     0.089 N 
HETATM   27  C21 UNL     1       2.283  54.858 -10.704  1.00  0.00     0.272 C 
HETATM   28  C22 UNL     1       3.140  56.074 -10.377  1.00  0.00     0.032 C 
HETATM   29  C23 UNL     1       4.515  55.514 -10.021  1.00  0.00     0.032 C 
HETATM   30  C24 UNL     1       4.363  54.001 -10.116  1.00  0.00     0.272 C 
ENDBRANCH  25  26
ENDBRANCH  24  25
ENDBRANCH  23  24
ENDBRANCH  21  23
ENDBRANCH  15  17
ENDBRANCH  11  15
BRANCH   4  31
HETATM   31  C5  UNL     1       0.176  52.463 -25.645  1.00  0.00    -0.001 A 
HETATM   32  C6  UNL     1      -0.837  53.206 -26.284  1.00  0.00     0.050 A 
HETATM   33  C7  UNL     1      -0.838  53.353 -27.669  1.00  0.00     0.066 A 
HETATM   34  C8  UNL     1       0.153  52.770 -28.448  1.00  0.00     0.038 A 
HETATM   35  C9  UNL     1       1.164  52.030 -27.836  1.00  0.00     0.027 A 
HETATM   36  C10 UNL     1       1.178  51.877 -26.445  1.00  0.00     0.045 A 
HETATM   37 CL1  UNL     1       2.457  50.935 -25.758  1.00  0.00    -0.083 Cl
BRANCH  33  38
HETATM   38  O1  UNL     1      -1.803  54.072 -28.308  1.00  0.00    -0.361 OA
HETATM   39  H6  UNL     1      -2.408  54.452 -27.648  1.00  0.00     0.217 HD
ENDBRANCH  33  38
ENDBRANCH   4  31
TORSDOF 8
ENDMDL
MODEL 2
REMARK minimizedAffinity -9.59504795
REMARK CNNscore 0.903146327
REMARK CNNaffinity 7.56965303
REMARK  8 active torsions:
REMARK  status: ('A' for Active; 'I' for Inactive)
REMARK    1  A    between atoms: C4_4  and  C5_5 
REMARK    2  A    between atoms: C7_7  and  O1_8 
REMARK    3  A    between atoms: C13_19  and  N3_20 
REMARK    4  A    between atoms: N3_20  and  C14_21 
REMARK    5  A    between atoms: C18_25  and  S1_26 
REMARK    6  A    between atoms: S1_26  and  C19_27 
REMARK    7  A    between atoms: C19_27  and  C20_28 
REMARK    8  A    between atoms: C20_28  and  N4_29 
ROOT
HETATM    1  C1  UNL     1      -1.233  49.958 -21.540  1.00  0.00     0.050 C 
HETATM    2  C2  UNL     1      -0.527  51.128 -22.174  1.00  0.00    -0.032 A 
HETATM    3  C3  UNL     1      -0.506  51.246 -23.575  1.00  0.00     0.021 A 
HETATM    4  C4  UNL     1       0.151  52.312 -24.193  1.00  0.00    -0.021 A 
HETATM    5  C11 UNL     1       0.785  53.256 -23.379  1.00  0.00     0.045 A 
HETATM    6  C12 UNL     1       0.773  53.147 -21.992  1.00  0.00     0.077 A 
HETATM    7  N1  UNL     1       1.388  54.060 -21.236  1.00  0.00    -0.284 N 
ATOM      8  H1  UNL     1       1.872  54.846 -21.669  1.00  0.00     0.187 HD
HETATM    9  N2  UNL     1       1.363  53.930 -19.877  1.00  0.00    -0.131 N 
ATOM     10  H2  UNL     1       1.833  54.623 -19.293  1.00  0.00     0.205 HD
HETATM   11  C13 UNL     1       0.723  52.894 -19.301  1.00  0.00     0.697 A 
HETATM   12  N5  UNL     1       0.092  51.961 -20.027  1.00  0.00    -0.188 N 
ATOM     13  H5  UNL     1      -0.392  51.185 -19.577  1.00  0.00     0.184 HD
HETATM   14  C26 UNL     1       0.113  52.079 -21.368  1.00  0.00     0.083 A 
ENDROOT
BRANCH  11  15
HETATM   15  N3  UNL     1       0.757  52.852 -17.907  1.00  0.00    -0.190 N 
HETATM   16  H10 UNL     1      -0.131  53.164 -17.543  1.00  0.00     0.184 HD
BRANCH  15  17
HETATM   17  C14 UNL     1       1.729  52.487 -16.967  1.00  0.00     0.050 A 
HETATM   18  C15 UNL     1       3.038  52.976 -16.968  1.00  0.00     0.030 A 
HETATM   19  C16 UNL     1       3.962  52.575 -15.998  1.00  0.00     0.004 A 
HETATM   20  C17 UNL     1       3.591  51.666 -15.009  1.00  0.00     0.018 A 
HETATM   21  C18 UNL     1       2.297  51.150 -14.992  1.00  0.00     0.002 A 
HETATM   22  C25 UNL     1       1.375  51.573 -15.959  1.00  0.00     0.048 A 
BRANCH  21  23
HETATM   23  S1  UNL     1       1.781  49.990 -13.740  1.00  0.00    -0.128 SA
BRANCH  23  24
HETATM   24  C19 UNL     1       3.400  49.528 -13.029  1.00  0.00     0.109 C 
BRANCH  24  25
HETATM   25  C20 UNL     1       3.710  50.082 -11.623  1.00  0.00     0.283 C 
BRANCH  25  26
HETATM   26  N4  UNL     1       4.521  49.319 -10.676  1.00  0.00     0.089 N 
HETATM   27  C21 UNL     1       5.444  50.082  -9.846  1.00  0.00     0.272 C 
HETATM   28  C22 UNL     1       5.975  49.029  -8.882  1.00  0.00     0.032 C 
HETATM   29  C23 UNL     1       4.910  47.936  -8.854  1.00  0.00     0.032 C 
HETATM   30  C24 UNL     1       3.800  48.439  -9.767  1.00  0.00     0.272 C 
ENDBRANCH  25  26
ENDBRANCH  24  25
ENDBRANCH  23  24
ENDBRANCH  21  23
ENDBRANCH  15  17
ENDBRANCH  11  15
BRANCH   4  31
HETATM   31  C5  UNL     1       0.170  52.441 -25.657  1.00  0.00    -0.001 A 
HETATM   32  C6  UNL     1      -0.851  53.177 -26.291  1.00  0.00     0.050 A 
HETATM   33  C7  UNL     1      -0.860  53.323 -27.676  1.00  0.00     0.066 A 
HETATM   34  C8  UNL     1       0.130  52.746 -28.460  1.00  0.00     0.038 A 
HETATM   35  C9  UNL     1       1.150  52.013 -27.853  1.00  0.00     0.027 A 
HETATM   36  C10 UNL     1       1.172  51.860 -26.463  1.00  0.00     0.045 A 
HETATM   37 CL1  UNL     1       2.460  50.927 -25.782  1.00  0.00    -0.083 Cl
BRANCH  33  38
HETATM   38  O1  UNL     1      -1.832  54.036 -28.310  1.00  0.00    -0.361 OA
HETATM   39  H6  UNL     1      -2.436  54.413 -27.647  1.00  0.00     0.217 HD
ENDBRANCH  33  38
ENDBRANCH   4  31
TORSDOF 8
ENDMDL
MODEL 3
REMARK minimizedAffinity -10.6269989
REMARK CNNscore 0.891321182
REMARK CNNaffinity 7.66662264
REMARK  8 active torsions:
REMARK  status: ('A' for Active; 'I' for Inactive)
REMARK    1  A    between atoms: C4_4  and  C5_5 
REMARK    2  A    between atoms: C7_7  and  O1_8 
REMARK    3  A    between atoms: C13_19  and  N3_20 
REMARK    4  A    between atoms: N3_20  and  C14_21 
REMARK    5  A    between atoms: C18_25  and  S1_26 
REMARK    6  A    between atoms: S1_26  and  C19_27 
REMARK    7  A    between atoms: C19_27  and  C20_28 
REMARK    8  A    between atoms: C20_28  and  N4_29 
ROOT
HETATM    1  C1  UNL     1      -1.230  50.000 -21.579  1.00  0.00     0.050 C 
HETATM    2  C2  UNL     1      -0.529  51.172 -22.214  1.00  0.00    -0.032 A 
HETATM    3  C3  UNL     1      -0.499  51.282 -23.615  1.00  0.00     0.021 A 
HETATM    4  C4  UNL     1       0.155  52.350 -24.235  1.00  0.00    -0.021 A 
HETATM    5  C11 UNL     1       0.775  53.303 -23.421  1.00  0.00     0.045 A 
HETATM    6  C12 UNL     1       0.753  53.202 -22.034  1.00  0.00     0.077 A 
HETATM    7  N1  UNL     1       1.356  54.123 -21.278  1.00  0.00    -0.284 N 
ATOM      8  H1  UNL     1       1.837  54.911 -21.712  1.00  0.00     0.187 HD
HETATM    9  N2  UNL     1       1.323  54.001 -19.919  1.00  0.00    -0.131 N 
ATOM     10  H2  UNL     1       1.783  54.700 -19.335  1.00  0.00     0.205 HD
HETATM   11  C13 UNL     1       0.687  52.963 -19.342  1.00  0.00     0.697 A 
HETATM   12  N5  UNL     1       0.068  52.021 -20.067  1.00  0.00    -0.188 N 
ATOM     13  H5  UNL     1      -0.413  51.243 -19.616  1.00  0.00     0.184 HD
HETATM   14  C26 UNL     1       0.098  52.132 -21.409  1.00  0.00     0.083 A 
ENDROOT
BRANCH  11  15
HETATM   15  N3  UNL     1       0.712  52.929 -17.948  1.00  0.00    -0.190 N 
HETATM   16  H10 UNL     1      -0.180  53.239 -17.591  1.00  0.00     0.184 HD
BRANCH  15  17
HETATM   17  C14 UNL     1       1.678  52.572 -16.999  1.00  0.00     0.050 A 
HETATM   18  C15 UNL     1       3.052  52.759 -17.176  1.00  0.00     0.030 A 
HETATM   19  C16 UNL     1       3.968  52.387 -16.188  1.00  0.00     0.004 A 
HETATM   20  C17 UNL     1       3.522  51.808 -15.001  1.00  0.00     0.018 A 
HETATM   21  C18 UNL     1       2.159  51.596 -14.803  1.00  0.00     0.002 A 
HETATM   22  C25 UNL     1       1.250  51.991 -15.793  1.00  0.00     0.048 A 
BRANCH  21  23
HETATM   23  S1  UNL     1       1.547  50.865 -13.295  1.00  0.00    -0.128 SA
BRANCH  23  24
HETATM   24  C19 UNL     1       0.344  52.139 -12.775  1.00  0.00     0.109 C 
BRANCH  24  25
HETATM   25  C20 UNL     1      -0.996  51.620 -12.210  1.00  0.00     0.283 C 
BRANCH  25  26
HETATM   26  N4  UNL     1      -2.054  52.548 -11.813  1.00  0.00     0.089 N 
HETATM   27  C21 UNL     1      -3.372  51.972 -11.586  1.00  0.00     0.272 C 
HETATM   28  C22 UNL     1      -4.160  53.150 -11.028  1.00  0.00     0.032 C 
HETATM   29  C23 UNL     1      -3.111  54.094 -10.445  1.00  0.00     0.032 C 
HETATM   30  C24 UNL     1      -1.779  53.387 -10.656  1.00  0.00     0.272 C 
ENDBRANCH  25  26
ENDBRANCH  24  25
ENDBRANCH  23  24
ENDBRANCH  21  23
ENDBRANCH  15  17
ENDBRANCH  11  15
BRANCH   4  31
HETATM   31  C5  UNL     1       0.183  52.471 -25.699  1.00  0.00    -0.001 A 
HETATM   32  C6  UNL     1      -0.822  53.222 -26.341  1.00  0.00     0.050 A 
HETATM   33  C7  UNL     1      -0.821  53.362 -27.727  1.00  0.00     0.066 A 
HETATM   34  C8  UNL     1       0.162  52.763 -28.504  1.00  0.00     0.038 A 
HETATM   35  C9  UNL     1       1.165  52.014 -27.888  1.00  0.00     0.027 A 
HETATM   36  C10 UNL     1       1.178  51.869 -26.497  1.00  0.00     0.045 A 
HETATM   37 CL1  UNL     1       2.446  50.916 -25.805  1.00  0.00    -0.083 Cl
BRANCH  33  38
HETATM   38  O1  UNL     1      -1.778  54.089 -28.369  1.00  0.00    -0.361 OA
HETATM   39  H6  UNL     1      -2.378  54.480 -27.711  1.00  0.00     0.217 HD
ENDBRANCH  33  38
ENDBRANCH   4  31
TORSDOF 8
ENDMDL
MODEL 4
REMARK minimizedAffinity -9.59352684
REMARK CNNscore 0.814440846
REMARK CNNaffinity 7.90902138
REMARK  8 active torsions:
REMARK  status: ('A' for Active; 'I' for Inactive)
REMARK    1  A    between atoms: C4_4  and  C5_5 
REMARK    2  A    between atoms: C7_7  and  O1_8 
REMARK    3  A    between atoms: C13_19  and  N3_20 
REMARK    4  A    between atoms: N3_20  and  C14_21 
REMARK    5  A    between atoms: C18_25  and  S1_26 
REMARK    6  A    between atoms: S1_26  and  C19_27 
REMARK    7  A    between atoms: C19_27  and  C20_28 
REMARK    8  A    between atoms: C20_28  and  N4_29 
ROOT
HETATM    1  C1  UNL     1      -1.278  50.187 -21.640  1.00  0.00     0.050 C 
HETATM    2  C2  UNL     1      -0.535  51.316 -22.304  1.00  0.00    -0.032 A 
HETATM    3  C3  UNL     1      -0.530  51.410 -23.706  1.00  0.00     0.021 A 
HETATM    4  C4  UNL     1       0.161  52.438 -24.352  1.00  0.00    -0.021 A 
HETATM    5  C11 UNL     1       0.844  53.369 -23.563  1.00  0.00     0.045 A 
HETATM    6  C12 UNL     1       0.848  53.284 -22.175  1.00  0.00     0.077 A 
HETATM    7  N1  UNL     1       1.510  54.183 -21.443  1.00  0.00    -0.284 N 
ATOM      8  H1  UNL     1       2.019  54.942 -21.897  1.00  0.00     0.187 HD
HETATM    9  N2  UNL     1       1.501  54.078 -20.082  1.00  0.00    -0.131 N 
ATOM     10  H2  UNL     1       2.006  54.760 -19.517  1.00  0.00     0.205 HD
HETATM   11  C13 UNL     1       0.828  53.078 -19.479  1.00  0.00     0.697 A 
HETATM   12  N5  UNL     1       0.149  52.160 -20.180  1.00  0.00    -0.188 N 
ATOM     13  H5  UNL     1      -0.359  51.411 -19.710  1.00  0.00     0.184 HD
HETATM   14  C26 UNL     1       0.155  52.254 -21.523  1.00  0.00     0.083 A 
ENDROOT
BRANCH  11  15
HETATM   15  N3  UNL     1       0.881  53.058 -18.086  1.00  0.00    -0.190 N 
HETATM   16  H10 UNL     1       0.892  54.006 -17.739  1.00  0.00     0.184 HD
BRANCH  15  17
HETATM   17  C14 UNL     1       0.924  52.039 -17.127  1.00  0.00     0.050 A 
HETATM   18  C15 UNL     1       1.862  51.979 -16.092  1.00  0.00     0.030 A 
HETATM   19  C16 UNL     1       1.849  50.936 -15.161  1.00  0.00     0.004 A 
HETATM   20  C17 UNL     1       0.898  49.923 -15.257  1.00  0.00     0.018 A 
HETATM   21  C18 UNL     1      -0.040  49.947 -16.287  1.00  0.00     0.002 A 
HETATM   22  C25 UNL     1      -0.028  51.008 -17.202  1.00  0.00     0.048 A 
BRANCH  21  23
HETATM   23  S1  UNL     1      -1.278  48.673 -16.440  1.00  0.00    -0.128 SA
BRANCH  23  24
HETATM   24  C19 UNL     1      -1.562  48.703 -18.245  1.00  0.00     0.109 C 
BRANCH  24  25
HETATM   25  C20 UNL     1      -2.623  47.720 -18.784  1.00  0.00     0.283 C 
BRANCH  25  26
HETATM   26  N4  UNL     1      -3.868  48.207 -19.376  1.00  0.00     0.089 N 
HETATM   27  C21 UNL     1      -4.115  49.639 -19.286  1.00  0.00     0.272 C 
HETATM   28  C22 UNL     1      -5.366  49.816 -20.136  1.00  0.00     0.032 C 
HETATM   29  C23 UNL     1      -5.378  48.623 -21.087  1.00  0.00     0.032 C 
HETATM   30  C24 UNL     1      -4.108  47.847 -20.767  1.00  0.00     0.272 C 
ENDBRANCH  25  26
ENDBRANCH  24  25
ENDBRANCH  23  24
ENDBRANCH  21  23
ENDBRANCH  15  17
ENDBRANCH  11  15
BRANCH   4  31
HETATM   31  C5  UNL     1       0.164  52.541 -25.818  1.00  0.00    -0.001 A 
HETATM   32  C6  UNL     1      -0.852  53.285 -26.452  1.00  0.00     0.050 A 
HETATM   33  C7  UNL     1      -0.877  53.407 -27.839  1.00  0.00     0.066 A 
HETATM   34  C8  UNL     1       0.093  52.799 -28.625  1.00  0.00     0.038 A 
HETATM   35  C9  UNL     1       1.107  52.058 -28.019  1.00  0.00     0.027 A 
HETATM   36  C10 UNL     1       1.144  51.930 -26.626  1.00  0.00     0.045 A 
HETATM   37 CL1  UNL     1       2.425  50.985 -25.945  1.00  0.00    -0.083 Cl
BRANCH  33  38
HETATM   38  O1  UNL     1      -1.845  54.127 -28.473  1.00  0.00    -0.361 OA
HETATM   39  H6  UNL     1      -2.433  54.525 -27.809  1.00  0.00     0.217 HD
ENDBRANCH  33  38
ENDBRANCH   4  31
TORSDOF 8
ENDMDL
MODEL 5
REMARK minimizedAffinity -10.5606709
REMARK CNNscore 0.629175961
REMARK CNNaffinity 7.2097435
REMARK  8 active torsions:
REMARK  status: ('A' for Active; 'I' for Inactive)
REMARK    1  A    between atoms: C4_4  and  C5_5 
REMARK    2  A    between atoms: C7_7  and  O1_8 
REMARK    3  A    between atoms: C13_19  and  N3_20 
REMARK    4  A    between atoms: N3_20  and  C14_21 
REMARK    5  A    between atoms: C18_25  and  S1_26 
REMARK    6  A    between atoms: S1_26  and  C19_27 
REMARK    7  A    between atoms: C19_27  and  C20_28 
REMARK    8  A    between atoms: C20_28  and  N4_29 
ROOT
HETATM    1  C1  UNL     1      -1.420  49.912 -21.092  1.00  0.00     0.050 C 
HETATM    2  C2  UNL     1      -0.647  50.996 -21.796  1.00  0.00    -0.032 A 
HETATM    3  C3  UNL     1      -0.598  51.008 -23.201  1.00  0.00     0.021 A 
HETATM    4  C4  UNL     1       0.122  51.992 -23.883  1.00  0.00    -0.021 A 
HETATM    5  C11 UNL     1       0.789  52.962 -23.128  1.00  0.00     0.045 A 
HETATM    6  C12 UNL     1       0.749  52.957 -21.737  1.00  0.00     0.077 A 
HETATM    7  N1  UNL     1       1.398  53.892 -21.038  1.00  0.00    -0.284 N 
ATOM      8  H1  UNL     1       1.927  54.620 -21.518  1.00  0.00     0.187 HD
HETATM    9  N2  UNL     1       1.345  53.866 -19.674  1.00  0.00    -0.131 N 
ATOM     10  H2  UNL     1       1.839  54.576 -19.133  1.00  0.00     0.205 HD
HETATM   11  C13 UNL     1       0.645  52.907 -19.036  1.00  0.00     0.697 A 
HETATM   12  N5  UNL     1      -0.021  51.956 -19.704  1.00  0.00    -0.188 N 
ATOM     13  H5  UNL     1      -0.551  51.239 -19.207  1.00  0.00     0.184 HD
HETATM   14  C26 UNL     1       0.027  51.972 -21.049  1.00  0.00     0.083 A 
ENDROOT
BRANCH  11  15
HETATM   15  N3  UNL     1       0.655  52.967 -17.643  1.00  0.00    -0.190 N 
HETATM   16  H10 UNL     1      -0.205  53.386 -17.321  1.00  0.00     0.184 HD
BRANCH  15  17
HETATM   17  C14 UNL     1       1.574  52.586 -16.658  1.00  0.00     0.050 A 
HETATM   18  C15 UNL     1       2.961  52.642 -16.821  1.00  0.00     0.030 A 
HETATM   19  C16 UNL     1       3.828  52.251 -15.796  1.00  0.00     0.004 A 
HETATM   20  C17 UNL     1       3.319  51.785 -14.587  1.00  0.00     0.018 A 
HETATM   21  C18 UNL     1       1.940  51.703 -14.401  1.00  0.00     0.002 A 
HETATM   22  C25 UNL     1       1.082  52.116 -15.428  1.00  0.00     0.048 A 
BRANCH  21  23
HETATM   23  S1  UNL     1       1.247  51.119 -12.865  1.00  0.00    -0.128 SA
BRANCH  23  24
HETATM   24  C19 UNL     1       0.134  52.509 -12.453  1.00  0.00     0.109 C 
BRANCH  24  25
HETATM   25  C20 UNL     1      -0.423  52.533 -11.014  1.00  0.00     0.283 C 
BRANCH  25  26
HETATM   26  N4  UNL     1      -1.851  52.717 -10.763  1.00  0.00     0.089 N 
HETATM   27  C21 UNL     1      -2.288  54.071 -10.450  1.00  0.00     0.272 C 
HETATM   28  C22 UNL     1      -3.805  53.936 -10.429  1.00  0.00     0.032 C 
HETATM   29  C23 UNL     1      -4.111  52.711 -11.287  1.00  0.00     0.032 C 
HETATM   30  C24 UNL     1      -2.757  52.234 -11.795  1.00  0.00     0.272 C 
ENDBRANCH  25  26
ENDBRANCH  24  25
ENDBRANCH  23  24
ENDBRANCH  21  23
ENDBRANCH  15  17
ENDBRANCH  11  15
BRANCH   4  31
HETATM   31  C5  UNL     1       0.171  52.011 -25.352  1.00  0.00    -0.001 A 
HETATM   32  C6  UNL     1       1.413  51.842 -25.996  1.00  0.00     0.050 A 
HETATM   33  C7  UNL     1       1.493  51.849 -27.386  1.00  0.00     0.066 A 
HETATM   34  C8  UNL     1       0.358  52.027 -28.165  1.00  0.00     0.038 A 
HETATM   35  C9  UNL     1      -0.881  52.197 -27.548  1.00  0.00     0.027 A 
HETATM   36  C10 UNL     1      -0.977  52.188 -26.152  1.00  0.00     0.045 A 
HETATM   37 CL1  UNL     1      -2.545  52.417 -25.457  1.00  0.00    -0.083 Cl
BRANCH  33  38
HETATM   38  O1  UNL     1       2.682  51.681 -28.031  1.00  0.00    -0.361 OA
HETATM   39  H6  UNL     1       3.383  51.532 -27.374  1.00  0.00     0.217 HD
ENDBRANCH  33  38
ENDBRANCH   4  31
TORSDOF 8
ENDMDL
MODEL 6
REMARK minimizedAffinity -9.72362518
REMARK CNNscore 0.501235723
REMARK CNNaffinity 7.31194496
REMARK  8 active torsions:
REMARK  status: ('A' for Active; 'I' for Inactive)
REMARK    1  A    between atoms: C4_4  and  C5_5 
REMARK    2  A    between atoms: C7_7  and  O1_8 
REMARK    3  A    between atoms: C13_19  and  N3_20 
REMARK    4  A    between atoms: N3_20  and  C14_21 
REMARK    5  A    between atoms: C18_25  and  S1_26 
REMARK    6  A    between atoms: S1_26  and  C19_27 
REMARK    7  A    between atoms: C19_27  and  C20_28 
REMARK    8  A    between atoms: C20_28  and  N4_29 
ROOT
HETATM    1  C1  UNL     1      -1.379  49.924 -21.091  1.00  0.00     0.050 C 
HETATM    2  C2  UNL     1      -0.618  51.011 -21.804  1.00  0.00    -0.032 A 
HETATM    3  C3  UNL     1      -0.590  51.027 -23.209  1.00  0.00     0.021 A 
HETATM    4  C4  UNL     1       0.118  52.014 -23.899  1.00  0.00    -0.021 A 
HETATM    5  C11 UNL     1       0.796  52.982 -23.151  1.00  0.00     0.045 A 
HETATM    6  C12 UNL     1       0.777  52.973 -21.761  1.00  0.00     0.077 A 
HETATM    7  N1  UNL     1       1.435  53.907 -21.069  1.00  0.00    -0.284 N 
ATOM      8  H1  UNL     1       1.956  54.637 -21.555  1.00  0.00     0.187 HD
HETATM    9  N2  UNL     1       1.404  53.876 -19.704  1.00  0.00    -0.131 N 
ATOM     10  H2  UNL     1       1.905  54.585 -19.169  1.00  0.00     0.205 HD
HETATM   11  C13 UNL     1       0.714  52.915 -19.059  1.00  0.00     0.697 A 
HETATM   12  N5  UNL     1       0.039  51.965 -19.719  1.00  0.00    -0.188 N 
ATOM     13  H5  UNL     1      -0.481  51.246 -19.216  1.00  0.00     0.184 HD
HETATM   14  C26 UNL     1       0.067  51.985 -21.065  1.00  0.00     0.083 A 
ENDROOT
BRANCH  11  15
HETATM   15  N3  UNL     1       0.746  52.971 -17.665  1.00  0.00    -0.190 N 
HETATM   16  H10 UNL     1      -0.052  53.493 -17.335  1.00  0.00     0.184 HD
BRANCH  15  17
HETATM   17  C14 UNL     1       1.620  52.477 -16.690  1.00  0.00     0.050 A 
HETATM   18  C15 UNL     1       2.987  52.769 -16.647  1.00  0.00     0.030 A 
HETATM   19  C16 UNL     1       3.808  52.247 -15.643  1.00  0.00     0.004 A 
HETATM   20  C17 UNL     1       3.275  51.412 -14.664  1.00  0.00     0.018 A 
HETATM   21  C18 UNL     1       1.919  51.091 -14.690  1.00  0.00     0.002 A 
HETATM   22  C25 UNL     1       1.103  51.635 -15.691  1.00  0.00     0.048 A 
BRANCH  21  23
HETATM   23  S1  UNL     1       1.196  50.031 -13.452  1.00  0.00    -0.128 SA
BRANCH  23  24
HETATM   24  C19 UNL     1      -0.150  51.108 -12.840  1.00  0.00     0.109 C 
BRANCH  24  25
HETATM   25  C20 UNL     1      -1.586  50.678 -13.206  1.00  0.00     0.283 C 
BRANCH  25  26
HETATM   26  N4  UNL     1      -1.906  50.191 -14.547  1.00  0.00     0.089 N 
HETATM   27  C21 UNL     1      -2.307  48.794 -14.653  1.00  0.00     0.272 C 
HETATM   28  C22 UNL     1      -2.730  48.678 -16.112  1.00  0.00     0.032 C 
HETATM   29  C23 UNL     1      -3.089  50.098 -16.540  1.00  0.00     0.032 C 
HETATM   30  C24 UNL     1      -2.900  50.950 -15.292  1.00  0.00     0.272 C 
ENDBRANCH  25  26
ENDBRANCH  24  25
ENDBRANCH  23  24
ENDBRANCH  21  23
ENDBRANCH  15  17
ENDBRANCH  11  15
BRANCH   4  31
HETATM   31  C5  UNL     1       0.144  52.037 -25.368  1.00  0.00    -0.001 A 
HETATM   32  C6  UNL     1       1.376  51.872 -26.032  1.00  0.00     0.050 A 
HETATM   33  C7  UNL     1       1.435  51.884 -27.423  1.00  0.00     0.066 A 
HETATM   34  C8  UNL     1       0.287  52.062 -28.184  1.00  0.00     0.038 A 
HETATM   35  C9  UNL     1      -0.942  52.227 -27.548  1.00  0.00     0.027 A 
HETATM   36  C10 UNL     1      -1.016  52.214 -26.150  1.00  0.00     0.045 A 
HETATM   37 CL1  UNL     1      -2.574  52.438 -25.430  1.00  0.00    -0.083 Cl
BRANCH  33  38
HETATM   38  O1  UNL     1       2.614  51.719 -28.087  1.00  0.00    -0.361 OA
HETATM   39  H6  UNL     1       3.326  51.571 -27.442  1.00  0.00     0.217 HD
ENDBRANCH  33  38
ENDBRANCH   4  31
TORSDOF 8
ENDMDL
MODEL 7
REMARK minimizedAffinity -9.83193684
REMARK CNNscore 0.46790114
REMARK CNNaffinity 7.30571938
REMARK  8 active torsions:
REMARK  status: ('A' for Active; 'I' for Inactive)
REMARK    1  A    between atoms: C4_4  and  C5_5 
REMARK    2  A    between atoms: C7_7  and  O1_8 
REMARK    3  A    between atoms: C13_19  and  N3_20 
REMARK    4  A    between atoms: N3_20  and  C14_21 
REMARK    5  A    between atoms: C18_25  and  S1_26 
REMARK    6  A    between atoms: S1_26  and  C19_27 
REMARK    7  A    between atoms: C19_27  and  C20_28 
REMARK    8  A    between atoms: C20_28  and  N4_29 
ROOT
HETATM    1  C1  UNL     1      -0.955  49.319 -19.732  1.00  0.00     0.050 C 
HETATM    2  C2  UNL     1      -0.717  50.388 -20.766  1.00  0.00    -0.032 A 
HETATM    3  C3  UNL     1      -1.105  50.159 -22.097  1.00  0.00     0.021 A 
HETATM    4  C4  UNL     1      -0.885  51.125 -23.082  1.00  0.00    -0.021 A 
HETATM    5  C11 UNL     1      -0.270  52.323 -22.703  1.00  0.00     0.045 A 
HETATM    6  C12 UNL     1       0.120  52.558 -21.389  1.00  0.00     0.077 A 
HETATM    7  N1  UNL     1       0.708  53.709 -21.053  1.00  0.00    -0.284 N 
ATOM      8  H1  UNL     1       0.876  54.427 -21.758  1.00  0.00     0.187 HD
HETATM    9  N2  UNL     1       1.084  53.915 -19.756  1.00  0.00    -0.131 N 
ATOM     10  H2  UNL     1       1.536  54.791 -19.493  1.00  0.00     0.205 HD
HETATM   11  C13 UNL     1       0.862  52.970 -18.822  1.00  0.00     0.697 A 
HETATM   12  N5  UNL     1       0.271  51.805 -19.122  1.00  0.00    -0.188 N 
ATOM     13  H5  UNL     1       0.107  51.100 -18.403  1.00  0.00     0.184 HD
HETATM   14  C26 UNL     1      -0.100  51.591 -20.398  1.00  0.00     0.083 A 
ENDROOT
BRANCH  11  15
HETATM   15  N3  UNL     1       1.284  53.277 -17.529  1.00  0.00    -0.190 N 
HETATM   16  H10 UNL     1       1.002  54.220 -17.302  1.00  0.00     0.184 HD
BRANCH  15  17
HETATM   17  C14 UNL     1       1.986  52.577 -16.541  1.00  0.00     0.050 A 
HETATM   18  C15 UNL     1       3.380  52.501 -16.478  1.00  0.00     0.030 A 
HETATM   19  C16 UNL     1       4.023  51.788 -15.462  1.00  0.00     0.004 A 
HETATM   20  C17 UNL     1       3.276  51.127 -14.489  1.00  0.00     0.018 A 
HETATM   21  C18 UNL     1       1.884  51.172 -14.534  1.00  0.00     0.002 A 
HETATM   22  C25 UNL     1       1.253  51.905 -15.547  1.00  0.00     0.048 A 
BRANCH  21  23
HETATM   23  S1  UNL     1       0.892  50.345 -13.304  1.00  0.00    -0.128 SA
BRANCH  23  24
HETATM   24  C19 UNL     1      -0.502  51.519 -13.159  1.00  0.00     0.109 C 
BRANCH  24  25
HETATM   25  C20 UNL     1      -0.611  52.286 -11.824  1.00  0.00     0.283 C 
BRANCH  25  26
HETATM   26  N4  UNL     1      -1.908  52.501 -11.184  1.00  0.00     0.089 N 
HETATM   27  C21 UNL     1      -2.195  53.856 -10.735  1.00  0.00     0.272 C 
HETATM   28  C22 UNL     1      -3.652  53.761 -10.298  1.00  0.00     0.032 C 
HETATM   29  C23 UNL     1      -4.224  52.570 -11.063  1.00  0.00     0.032 C 
HETATM   30  C24 UNL     1      -3.079  52.072 -11.935  1.00  0.00     0.272 C 
ENDBRANCH  25  26
ENDBRANCH  24  25
ENDBRANCH  23  24
ENDBRANCH  21  23
ENDBRANCH  15  17
ENDBRANCH  11  15
BRANCH   4  31
HETATM   31  C5  UNL     1      -1.294  50.891 -24.474  1.00  0.00    -0.001 A 
HETATM   32  C6  UNL     1      -2.592  50.407 -24.732  1.00  0.00     0.050 A 
HETATM   33  C7  UNL     1      -3.014  50.180 -26.039  1.00  0.00     0.066 A 
HETATM   34  C8  UNL     1      -2.168  50.420 -27.113  1.00  0.00     0.038 A 
HETATM   35  C9  UNL     1      -0.879  50.899 -26.881  1.00  0.00     0.027 A 
HETATM   36  C10 UNL     1      -0.443  51.135 -25.572  1.00  0.00     0.045 A 
HETATM   37 CL1  UNL     1       1.172  51.717 -25.360  1.00  0.00    -0.083 Cl
BRANCH  33  38
HETATM   38  O1  UNL     1      -4.267  49.719 -26.313  1.00  0.00    -0.361 OA
HETATM   39  H6  UNL     1      -4.763  49.628 -25.482  1.00  0.00     0.217 HD
ENDBRANCH  33  38
ENDBRANCH   4  31
TORSDOF 8
ENDMDL
MODEL 8
REMARK minimizedAffinity -9.0148344
REMARK CNNscore 0.392198473
REMARK CNNaffinity 7.08165693
REMARK  8 active torsions:
REMARK  status: ('A' for Active; 'I' for Inactive)
REMARK    1  A    between atoms: C4_4  and  C5_5 
REMARK    2  A    between atoms: C7_7  and  O1_8 
REMARK    3  A    between atoms: C13_19  and  N3_20 
REMARK    4  A    between atoms: N3_20  and  C14_21 
REMARK    5  A    between atoms: C18_25  and  S1_26 
REMARK    6  A    between atoms: S1_26  and  C19_27 
REMARK    7  A    between atoms: C19_27  and  C20_28 
REMARK    8  A    between atoms: C20_28  and  N4_29 
ROOT
HETATM    1  C1  UNL     1      -1.019  49.194 -19.777  1.00  0.00     0.050 C 
HETATM    2  C2  UNL     1      -0.781  50.301 -20.770  1.00  0.00    -0.032 A 
HETATM    3  C3  UNL     1      -1.134  50.110 -22.117  1.00  0.00     0.021 A 
HETATM    4  C4  UNL     1      -0.912  51.112 -23.064  1.00  0.00    -0.021 A 
HETATM    5  C11 UNL     1      -0.331  52.309 -22.632  1.00  0.00     0.045 A 
HETATM    6  C12 UNL     1       0.024  52.508 -21.302  1.00  0.00     0.077 A 
HETATM    7  N1  UNL     1       0.581  53.658 -20.914  1.00  0.00    -0.284 N 
ATOM      8  H1  UNL     1       0.749  54.403 -21.591  1.00  0.00     0.187 HD
HETATM    9  N2  UNL     1       0.923  53.829 -19.604  1.00  0.00    -0.131 N 
ATOM     10  H2  UNL     1       1.350  54.704 -19.301  1.00  0.00     0.205 HD
HETATM   11  C13 UNL     1       0.700  52.848 -18.707  1.00  0.00     0.697 A 
HETATM   12  N5  UNL     1       0.141  51.683 -19.058  1.00  0.00    -0.188 N 
ATOM     13  H5  UNL     1      -0.025  50.951 -18.366  1.00  0.00     0.184 HD
HETATM   14  C26 UNL     1      -0.197  51.504 -20.348  1.00  0.00     0.083 A 
ENDROOT
BRANCH  11  15
HETATM   15  N3  UNL     1       1.087  53.121 -17.394  1.00  0.00    -0.190 N 
HETATM   16  H10 UNL     1       0.605  53.947 -17.070  1.00  0.00     0.184 HD
BRANCH  15  17
HETATM   17  C14 UNL     1       1.966  52.512 -16.491  1.00  0.00     0.050 A 
HETATM   18  C15 UNL     1       3.356  52.648 -16.542  1.00  0.00     0.030 A 
HETATM   19  C16 UNL     1       4.181  52.016 -15.606  1.00  0.00     0.004 A 
HETATM   20  C17 UNL     1       3.626  51.225 -14.603  1.00  0.00     0.018 A 
HETATM   21  C18 UNL     1       2.243  51.059 -14.536  1.00  0.00     0.002 A 
HETATM   22  C25 UNL     1       1.427  51.712 -15.468  1.00  0.00     0.048 A 
BRANCH  21  23
HETATM   23  S1  UNL     1       1.493  50.061 -13.263  1.00  0.00    -0.128 SA
BRANCH  23  24
HETATM   24  C19 UNL     1       0.603  48.835 -14.285  1.00  0.00     0.109 C 
BRANCH  24  25
HETATM   25  C20 UNL     1       1.479  47.813 -15.040  1.00  0.00     0.283 C 
BRANCH  25  26
HETATM   26  N4  UNL     1       1.498  46.404 -14.650  1.00  0.00     0.089 N 
HETATM   27  C21 UNL     1       2.567  45.993 -13.750  1.00  0.00     0.272 C 
HETATM   28  C22 UNL     1       2.187  44.556 -13.416  1.00  0.00     0.032 C 
HETATM   29  C23 UNL     1       0.683  44.470 -13.662  1.00  0.00     0.032 C 
HETATM   30  C24 UNL     1       0.268  45.875 -14.078  1.00  0.00     0.272 C 
ENDBRANCH  25  26
ENDBRANCH  24  25
ENDBRANCH  23  24
ENDBRANCH  21  23
ENDBRANCH  15  17
ENDBRANCH  11  15
BRANCH   4  31
HETATM   31  C5  UNL     1      -1.286  50.917 -24.472  1.00  0.00    -0.001 A 
HETATM   32  C6  UNL     1      -2.562  50.402 -24.774  1.00  0.00     0.050 A 
HETATM   33  C7  UNL     1      -2.950  50.209 -26.098  1.00  0.00     0.066 A 
HETATM   34  C8  UNL     1      -2.090  50.516 -27.144  1.00  0.00     0.038 A 
HETATM   35  C9  UNL     1      -0.822  51.026 -26.867  1.00  0.00     0.027 A 
HETATM   36  C10 UNL     1      -0.421  51.227 -25.542  1.00  0.00     0.045 A 
HETATM   37 CL1  UNL     1       1.171  51.851 -25.274  1.00  0.00    -0.083 Cl
BRANCH  33  38
HETATM   38  O1  UNL     1      -4.181  49.719 -26.415  1.00  0.00    -0.361 OA
HETATM   39  H6  UNL     1      -4.690  49.582 -25.598  1.00  0.00     0.217 HD
ENDBRANCH  33  38
ENDBRANCH   4  31
TORSDOF 8
ENDMDL
MODEL 9
REMARK minimizedAffinity -8.68893719
REMARK CNNscore 0.35382396
REMARK CNNaffinity 6.82652044
REMARK  8 active torsions:
REMARK  status: ('A' for Active; 'I' for Inactive)
REMARK    1  A    between atoms: C4_4  and  C5_5 
REMARK    2  A    between atoms: C7_7  and  O1_8 
REMARK    3  A    between atoms: C13_19  and  N3_20 
REMARK    4  A    between atoms: N3_20  and  C14_21 
REMARK    5  A    between atoms: C18_25  and  S1_26 
REMARK    6  A    between atoms: S1_26  and  C19_27 
REMARK    7  A    between atoms: C19_27  and  C20_28 
REMARK    8  A    between atoms: C20_28  and  N4_29 
ROOT
HETATM    1  C1  UNL     1       1.658  51.559 -15.588  1.00  0.00     0.050 C 
HETATM    2  C2  UNL     1       0.578  51.480 -16.634  1.00  0.00    -0.032 A 
HETATM    3  C3  UNL     1       0.853  51.906 -17.945  1.00  0.00     0.021 A 
HETATM    4  C4  UNL     1      -0.132  51.858 -18.935  1.00  0.00    -0.021 A 
HETATM    5  C11 UNL     1      -1.395  51.372 -18.583  1.00  0.00     0.045 A 
HETATM    6  C12 UNL     1      -1.679  50.950 -17.288  1.00  0.00     0.077 A 
HETATM    7  N1  UNL     1      -2.894  50.493 -16.975  1.00  0.00    -0.284 N 
ATOM      8  H1  UNL     1      -3.626  50.448 -17.684  1.00  0.00     0.187 HD
HETATM    9  N2  UNL     1      -3.148  50.087 -15.697  1.00  0.00    -0.131 N 
ATOM     10  H2  UNL     1      -4.075  49.738 -15.450  1.00  0.00     0.205 HD
HETATM   11  C13 UNL     1      -2.184  50.142 -14.758  1.00  0.00     0.697 A 
HETATM   12  N5  UNL     1      -0.952  50.591 -15.035  1.00  0.00    -0.188 N 
ATOM     13  H5  UNL     1      -0.231  50.623 -14.315  1.00  0.00     0.184 HD
HETATM   14  C26 UNL     1      -0.693  50.997 -16.292  1.00  0.00     0.083 A 
ENDROOT
BRANCH  11  15
HETATM   15  N3  UNL     1      -2.545  49.705 -13.483  1.00  0.00    -0.190 N 
HETATM   16  H10 UNL     1      -2.511  48.697 -13.455  1.00  0.00     0.184 HD
BRANCH  15  17
HETATM   17  C14 UNL     1      -2.927  50.354 -12.303  1.00  0.00     0.050 A 
HETATM   18  C15 UNL     1      -4.045  49.997 -11.543  1.00  0.00     0.030 A 
HETATM   19  C16 UNL     1      -4.373  50.682 -10.369  1.00  0.00     0.004 A 
HETATM   20  C17 UNL     1      -3.587  51.748  -9.938  1.00  0.00     0.018 A 
HETATM   21  C18 UNL     1      -2.474  52.136 -10.682  1.00  0.00     0.002 A 
HETATM   22  C25 UNL     1      -2.147  51.430 -11.847  1.00  0.00     0.048 A 
BRANCH  21  23
HETATM   23  S1  UNL     1      -1.439  53.491 -10.160  1.00  0.00    -0.128 SA
BRANCH  23  24
HETATM   24  C19 UNL     1      -0.079  53.355 -11.374  1.00  0.00     0.109 C 
BRANCH  24  25
HETATM   25  C20 UNL     1       1.328  53.098 -10.795  1.00  0.00     0.283 C 
BRANCH  25  26
HETATM   26  N4  UNL     1       2.401  54.078 -10.963  1.00  0.00     0.089 N 
HETATM   27  C21 UNL     1       2.063  55.467 -10.685  1.00  0.00     0.272 C 
HETATM   28  C22 UNL     1       3.414  56.164 -10.779  1.00  0.00     0.032 C 
HETATM   29  C23 UNL     1       4.448  55.072 -10.518  1.00  0.00     0.032 C 
HETATM   30  C24 UNL     1       3.637  53.814 -10.240  1.00  0.00     0.272 C 
ENDBRANCH  25  26
ENDBRANCH  24  25
ENDBRANCH  23  24
ENDBRANCH  21  23
ENDBRANCH  15  17
ENDBRANCH  11  15
BRANCH   4  31
HETATM   31  C5  UNL     1       0.154  52.297 -20.307  1.00  0.00    -0.001 A 
HETATM   32  C6  UNL     1       0.923  53.462 -20.505  1.00  0.00     0.050 A 
HETATM   33  C7  UNL     1       1.216  53.904 -21.793  1.00  0.00     0.066 A 
HETATM   34  C8  UNL     1       0.757  53.212 -22.906  1.00  0.00     0.038 A 
HETATM   35  C9  UNL     1      -0.005  52.057 -22.733  1.00  0.00     0.027 A 
HETATM   36  C10 UNL     1      -0.305  51.601 -21.444  1.00  0.00     0.045 A 
HETATM   37 CL1  UNL     1      -1.267  50.169 -21.308  1.00  0.00    -0.083 Cl
BRANCH  33  38
HETATM   38  O1  UNL     1       1.964  55.023 -22.008  1.00  0.00    -0.361 OA
HETATM   39  H6  UNL     1       2.248  55.387 -21.152  1.00  0.00     0.217 HD
ENDBRANCH  33  38
ENDBRANCH   4  31
TORSDOF 8
ENDMDL
