MODEL 1
REMARK minimizedAffinity -7.14522505
REMARK CNNscore 0.266634911
REMARK CNNaffinity 5.82377672
REMARK  10 active torsions:
REMARK  status: ('A' for Active; 'I' for Inactive)
REMARK    1  A    between atoms: N1_2  and  S1_3 
REMARK    2  A    between atoms: S1_3  and  C2_6 
REMARK    3  A    between atoms: C9_13  and  C10_14 
REMARK    4  A    between atoms: C13_18  and  C14_19 
REMARK    5  A    between atoms: C14_19  and  C15_20 
REMARK    6  A    between atoms: C15_20  and  C16_21 
REMARK    7  A    between atoms: C16_21  and  N3_22 
REMARK    8  A    between atoms: N4_25  and  C19_26 
REMARK    9  A    between atoms: C19_26  and  C20_27 
REMARK   10  A    between atoms: C20_27  and  O3_28 
ROOT
HETATM    1  C10 UNL     1     -11.142   9.733  22.946  1.00  0.00     0.040 A 
HETATM    2  N2  UNL     1     -10.660  10.562  23.935  1.00  0.00    -0.359 N 
HETATM    3  C11 UNL     1     -10.077  11.661  23.380  1.00  0.00     0.016 A 
HETATM    4  C12 UNL     1     -10.171  11.566  22.012  1.00  0.00    -0.027 A 
HETATM    5  C13 UNL     1     -10.837  10.337  21.722  1.00  0.00    -0.023 A 
HETATM    6  C23 UNL     1      -9.604  12.607  21.104  1.00  0.00     0.041 C 
HETATM    7  C24 UNL     1      -9.299  13.910  21.872  1.00  0.00     0.005 C 
HETATM    8  C25 UNL     1      -8.599  13.639  23.217  1.00  0.00     0.006 C 
HETATM    9  C26 UNL     1      -9.461  12.774  24.154  1.00  0.00     0.057 C 
HETATM   10  H9  UNL     1     -10.710  10.380  24.933  1.00  0.00     0.166 HD
ENDROOT
BRANCH   1  11
HETATM   11  C9  UNL     1     -11.821   8.516  23.241  1.00  0.00     0.048 C 
HETATM   12  C8  UNL     1     -12.693   8.235  24.225  1.00  0.00     0.047 A 
HETATM   13  C6  UNL     1     -13.307   6.901  24.396  1.00  0.00     0.008 A 
HETATM   14  C27 UNL     1     -13.244   9.091  25.344  1.00  0.00     0.257 A 
HETATM   15  C5  UNL     1     -14.119   6.981  25.533  1.00  0.00     0.046 A 
HETATM   16  C7  UNL     1     -13.228   5.718  23.681  1.00  0.00     0.040 A 
HETATM   17  C4  UNL     1     -14.854   5.913  26.010  1.00  0.00     0.032 A 
HETATM   18  N5  UNL     1     -14.074   8.258  26.074  1.00  0.00    -0.322 N 
HETATM   19  C3  UNL     1     -14.774   4.712  25.302  1.00  0.00     0.027 A 
HETATM   20  C2  UNL     1     -13.981   4.627  24.138  1.00  0.00     0.080 A 
HETATM   21  H37 UNL     1     -14.579   8.576  26.887  1.00  0.00     0.169 HD
HETATM   22  O4  UNL     1     -13.038  10.267  25.571  1.00  0.00    -0.267 OA
BRANCH  20  23
HETATM   23  S1  UNL     1     -13.907   3.090  23.243  1.00  0.00     0.258 S 
HETATM   24  O1  UNL     1     -14.832   2.170  23.864  1.00  0.00    -0.201 OA
HETATM   25  O2  UNL     1     -13.958   3.396  21.831  1.00  0.00    -0.201 OA
BRANCH  23  26
HETATM   26  N1  UNL     1     -12.375   2.536  23.614  1.00  0.00    -0.320 N 
HETATM   27  C1  UNL     1     -12.061   1.994  24.925  1.00  0.00     0.159 C 
HETATM   28  H4  UNL     1     -11.763   2.357  22.821  1.00  0.00     0.171 HD
ENDBRANCH  23  26
ENDBRANCH  20  23
ENDBRANCH   1  11
BRANCH   5  29
HETATM   29  C14 UNL     1     -11.122   9.806  20.346  1.00  0.00     0.043 C 
BRANCH  29  30
HETATM   30  C15 UNL     1     -12.119  10.651  19.551  1.00  0.00     0.035 C 
BRANCH  30  31
HETATM   31  C16 UNL     1     -11.453  11.494  18.455  1.00  0.00     0.273 C 
BRANCH  31  32
HETATM   32  N3  UNL     1     -11.730  10.940  17.126  1.00  0.00     0.091 N 
HETATM   33  C17 UNL     1     -11.346  11.875  16.053  1.00  0.00     0.302 C 
HETATM   34  C18 UNL     1     -11.531  11.218  14.667  1.00  0.00     0.302 C 
HETATM   35  N4  UNL     1     -10.652  10.047  14.432  1.00  0.00     0.093 N 
HETATM   36  C21 UNL     1     -10.164   9.490  15.709  1.00  0.00     0.302 C 
HETATM   37  C22 UNL     1     -11.131   9.606  16.915  1.00  0.00     0.302 C 
BRANCH  35  38
HETATM   38  C19 UNL     1     -11.334   9.019  13.617  1.00  0.00     0.298 C 
BRANCH  38  39
HETATM   39  C20 UNL     1     -12.515   9.556  12.785  1.00  0.00     0.194 C 
BRANCH  39  40
HETATM   40  O3  UNL     1     -12.135   9.840  11.441  1.00  0.00    -0.399 OA
HETATM   41  H24 UNL     1     -12.931  10.167  10.989  1.00  0.00     0.209 HD
ENDBRANCH  39  40
ENDBRANCH  38  39
ENDBRANCH  35  38
ENDBRANCH  31  32
ENDBRANCH  30  31
ENDBRANCH  29  30
ENDBRANCH   5  29
TORSDOF 10
ENDMDL
MODEL 2
REMARK minimizedAffinity -8.7987442
REMARK CNNscore 0.245835692
REMARK CNNaffinity 7.15151358
REMARK  10 active torsions:
REMARK  status: ('A' for Active; 'I' for Inactive)
REMARK    1  A    between atoms: N1_2  and  S1_3 
REMARK    2  A    between atoms: S1_3  and  C2_6 
REMARK    3  A    between atoms: C9_13  and  C10_14 
REMARK    4  A    between atoms: C13_18  and  C14_19 
REMARK    5  A    between atoms: C14_19  and  C15_20 
REMARK    6  A    between atoms: C15_20  and  C16_21 
REMARK    7  A    between atoms: C16_21  and  N3_22 
REMARK    8  A    between atoms: N4_25  and  C19_26 
REMARK    9  A    between atoms: C19_26  and  C20_27 
REMARK   10  A    between atoms: C20_27  and  O3_28 
ROOT
HETATM    1  C10 UNL     1      -0.463   5.762  11.583  1.00  0.00     0.040 A 
HETATM    2  N2  UNL     1       0.058   5.921  10.319  1.00  0.00    -0.359 N 
HETATM    3  C11 UNL     1       1.360   6.314  10.395  1.00  0.00     0.016 A 
HETATM    4  C12 UNL     1       1.711   6.416  11.720  1.00  0.00    -0.027 A 
HETATM    5  C13 UNL     1       0.556   6.079  12.488  1.00  0.00    -0.023 A 
HETATM    6  C23 UNL     1       3.075   6.851  12.148  1.00  0.00     0.041 C 
HETATM    7  C24 UNL     1       4.079   6.763  10.980  1.00  0.00     0.005 C 
HETATM    8  C25 UNL     1       3.497   7.330   9.672  1.00  0.00     0.006 C 
HETATM    9  C26 UNL     1       2.238   6.568   9.220  1.00  0.00     0.057 C 
HETATM   10  H9  UNL     1      -0.451   5.787   9.449  1.00  0.00     0.166 HD
ENDROOT
BRANCH   1  11
HETATM   11  C9  UNL     1      -1.804   5.335  11.803  1.00  0.00     0.048 C 
HETATM   12  C8  UNL     1      -2.365   4.128  11.611  1.00  0.00     0.047 A 
HETATM   13  C6  UNL     1      -3.791   3.853  11.886  1.00  0.00     0.008 A 
HETATM   14  C27 UNL     1      -1.783   2.829  11.100  1.00  0.00     0.257 A 
HETATM   15  C5  UNL     1      -4.011   2.517  11.535  1.00  0.00     0.046 A 
HETATM   16  C7  UNL     1      -4.827   4.619  12.392  1.00  0.00     0.040 A 
HETATM   17  C4  UNL     1      -5.243   1.901  11.649  1.00  0.00     0.032 A 
HETATM   18  N5  UNL     1      -2.837   1.932  11.080  1.00  0.00    -0.322 N 
HETATM   19  C3  UNL     1      -6.298   2.667  12.151  1.00  0.00     0.027 A 
HETATM   20  C2  UNL     1      -6.081   4.007  12.534  1.00  0.00     0.080 A 
HETATM   21  H37 UNL     1      -2.728   0.976  10.778  1.00  0.00     0.169 HD
HETATM   22  O4  UNL     1      -0.635   2.584  10.784  1.00  0.00    -0.267 OA
BRANCH  20  23
HETATM   23  S1  UNL     1      -7.437   4.958  13.186  1.00  0.00     0.258 S 
HETATM   24  O1  UNL     1      -7.002   6.333  13.293  1.00  0.00    -0.201 OA
HETATM   25  O2  UNL     1      -8.631   4.584  12.463  1.00  0.00    -0.201 OA
BRANCH  23  26
HETATM   26  N1  UNL     1      -7.558   4.382  14.750  1.00  0.00    -0.320 N 
HETATM   27  C1  UNL     1      -7.561   5.281  15.891  1.00  0.00     0.159 C 
HETATM   28  H4  UNL     1      -7.886   3.424  14.846  1.00  0.00     0.171 HD
ENDBRANCH  23  26
ENDBRANCH  20  23
ENDBRANCH   1  11
BRANCH   5  29
HETATM   29  C14 UNL     1       0.473   6.093  13.987  1.00  0.00     0.043 C 
BRANCH  29  30
HETATM   30  C15 UNL     1      -0.155   7.364  14.562  1.00  0.00     0.035 C 
BRANCH  30  31
HETATM   31  C16 UNL     1      -1.526   7.119  15.205  1.00  0.00     0.273 C 
BRANCH  31  32
HETATM   32  N3  UNL     1      -1.933   8.263  16.026  1.00  0.00     0.091 N 
HETATM   33  C17 UNL     1      -0.968   9.373  15.936  1.00  0.00     0.302 C 
HETATM   34  C18 UNL     1      -1.484  10.607  16.709  1.00  0.00     0.302 C 
HETATM   35  N4  UNL     1      -2.728  11.190  16.154  1.00  0.00     0.093 N 
HETATM   36  C21 UNL     1      -3.441  10.207  15.314  1.00  0.00     0.302 C 
HETATM   37  C22 UNL     1      -3.308   8.723  15.742  1.00  0.00     0.302 C 
BRANCH  35  38
HETATM   38  C19 UNL     1      -3.597  11.720  17.226  1.00  0.00     0.298 C 
BRANCH  38  39
HETATM   39  C20 UNL     1      -3.152  11.330  18.648  1.00  0.00     0.194 C 
BRANCH  39  40
HETATM   40  O3  UNL     1      -3.741  10.103  19.074  1.00  0.00    -0.399 OA
HETATM   41  H24 UNL     1      -3.409   9.931  19.970  1.00  0.00     0.209 HD
ENDBRANCH  39  40
ENDBRANCH  38  39
ENDBRANCH  35  38
ENDBRANCH  31  32
ENDBRANCH  30  31
ENDBRANCH  29  30
ENDBRANCH   5  29
TORSDOF 10
ENDMDL
MODEL 3
REMARK minimizedAffinity -7.06744814
REMARK CNNscore 0.237795591
REMARK CNNaffinity 5.75748587
REMARK  10 active torsions:
REMARK  status: ('A' for Active; 'I' for Inactive)
REMARK    1  A    between atoms: N1_2  and  S1_3 
REMARK    2  A    between atoms: S1_3  and  C2_6 
REMARK    3  A    between atoms: C9_13  and  C10_14 
REMARK    4  A    between atoms: C13_18  and  C14_19 
REMARK    5  A    between atoms: C14_19  and  C15_20 
REMARK    6  A    between atoms: C15_20  and  C16_21 
REMARK    7  A    between atoms: C16_21  and  N3_22 
REMARK    8  A    between atoms: N4_25  and  C19_26 
REMARK    9  A    between atoms: C19_26  and  C20_27 
REMARK   10  A    between atoms: C20_27  and  O3_28 
ROOT
HETATM    1  C10 UNL     1     -11.269   9.701  22.742  1.00  0.00     0.040 A 
HETATM    2  N2  UNL     1     -10.483  10.406  23.626  1.00  0.00    -0.359 N 
HETATM    3  C11 UNL     1     -10.008  11.535  23.030  1.00  0.00     0.016 A 
HETATM    4  C12 UNL     1     -10.482  11.585  21.740  1.00  0.00    -0.027 A 
HETATM    5  C13 UNL     1     -11.277  10.416  21.541  1.00  0.00    -0.023 A 
HETATM    6  C23 UNL     1     -10.123  12.694  20.806  1.00  0.00     0.041 C 
HETATM    7  C24 UNL     1      -9.539  13.899  21.571  1.00  0.00     0.005 C 
HETATM    8  C25 UNL     1      -8.513  13.467  22.636  1.00  0.00     0.006 C 
HETATM    9  C26 UNL     1      -9.135  12.540  23.696  1.00  0.00     0.057 C 
HETATM   10  H9  UNL     1     -10.266  10.124  24.578  1.00  0.00     0.166 HD
ENDROOT
BRANCH   1  11
HETATM   11  C9  UNL     1     -11.914   8.483  23.106  1.00  0.00     0.048 C 
HETATM   12  C8  UNL     1     -12.717   8.215  24.150  1.00  0.00     0.047 A 
HETATM   13  C6  UNL     1     -13.305   6.880  24.388  1.00  0.00     0.008 A 
HETATM   14  C27 UNL     1     -13.204   9.090  25.285  1.00  0.00     0.257 A 
HETATM   15  C5  UNL     1     -14.042   6.977  25.574  1.00  0.00     0.046 A 
HETATM   16  C7  UNL     1     -13.260   5.683  23.694  1.00  0.00     0.040 A 
HETATM   17  C4  UNL     1     -14.733   5.912  26.120  1.00  0.00     0.032 A 
HETATM   18  N5  UNL     1     -13.976   8.266  26.085  1.00  0.00    -0.322 N 
HETATM   19  C3  UNL     1     -14.686   4.698  25.433  1.00  0.00     0.027 A 
HETATM   20  C2  UNL     1     -13.971   4.595  24.223  1.00  0.00     0.080 A 
HETATM   21  H37 UNL     1     -14.429   8.596  26.923  1.00  0.00     0.169 HD
HETATM   22  O4  UNL     1     -12.995  10.273  25.474  1.00  0.00    -0.267 OA
BRANCH  20  23
HETATM   23  S1  UNL     1     -13.939   3.040  23.356  1.00  0.00     0.258 S 
HETATM   24  O1  UNL     1     -14.801   2.121  24.063  1.00  0.00    -0.201 OA
HETATM   25  O2  UNL     1     -14.098   3.314  21.946  1.00  0.00    -0.201 OA
BRANCH  23  26
HETATM   26  N1  UNL     1     -12.375   2.515  23.625  1.00  0.00    -0.320 N 
HETATM   27  C1  UNL     1     -11.997   1.862  24.866  1.00  0.00     0.159 C 
HETATM   28  H4  UNL     1     -11.784   2.439  22.800  1.00  0.00     0.171 HD
ENDBRANCH  23  26
ENDBRANCH  20  23
ENDBRANCH   1  11
BRANCH   5  29
HETATM   29  C14 UNL     1     -11.963  10.040  20.258  1.00  0.00     0.043 C 
BRANCH  29  30
HETATM   30  C15 UNL     1     -11.036   9.399  19.224  1.00  0.00     0.035 C 
BRANCH  30  31
HETATM   31  C16 UNL     1     -11.114  10.072  17.848  1.00  0.00     0.273 C 
BRANCH  31  32
HETATM   32  N3  UNL     1     -11.184   9.072  16.777  1.00  0.00     0.091 N 
HETATM   33  C17 UNL     1     -11.724   9.642  15.530  1.00  0.00     0.302 C 
HETATM   34  C18 UNL     1     -11.670   8.603  14.388  1.00  0.00     0.302 C 
HETATM   35  N4  UNL     1     -10.296   8.193  14.011  1.00  0.00     0.093 N 
HETATM   36  C21 UNL     1      -9.341   8.488  15.097  1.00  0.00     0.302 C 
HETATM   37  C22 UNL     1      -9.899   8.384  16.540  1.00  0.00     0.302 C 
BRANCH  35  38
HETATM   38  C19 UNL     1     -10.250   6.769  13.618  1.00  0.00     0.298 C 
BRANCH  38  39
HETATM   39  C20 UNL     1      -8.828   6.180  13.549  1.00  0.00     0.194 C 
BRANCH  39  40
HETATM   40  O3  UNL     1      -8.841   4.791  13.230  1.00  0.00    -0.399 OA
HETATM   41  H24 UNL     1      -7.913   4.502  13.204  1.00  0.00     0.209 HD
ENDBRANCH  39  40
ENDBRANCH  38  39
ENDBRANCH  35  38
ENDBRANCH  31  32
ENDBRANCH  30  31
ENDBRANCH  29  30
ENDBRANCH   5  29
TORSDOF 10
ENDMDL
MODEL 4
REMARK minimizedAffinity -7.49593258
REMARK CNNscore 0.175638288
REMARK CNNaffinity 5.63269234
REMARK  10 active torsions:
REMARK  status: ('A' for Active; 'I' for Inactive)
REMARK    1  A    between atoms: N1_2  and  S1_3 
REMARK    2  A    between atoms: S1_3  and  C2_6 
REMARK    3  A    between atoms: C9_13  and  C10_14 
REMARK    4  A    between atoms: C13_18  and  C14_19 
REMARK    5  A    between atoms: C14_19  and  C15_20 
REMARK    6  A    between atoms: C15_20  and  C16_21 
REMARK    7  A    between atoms: C16_21  and  N3_22 
REMARK    8  A    between atoms: N4_25  and  C19_26 
REMARK    9  A    between atoms: C19_26  and  C20_27 
REMARK   10  A    between atoms: C20_27  and  O3_28 
ROOT
HETATM    1  C10 UNL     1     -10.498 -13.024  24.842  1.00  0.00     0.040 A 
HETATM    2  N2  UNL     1      -9.532 -13.967  25.110  1.00  0.00    -0.359 N 
HETATM    3  C11 UNL     1      -9.673 -14.432  26.383  1.00  0.00     0.016 A 
HETATM    4  C12 UNL     1     -10.742 -13.794  26.968  1.00  0.00    -0.027 A 
HETATM    5  C13 UNL     1     -11.269 -12.886  26.000  1.00  0.00    -0.023 A 
HETATM    6  C23 UNL     1     -11.150 -14.064  28.379  1.00  0.00     0.041 C 
HETATM    7  C24 UNL     1     -10.514 -15.368  28.903  1.00  0.00     0.005 C 
HETATM    8  C25 UNL     1      -9.024 -15.477  28.530  1.00  0.00     0.006 C 
HETATM    9  C26 UNL     1      -8.808 -15.470  27.006  1.00  0.00     0.057 C 
HETATM   10  H9  UNL     1      -8.804 -14.266  24.467  1.00  0.00     0.166 HD
ENDROOT
BRANCH   1  11
HETATM   11  C9  UNL     1     -10.600 -12.383  23.573  1.00  0.00     0.048 C 
HETATM   12  C8  UNL     1      -9.717 -11.596  22.934  1.00  0.00     0.047 A 
HETATM   13  C6  UNL     1      -9.987 -10.998  21.610  1.00  0.00     0.008 A 
HETATM   14  C27 UNL     1      -8.336 -11.121  23.330  1.00  0.00     0.257 A 
HETATM   15  C5  UNL     1      -8.866 -10.224  21.288  1.00  0.00     0.046 A 
HETATM   16  C7  UNL     1     -11.049 -11.083  20.726  1.00  0.00     0.040 A 
HETATM   17  C4  UNL     1      -8.761  -9.502  20.115  1.00  0.00     0.032 A 
HETATM   18  N5  UNL     1      -7.914 -10.304  22.295  1.00  0.00    -0.322 N 
HETATM   19  C3  UNL     1      -9.831  -9.573  19.221  1.00  0.00     0.027 A 
HETATM   20  C2  UNL     1     -10.953 -10.373  19.520  1.00  0.00     0.080 A 
HETATM   21  H37 UNL     1      -7.015  -9.847  22.300  1.00  0.00     0.169 HD
HETATM   22  O4  UNL     1      -7.697 -11.394  24.327  1.00  0.00    -0.267 OA
BRANCH  20  23
HETATM   23  S1  UNL     1     -12.298 -10.461  18.357  1.00  0.00     0.258 S 
HETATM   24  O1  UNL     1     -13.460 -10.954  19.060  1.00  0.00    -0.201 OA
HETATM   25  O2  UNL     1     -12.320  -9.225  17.608  1.00  0.00    -0.201 OA
BRANCH  23  26
HETATM   26  N1  UNL     1     -11.809 -11.693  17.339  1.00  0.00    -0.320 N 
HETATM   27  C1  UNL     1     -10.984 -11.431  16.173  1.00  0.00     0.159 C 
HETATM   28  H4  UNL     1     -11.892 -12.636  17.712  1.00  0.00     0.171 HD
ENDBRANCH  23  26
ENDBRANCH  20  23
ENDBRANCH   1  11
BRANCH   5  29
HETATM   29  C14 UNL     1     -12.424 -11.953  26.223  1.00  0.00     0.043 C 
BRANCH  29  30
HETATM   30  C15 UNL     1     -12.277 -11.070  27.464  1.00  0.00     0.035 C 
BRANCH  30  31
HETATM   31  C16 UNL     1     -13.518 -10.211  27.741  1.00  0.00     0.273 C 
BRANCH  31  32
HETATM   32  N3  UNL     1     -13.155  -8.798  27.891  1.00  0.00     0.091 N 
HETATM   33  C17 UNL     1     -14.262  -7.905  27.506  1.00  0.00     0.302 C 
HETATM   34  C18 UNL     1     -13.896  -6.431  27.793  1.00  0.00     0.302 C 
HETATM   35  N4  UNL     1     -13.696  -6.128  29.230  1.00  0.00     0.093 N 
HETATM   36  C21 UNL     1     -13.419  -7.359  29.994  1.00  0.00     0.302 C 
HETATM   37  C22 UNL     1     -12.645  -8.470  29.238  1.00  0.00     0.302 C 
BRANCH  35  38
HETATM   38  C19 UNL     1     -12.634  -5.118  29.422  1.00  0.00     0.298 C 
BRANCH  38  39
HETATM   39  C20 UNL     1     -11.940  -5.187  30.796  1.00  0.00     0.194 C 
BRANCH  39  40
HETATM   40  O3  UNL     1     -12.500  -4.262  31.724  1.00  0.00    -0.399 OA
HETATM   41  H24 UNL     1     -12.012  -4.372  32.557  1.00  0.00     0.209 HD
ENDBRANCH  39  40
ENDBRANCH  38  39
ENDBRANCH  35  38
ENDBRANCH  31  32
ENDBRANCH  30  31
ENDBRANCH  29  30
ENDBRANCH   5  29
TORSDOF 10
ENDMDL
MODEL 5
REMARK minimizedAffinity -7.28581524
REMARK CNNscore 0.136130273
REMARK CNNaffinity 6.31053543
REMARK  10 active torsions:
REMARK  status: ('A' for Active; 'I' for Inactive)
REMARK    1  A    between atoms: N1_2  and  S1_3 
REMARK    2  A    between atoms: S1_3  and  C2_6 
REMARK    3  A    between atoms: C9_13  and  C10_14 
REMARK    4  A    between atoms: C13_18  and  C14_19 
REMARK    5  A    between atoms: C14_19  and  C15_20 
REMARK    6  A    between atoms: C15_20  and  C16_21 
REMARK    7  A    between atoms: C16_21  and  N3_22 
REMARK    8  A    between atoms: N4_25  and  C19_26 
REMARK    9  A    between atoms: C19_26  and  C20_27 
REMARK   10  A    between atoms: C20_27  and  O3_28 
ROOT
HETATM    1  C10 UNL     1      -9.926   7.574  14.582  1.00  0.00     0.040 A 
HETATM    2  N2  UNL     1     -10.710   6.444  14.540  1.00  0.00    -0.359 N 
HETATM    3  C11 UNL     1     -12.025   6.790  14.452  1.00  0.00     0.016 A 
HETATM    4  C12 UNL     1     -12.118   8.162  14.434  1.00  0.00    -0.027 A 
HETATM    5  C13 UNL     1     -10.789   8.674  14.528  1.00  0.00    -0.023 A 
HETATM    6  C23 UNL     1     -13.434   8.866  14.366  1.00  0.00     0.041 C 
HETATM    7  C24 UNL     1     -14.557   7.906  13.924  1.00  0.00     0.005 C 
HETATM    8  C25 UNL     1     -14.480   6.550  14.649  1.00  0.00     0.006 C 
HETATM    9  C26 UNL     1     -13.152   5.821  14.374  1.00  0.00     0.057 C 
HETATM   10  H9  UNL     1     -10.370   5.487  14.588  1.00  0.00     0.166 HD
ENDROOT
BRANCH   1  11
HETATM   11  C9  UNL     1      -8.504   7.509  14.655  1.00  0.00     0.048 C 
HETATM   12  C8  UNL     1      -7.656   6.619  14.111  1.00  0.00     0.047 A 
HETATM   13  C6  UNL     1      -6.191   6.692  14.292  1.00  0.00     0.008 A 
HETATM   14  C27 UNL     1      -7.906   5.397  13.255  1.00  0.00     0.257 A 
HETATM   15  C5  UNL     1      -5.652   5.590  13.620  1.00  0.00     0.046 A 
HETATM   16  C7  UNL     1      -5.356   7.588  14.939  1.00  0.00     0.040 A 
HETATM   17  C4  UNL     1      -4.297   5.322  13.577  1.00  0.00     0.032 A 
HETATM   18  N5  UNL     1      -6.659   4.845  13.021  1.00  0.00    -0.322 N 
HETATM   19  C3  UNL     1      -3.447   6.214  14.234  1.00  0.00     0.027 A 
HETATM   20  C2  UNL     1      -3.975   7.344  14.891  1.00  0.00     0.080 A 
HETATM   21  H37 UNL     1      -6.532   4.011  12.469  1.00  0.00     0.169 HD
HETATM   22  O4  UNL     1      -8.963   4.972  12.830  1.00  0.00    -0.267 OA
BRANCH  20  23
HETATM   23  S1  UNL     1      -2.870   8.476  15.708  1.00  0.00     0.258 S 
HETATM   24  O1  UNL     1      -2.129   7.731  16.701  1.00  0.00    -0.201 OA
HETATM   25  O2  UNL     1      -2.214   9.267  14.692  1.00  0.00    -0.201 OA
BRANCH  23  26
HETATM   26  N1  UNL     1      -3.926   9.458  16.551  1.00  0.00    -0.320 N 
HETATM   27  C1  UNL     1      -4.108  10.856  16.198  1.00  0.00     0.159 C 
HETATM   28  H4  UNL     1      -4.609   8.980  17.134  1.00  0.00     0.171 HD
ENDBRANCH  23  26
ENDBRANCH  20  23
ENDBRANCH   1  11
BRANCH   5  29
HETATM   29  C14 UNL     1     -10.419  10.129  14.581  1.00  0.00     0.043 C 
BRANCH  29  30
HETATM   30  C15 UNL     1     -10.481  10.734  15.984  1.00  0.00     0.035 C 
BRANCH  30  31
HETATM   31  C16 UNL     1     -10.019  12.196  16.029  1.00  0.00     0.273 C 
BRANCH  31  32
HETATM   32  N3  UNL     1     -10.592  12.962  14.917  1.00  0.00     0.091 N 
HETATM   33  C17 UNL     1     -11.670  13.859  15.369  1.00  0.00     0.302 C 
HETATM   34  C18 UNL     1     -12.168  14.741  14.202  1.00  0.00     0.302 C 
HETATM   35  N4  UNL     1     -11.146  15.674  13.672  1.00  0.00     0.093 N 
HETATM   36  C21 UNL     1      -9.787  15.228  14.036  1.00  0.00     0.302 C 
HETATM   37  C22 UNL     1      -9.578  13.695  14.133  1.00  0.00     0.302 C 
BRANCH  35  38
HETATM   38  C19 UNL     1     -11.287  15.852  12.211  1.00  0.00     0.298 C 
BRANCH  38  39
HETATM   39  C20 UNL     1     -12.678  15.482  11.663  1.00  0.00     0.194 C 
BRANCH  39  40
HETATM   40  O3  UNL     1     -12.619  14.384  10.756  1.00  0.00    -0.399 OA
HETATM   41  H24 UNL     1     -13.529  14.215  10.462  1.00  0.00     0.209 HD
ENDBRANCH  39  40
ENDBRANCH  38  39
ENDBRANCH  35  38
ENDBRANCH  31  32
ENDBRANCH  30  31
ENDBRANCH  29  30
ENDBRANCH   5  29
TORSDOF 10
ENDMDL
MODEL 6
REMARK minimizedAffinity -7.49072361
REMARK CNNscore 0.129814118
REMARK CNNaffinity 6.67149973
REMARK  10 active torsions:
REMARK  status: ('A' for Active; 'I' for Inactive)
REMARK    1  A    between atoms: N1_2  and  S1_3 
REMARK    2  A    between atoms: S1_3  and  C2_6 
REMARK    3  A    between atoms: C9_13  and  C10_14 
REMARK    4  A    between atoms: C13_18  and  C14_19 
REMARK    5  A    between atoms: C14_19  and  C15_20 
REMARK    6  A    between atoms: C15_20  and  C16_21 
REMARK    7  A    between atoms: C16_21  and  N3_22 
REMARK    8  A    between atoms: N4_25  and  C19_26 
REMARK    9  A    between atoms: C19_26  and  C20_27 
REMARK   10  A    between atoms: C20_27  and  O3_28 
ROOT
HETATM    1  C10 UNL     1      -9.265   7.345  14.651  1.00  0.00     0.040 A 
HETATM    2  N2  UNL     1     -10.216   6.386  14.387  1.00  0.00    -0.359 N 
HETATM    3  C11 UNL     1     -11.465   6.915  14.527  1.00  0.00     0.016 A 
HETATM    4  C12 UNL     1     -11.344   8.237  14.886  1.00  0.00    -0.027 A 
HETATM    5  C13 UNL     1      -9.948   8.520  14.980  1.00  0.00    -0.023 A 
HETATM    6  C23 UNL     1     -12.536   9.100  15.141  1.00  0.00     0.041 C 
HETATM    7  C24 UNL     1     -13.819   8.460  14.572  1.00  0.00     0.005 C 
HETATM    8  C25 UNL     1     -13.910   6.958  14.897  1.00  0.00     0.006 C 
HETATM    9  C26 UNL     1     -12.731   6.165  14.306  1.00  0.00     0.057 C 
HETATM   10  H9  UNL     1     -10.027   5.418  14.142  1.00  0.00     0.166 HD
ENDROOT
BRANCH   1  11
HETATM   11  C9  UNL     1      -7.869   7.074  14.561  1.00  0.00     0.048 C 
HETATM   12  C8  UNL     1      -7.222   6.119  13.870  1.00  0.00     0.047 A 
HETATM   13  C6  UNL     1      -5.752   5.970  13.891  1.00  0.00     0.008 A 
HETATM   14  C27 UNL     1      -7.737   5.018  12.970  1.00  0.00     0.257 A 
HETATM   15  C5  UNL     1      -5.454   4.860  13.093  1.00  0.00     0.046 A 
HETATM   16  C7  UNL     1      -4.732   6.684  14.498  1.00  0.00     0.040 A 
HETATM   17  C4  UNL     1      -4.166   4.408  12.883  1.00  0.00     0.032 A 
HETATM   18  N5  UNL     1      -6.616   4.315  12.563  1.00  0.00    -0.322 N 
HETATM   19  C3  UNL     1      -3.130   5.114  13.497  1.00  0.00     0.027 A 
HETATM   20  C2  UNL     1      -3.415   6.252  14.280  1.00  0.00     0.080 A 
HETATM   21  H37 UNL     1      -6.671   3.518  11.948  1.00  0.00     0.169 HD
HETATM   22  O4  UNL     1      -8.883   4.782  12.638  1.00  0.00    -0.267 OA
BRANCH  20  23
HETATM   23  S1  UNL     1      -2.077   7.147  15.040  1.00  0.00     0.258 S 
HETATM   24  O1  UNL     1      -1.630   8.154  14.105  1.00  0.00    -0.201 OA
HETATM   25  O2  UNL     1      -2.471   7.472  16.391  1.00  0.00    -0.201 OA
BRANCH  23  26
HETATM   26  N1  UNL     1      -0.867   5.995  15.100  1.00  0.00    -0.320 N 
HETATM   27  C1  UNL     1       0.307   6.083  14.250  1.00  0.00     0.159 C 
HETATM   28  H4  UNL     1      -0.866   5.393  15.921  1.00  0.00     0.171 HD
ENDBRANCH  23  26
ENDBRANCH  20  23
ENDBRANCH   1  11
BRANCH   5  29
HETATM   29  C14 UNL     1      -9.355   9.840  15.382  1.00  0.00     0.043 C 
BRANCH  29  30
HETATM   30  C15 UNL     1     -10.079  11.052  14.791  1.00  0.00     0.035 C 
BRANCH  30  31
HETATM   31  C16 UNL     1      -9.971  12.304  15.671  1.00  0.00     0.273 C 
BRANCH  31  32
HETATM   32  N3  UNL     1     -10.221  11.980  17.079  1.00  0.00     0.091 N 
HETATM   33  C17 UNL     1      -9.622  12.976  17.985  1.00  0.00     0.302 C 
HETATM   34  C18 UNL     1     -10.008  12.679  19.451  1.00  0.00     0.302 C 
HETATM   35  N4  UNL     1     -11.459  12.794  19.729  1.00  0.00     0.093 N 
HETATM   36  C21 UNL     1     -12.243  12.690  18.482  1.00  0.00     0.302 C 
HETATM   37  C22 UNL     1     -11.652  11.772  17.381  1.00  0.00     0.302 C 
BRANCH  35  38
HETATM   38  C19 UNL     1     -11.895  11.796  20.729  1.00  0.00     0.298 C 
BRANCH  38  39
HETATM   39  C20 UNL     1     -10.756  10.915  21.277  1.00  0.00     0.194 C 
BRANCH  39  40
HETATM   40  O3  UNL     1     -11.073   9.527  21.200  1.00  0.00    -0.399 OA
HETATM   41  H24 UNL     1     -10.308   9.046  21.559  1.00  0.00     0.209 HD
ENDBRANCH  39  40
ENDBRANCH  38  39
ENDBRANCH  35  38
ENDBRANCH  31  32
ENDBRANCH  30  31
ENDBRANCH  29  30
ENDBRANCH   5  29
TORSDOF 10
ENDMDL
MODEL 7
REMARK minimizedAffinity -9.02349663
REMARK CNNscore 0.127771303
REMARK CNNaffinity 7.0672493
REMARK  10 active torsions:
REMARK  status: ('A' for Active; 'I' for Inactive)
REMARK    1  A    between atoms: N1_2  and  S1_3 
REMARK    2  A    between atoms: S1_3  and  C2_6 
REMARK    3  A    between atoms: C9_13  and  C10_14 
REMARK    4  A    between atoms: C13_18  and  C14_19 
REMARK    5  A    between atoms: C14_19  and  C15_20 
REMARK    6  A    between atoms: C15_20  and  C16_21 
REMARK    7  A    between atoms: C16_21  and  N3_22 
REMARK    8  A    between atoms: N4_25  and  C19_26 
REMARK    9  A    between atoms: C19_26  and  C20_27 
REMARK   10  A    between atoms: C20_27  and  O3_28 
ROOT
HETATM    1  C10 UNL     1      -0.592   5.652  12.057  1.00  0.00     0.040 A 
HETATM    2  N2  UNL     1       0.159   5.503  10.914  1.00  0.00    -0.359 N 
HETATM    3  C11 UNL     1       1.373   6.101  11.070  1.00  0.00     0.016 A 
HETATM    4  C12 UNL     1       1.433   6.652  12.328  1.00  0.00    -0.027 A 
HETATM    5  C13 UNL     1       0.183   6.384  12.963  1.00  0.00    -0.023 A 
HETATM    6  C23 UNL     1       2.630   7.405  12.808  1.00  0.00     0.041 C 
HETATM    7  C24 UNL     1       3.857   7.128  11.914  1.00  0.00     0.005 C 
HETATM    8  C25 UNL     1       3.504   7.175  10.416  1.00  0.00     0.006 C 
HETATM    9  C26 UNL     1       2.445   6.124  10.037  1.00  0.00     0.057 C 
HETATM   10  H9  UNL     1      -0.145   5.034  10.064  1.00  0.00     0.166 HD
ENDROOT
BRANCH   1  11
HETATM   11  C9  UNL     1      -1.903   5.106  12.181  1.00  0.00     0.048 C 
HETATM   12  C8  UNL     1      -2.368   3.898  11.816  1.00  0.00     0.047 A 
HETATM   13  C6  UNL     1      -3.774   3.488  12.012  1.00  0.00     0.008 A 
HETATM   14  C27 UNL     1      -1.682   2.723  11.157  1.00  0.00     0.257 A 
HETATM   15  C5  UNL     1      -3.888   2.198  11.483  1.00  0.00     0.046 A 
HETATM   16  C7  UNL     1      -4.874   4.104  12.585  1.00  0.00     0.040 A 
HETATM   17  C4  UNL     1      -5.073   1.487  11.481  1.00  0.00     0.032 A 
HETATM   18  N5  UNL     1      -2.666   1.764  10.989  1.00  0.00    -0.322 N 
HETATM   19  C3  UNL     1      -6.191   2.102  12.048  1.00  0.00     0.027 A 
HETATM   20  C2  UNL     1      -6.082   3.391  12.610  1.00  0.00     0.080 A 
HETATM   21  H37 UNL     1      -2.481   0.867  10.568  1.00  0.00     0.169 HD
HETATM   22  O4  UNL     1      -0.513   2.604  10.843  1.00  0.00    -0.267 OA
BRANCH  20  23
HETATM   23  S1  UNL     1      -7.517   4.149  13.342  1.00  0.00     0.258 S 
HETATM   24  O1  UNL     1      -8.672   3.363  12.969  1.00  0.00    -0.201 OA
HETATM   25  O2  UNL     1      -7.206   4.451  14.720  1.00  0.00    -0.201 OA
BRANCH  23  26
HETATM   26  N1  UNL     1      -7.633   5.584  12.493  1.00  0.00    -0.320 N 
HETATM   27  C1  UNL     1      -8.825   5.921  11.734  1.00  0.00     0.159 C 
HETATM   28  H4  UNL     1      -6.958   6.303  12.742  1.00  0.00     0.171 HD
ENDBRANCH  23  26
ENDBRANCH  20  23
ENDBRANCH   1  11
BRANCH   5  29
HETATM   29  C14 UNL     1      -0.207   6.836  14.341  1.00  0.00     0.043 C 
BRANCH  29  30
HETATM   30  C15 UNL     1      -0.511   8.333  14.440  1.00  0.00     0.035 C 
BRANCH  30  31
HETATM   31  C16 UNL     1      -1.332   8.858  13.255  1.00  0.00     0.273 C 
BRANCH  31  32
HETATM   32  N3  UNL     1      -2.745   9.001  13.618  1.00  0.00     0.091 N 
HETATM   33  C17 UNL     1      -3.609   8.119  12.813  1.00  0.00     0.302 C 
HETATM   34  C18 UNL     1      -5.073   8.198  13.301  1.00  0.00     0.302 C 
HETATM   35  N4  UNL     1      -5.275   7.706  14.685  1.00  0.00     0.093 N 
HETATM   36  C21 UNL     1      -4.004   7.707  15.435  1.00  0.00     0.302 C 
HETATM   37  C22 UNL     1      -2.995   8.824  15.063  1.00  0.00     0.302 C 
BRANCH  35  38
HETATM   38  C19 UNL     1      -6.319   8.485  15.384  1.00  0.00     0.298 C 
BRANCH  38  39
HETATM   39  C20 UNL     1      -7.476   7.633  15.938  1.00  0.00     0.194 C 
BRANCH  39  40
HETATM   40  O3  UNL     1      -7.010   6.588  16.788  1.00  0.00    -0.399 OA
HETATM   41  H24 UNL     1      -7.796   6.105  17.094  1.00  0.00     0.209 HD
ENDBRANCH  39  40
ENDBRANCH  38  39
ENDBRANCH  35  38
ENDBRANCH  31  32
ENDBRANCH  30  31
ENDBRANCH  29  30
ENDBRANCH   5  29
TORSDOF 10
ENDMDL
MODEL 8
REMARK minimizedAffinity -7.15459013
REMARK CNNscore 0.125275642
REMARK CNNaffinity 4.97663069
REMARK  10 active torsions:
REMARK  status: ('A' for Active; 'I' for Inactive)
REMARK    1  A    between atoms: N1_2  and  S1_3 
REMARK    2  A    between atoms: S1_3  and  C2_6 
REMARK    3  A    between atoms: C9_13  and  C10_14 
REMARK    4  A    between atoms: C13_18  and  C14_19 
REMARK    5  A    between atoms: C14_19  and  C15_20 
REMARK    6  A    between atoms: C15_20  and  C16_21 
REMARK    7  A    between atoms: C16_21  and  N3_22 
REMARK    8  A    between atoms: N4_25  and  C19_26 
REMARK    9  A    between atoms: C19_26  and  C20_27 
REMARK   10  A    between atoms: C20_27  and  O3_28 
ROOT
HETATM    1  C10 UNL     1     -13.167  -5.314   6.005  1.00  0.00     0.040 A 
HETATM    2  N2  UNL     1     -13.017  -4.452   4.942  1.00  0.00    -0.359 N 
HETATM    3  C11 UNL     1     -12.412  -5.092   3.902  1.00  0.00     0.016 A 
HETATM    4  C12 UNL     1     -12.157  -6.391   4.275  1.00  0.00    -0.027 A 
HETATM    5  C13 UNL     1     -12.622  -6.542   5.616  1.00  0.00    -0.023 A 
HETATM    6  C23 UNL     1     -11.474  -7.357   3.362  1.00  0.00     0.041 C 
HETATM    7  C24 UNL     1     -11.482  -6.848   1.906  1.00  0.00     0.005 C 
HETATM    8  C25 UNL     1     -11.116  -5.355   1.812  1.00  0.00     0.006 C 
HETATM    9  C26 UNL     1     -12.104  -4.466   2.587  1.00  0.00     0.057 C 
HETATM   10  H9  UNL     1     -13.296  -3.475   4.931  1.00  0.00     0.166 HD
ENDROOT
BRANCH   1  11
HETATM   11  C9  UNL     1     -13.790  -4.916   7.223  1.00  0.00     0.048 C 
HETATM   12  C8  UNL     1     -14.948  -5.326   7.770  1.00  0.00     0.047 A 
HETATM   13  C6  UNL     1     -15.460  -4.799   9.052  1.00  0.00     0.008 A 
HETATM   14  C27 UNL     1     -15.976  -6.327   7.294  1.00  0.00     0.257 A 
HETATM   15  C5  UNL     1     -16.690  -5.426   9.276  1.00  0.00     0.046 A 
HETATM   16  C7  UNL     1     -14.964  -3.893   9.975  1.00  0.00     0.040 A 
HETATM   17  C4  UNL     1     -17.474  -5.174  10.386  1.00  0.00     0.032 A 
HETATM   18  N5  UNL     1     -16.979  -6.312   8.247  1.00  0.00    -0.322 N 
HETATM   19  C3  UNL     1     -16.988  -4.255  11.318  1.00  0.00     0.027 A 
HETATM   20  C2  UNL     1     -15.736  -3.638  11.118  1.00  0.00     0.080 A 
HETATM   21  H37 UNL     1     -17.799  -6.895   8.178  1.00  0.00     0.169 HD
HETATM   22  O4  UNL     1     -15.950  -7.028   6.300  1.00  0.00    -0.267 OA
BRANCH  20  23
HETATM   23  S1  UNL     1     -15.129  -2.482  12.328  1.00  0.00     0.258 S 
HETATM   24  O1  UNL     1     -14.217  -1.580  11.661  1.00  0.00    -0.201 OA
HETATM   25  O2  UNL     1     -16.259  -2.006  13.094  1.00  0.00    -0.201 OA
BRANCH  23  26
HETATM   26  N1  UNL     1     -14.190  -3.454  13.311  1.00  0.00    -0.320 N 
HETATM   27  C1  UNL     1     -14.398  -3.506  14.748  1.00  0.00     0.159 C 
HETATM   28  H4  UNL     1     -13.660  -4.183  12.839  1.00  0.00     0.171 HD
ENDBRANCH  23  26
ENDBRANCH  20  23
ENDBRANCH   1  11
BRANCH   5  29
HETATM   29  C14 UNL     1     -12.512  -7.794   6.438  1.00  0.00     0.043 C 
BRANCH  29  30
HETATM   30  C15 UNL     1     -11.486  -7.704   7.570  1.00  0.00     0.035 C 
BRANCH  30  31
HETATM   31  C16 UNL     1     -10.334  -8.705   7.417  1.00  0.00     0.273 C 
BRANCH  31  32
HETATM   32  N3  UNL     1      -9.359  -8.554   8.502  1.00  0.00     0.091 N 
HETATM   33  C17 UNL     1      -9.826  -9.186   9.749  1.00  0.00     0.302 C 
HETATM   34  C18 UNL     1      -8.730  -9.121  10.835  1.00  0.00     0.302 C 
HETATM   35  N4  UNL     1      -7.504  -9.885  10.503  1.00  0.00     0.093 N 
HETATM   36  C21 UNL     1      -7.412 -10.126   9.049  1.00  0.00     0.302 C 
HETATM   37  C22 UNL     1      -8.006  -9.021   8.138  1.00  0.00     0.302 C 
BRANCH  35  38
HETATM   38  C19 UNL     1      -6.294  -9.210  11.019  1.00  0.00     0.298 C 
BRANCH  38  39
HETATM   39  C20 UNL     1      -6.584  -8.079  12.024  1.00  0.00     0.194 C 
BRANCH  39  40
HETATM   40  O3  UNL     1      -6.322  -8.479  13.367  1.00  0.00    -0.399 OA
HETATM   41  H24 UNL     1      -6.525  -7.714  13.931  1.00  0.00     0.209 HD
ENDBRANCH  39  40
ENDBRANCH  38  39
ENDBRANCH  35  38
ENDBRANCH  31  32
ENDBRANCH  30  31
ENDBRANCH  29  30
ENDBRANCH   5  29
TORSDOF 10
ENDMDL
MODEL 9
REMARK minimizedAffinity -7.07508564
REMARK CNNscore 0.0991453379
REMARK CNNaffinity 5.62600183
REMARK  10 active torsions:
REMARK  status: ('A' for Active; 'I' for Inactive)
REMARK    1  A    between atoms: N1_2  and  S1_3 
REMARK    2  A    between atoms: S1_3  and  C2_6 
REMARK    3  A    between atoms: C9_13  and  C10_14 
REMARK    4  A    between atoms: C13_18  and  C14_19 
REMARK    5  A    between atoms: C14_19  and  C15_20 
REMARK    6  A    between atoms: C15_20  and  C16_21 
REMARK    7  A    between atoms: C16_21  and  N3_22 
REMARK    8  A    between atoms: N4_25  and  C19_26 
REMARK    9  A    between atoms: C19_26  and  C20_27 
REMARK   10  A    between atoms: C20_27  and  O3_28 
ROOT
HETATM    1  C10 UNL     1     -10.445   6.992  14.501  1.00  0.00     0.040 A 
HETATM    2  N2  UNL     1      -9.460   6.132  14.070  1.00  0.00    -0.359 N 
HETATM    3  C11 UNL     1      -8.232   6.678  14.295  1.00  0.00     0.016 A 
HETATM    4  C12 UNL     1      -8.399   7.910  14.882  1.00  0.00    -0.027 A 
HETATM    5  C13 UNL     1      -9.804   8.127  15.008  1.00  0.00    -0.023 A 
HETATM    6  C23 UNL     1      -7.240   8.782  15.238  1.00  0.00     0.041 C 
HETATM    7  C24 UNL     1      -5.921   7.981  15.242  1.00  0.00     0.005 C 
HETATM    8  C25 UNL     1      -5.803   7.054  14.018  1.00  0.00     0.006 C 
HETATM    9  C26 UNL     1      -6.939   6.018  13.964  1.00  0.00     0.057 C 
HETATM   10  H9  UNL     1      -9.616   5.230  13.629  1.00  0.00     0.166 HD
ENDROOT
BRANCH   1  11
HETATM   11  C9  UNL     1     -11.830   6.667  14.407  1.00  0.00     0.048 C 
HETATM   12  C8  UNL     1     -12.801   7.249  13.682  1.00  0.00     0.047 A 
HETATM   13  C6  UNL     1     -14.205   6.787  13.704  1.00  0.00     0.008 A 
HETATM   14  C27 UNL     1     -12.768   8.429  12.736  1.00  0.00     0.257 A 
HETATM   15  C5  UNL     1     -14.919   7.648  12.864  1.00  0.00     0.046 A 
HETATM   16  C7  UNL     1     -14.853   5.744  14.344  1.00  0.00     0.040 A 
HETATM   17  C4  UNL     1     -16.278   7.528  12.642  1.00  0.00     0.032 A 
HETATM   18  N5  UNL     1     -14.074   8.598  12.307  1.00  0.00    -0.322 N 
HETATM   19  C3  UNL     1     -16.943   6.485  13.289  1.00  0.00     0.027 A 
HETATM   20  C2  UNL     1     -16.229   5.594  14.116  1.00  0.00     0.080 A 
HETATM   21  H37 UNL     1     -14.341   9.324  11.660  1.00  0.00     0.169 HD
HETATM   22  O4  UNL     1     -11.814   9.097  12.389  1.00  0.00    -0.267 OA
BRANCH  20  23
HETATM   23  S1  UNL     1     -17.096   4.262  14.918  1.00  0.00     0.258 S 
HETATM   24  O1  UNL     1     -16.154   3.186  15.133  1.00  0.00    -0.201 OA
HETATM   25  O2  UNL     1     -17.878   4.825  15.994  1.00  0.00    -0.201 OA
BRANCH  23  26
HETATM   26  N1  UNL     1     -18.136   3.740  13.718  1.00  0.00    -0.320 N 
HETATM   27  C1  UNL     1     -17.678   2.886  12.636  1.00  0.00     0.159 C 
HETATM   28  H4  UNL     1     -19.129   3.830  13.921  1.00  0.00     0.171 HD
ENDBRANCH  23  26
ENDBRANCH  20  23
ENDBRANCH   1  11
BRANCH   5  29
HETATM   29  C14 UNL     1     -10.446   9.366  15.565  1.00  0.00     0.043 C 
BRANCH  29  30
HETATM   30  C15 UNL     1     -10.531   9.386  17.092  1.00  0.00     0.035 C 
BRANCH  30  31
HETATM   31  C16 UNL     1     -10.831  10.780  17.658  1.00  0.00     0.273 C 
BRANCH  31  32
HETATM   32  N3  UNL     1     -11.530  10.685  18.944  1.00  0.00     0.091 N 
HETATM   33  C17 UNL     1     -11.414   9.339  19.532  1.00  0.00     0.302 C 
HETATM   34  C18 UNL     1     -12.050   9.304  20.940  1.00  0.00     0.302 C 
HETATM   35  N4  UNL     1     -11.370  10.170  21.932  1.00  0.00     0.093 N 
HETATM   36  C21 UNL     1     -10.567  11.211  21.259  1.00  0.00     0.302 C 
HETATM   37  C22 UNL     1     -11.121  11.728  19.906  1.00  0.00     0.302 C 
BRANCH  35  38
HETATM   38  C19 UNL     1     -12.337  10.760  22.881  1.00  0.00     0.298 C 
BRANCH  38  39
HETATM   39  C20 UNL     1     -12.100  10.362  24.351  1.00  0.00     0.194 C 
BRANCH  39  40
HETATM   40  O3  UNL     1     -10.712  10.302  24.670  1.00  0.00    -0.399 OA
HETATM   41  H24 UNL     1     -10.652  10.050  25.606  1.00  0.00     0.209 HD
ENDBRANCH  39  40
ENDBRANCH  38  39
ENDBRANCH  35  38
ENDBRANCH  31  32
ENDBRANCH  30  31
ENDBRANCH  29  30
ENDBRANCH   5  29
TORSDOF 10
ENDMDL
