MODEL 1
REMARK minimizedAffinity -7.97875261
REMARK  7 active torsions:
REMARK  status: ('A' for Active; 'I' for Inactive)
REMARK    1  A    between atoms: C2_2  and  S1_3 
REMARK    2  A    between atoms: S1_3  and  N1_6 
REMARK    3  A    between atoms: N1_6  and  C3_7 
REMARK    4  A    between atoms: C7_11  and  N2_12 
REMARK    5  A    between atoms: N2_12  and  C8_13 
REMARK    6  A    between atoms: C12_21  and  O3_22 
REMARK    7  A    between atoms: C14_24  and  O4_25 
ROOT
HETATM    1  C8  UNL     1       0.087  52.031 -21.208  1.00  0.00     0.098 A 
HETATM    2  N3  UNL     1       0.576  53.178 -21.713  1.00  0.00    -0.342 N 
ATOM      3  H3  UNL     1       0.546  53.384 -22.711  1.00  0.00     0.167 HD
HETATM    4  C9  UNL     1       1.101  54.030 -20.830  1.00  0.00     0.182 A 
HETATM    5  N4  UNL     1       1.188  53.847 -19.508  1.00  0.00    -0.351 N 
ATOM      6  H4  UNL     1       1.585  54.560 -18.895  1.00  0.00     0.166 HD
HETATM    7  C10 UNL     1       0.732  52.686 -19.026  1.00  0.00     0.049 A 
HETATM    8  C11 UNL     1       0.838  52.449 -17.662  1.00  0.00     0.070 A 
HETATM    9  C12 UNL     1       0.400  51.255 -17.078  1.00  0.00     0.103 A 
HETATM   10  C14 UNL     1      -0.161  50.257 -17.889  1.00  0.00     0.102 A 
HETATM   11  C16 UNL     1      -0.262  50.478 -19.263  1.00  0.00     0.056 A 
HETATM   12  C17 UNL     1       0.164  51.701 -19.841  1.00  0.00     0.032 A 
ENDROOT
BRANCH   1  13
HETATM   13  N2  UNL     1      -0.493  51.172 -22.167  1.00  0.00    -0.245 NA
HETATM   14  H8  UNL     1       0.291  50.594 -22.481  1.00  0.00     0.135 HD
BRANCH  13  15
HETATM   15  C7  UNL     1      -1.219  51.567 -23.322  1.00  0.00     0.015 A 
HETATM   16  C6  UNL     1      -2.542  51.998 -23.153  1.00  0.00     0.024 A 
HETATM   17  C5  UNL     1      -3.322  52.362 -24.253  1.00  0.00     0.004 A 
HETATM   18  C4  UNL     1      -2.793  52.285 -25.539  1.00  0.00     0.024 A 
HETATM   19  C3  UNL     1      -1.481  51.849 -25.719  1.00  0.00     0.024 A 
HETATM   20  C18 UNL     1      -0.703  51.478 -24.620  1.00  0.00     0.048 A 
BRANCH  19  21
HETATM   21  N1  UNL     1      -0.943  51.701 -27.036  1.00  0.00    -0.182 NA
HETATM   22  H4  UNL     1      -0.623  50.753 -27.241  1.00  0.00     0.146 HD
BRANCH  21  23
HETATM   23  S1  UNL     1       0.342  52.751 -27.444  1.00  0.00     0.235 S 
HETATM   24  O1  UNL     1       0.510  53.599 -26.281  1.00  0.00    -0.206 OA
HETATM   25  O2  UNL     1       0.015  53.351 -28.722  1.00  0.00    -0.206 OA
BRANCH  23  26
HETATM   26  C2  UNL     1       1.751  51.758 -27.639  1.00  0.00     0.116 C 
HETATM   27  C1  UNL     1       2.535  51.476 -26.589  1.00  0.00     0.024 C 
ENDBRANCH  23  26
ENDBRANCH  21  23
ENDBRANCH  19  21
ENDBRANCH  13  15
ENDBRANCH   1  13
BRANCH  10  28
HETATM   28  O4  UNL     1      -0.565  49.110 -17.254  1.00  0.00    -0.353 OA
HETATM   29  C15 UNL     1      -1.940  48.763 -17.333  1.00  0.00     0.210 C 
ENDBRANCH  10  28
BRANCH   9  30
HETATM   30  O3  UNL     1       0.478  50.971 -15.736  1.00  0.00    -0.353 OA
HETATM   31  C13 UNL     1       1.113  51.922 -14.894  1.00  0.00     0.210 C 
ENDBRANCH   9  30
TORSDOF 7
ENDMDL
MODEL 2
REMARK minimizedAffinity -7.91510391
REMARK  7 active torsions:
REMARK  status: ('A' for Active; 'I' for Inactive)
REMARK    1  A    between atoms: C2_2  and  S1_3 
REMARK    2  A    between atoms: S1_3  and  N1_6 
REMARK    3  A    between atoms: N1_6  and  C3_7 
REMARK    4  A    between atoms: C7_11  and  N2_12 
REMARK    5  A    between atoms: N2_12  and  C8_13 
REMARK    6  A    between atoms: C12_21  and  O3_22 
REMARK    7  A    between atoms: C14_24  and  O4_25 
ROOT
HETATM    1  C8  UNL     1       0.255  52.470 -22.239  1.00  0.00     0.098 A 
HETATM    2  N3  UNL     1       0.882  53.571 -22.693  1.00  0.00    -0.342 N 
ATOM      3  H3  UNL     1       0.932  53.792 -23.687  1.00  0.00     0.167 HD
HETATM    4  C9  UNL     1       1.433  54.356 -21.765  1.00  0.00     0.182 A 
HETATM    5  N4  UNL     1       1.423  54.148 -20.444  1.00  0.00    -0.351 N 
ATOM      6  H4  UNL     1       1.849  54.811 -19.796  1.00  0.00     0.166 HD
HETATM    7  C10 UNL     1       0.829  53.031 -20.012  1.00  0.00     0.049 A 
HETATM    8  C11 UNL     1       0.828  52.768 -18.648  1.00  0.00     0.070 A 
HETATM    9  C12 UNL     1       0.242  51.615 -18.113  1.00  0.00     0.103 A 
HETATM   10  C14 UNL     1      -0.362  50.686 -18.974  1.00  0.00     0.102 A 
HETATM   11  C16 UNL     1      -0.358  50.934 -20.347  1.00  0.00     0.056 A 
HETATM   12  C17 UNL     1       0.218  52.117 -20.877  1.00  0.00     0.032 A 
ENDROOT
BRANCH   1  13
HETATM   13  N2  UNL     1      -0.346  51.685 -23.247  1.00  0.00    -0.245 NA
HETATM   14  H8  UNL     1      -0.298  50.734 -22.875  1.00  0.00     0.135 HD
BRANCH  13  15
HETATM   15  C7  UNL     1       0.039  51.627 -24.612  1.00  0.00     0.015 A 
HETATM   16  C6  UNL     1       1.387  51.853 -24.928  1.00  0.00     0.024 A 
HETATM   17  C5  UNL     1       1.822  51.850 -26.255  1.00  0.00     0.004 A 
HETATM   18  C4  UNL     1       0.910  51.636 -27.286  1.00  0.00     0.024 A 
HETATM   19  C3  UNL     1      -0.433  51.419 -26.985  1.00  0.00     0.024 A 
HETATM   20  C18 UNL     1      -0.870  51.430 -25.659  1.00  0.00     0.048 A 
BRANCH  19  21
HETATM   21  N1  UNL     1      -1.393  51.263 -28.034  1.00  0.00    -0.182 NA
HETATM   22  H4  UNL     1      -1.593  52.130 -28.535  1.00  0.00     0.146 HD
BRANCH  21  23
HETATM   23  S1  UNL     1      -2.901  50.602 -27.578  1.00  0.00     0.235 S 
HETATM   24  O1  UNL     1      -3.548  50.260 -28.829  1.00  0.00    -0.206 OA
HETATM   25  O2  UNL     1      -3.533  51.552 -26.685  1.00  0.00    -0.206 OA
BRANCH  23  26
HETATM   26  C2  UNL     1      -2.558  49.148 -26.695  1.00  0.00     0.116 C 
HETATM   27  C1  UNL     1      -3.556  48.375 -26.245  1.00  0.00     0.024 C 
ENDBRANCH  23  26
ENDBRANCH  21  23
ENDBRANCH  19  21
ENDBRANCH  13  15
ENDBRANCH   1  13
BRANCH  10  28
HETATM   28  O4  UNL     1      -0.913  49.577 -18.386  1.00  0.00    -0.353 OA
HETATM   29  C15 UNL     1      -2.289  49.318 -18.626  1.00  0.00     0.210 C 
ENDBRANCH  10  28
BRANCH   9  30
HETATM   30  O3  UNL     1       0.212  51.306 -16.775  1.00  0.00    -0.353 OA
HETATM   31  C13 UNL     1       1.406  51.486 -16.027  1.00  0.00     0.210 C 
ENDBRANCH   9  30
TORSDOF 7
ENDMDL
MODEL 3
REMARK minimizedAffinity -7.88905478
REMARK  7 active torsions:
REMARK  status: ('A' for Active; 'I' for Inactive)
REMARK    1  A    between atoms: C2_2  and  S1_3 
REMARK    2  A    between atoms: S1_3  and  N1_6 
REMARK    3  A    between atoms: N1_6  and  C3_7 
REMARK    4  A    between atoms: C7_11  and  N2_12 
REMARK    5  A    between atoms: N2_12  and  C8_13 
REMARK    6  A    between atoms: C12_21  and  O3_22 
REMARK    7  A    between atoms: C14_24  and  O4_25 
ROOT
HETATM    1  C8  UNL     1      -2.014  50.584 -21.241  1.00  0.00     0.098 A 
HETATM    2  N3  UNL     1      -2.460  51.058 -20.063  1.00  0.00    -0.342 N 
ATOM      3  H3  UNL     1      -1.827  51.447 -19.364  1.00  0.00     0.167 HD
HETATM    4  C9  UNL     1      -3.778  50.989 -19.864  1.00  0.00     0.182 A 
HETATM    5  N4  UNL     1      -4.682  50.494 -20.716  1.00  0.00    -0.351 N 
ATOM      6  H4  UNL     1      -5.679  50.498 -20.498  1.00  0.00     0.166 HD
HETATM    7  C10 UNL     1      -4.220  49.992 -21.866  1.00  0.00     0.049 A 
HETATM    8  C11 UNL     1      -5.129  49.441 -22.759  1.00  0.00     0.070 A 
HETATM    9  C12 UNL     1      -4.728  48.881 -23.978  1.00  0.00     0.103 A 
HETATM   10  C14 UNL     1      -3.366  48.867 -24.315  1.00  0.00     0.102 A 
HETATM   11  C16 UNL     1      -2.442  49.409 -23.420  1.00  0.00     0.056 A 
HETATM   12  C17 UNL     1      -2.861  49.994 -22.198  1.00  0.00     0.032 A 
ENDROOT
BRANCH   1  13
HETATM   13  N2  UNL     1      -0.620  50.707 -21.429  1.00  0.00    -0.245 NA
HETATM   14  H8  UNL     1      -0.222  50.227 -20.619  1.00  0.00     0.135 HD
BRANCH  13  15
HETATM   15  C7  UNL     1       0.102  51.917 -21.604  1.00  0.00     0.015 A 
HETATM   16  C6  UNL     1       0.608  52.555 -20.462  1.00  0.00     0.024 A 
HETATM   17  C5  UNL     1       1.292  53.768 -20.563  1.00  0.00     0.004 A 
HETATM   18  C4  UNL     1       1.466  54.368 -21.808  1.00  0.00     0.024 A 
HETATM   19  C3  UNL     1       0.960  53.748 -22.949  1.00  0.00     0.024 A 
HETATM   20  C18 UNL     1       0.269  52.538 -22.847  1.00  0.00     0.048 A 
BRANCH  19  21
HETATM   21  N1  UNL     1       1.071  54.382 -24.226  1.00  0.00    -0.182 NA
HETATM   22  H4  UNL     1       0.864  55.381 -24.204  1.00  0.00     0.146 HD
BRANCH  21  23
HETATM   23  S1  UNL     1       0.125  53.712 -25.481  1.00  0.00     0.235 S 
HETATM   24  O1  UNL     1       0.164  54.699 -26.541  1.00  0.00    -0.206 OA
HETATM   25  O2  UNL     1      -1.150  53.338 -24.903  1.00  0.00    -0.206 OA
BRANCH  23  26
HETATM   26  C2  UNL     1       0.942  52.274 -26.006  1.00  0.00     0.116 C 
HETATM   27  C1  UNL     1       0.252  51.155 -26.262  1.00  0.00     0.024 C 
ENDBRANCH  23  26
ENDBRANCH  21  23
ENDBRANCH  19  21
ENDBRANCH  13  15
ENDBRANCH   1  13
BRANCH  10  28
HETATM   28  O4  UNL     1      -3.041  48.300 -25.520  1.00  0.00    -0.353 OA
HETATM   29  C15 UNL     1      -2.810  49.172 -26.618  1.00  0.00     0.210 C 
ENDBRANCH  10  28
BRANCH   9  30
HETATM   30  O3  UNL     1      -5.584  48.324 -24.897  1.00  0.00    -0.353 OA
HETATM   31  C13 UNL     1      -6.797  47.763 -24.417  1.00  0.00     0.210 C 
ENDBRANCH   9  30
TORSDOF 7
ENDMDL
MODEL 4
REMARK minimizedAffinity -7.88119364
REMARK  7 active torsions:
REMARK  status: ('A' for Active; 'I' for Inactive)
REMARK    1  A    between atoms: C2_2  and  S1_3 
REMARK    2  A    between atoms: S1_3  and  N1_6 
REMARK    3  A    between atoms: N1_6  and  C3_7 
REMARK    4  A    between atoms: C7_11  and  N2_12 
REMARK    5  A    between atoms: N2_12  and  C8_13 
REMARK    6  A    between atoms: C12_21  and  O3_22 
REMARK    7  A    between atoms: C14_24  and  O4_25 
ROOT
HETATM    1  C8  UNL     1      -5.249  48.451 -28.900  1.00  0.00     0.098 A 
HETATM    2  N3  UNL     1      -5.741  48.161 -27.682  1.00  0.00    -0.342 N 
ATOM      3  H3  UNL     1      -5.328  48.539 -26.829  1.00  0.00     0.167 HD
HETATM    4  C9  UNL     1      -6.801  47.350 -27.655  1.00  0.00     0.182 A 
HETATM    5  N4  UNL     1      -7.406  46.804 -28.715  1.00  0.00    -0.351 N 
ATOM      6  H4  UNL     1      -8.230  46.210 -28.612  1.00  0.00     0.166 HD
HETATM    7  C10 UNL     1      -6.883  47.071 -29.916  1.00  0.00     0.049 A 
HETATM    8  C11 UNL     1      -7.467  46.494 -31.035  1.00  0.00     0.070 A 
HETATM    9  C12 UNL     1      -6.973  46.709 -32.327  1.00  0.00     0.103 A 
HETATM   10  C14 UNL     1      -5.849  47.528 -32.507  1.00  0.00     0.102 A 
HETATM   11  C16 UNL     1      -5.246  48.105 -31.389  1.00  0.00     0.056 A 
HETATM   12  C17 UNL     1      -5.769  47.899 -30.086  1.00  0.00     0.032 A 
ENDROOT
BRANCH   1  13
HETATM   13  N2  UNL     1      -4.151  49.340 -28.889  1.00  0.00    -0.245 NA
HETATM   14  H8  UNL     1      -3.510  48.942 -29.579  1.00  0.00     0.135 HD
BRANCH  13  15
HETATM   15  C7  UNL     1      -3.380  49.712 -27.756  1.00  0.00     0.015 A 
HETATM   16  C6  UNL     1      -3.228  48.775 -26.725  1.00  0.00     0.024 A 
HETATM   17  C5  UNL     1      -2.516  49.094 -25.567  1.00  0.00     0.004 A 
HETATM   18  C4  UNL     1      -1.958  50.362 -25.419  1.00  0.00     0.024 A 
HETATM   19  C3  UNL     1      -2.111  51.304 -26.434  1.00  0.00     0.024 A 
HETATM   20  C18 UNL     1      -2.829  50.988 -27.589  1.00  0.00     0.048 A 
BRANCH  19  21
HETATM   21  N1  UNL     1      -1.602  52.631 -26.271  1.00  0.00    -0.182 NA
HETATM   22  H4  UNL     1      -2.186  53.348 -26.704  1.00  0.00     0.146 HD
BRANCH  21  23
HETATM   23  S1  UNL     1      -0.008  52.897 -26.828  1.00  0.00     0.235 S 
HETATM   24  O1  UNL     1       0.345  54.210 -26.328  1.00  0.00    -0.206 OA
HETATM   25  O2  UNL     1      -0.008  52.654 -28.257  1.00  0.00    -0.206 OA
BRANCH  23  26
HETATM   26  C2  UNL     1       0.991  51.703 -26.061  1.00  0.00     0.116 C 
HETATM   27  C1  UNL     1       2.251  51.505 -26.471  1.00  0.00     0.024 C 
ENDBRANCH  23  26
ENDBRANCH  21  23
ENDBRANCH  19  21
ENDBRANCH  13  15
ENDBRANCH   1  13
BRANCH  10  28
HETATM   28  O4  UNL     1      -5.413  47.693 -33.797  1.00  0.00    -0.353 OA
HETATM   29  C15 UNL     1      -4.048  48.033 -33.994  1.00  0.00     0.210 C 
ENDBRANCH  10  28
BRANCH   9  30
HETATM   30  O3  UNL     1      -7.513  46.165 -33.467  1.00  0.00    -0.353 OA
HETATM   31  C13 UNL     1      -8.818  46.581 -33.845  1.00  0.00     0.210 C 
ENDBRANCH   9  30
TORSDOF 7
ENDMDL
MODEL 5
REMARK minimizedAffinity -7.62821436
REMARK  7 active torsions:
REMARK  status: ('A' for Active; 'I' for Inactive)
REMARK    1  A    between atoms: C2_2  and  S1_3 
REMARK    2  A    between atoms: S1_3  and  N1_6 
REMARK    3  A    between atoms: N1_6  and  C3_7 
REMARK    4  A    between atoms: C7_11  and  N2_12 
REMARK    5  A    between atoms: N2_12  and  C8_13 
REMARK    6  A    between atoms: C12_21  and  O3_22 
REMARK    7  A    between atoms: C14_24  and  O4_25 
ROOT
HETATM    1  C8  UNL     1      -1.621  52.435 -26.157  1.00  0.00     0.098 A 
HETATM    2  N3  UNL     1      -0.937  52.724 -27.279  1.00  0.00    -0.342 N 
ATOM      3  H3  UNL     1      -1.367  52.670 -28.202  1.00  0.00     0.167 HD
HETATM    4  C9  UNL     1       0.337  53.086 -27.112  1.00  0.00     0.182 A 
HETATM    5  N4  UNL     1       0.987  53.181 -25.947  1.00  0.00    -0.351 N 
ATOM      6  H4  UNL     1       1.959  53.489 -25.902  1.00  0.00     0.166 HD
HETATM    7  C10 UNL     1       0.305  52.855 -24.845  1.00  0.00     0.049 A 
HETATM    8  C11 UNL     1       0.960  52.911 -23.621  1.00  0.00     0.070 A 
HETATM    9  C12 UNL     1       0.325  52.571 -22.421  1.00  0.00     0.103 A 
HETATM   10  C14 UNL     1      -1.014  52.154 -22.445  1.00  0.00     0.102 A 
HETATM   11  C16 UNL     1      -1.680  52.083 -23.669  1.00  0.00     0.056 A 
HETATM   12  C17 UNL     1      -1.034  52.451 -24.877  1.00  0.00     0.032 A 
ENDROOT
BRANCH   1  13
HETATM   13  N2  UNL     1      -2.974  52.092 -26.371  1.00  0.00    -0.245 NA
HETATM   14  H8  UNL     1      -3.473  52.605 -25.640  1.00  0.00     0.135 HD
BRANCH  13  15
HETATM   15  C7  UNL     1      -3.513  50.779 -26.413  1.00  0.00     0.015 A 
HETATM   16  C6  UNL     1      -3.966  50.212 -25.213  1.00  0.00     0.024 A 
HETATM   17  C5  UNL     1      -4.470  48.910 -25.181  1.00  0.00     0.004 A 
HETATM   18  C4  UNL     1      -4.513  48.152 -26.349  1.00  0.00     0.024 A 
HETATM   19  C3  UNL     1      -4.058  48.702 -27.545  1.00  0.00     0.024 A 
HETATM   20  C18 UNL     1      -3.547  50.001 -27.576  1.00  0.00     0.048 A 
BRANCH  19  21
HETATM   21  N1  UNL     1      -4.034  47.915 -28.740  1.00  0.00    -0.182 NA
HETATM   22  H4  UNL     1      -3.169  48.011 -29.274  1.00  0.00     0.146 HD
BRANCH  21  23
HETATM   23  S1  UNL     1      -5.319  48.176 -29.836  1.00  0.00     0.235 S 
HETATM   24  O1  UNL     1      -4.867  49.260 -30.683  1.00  0.00    -0.206 OA
HETATM   25  O2  UNL     1      -6.526  48.340 -29.050  1.00  0.00    -0.206 OA
BRANCH  23  26
HETATM   26  C2  UNL     1      -5.464  46.730 -30.783  1.00  0.00     0.116 C 
HETATM   27  C1  UNL     1      -4.583  46.465 -31.758  1.00  0.00     0.024 C 
ENDBRANCH  23  26
ENDBRANCH  21  23
ENDBRANCH  19  21
ENDBRANCH  13  15
ENDBRANCH   1  13
BRANCH  10  28
HETATM   28  O4  UNL     1      -1.575  51.831 -21.235  1.00  0.00    -0.353 OA
HETATM   29  C15 UNL     1      -2.544  50.792 -21.214  1.00  0.00     0.210 C 
ENDBRANCH  10  28
BRANCH   9  30
HETATM   30  O3  UNL     1       0.924  52.611 -21.186  1.00  0.00    -0.353 OA
HETATM   31  C13 UNL     1       1.194  53.886 -20.621  1.00  0.00     0.210 C 
ENDBRANCH   9  30
TORSDOF 7
ENDMDL
MODEL 6
REMARK minimizedAffinity -7.62713909
REMARK  7 active torsions:
REMARK  status: ('A' for Active; 'I' for Inactive)
REMARK    1  A    between atoms: C2_2  and  S1_3 
REMARK    2  A    between atoms: S1_3  and  N1_6 
REMARK    3  A    between atoms: N1_6  and  C3_7 
REMARK    4  A    between atoms: C7_11  and  N2_12 
REMARK    5  A    between atoms: N2_12  and  C8_13 
REMARK    6  A    between atoms: C12_21  and  O3_22 
REMARK    7  A    between atoms: C14_24  and  O4_25 
ROOT
HETATM    1  C8  UNL     1      -1.803  52.832 -26.004  1.00  0.00     0.098 A 
HETATM    2  N3  UNL     1      -1.333  53.320 -27.166  1.00  0.00    -0.342 N 
ATOM      3  H3  UNL     1      -1.877  53.282 -28.027  1.00  0.00     0.167 HD
HETATM    4  C9  UNL     1      -0.111  53.858 -27.125  1.00  0.00     0.182 A 
HETATM    5  N4  UNL     1       0.677  53.949 -26.048  1.00  0.00    -0.351 N 
ATOM      6  H4  UNL     1       1.593  54.397 -26.094  1.00  0.00     0.166 HD
HETATM    7  C10 UNL     1       0.211  53.426 -24.910  1.00  0.00     0.049 A 
HETATM    8  C11 UNL     1       1.017  53.475 -23.780  1.00  0.00     0.070 A 
HETATM    9  C12 UNL     1       0.613  52.938 -22.553  1.00  0.00     0.103 A 
HETATM   10  C14 UNL     1      -0.645  52.324 -22.451  1.00  0.00     0.102 A 
HETATM   11  C16 UNL     1      -1.460  52.259 -23.581  1.00  0.00     0.056 A 
HETATM   12  C17 UNL     1      -1.049  52.827 -24.814  1.00  0.00     0.032 A 
ENDROOT
BRANCH   1  13
HETATM   13  N2  UNL     1      -3.111  52.306 -26.080  1.00  0.00    -0.245 NA
HETATM   14  H8  UNL     1      -3.608  52.780 -25.322  1.00  0.00     0.135 HD
BRANCH  13  15
HETATM   15  C7  UNL     1      -3.471  50.933 -26.030  1.00  0.00     0.015 A 
HETATM   16  C6  UNL     1      -3.134  50.123 -27.124  1.00  0.00     0.024 A 
HETATM   17  C5  UNL     1      -3.494  48.774 -27.154  1.00  0.00     0.004 A 
HETATM   18  C4  UNL     1      -4.211  48.221 -26.096  1.00  0.00     0.024 A 
HETATM   19  C3  UNL     1      -4.559  49.019 -25.007  1.00  0.00     0.024 A 
HETATM   20  C18 UNL     1      -4.205  50.370 -24.980  1.00  0.00     0.048 A 
BRANCH  19  21
HETATM   21  N1  UNL     1      -5.352  48.484 -23.943  1.00  0.00    -0.182 NA
HETATM   22  H4  UNL     1      -6.221  48.996 -23.786  1.00  0.00     0.146 HD
BRANCH  21  23
HETATM   23  S1  UNL     1      -4.578  48.354 -22.425  1.00  0.00     0.235 S 
HETATM   24  O1  UNL     1      -5.089  47.124 -21.855  1.00  0.00    -0.206 OA
HETATM   25  O2  UNL     1      -4.792  49.606 -21.727  1.00  0.00    -0.206 OA
BRANCH  23  26
HETATM   26  C2  UNL     1      -2.883  48.177 -22.746  1.00  0.00     0.116 C 
HETATM   27  C1  UNL     1      -2.123  47.389 -21.973  1.00  0.00     0.024 C 
ENDBRANCH  23  26
ENDBRANCH  21  23
ENDBRANCH  19  21
ENDBRANCH  13  15
ENDBRANCH   1  13
BRANCH  10  28
HETATM   28  O4  UNL     1      -0.977  51.814 -21.222  1.00  0.00    -0.353 OA
HETATM   29  C15 UNL     1      -0.535  50.501 -20.911  1.00  0.00     0.210 C 
ENDBRANCH  10  28
BRANCH   9  30
HETATM   30  O3  UNL     1       1.369  52.961 -21.406  1.00  0.00    -0.353 OA
HETATM   31  C13 UNL     1       1.247  54.092 -20.555  1.00  0.00     0.210 C 
ENDBRANCH   9  30
TORSDOF 7
ENDMDL
MODEL 7
REMARK minimizedAffinity -7.62673569
REMARK  7 active torsions:
REMARK  status: ('A' for Active; 'I' for Inactive)
REMARK    1  A    between atoms: C2_2  and  S1_3 
REMARK    2  A    between atoms: S1_3  and  N1_6 
REMARK    3  A    between atoms: N1_6  and  C3_7 
REMARK    4  A    between atoms: C7_11  and  N2_12 
REMARK    5  A    between atoms: N2_12  and  C8_13 
REMARK    6  A    between atoms: C12_21  and  O3_22 
REMARK    7  A    between atoms: C14_24  and  O4_25 
ROOT
HETATM    1  C8  UNL     1      -0.392  52.119 -20.530  1.00  0.00     0.098 A 
HETATM    2  N3  UNL     1       0.171  53.176 -21.144  1.00  0.00    -0.342 N 
ATOM      3  H3  UNL     1      -0.046  53.417 -22.111  1.00  0.00     0.167 HD
HETATM    4  C9  UNL     1       1.029  53.890 -20.413  1.00  0.00     0.182 A 
HETATM    5  N4  UNL     1       1.378  53.651 -19.144  1.00  0.00    -0.351 N 
ATOM      6  H4  UNL     1       2.026  54.260 -18.644  1.00  0.00     0.166 HD
HETATM    7  C10 UNL     1       0.839  52.576 -18.560  1.00  0.00     0.049 A 
HETATM    8  C11 UNL     1       1.205  52.279 -17.254  1.00  0.00     0.070 A 
HETATM    9  C12 UNL     1       0.700  51.165 -16.574  1.00  0.00     0.103 A 
HETATM   10  C14 UNL     1      -0.202  50.310 -17.226  1.00  0.00     0.102 A 
HETATM   11  C16 UNL     1      -0.569  50.592 -18.543  1.00  0.00     0.056 A 
HETATM   12  C17 UNL     1      -0.069  51.736 -19.214  1.00  0.00     0.032 A 
ENDROOT
BRANCH   1  13
HETATM   13  N2  UNL     1      -1.321  51.411 -21.324  1.00  0.00    -0.245 NA
HETATM   14  H8  UNL     1      -1.057  50.432 -21.190  1.00  0.00     0.135 HD
BRANCH  13  15
HETATM   15  C7  UNL     1      -1.561  51.600 -22.710  1.00  0.00     0.015 A 
HETATM   16  C6  UNL     1      -2.795  52.142 -23.098  1.00  0.00     0.024 A 
HETATM   17  C5  UNL     1      -3.108  52.316 -24.448  1.00  0.00     0.004 A 
HETATM   18  C4  UNL     1      -2.196  51.936 -25.429  1.00  0.00     0.024 A 
HETATM   19  C3  UNL     1      -0.970  51.389 -25.056  1.00  0.00     0.024 A 
HETATM   20  C18 UNL     1      -0.659  51.207 -23.707  1.00  0.00     0.048 A 
BRANCH  19  21
HETATM   21  N1  UNL     1      -0.049  50.932 -26.051  1.00  0.00    -0.182 NA
HETATM   22  H4  UNL     1       0.503  50.126 -25.755  1.00  0.00     0.146 HD
BRANCH  21  23
HETATM   23  S1  UNL     1       1.057  52.095 -26.639  1.00  0.00     0.235 S 
HETATM   24  O1  UNL     1       2.261  51.344 -26.932  1.00  0.00    -0.206 OA
HETATM   25  O2  UNL     1       1.105  53.169 -25.668  1.00  0.00    -0.206 OA
BRANCH  23  26
HETATM   26  C2  UNL     1       0.390  52.709 -28.118  1.00  0.00     0.116 C 
HETATM   27  C1  UNL     1      -0.442  53.760 -28.103  1.00  0.00     0.024 C 
ENDBRANCH  23  26
ENDBRANCH  21  23
ENDBRANCH  19  21
ENDBRANCH  13  15
ENDBRANCH   1  13
BRANCH  10  28
HETATM   28  O4  UNL     1      -0.654  49.235 -16.506  1.00  0.00    -0.353 OA
HETATM   29  C15 UNL     1      -1.767  48.518 -17.021  1.00  0.00     0.210 C 
ENDBRANCH  10  28
BRANCH   9  30
HETATM   30  O3  UNL     1       1.027  50.827 -15.283  1.00  0.00    -0.353 OA
HETATM   31  C13 UNL     1       0.670  51.735 -14.251  1.00  0.00     0.210 C 
ENDBRANCH   9  30
TORSDOF 7
ENDMDL
MODEL 8
REMARK minimizedAffinity -7.57367516
REMARK  7 active torsions:
REMARK  status: ('A' for Active; 'I' for Inactive)
REMARK    1  A    between atoms: C2_2  and  S1_3 
REMARK    2  A    between atoms: S1_3  and  N1_6 
REMARK    3  A    between atoms: N1_6  and  C3_7 
REMARK    4  A    between atoms: C7_11  and  N2_12 
REMARK    5  A    between atoms: N2_12  and  C8_13 
REMARK    6  A    between atoms: C12_21  and  O3_22 
REMARK    7  A    between atoms: C14_24  and  O4_25 
ROOT
HETATM    1  C8  UNL     1      -4.687  51.080 -22.323  1.00  0.00     0.098 A 
HETATM    2  N3  UNL     1      -5.901  50.749 -21.848  1.00  0.00    -0.342 N 
ATOM      3  H3  UNL     1      -6.742  50.817 -22.421  1.00  0.00     0.167 HD
HETATM    4  C9  UNL     1      -5.941  50.325 -20.583  1.00  0.00     0.182 A 
HETATM    5  N4  UNL     1      -4.897  50.207 -19.755  1.00  0.00    -0.351 N 
ATOM      6  H4  UNL     1      -5.006  49.852 -18.805  1.00  0.00     0.166 HD
HETATM    7  C10 UNL     1      -3.703  50.576 -20.230  1.00  0.00     0.049 A 
HETATM    8  C11 UNL     1      -2.602  50.497 -19.386  1.00  0.00     0.070 A 
HETATM    9  C12 UNL     1      -1.320  50.877 -19.798  1.00  0.00     0.103 A 
HETATM   10  C14 UNL     1      -1.130  51.360 -21.101  1.00  0.00     0.102 A 
HETATM   11  C16 UNL     1      -2.230  51.455 -21.955  1.00  0.00     0.056 A 
HETATM   12  C17 UNL     1      -3.521  51.045 -21.535  1.00  0.00     0.032 A 
ENDROOT
BRANCH   1  13
HETATM   13  N2  UNL     1      -4.682  51.488 -23.675  1.00  0.00    -0.245 NA
HETATM   14  H8  UNL     1      -5.674  51.546 -23.915  1.00  0.00     0.135 HD
BRANCH  13  15
HETATM   15  C7  UNL     1      -4.021  50.836 -24.749  1.00  0.00     0.015 A 
HETATM   16  C6  UNL     1      -3.878  49.442 -24.686  1.00  0.00     0.024 A 
HETATM   17  C5  UNL     1      -3.202  48.746 -25.691  1.00  0.00     0.004 A 
HETATM   18  C4  UNL     1      -2.647  49.438 -26.765  1.00  0.00     0.024 A 
HETATM   19  C3  UNL     1      -2.775  50.824 -26.833  1.00  0.00     0.024 A 
HETATM   20  C18 UNL     1      -3.444  51.521 -25.825  1.00  0.00     0.048 A 
BRANCH  19  21
HETATM   21  N1  UNL     1      -2.155  51.556 -27.894  1.00  0.00    -0.182 NA
HETATM   22  H4  UNL     1      -1.528  50.989 -28.467  1.00  0.00     0.146 HD
BRANCH  21  23
HETATM   23  S1  UNL     1      -1.275  52.946 -27.431  1.00  0.00     0.235 S 
HETATM   24  O1  UNL     1      -1.145  52.839 -25.992  1.00  0.00    -0.206 OA
HETATM   25  O2  UNL     1      -1.954  54.092 -28.002  1.00  0.00    -0.206 OA
BRANCH  23  26
HETATM   26  C2  UNL     1       0.292  52.806 -28.161  1.00  0.00     0.116 C 
HETATM   27  C1  UNL     1       0.908  51.617 -28.227  1.00  0.00     0.024 C 
ENDBRANCH  23  26
ENDBRANCH  21  23
ENDBRANCH  19  21
ENDBRANCH  13  15
ENDBRANCH   1  13
BRANCH  10  28
HETATM   28  O4  UNL     1       0.150  51.720 -21.439  1.00  0.00    -0.353 OA
HETATM   29  C15 UNL     1       0.487  53.098 -21.372  1.00  0.00     0.210 C 
ENDBRANCH  10  28
BRANCH   9  30
HETATM   30  O3  UNL     1      -0.199  50.817 -19.006  1.00  0.00    -0.353 OA
HETATM   31  C13 UNL     1      -0.301  51.305 -17.676  1.00  0.00     0.210 C 
ENDBRANCH   9  30
TORSDOF 7
ENDMDL
MODEL 9
REMARK minimizedAffinity -7.47812176
REMARK  7 active torsions:
REMARK  status: ('A' for Active; 'I' for Inactive)
REMARK    1  A    between atoms: C2_2  and  S1_3 
REMARK    2  A    between atoms: S1_3  and  N1_6 
REMARK    3  A    between atoms: N1_6  and  C3_7 
REMARK    4  A    between atoms: C7_11  and  N2_12 
REMARK    5  A    between atoms: N2_12  and  C8_13 
REMARK    6  A    between atoms: C12_21  and  O3_22 
REMARK    7  A    between atoms: C14_24  and  O4_25 
ROOT
HETATM    1  C8  UNL     1      -1.832  52.732 -25.892  1.00  0.00     0.098 A 
HETATM    2  N3  UNL     1      -1.307  53.218 -27.032  1.00  0.00    -0.342 N 
ATOM      3  H3  UNL     1      -1.816  53.190 -27.915  1.00  0.00     0.167 HD
HETATM    4  C9  UNL     1      -0.082  53.738 -26.938  1.00  0.00     0.182 A 
HETATM    5  N4  UNL     1       0.662  53.814 -25.829  1.00  0.00    -0.351 N 
ATOM      6  H4  UNL     1       1.585  54.250 -25.835  1.00  0.00     0.166 HD
HETATM    7  C10 UNL     1       0.142  53.294 -24.713  1.00  0.00     0.049 A 
HETATM    8  C11 UNL     1       0.902  53.328 -23.551  1.00  0.00     0.070 A 
HETATM    9  C12 UNL     1       0.439  52.792 -22.344  1.00  0.00     0.103 A 
HETATM   10  C14 UNL     1      -0.830  52.195 -22.296  1.00  0.00     0.102 A 
HETATM   11  C16 UNL     1      -1.598  52.145 -23.460  1.00  0.00     0.056 A 
HETATM   12  C17 UNL     1      -1.129  52.712 -24.673  1.00  0.00     0.032 A 
ENDROOT
BRANCH   1  13
HETATM   13  N2  UNL     1      -3.144  52.224 -26.025  1.00  0.00    -0.245 NA
HETATM   14  H8  UNL     1      -3.640  52.621 -25.224  1.00  0.00     0.135 HD
BRANCH  13  15
HETATM   15  C7  UNL     1      -3.511  50.856 -26.117  1.00  0.00     0.015 A 
HETATM   16  C6  UNL     1      -3.306  50.199 -27.339  1.00  0.00     0.024 A 
HETATM   17  C5  UNL     1      -3.683  48.865 -27.507  1.00  0.00     0.004 A 
HETATM   18  C4  UNL     1      -4.286  48.174 -26.457  1.00  0.00     0.024 A 
HETATM   19  C3  UNL     1      -4.502  48.820 -25.242  1.00  0.00     0.024 A 
HETATM   20  C18 UNL     1      -4.132  50.156 -25.076  1.00  0.00     0.048 A 
BRANCH  19  21
HETATM   21  N1  UNL     1      -5.179  48.146 -24.176  1.00  0.00    -0.182 NA
HETATM   22  H4  UNL     1      -4.807  47.216 -23.982  1.00  0.00     0.146 HD
BRANCH  21  23
HETATM   23  S1  UNL     1      -6.870  47.972 -24.354  1.00  0.00     0.235 S 
HETATM   24  O1  UNL     1      -7.216  46.846 -23.509  1.00  0.00    -0.206 OA
HETATM   25  O2  UNL     1      -7.147  47.908 -25.775  1.00  0.00    -0.206 OA
BRANCH  23  26
HETATM   26  C2  UNL     1      -7.587  49.414 -23.710  1.00  0.00     0.116 C 
HETATM   27  C1  UNL     1      -7.151  49.933 -22.553  1.00  0.00     0.024 C 
ENDBRANCH  23  26
ENDBRANCH  21  23
ENDBRANCH  19  21
ENDBRANCH  13  15
ENDBRANCH   1  13
BRANCH  10  28
HETATM   28  O4  UNL     1      -1.220  51.685 -21.084  1.00  0.00    -0.353 OA
HETATM   29  C15 UNL     1      -1.272  50.272 -20.949  1.00  0.00     0.210 C 
ENDBRANCH  10  28
BRANCH   9  30
HETATM   30  O3  UNL     1       1.147  52.800 -21.166  1.00  0.00    -0.353 OA
HETATM   31  C13 UNL     1       1.197  54.015 -20.433  1.00  0.00     0.210 C 
ENDBRANCH   9  30
TORSDOF 7
ENDMDL
