MODEL 1
REMARK minimizedAffinity -8.69305038
REMARK  9 active torsions:
REMARK  status: ('A' for Active; 'I' for Inactive)
REMARK    1  A    between atoms: N1_2  and  C3_4 
REMARK    2  A    between atoms: C3_4  and  C4_5 
REMARK    3  A    between atoms: C4_5  and  N2_6 
REMARK    4  A    between atoms: N2_6  and  C5_7 
REMARK    5  A    between atoms: C7_9  and  C8_10 
REMARK    6  A    between atoms: C15_17  and  N3_18 
REMARK    7  A    between atoms: C16_19  and  C17_20 
REMARK       I    between atoms: C17_20  and  N4_22 
REMARK    8  A    between atoms: N4_22  and  N5_23 
REMARK    9  A    between atoms: C18_25  and  C19_26 
ROOT
HETATM    1  C5  UNL     1      -0.297  52.424 -22.057  1.00  0.00     0.081 A 
HETATM    2  C6  UNL     1       0.358  52.492 -23.277  1.00  0.00     0.055 A 
HETATM    3  C7  UNL     1      -0.154  51.813 -24.392  1.00  0.00    -0.007 A 
HETATM    4  C14 UNL     1      -1.347  51.059 -24.227  1.00  0.00     0.037 A 
HETATM    5  C15 UNL     1      -2.176  50.253 -25.093  1.00  0.00     0.062 A 
HETATM    6  C16 UNL     1      -3.269  49.690 -24.451  1.00  0.00     0.103 A 
HETATM    7  S1  UNL     1      -3.296  50.133 -22.796  1.00  0.00    -0.064 SA
HETATM    8  C24 UNL     1      -1.882  51.063 -22.943  1.00  0.00     0.089 A 
HETATM    9  N7  UNL     1      -1.405  51.705 -21.861  1.00  0.00    -0.341 N 
ATOM     10  H7  UNL     1      -1.861  51.646 -20.950  1.00  0.00     0.167 HD
ENDROOT
BRANCH   6  11
HETATM   11  C17 UNL     1      -4.311  48.839 -25.025  1.00  0.00     0.279 C 
HETATM   12  O1  UNL     1      -4.987  48.066 -24.343  1.00  0.00    -0.265 OA
HETATM   13  N4  UNL     1      -4.486  48.972 -26.401  1.00  0.00    -0.266 N 
HETATM   14  H20 UNL     1      -3.910  49.635 -26.907  1.00  0.00     0.190 HD
BRANCH  13  15
HETATM   15  N5  UNL     1      -5.421  48.231 -27.063  1.00  0.00    -0.307 N 
HETATM   16  C18 UNL     1      -5.211  48.062 -28.327  1.00  0.00     0.136 C 
ATOM     17  H5  UNL     1      -6.234  47.835 -26.591  1.00  0.00     0.186 HD
BRANCH  16  18
HETATM   18  C19 UNL     1      -6.112  47.297 -29.156  1.00  0.00     0.050 A 
HETATM   19  C20 UNL     1      -7.040  46.363 -28.715  1.00  0.00     0.032 A 
HETATM   20  C21 UNL     1      -7.724  45.848 -29.839  1.00  0.00     0.019 A 
HETATM   21  C22 UNL     1      -7.205  46.472 -30.948  1.00  0.00     0.091 A 
HETATM   22  N6  UNL     1      -6.228  47.343 -30.532  1.00  0.00    -0.360 N 
HETATM   23  C23 UNL     1      -5.454  48.177 -31.431  1.00  0.00     0.155 C 
ENDBRANCH  16  18
ENDBRANCH  13  15
ENDBRANCH   6  11
BRANCH   5  24
HETATM   24  N3  UNL     1      -1.929  50.045 -26.406  1.00  0.00    -0.397 N 
HETATM   25  H18 UNL     1      -2.609  49.554 -26.994  1.00  0.00     0.156 HD
HETATM   26  H19 UNL     1      -1.233  50.563 -26.935  1.00  0.00     0.156 HD
ENDBRANCH   5  24
BRANCH   3  27
HETATM   27  C8  UNL     1       0.531  51.886 -25.681  1.00  0.00    -0.025 A 
HETATM   28  C9  UNL     1      -0.065  52.533 -26.775  1.00  0.00     0.012 A 
HETATM   29  C10 UNL     1       0.590  52.603 -28.006  1.00  0.00     0.001 A 
HETATM   30  C11 UNL     1       1.849  52.023 -28.160  1.00  0.00     0.000 A 
HETATM   31  C12 UNL     1       2.450  51.372 -27.084  1.00  0.00     0.001 A 
HETATM   32  C13 UNL     1       1.795  51.302 -25.854  1.00  0.00     0.012 A 
ENDBRANCH   3  27
BRANCH   1  33
HETATM   33  N2  UNL     1       0.204  53.087 -20.930  1.00  0.00    -0.277 NA
HETATM   34  H11 UNL     1       1.221  53.079 -21.075  1.00  0.00     0.129 HD
BRANCH  33  35
HETATM   35  C4  UNL     1      -0.065  52.414 -19.650  1.00  0.00     0.124 C 
BRANCH  35  36
HETATM   36  C3  UNL     1       0.937  52.862 -18.558  1.00  0.00     0.286 C 
BRANCH  36  37
HETATM   37  N1  UNL     1       0.742  52.187 -17.256  1.00  0.00     0.081 N 
HETATM   38  C1  UNL     1       0.219  50.829 -17.417  1.00  0.00     0.309 C 
HETATM   39  C2  UNL     1       2.005  52.153 -16.514  1.00  0.00     0.309 C 
ENDBRANCH  36  37
ENDBRANCH  35  36
ENDBRANCH  33  35
ENDBRANCH   1  33
TORSDOF 9
ENDMDL
MODEL 2
REMARK minimizedAffinity -8.38707066
REMARK  9 active torsions:
REMARK  status: ('A' for Active; 'I' for Inactive)
REMARK    1  A    between atoms: N1_2  and  C3_4 
REMARK    2  A    between atoms: C3_4  and  C4_5 
REMARK    3  A    between atoms: C4_5  and  N2_6 
REMARK    4  A    between atoms: N2_6  and  C5_7 
REMARK    5  A    between atoms: C7_9  and  C8_10 
REMARK    6  A    between atoms: C15_17  and  N3_18 
REMARK    7  A    between atoms: C16_19  and  C17_20 
REMARK       I    between atoms: C17_20  and  N4_22 
REMARK    8  A    between atoms: N4_22  and  N5_23 
REMARK    9  A    between atoms: C18_25  and  C19_26 
ROOT
HETATM    1  C5  UNL     1      -1.887  50.376 -22.633  1.00  0.00     0.081 A 
HETATM    2  C6  UNL     1      -1.175  50.975 -23.660  1.00  0.00     0.055 A 
HETATM    3  C7  UNL     1      -1.584  50.812 -24.992  1.00  0.00    -0.007 A 
HETATM    4  C14 UNL     1      -2.733  50.016 -25.247  1.00  0.00     0.037 A 
HETATM    5  C15 UNL     1      -3.462  49.621 -26.430  1.00  0.00     0.062 A 
HETATM    6  C16 UNL     1      -4.549  48.802 -26.165  1.00  0.00     0.103 A 
HETATM    7  S1  UNL     1      -4.691  48.505 -24.484  1.00  0.00    -0.064 SA
HETATM    8  C24 UNL     1      -3.333  49.459 -24.123  1.00  0.00     0.089 A 
HETATM    9  N7  UNL     1      -2.956  49.602 -22.839  1.00  0.00    -0.341 N 
ATOM     10  H7  UNL     1      -3.454  49.148 -22.073  1.00  0.00     0.167 HD
ENDROOT
BRANCH   6  11
HETATM   11  C17 UNL     1      -5.504  48.235 -27.118  1.00  0.00     0.279 C 
HETATM   12  O1  UNL     1      -6.420  47.486 -26.774  1.00  0.00    -0.265 OA
HETATM   13  N4  UNL     1      -5.302  48.610 -28.445  1.00  0.00    -0.266 N 
HETATM   14  H20 UNL     1      -4.539  49.240 -28.666  1.00  0.00     0.190 HD
BRANCH  13  15
HETATM   15  N5  UNL     1      -6.117  48.147 -29.436  1.00  0.00    -0.307 N 
HETATM   16  C18 UNL     1      -5.791  48.492 -30.638  1.00  0.00     0.136 C 
ATOM     17  H5  UNL     1      -6.932  47.566 -29.241  1.00  0.00     0.186 HD
BRANCH  16  18
HETATM   18  C19 UNL     1      -6.558  48.073 -31.788  1.00  0.00     0.050 A 
HETATM   19  C20 UNL     1      -7.929  48.216 -31.957  1.00  0.00     0.032 A 
HETATM   20  C21 UNL     1      -8.280  47.684 -33.218  1.00  0.00     0.019 A 
HETATM   21  C22 UNL     1      -7.122  47.223 -33.799  1.00  0.00     0.091 A 
HETATM   22  N6  UNL     1      -6.085  47.455 -32.929  1.00  0.00    -0.360 N 
HETATM   23  C23 UNL     1      -4.707  47.096 -33.203  1.00  0.00     0.155 C 
ENDBRANCH  16  18
ENDBRANCH  13  15
ENDBRANCH   6  11
BRANCH   5  24
HETATM   24  N3  UNL     1      -3.135  49.995 -27.687  1.00  0.00    -0.397 N 
HETATM   25  H18 UNL     1      -3.750  49.774 -28.475  1.00  0.00     0.156 HD
HETATM   26  H19 UNL     1      -2.447  50.713 -27.897  1.00  0.00     0.156 HD
ENDBRANCH   5  24
BRANCH   3  27
HETATM   27  C8  UNL     1      -0.838  51.446 -26.078  1.00  0.00    -0.025 A 
HETATM   28  C9  UNL     1       0.282  50.817 -26.642  1.00  0.00     0.012 A 
HETATM   29  C10 UNL     1       0.994  51.423 -27.679  1.00  0.00     0.001 A 
HETATM   30  C11 UNL     1       0.596  52.668 -28.163  1.00  0.00     0.000 A 
HETATM   31  C12 UNL     1      -0.511  53.309 -27.608  1.00  0.00     0.001 A 
HETATM   32  C13 UNL     1      -1.222  52.703 -26.571  1.00  0.00     0.012 A 
ENDBRANCH   3  27
BRANCH   1  33
HETATM   33  N2  UNL     1      -1.489  50.519 -21.298  1.00  0.00    -0.277 NA
HETATM   34  H11 UNL     1      -2.027  51.330 -20.971  1.00  0.00     0.129 HD
BRANCH  33  35
HETATM   35  C4  UNL     1      -0.065  50.829 -21.111  1.00  0.00     0.124 C 
BRANCH  35  36
HETATM   36  C3  UNL     1       0.263  52.270 -21.572  1.00  0.00     0.286 C 
BRANCH  36  37
HETATM   37  N1  UNL     1       1.279  52.947 -20.736  1.00  0.00     0.081 N 
HETATM   38  C1  UNL     1       1.542  54.312 -21.193  1.00  0.00     0.309 C 
HETATM   39  C2  UNL     1       0.848  52.962 -19.335  1.00  0.00     0.309 C 
ENDBRANCH  36  37
ENDBRANCH  35  36
ENDBRANCH  33  35
ENDBRANCH   1  33
TORSDOF 9
ENDMDL
MODEL 3
REMARK minimizedAffinity -8.31334209
REMARK  9 active torsions:
REMARK  status: ('A' for Active; 'I' for Inactive)
REMARK    1  A    between atoms: N1_2  and  C3_4 
REMARK    2  A    between atoms: C3_4  and  C4_5 
REMARK    3  A    between atoms: C4_5  and  N2_6 
REMARK    4  A    between atoms: N2_6  and  C5_7 
REMARK    5  A    between atoms: C7_9  and  C8_10 
REMARK    6  A    between atoms: C15_17  and  N3_18 
REMARK    7  A    between atoms: C16_19  and  C17_20 
REMARK       I    between atoms: C17_20  and  N4_22 
REMARK    8  A    between atoms: N4_22  and  N5_23 
REMARK    9  A    between atoms: C18_25  and  C19_26 
ROOT
HETATM    1  C5  UNL     1       0.244  53.171 -24.010  1.00  0.00     0.081 A 
HETATM    2  C6  UNL     1      -0.813  52.274 -23.995  1.00  0.00     0.055 A 
HETATM    3  C7  UNL     1      -1.233  51.698 -22.786  1.00  0.00    -0.007 A 
HETATM    4  C14 UNL     1      -0.543  52.057 -21.597  1.00  0.00     0.037 A 
HETATM    5  C15 UNL     1      -0.663  51.711 -20.200  1.00  0.00     0.062 A 
HETATM    6  C16 UNL     1       0.277  52.331 -19.391  1.00  0.00     0.103 A 
HETATM    7  S1  UNL     1       1.311  53.334 -20.318  1.00  0.00    -0.064 SA
HETATM    8  C24 UNL     1       0.510  52.950 -21.766  1.00  0.00     0.089 A 
HETATM    9  N7  UNL     1       0.930  53.512 -22.915  1.00  0.00    -0.341 N 
ATOM     10  H7  UNL     1       1.721  54.156 -22.948  1.00  0.00     0.167 HD
ENDROOT
BRANCH   6  11
HETATM   11  C17 UNL     1       0.432  52.217 -17.941  1.00  0.00     0.279 C 
HETATM   12  O1  UNL     1      -0.314  51.525 -17.245  1.00  0.00    -0.265 OA
HETATM   13  N4  UNL     1       1.490  52.948 -17.404  1.00  0.00    -0.266 N 
HETATM   14  H20 UNL     1       2.079  53.489 -18.028  1.00  0.00     0.190 HD
BRANCH  13  15
HETATM   15  N5  UNL     1       1.742  52.936 -16.063  1.00  0.00    -0.307 N 
HETATM   16  C18 UNL     1       1.842  51.766 -15.522  1.00  0.00     0.136 C 
ATOM     17  H5  UNL     1       1.845  53.794 -15.522  1.00  0.00     0.186 HD
BRANCH  16  18
HETATM   18  C19 UNL     1       2.111  51.597 -14.114  1.00  0.00     0.050 A 
HETATM   19  C20 UNL     1       1.312  52.035 -13.066  1.00  0.00     0.032 A 
HETATM   20  C21 UNL     1       1.928  51.664 -11.850  1.00  0.00     0.019 A 
HETATM   21  C22 UNL     1       3.092  51.008 -12.170  1.00  0.00     0.091 A 
HETATM   22  N6  UNL     1       3.203  50.974 -13.539  1.00  0.00    -0.360 N 
HETATM   23  C23 UNL     1       4.311  50.362 -14.244  1.00  0.00     0.155 C 
ENDBRANCH  16  18
ENDBRANCH  13  15
ENDBRANCH   6  11
BRANCH   5  24
HETATM   24  N3  UNL     1      -1.590  50.861 -19.703  1.00  0.00    -0.397 N 
HETATM   25  H18 UNL     1      -1.697  50.737 -18.692  1.00  0.00     0.156 HD
HETATM   26  H19 UNL     1      -2.381  50.518 -20.241  1.00  0.00     0.156 HD
ENDBRANCH   5  24
BRANCH   3  27
HETATM   27  C8  UNL     1      -2.349  50.755 -22.766  1.00  0.00    -0.025 A 
HETATM   28  C9  UNL     1      -3.663  51.201 -22.554  1.00  0.00     0.012 A 
HETATM   29  C10 UNL     1      -4.729  50.300 -22.535  1.00  0.00     0.001 A 
HETATM   30  C11 UNL     1      -4.494  48.939 -22.724  1.00  0.00     0.000 A 
HETATM   31  C12 UNL     1      -3.194  48.479 -22.930  1.00  0.00     0.001 A 
HETATM   32  C13 UNL     1      -2.129  49.381 -22.948  1.00  0.00     0.012 A 
ENDBRANCH   3  27
BRANCH   1  33
HETATM   33  N2  UNL     1       0.684  53.749 -25.206  1.00  0.00    -0.277 NA
HETATM   34  H11 UNL     1       0.598  54.758 -25.035  1.00  0.00     0.129 HD
BRANCH  33  35
HETATM   35  C4  UNL     1      -0.137  53.429 -26.383  1.00  0.00     0.124 C 
BRANCH  35  36
HETATM   36  C3  UNL     1       0.742  52.983 -27.577  1.00  0.00     0.286 C 
BRANCH  36  37
HETATM   37  N1  UNL     1       1.231  51.591 -27.472  1.00  0.00     0.081 N 
HETATM   38  C1  UNL     1       2.461  51.501 -26.684  1.00  0.00     0.309 C 
HETATM   39  C2  UNL     1       0.194  50.739 -26.882  1.00  0.00     0.309 C 
ENDBRANCH  36  37
ENDBRANCH  35  36
ENDBRANCH  33  35
ENDBRANCH   1  33
TORSDOF 9
ENDMDL
MODEL 4
REMARK minimizedAffinity -8.22275925
REMARK  9 active torsions:
REMARK  status: ('A' for Active; 'I' for Inactive)
REMARK    1  A    between atoms: N1_2  and  C3_4 
REMARK    2  A    between atoms: C3_4  and  C4_5 
REMARK    3  A    between atoms: C4_5  and  N2_6 
REMARK    4  A    between atoms: N2_6  and  C5_7 
REMARK    5  A    between atoms: C7_9  and  C8_10 
REMARK    6  A    between atoms: C15_17  and  N3_18 
REMARK    7  A    between atoms: C16_19  and  C17_20 
REMARK       I    between atoms: C17_20  and  N4_22 
REMARK    8  A    between atoms: N4_22  and  N5_23 
REMARK    9  A    between atoms: C18_25  and  C19_26 
ROOT
HETATM    1  C5  UNL     1      -4.417  51.198 -24.174  1.00  0.00     0.081 A 
HETATM    2  C6  UNL     1      -3.557  51.421 -25.237  1.00  0.00     0.055 A 
HETATM    3  C7  UNL     1      -2.221  51.781 -25.002  1.00  0.00    -0.007 A 
HETATM    4  C14 UNL     1      -1.792  51.915 -23.654  1.00  0.00     0.037 A 
HETATM    5  C15 UNL     1      -0.544  52.249 -23.007  1.00  0.00     0.062 A 
HETATM    6  C16 UNL     1      -0.623  52.262 -21.622  1.00  0.00     0.103 A 
HETATM    7  S1  UNL     1      -2.208  51.873 -21.099  1.00  0.00    -0.064 SA
HETATM    8  C24 UNL     1      -2.768  51.684 -22.691  1.00  0.00     0.089 A 
HETATM    9  N7  UNL     1      -4.053  51.339 -22.896  1.00  0.00    -0.341 N 
ATOM     10  H7  UNL     1      -4.707  51.195 -22.126  1.00  0.00     0.167 HD
ENDROOT
BRANCH   6  11
HETATM   11  C17 UNL     1       0.444  52.542 -20.662  1.00  0.00     0.279 C 
HETATM   12  O1  UNL     1       1.610  52.750 -21.006  1.00  0.00    -0.265 OA
HETATM   13  N4  UNL     1       0.044  52.561 -19.327  1.00  0.00    -0.266 N 
HETATM   14  H20 UNL     1      -0.932  52.396 -19.105  1.00  0.00     0.190 HD
BRANCH  13  15
HETATM   15  N5  UNL     1       0.942  52.803 -18.329  1.00  0.00    -0.307 N 
HETATM   16  C18 UNL     1       1.086  51.856 -17.461  1.00  0.00     0.136 C 
ATOM     17  H5  UNL     1       1.467  53.676 -18.272  1.00  0.00     0.186 HD
BRANCH  16  18
HETATM   18  C19 UNL     1       2.004  51.969 -16.352  1.00  0.00     0.050 A 
HETATM   19  C20 UNL     1       3.308  52.445 -16.411  1.00  0.00     0.032 A 
HETATM   20  C21 UNL     1       3.858  52.398 -15.111  1.00  0.00     0.019 A 
HETATM   21  C22 UNL     1       2.887  51.894 -14.279  1.00  0.00     0.091 A 
HETATM   22  N6  UNL     1       1.770  51.631 -15.033  1.00  0.00    -0.360 N 
HETATM   23  C23 UNL     1       0.541  51.084 -14.493  1.00  0.00     0.155 C 
ENDBRANCH  16  18
ENDBRANCH  13  15
ENDBRANCH   6  11
BRANCH   5  24
HETATM   24  N3  UNL     1       0.604  52.531 -23.663  1.00  0.00    -0.397 N 
HETATM   25  H18 UNL     1       1.482  52.654 -23.151  1.00  0.00     0.156 HD
HETATM   26  H19 UNL     1       0.731  52.378 -24.659  1.00  0.00     0.156 HD
ENDBRANCH   5  24
BRANCH   3  27
HETATM   27  C8  UNL     1      -1.310  52.012 -26.121  1.00  0.00    -0.025 A 
HETATM   28  C9  UNL     1      -1.314  53.235 -26.809  1.00  0.00     0.012 A 
HETATM   29  C10 UNL     1      -0.443  53.456 -27.878  1.00  0.00     0.001 A 
HETATM   30  C11 UNL     1       0.442  52.454 -28.274  1.00  0.00     0.000 A 
HETATM   31  C12 UNL     1       0.453  51.231 -27.604  1.00  0.00     0.001 A 
HETATM   32  C13 UNL     1      -0.419  51.011 -26.536  1.00  0.00     0.012 A 
ENDBRANCH   3  27
BRANCH   1  33
HETATM   33  N2  UNL     1      -5.755  50.847 -24.388  1.00  0.00    -0.277 NA
HETATM   34  H11 UNL     1      -6.280  51.566 -23.877  1.00  0.00     0.129 HD
BRANCH  33  35
HETATM   35  C4  UNL     1      -6.145  49.541 -23.837  1.00  0.00     0.124 C 
BRANCH  35  36
HETATM   36  C3  UNL     1      -7.272  49.687 -22.787  1.00  0.00     0.286 C 
BRANCH  36  37
HETATM   37  N1  UNL     1      -6.958  49.062 -21.483  1.00  0.00     0.081 N 
HETATM   38  C1  UNL     1      -5.854  48.107 -21.586  1.00  0.00     0.309 C 
HETATM   39  C2  UNL     1      -6.636  50.097 -20.496  1.00  0.00     0.309 C 
ENDBRANCH  36  37
ENDBRANCH  35  36
ENDBRANCH  33  35
ENDBRANCH   1  33
TORSDOF 9
ENDMDL
MODEL 5
REMARK minimizedAffinity -8.2121954
REMARK  9 active torsions:
REMARK  status: ('A' for Active; 'I' for Inactive)
REMARK    1  A    between atoms: N1_2  and  C3_4 
REMARK    2  A    between atoms: C3_4  and  C4_5 
REMARK    3  A    between atoms: C4_5  and  N2_6 
REMARK    4  A    between atoms: N2_6  and  C5_7 
REMARK    5  A    between atoms: C7_9  and  C8_10 
REMARK    6  A    between atoms: C15_17  and  N3_18 
REMARK    7  A    between atoms: C16_19  and  C17_20 
REMARK       I    between atoms: C17_20  and  N4_22 
REMARK    8  A    between atoms: N4_22  and  N5_23 
REMARK    9  A    between atoms: C18_25  and  C19_26 
ROOT
HETATM    1  C5  UNL     1      -4.203  48.745 -26.514  1.00  0.00     0.081 A 
HETATM    2  C6  UNL     1      -3.351  49.656 -27.119  1.00  0.00     0.055 A 
HETATM    3  C7  UNL     1      -2.396  50.345 -26.356  1.00  0.00    -0.007 A 
HETATM    4  C14 UNL     1      -2.340  50.084 -24.961  1.00  0.00     0.037 A 
HETATM    5  C15 UNL     1      -1.528  50.558 -23.864  1.00  0.00     0.062 A 
HETATM    6  C16 UNL     1      -1.866  50.000 -22.640  1.00  0.00     0.103 A 
HETATM    7  S1  UNL     1      -3.170  48.902 -22.813  1.00  0.00    -0.064 SA
HETATM    8  C24 UNL     1      -3.269  49.164 -24.488  1.00  0.00     0.089 A 
HETATM    9  N7  UNL     1      -4.194  48.495 -25.202  1.00  0.00    -0.341 N 
ATOM     10  H7  UNL     1      -4.844  47.839 -24.768  1.00  0.00     0.167 HD
ENDROOT
BRANCH   6  11
HETATM   11  C17 UNL     1      -1.246  50.242 -21.337  1.00  0.00     0.279 C 
HETATM   12  O1  UNL     1      -0.370  49.509 -20.873  1.00  0.00    -0.265 OA
HETATM   13  N4  UNL     1      -1.717  51.366 -20.662  1.00  0.00    -0.266 N 
HETATM   14  H20 UNL     1      -2.430  51.939 -21.101  1.00  0.00     0.190 HD
BRANCH  13  15
HETATM   15  N5  UNL     1      -1.228  51.702 -19.434  1.00  0.00    -0.307 N 
HETATM   16  C18 UNL     1      -0.220  51.005 -19.021  1.00  0.00     0.136 C 
ATOM     17  H5  UNL     1      -1.631  52.454 -18.876  1.00  0.00     0.186 HD
BRANCH  16  18
HETATM   18  C19 UNL     1       0.406  51.250 -17.744  1.00  0.00     0.050 A 
HETATM   19  C20 UNL     1       1.073  52.407 -17.364  1.00  0.00     0.032 A 
HETATM   20  C21 UNL     1       1.530  52.245 -16.037  1.00  0.00     0.019 A 
HETATM   21  C22 UNL     1       1.137  50.993 -15.626  1.00  0.00     0.091 A 
HETATM   22  N6  UNL     1       0.463  50.393 -16.661  1.00  0.00    -0.360 N 
HETATM   23  C23 UNL     1      -0.097  49.058 -16.594  1.00  0.00     0.155 C 
ENDBRANCH  16  18
ENDBRANCH  13  15
ENDBRANCH   6  11
BRANCH   5  24
HETATM   24  N3  UNL     1      -0.530  51.462 -23.989  1.00  0.00    -0.397 N 
HETATM   25  H18 UNL     1       0.081  51.679 -23.197  1.00  0.00     0.156 HD
HETATM   26  H19 UNL     1      -0.160  51.767 -24.885  1.00  0.00     0.156 HD
ENDBRANCH   5  24
BRANCH   3  27
HETATM   27  C8  UNL     1      -1.494  51.302 -26.992  1.00  0.00    -0.025 A 
HETATM   28  C9  UNL     1      -0.176  50.942 -27.313  1.00  0.00     0.012 A 
HETATM   29  C10 UNL     1       0.687  51.857 -27.921  1.00  0.00     0.001 A 
HETATM   30  C11 UNL     1       0.242  53.146 -28.211  1.00  0.00     0.000 A 
HETATM   31  C12 UNL     1      -1.062  53.521 -27.893  1.00  0.00     0.001 A 
HETATM   32  C13 UNL     1      -1.923  52.606 -27.285  1.00  0.00     0.012 A 
ENDBRANCH   3  27
BRANCH   1  33
HETATM   33  N2  UNL     1      -5.169  48.055 -27.256  1.00  0.00    -0.277 NA
HETATM   34  H11 UNL     1      -5.035  47.075 -26.978  1.00  0.00     0.129 HD
BRANCH  33  35
HETATM   35  C4  UNL     1      -4.993  48.128 -28.714  1.00  0.00     0.124 C 
BRANCH  35  36
HETATM   36  C3  UNL     1      -6.353  48.055 -29.449  1.00  0.00     0.286 C 
BRANCH  36  37
HETATM   37  N1  UNL     1      -6.401  47.031 -30.516  1.00  0.00     0.081 N 
HETATM   38  C1  UNL     1      -5.115  46.896 -31.203  1.00  0.00     0.309 C 
HETATM   39  C2  UNL     1      -6.807  45.740 -29.955  1.00  0.00     0.309 C 
ENDBRANCH  36  37
ENDBRANCH  35  36
ENDBRANCH  33  35
ENDBRANCH   1  33
TORSDOF 9
ENDMDL
MODEL 6
REMARK minimizedAffinity -8.21184158
REMARK  9 active torsions:
REMARK  status: ('A' for Active; 'I' for Inactive)
REMARK    1  A    between atoms: N1_2  and  C3_4 
REMARK    2  A    between atoms: C3_4  and  C4_5 
REMARK    3  A    between atoms: C4_5  and  N2_6 
REMARK    4  A    between atoms: N2_6  and  C5_7 
REMARK    5  A    between atoms: C7_9  and  C8_10 
REMARK    6  A    between atoms: C15_17  and  N3_18 
REMARK    7  A    between atoms: C16_19  and  C17_20 
REMARK       I    between atoms: C17_20  and  N4_22 
REMARK    8  A    between atoms: N4_22  and  N5_23 
REMARK    9  A    between atoms: C18_25  and  C19_26 
ROOT
HETATM    1  C5  UNL     1       0.457  53.152 -24.173  1.00  0.00     0.081 A 
HETATM    2  C6  UNL     1      -0.411  52.071 -24.172  1.00  0.00     0.055 A 
HETATM    3  C7  UNL     1      -0.789  51.471 -22.961  1.00  0.00    -0.007 A 
HETATM    4  C14 UNL     1      -0.253  51.999 -21.756  1.00  0.00     0.037 A 
HETATM    5  C15 UNL     1      -0.392  51.688 -20.352  1.00  0.00     0.062 A 
HETATM    6  C16 UNL     1       0.363  52.505 -19.524  1.00  0.00     0.103 A 
HETATM    7  S1  UNL     1       1.245  53.651 -20.442  1.00  0.00    -0.064 SA
HETATM    8  C24 UNL     1       0.621  53.069 -21.911  1.00  0.00     0.089 A 
HETATM    9  N7  UNL     1       0.998  53.658 -23.061  1.00  0.00    -0.341 N 
ATOM     10  H7  UNL     1       1.655  54.438 -23.082  1.00  0.00     0.167 HD
ENDROOT
BRANCH   6  11
HETATM   11  C17 UNL     1       0.447  52.477 -18.064  1.00  0.00     0.279 C 
HETATM   12  O1  UNL     1      -0.490  52.108 -17.352  1.00  0.00    -0.265 OA
HETATM   13  N4  UNL     1       1.667  52.895 -17.538  1.00  0.00    -0.266 N 
HETATM   14  H20 UNL     1       2.406  53.174 -18.174  1.00  0.00     0.190 HD
BRANCH  13  15
HETATM   15  N5  UNL     1       1.877  52.923 -16.189  1.00  0.00    -0.307 N 
HETATM   16  C18 UNL     1       1.912  51.772 -15.603  1.00  0.00     0.136 C 
ATOM     17  H5  UNL     1       1.998  53.797 -15.678  1.00  0.00     0.186 HD
BRANCH  16  18
HETATM   18  C19 UNL     1       2.130  51.646 -14.181  1.00  0.00     0.050 A 
HETATM   19  C20 UNL     1       3.308  51.247 -13.563  1.00  0.00     0.032 A 
HETATM   20  C21 UNL     1       3.105  51.263 -12.165  1.00  0.00     0.019 A 
HETATM   21  C22 UNL     1       1.810  51.669 -11.949  1.00  0.00     0.091 A 
HETATM   22  N6  UNL     1       1.222  51.894 -13.169  1.00  0.00    -0.360 N 
HETATM   23  C23 UNL     1      -0.150  52.332 -13.336  1.00  0.00     0.155 C 
ENDBRANCH  16  18
ENDBRANCH  13  15
ENDBRANCH   6  11
BRANCH   5  24
HETATM   24  N3  UNL     1      -1.172  50.696 -19.865  1.00  0.00    -0.397 N 
HETATM   25  H18 UNL     1      -1.315  50.592 -18.856  1.00  0.00     0.156 HD
HETATM   26  H19 UNL     1      -1.849  50.189 -20.427  1.00  0.00     0.156 HD
ENDBRANCH   5  24
BRANCH   3  27
HETATM   27  C8  UNL     1      -1.707  50.334 -22.955  1.00  0.00    -0.025 A 
HETATM   28  C9  UNL     1      -2.885  50.359 -23.717  1.00  0.00     0.012 A 
HETATM   29  C10 UNL     1      -3.762  49.272 -23.712  1.00  0.00     0.001 A 
HETATM   30  C11 UNL     1      -3.474  48.148 -22.941  1.00  0.00     0.000 A 
HETATM   31  C12 UNL     1      -2.310  48.111 -22.173  1.00  0.00     0.001 A 
HETATM   32  C13 UNL     1      -1.434  49.197 -22.179  1.00  0.00     0.012 A 
ENDBRANCH   3  27
BRANCH   1  33
HETATM   33  N2  UNL     1       0.854  53.759 -25.371  1.00  0.00    -0.277 NA
HETATM   34  H11 UNL     1       1.176  54.689 -25.077  1.00  0.00     0.129 HD
BRANCH  33  35
HETATM   35  C4  UNL     1      -0.225  53.953 -26.349  1.00  0.00     0.124 C 
BRANCH  35  36
HETATM   36  C3  UNL     1       0.258  53.651 -27.788  1.00  0.00     0.286 C 
BRANCH  36  37
HETATM   37  N1  UNL     1      -0.058  52.281 -28.249  1.00  0.00     0.081 N 
HETATM   38  C1  UNL     1       1.085  51.379 -28.108  1.00  0.00     0.309 C 
HETATM   39  C2  UNL     1      -1.207  51.755 -27.507  1.00  0.00     0.309 C 
ENDBRANCH  36  37
ENDBRANCH  35  36
ENDBRANCH  33  35
ENDBRANCH   1  33
TORSDOF 9
ENDMDL
MODEL 7
REMARK minimizedAffinity -8.132267
REMARK  9 active torsions:
REMARK  status: ('A' for Active; 'I' for Inactive)
REMARK    1  A    between atoms: N1_2  and  C3_4 
REMARK    2  A    between atoms: C3_4  and  C4_5 
REMARK    3  A    between atoms: C4_5  and  N2_6 
REMARK    4  A    between atoms: N2_6  and  C5_7 
REMARK    5  A    between atoms: C7_9  and  C8_10 
REMARK    6  A    between atoms: C15_17  and  N3_18 
REMARK    7  A    between atoms: C16_19  and  C17_20 
REMARK       I    between atoms: C17_20  and  N4_22 
REMARK    8  A    between atoms: N4_22  and  N5_23 
REMARK    9  A    between atoms: C18_25  and  C19_26 
ROOT
HETATM    1  C5  UNL     1      -3.505  49.694 -25.695  1.00  0.00     0.081 A 
HETATM    2  C6  UNL     1      -2.395  50.102 -26.417  1.00  0.00     0.055 A 
HETATM    3  C7  UNL     1      -1.345  50.778 -25.776  1.00  0.00    -0.007 A 
HETATM    4  C14 UNL     1      -1.464  51.031 -24.382  1.00  0.00     0.037 A 
HETATM    5  C15 UNL     1      -0.634  51.665 -23.384  1.00  0.00     0.062 A 
HETATM    6  C16 UNL     1      -1.201  51.678 -22.118  1.00  0.00     0.103 A 
HETATM    7  S1  UNL     1      -2.740  50.926 -22.133  1.00  0.00    -0.064 SA
HETATM    8  C24 UNL     1      -2.642  50.584 -23.794  1.00  0.00     0.089 A 
HETATM    9  N7  UNL     1      -3.660  49.937 -24.390  1.00  0.00    -0.341 N 
ATOM     10  H7  UNL     1      -4.495  49.651 -23.879  1.00  0.00     0.167 HD
ENDROOT
BRANCH   6  11
HETATM   11  C17 UNL     1      -0.635  52.221 -20.883  1.00  0.00     0.279 C 
HETATM   12  O1  UNL     1       0.126  53.191 -20.872  1.00  0.00    -0.265 OA
HETATM   13  N4  UNL     1      -1.023  51.562 -19.719  1.00  0.00    -0.266 N 
HETATM   14  H20 UNL     1      -1.663  50.778 -19.789  1.00  0.00     0.190 HD
BRANCH  13  15
HETATM   15  N5  UNL     1      -0.562  51.963 -18.499  1.00  0.00    -0.307 N 
HETATM   16  C18 UNL     1       0.048  51.058 -17.805  1.00  0.00     0.136 C 
ATOM     17  H5  UNL     1      -0.690  52.915 -18.157  1.00  0.00     0.186 HD
BRANCH  16  18
HETATM   18  C19 UNL     1       0.593  51.338 -16.498  1.00  0.00     0.050 A 
HETATM   19  C20 UNL     1       1.884  51.771 -16.222  1.00  0.00     0.032 A 
HETATM   20  C21 UNL     1       2.011  51.932 -14.824  1.00  0.00     0.019 A 
HETATM   21  C22 UNL     1       0.800  51.595 -14.267  1.00  0.00     0.091 A 
HETATM   22  N6  UNL     1      -0.052  51.231 -15.281  1.00  0.00    -0.360 N 
HETATM   23  C23 UNL     1      -1.422  50.808 -15.070  1.00  0.00     0.155 C 
ENDBRANCH  16  18
ENDBRANCH  13  15
ENDBRANCH   6  11
BRANCH   5  24
HETATM   24  N3  UNL     1       0.579  52.206 -23.633  1.00  0.00    -0.397 N 
HETATM   25  H18 UNL     1       1.168  52.545 -22.866  1.00  0.00     0.156 HD
HETATM   26  H19 UNL     1       1.083  52.075 -24.505  1.00  0.00     0.156 HD
ENDBRANCH   5  24
BRANCH   3  27
HETATM   27  C8  UNL     1      -0.170  51.206 -26.533  1.00  0.00    -0.025 A 
HETATM   28  C9  UNL     1      -0.304  52.040 -27.653  1.00  0.00     0.012 A 
HETATM   29  C10 UNL     1       0.819  52.450 -28.376  1.00  0.00     0.001 A 
HETATM   30  C11 UNL     1       2.089  52.026 -27.989  1.00  0.00     0.000 A 
HETATM   31  C12 UNL     1       2.237  51.192 -26.882  1.00  0.00     0.001 A 
HETATM   32  C13 UNL     1       1.115  50.783 -26.160  1.00  0.00     0.012 A 
ENDBRANCH   3  27
BRANCH   1  33
HETATM   33  N2  UNL     1      -4.567  49.027 -26.318  1.00  0.00    -0.277 NA
HETATM   34  H11 UNL     1      -4.945  48.426 -25.576  1.00  0.00     0.129 HD
BRANCH  33  35
HETATM   35  C4  UNL     1      -4.175  48.156 -27.435  1.00  0.00     0.124 C 
BRANCH  35  36
HETATM   36  C3  UNL     1      -4.948  48.517 -28.727  1.00  0.00     0.286 C 
BRANCH  36  37
HETATM   37  N1  UNL     1      -5.808  47.424 -29.234  1.00  0.00     0.081 N 
HETATM   38  C1  UNL     1      -6.909  47.125 -28.318  1.00  0.00     0.309 C 
HETATM   39  C2  UNL     1      -6.335  47.772 -30.556  1.00  0.00     0.309 C 
ENDBRANCH  36  37
ENDBRANCH  35  36
ENDBRANCH  33  35
ENDBRANCH   1  33
TORSDOF 9
ENDMDL
MODEL 8
REMARK minimizedAffinity -8.1110363
REMARK  9 active torsions:
REMARK  status: ('A' for Active; 'I' for Inactive)
REMARK    1  A    between atoms: N1_2  and  C3_4 
REMARK    2  A    between atoms: C3_4  and  C4_5 
REMARK    3  A    between atoms: C4_5  and  N2_6 
REMARK    4  A    between atoms: N2_6  and  C5_7 
REMARK    5  A    between atoms: C7_9  and  C8_10 
REMARK    6  A    between atoms: C15_17  and  N3_18 
REMARK    7  A    between atoms: C16_19  and  C17_20 
REMARK       I    between atoms: C17_20  and  N4_22 
REMARK    8  A    between atoms: N4_22  and  N5_23 
REMARK    9  A    between atoms: C18_25  and  C19_26 
ROOT
HETATM    1  C5  UNL     1      -0.026  52.666 -23.820  1.00  0.00     0.081 A 
HETATM    2  C6  UNL     1       0.333  52.484 -22.494  1.00  0.00     0.055 A 
HETATM    3  C7  UNL     1      -0.606  52.006 -21.567  1.00  0.00    -0.007 A 
HETATM    4  C14 UNL     1      -1.920  51.726 -22.030  1.00  0.00     0.037 A 
HETATM    5  C15 UNL     1      -3.134  51.229 -21.424  1.00  0.00     0.062 A 
HETATM    6  C16 UNL     1      -4.197  51.130 -22.309  1.00  0.00     0.103 A 
HETATM    7  S1  UNL     1      -3.732  51.640 -23.877  1.00  0.00    -0.064 SA
HETATM    8  C24 UNL     1      -2.143  51.976 -23.380  1.00  0.00     0.089 A 
HETATM    9  N7  UNL     1      -1.258  52.436 -24.283  1.00  0.00    -0.341 N 
ATOM     10  H7  UNL     1      -1.511  52.598 -25.258  1.00  0.00     0.167 HD
ENDROOT
BRANCH   6  11
HETATM   11  C17 UNL     1      -5.553  50.655 -22.038  1.00  0.00     0.279 C 
HETATM   12  O1  UNL     1      -6.302  50.242 -22.926  1.00  0.00    -0.265 OA
HETATM   13  N4  UNL     1      -5.935  50.700 -20.698  1.00  0.00    -0.266 N 
HETATM   14  H20 UNL     1      -5.271  51.037 -20.010  1.00  0.00     0.190 HD
BRANCH  13  15
HETATM   15  N5  UNL     1      -7.178  50.293 -20.309  1.00  0.00    -0.307 N 
HETATM   16  C18 UNL     1      -7.225  49.168 -19.673  1.00  0.00     0.136 C 
ATOM     17  H5  UNL     1      -8.015  50.839 -20.507  1.00  0.00     0.186 HD
BRANCH  16  18
HETATM   18  C19 UNL     1      -8.470  48.613 -19.195  1.00  0.00     0.050 A 
HETATM   19  C20 UNL     1      -9.013  48.785 -17.928  1.00  0.00     0.032 A 
HETATM   20  C21 UNL     1     -10.239  48.086 -17.871  1.00  0.00     0.019 A 
HETATM   21  C22 UNL     1     -10.427  47.497 -19.099  1.00  0.00     0.091 A 
HETATM   22  N6  UNL     1      -9.353  47.814 -19.895  1.00  0.00    -0.360 N 
HETATM   23  C23 UNL     1      -9.203  47.363 -21.264  1.00  0.00     0.155 C 
ENDBRANCH  16  18
ENDBRANCH  13  15
ENDBRANCH   6  11
BRANCH   5  24
HETATM   24  N3  UNL     1      -3.251  50.890 -20.120  1.00  0.00    -0.397 N 
HETATM   25  H18 UNL     1      -4.103  50.442 -19.771  1.00  0.00     0.156 HD
HETATM   26  H19 UNL     1      -2.458  50.804 -19.490  1.00  0.00     0.156 HD
ENDBRANCH   5  24
BRANCH   3  27
HETATM   27  C8  UNL     1      -0.230  51.809 -20.169  1.00  0.00    -0.025 A 
HETATM   28  C9  UNL     1      -0.308  50.539 -19.577  1.00  0.00     0.012 A 
HETATM   29  C10 UNL     1       0.051  50.351 -18.241  1.00  0.00     0.001 A 
HETATM   30  C11 UNL     1       0.489  51.433 -17.478  1.00  0.00     0.000 A 
HETATM   31  C12 UNL     1       0.566  52.702 -18.050  1.00  0.00     0.001 A 
HETATM   32  C13 UNL     1       0.206  52.889 -19.386  1.00  0.00     0.012 A 
ENDBRANCH   3  27
BRANCH   1  33
HETATM   33  N2  UNL     1       0.894  53.151 -24.758  1.00  0.00    -0.277 NA
HETATM   34  H11 UNL     1       0.313  53.690 -25.411  1.00  0.00     0.129 HD
BRANCH  33  35
HETATM   35  C4  UNL     1       1.586  52.113 -25.535  1.00  0.00     0.124 C 
BRANCH  35  36
HETATM   36  C3  UNL     1       1.164  52.149 -27.024  1.00  0.00     0.286 C 
BRANCH  36  37
HETATM   37  N1  UNL     1      -0.225  52.610 -27.239  1.00  0.00     0.081 N 
HETATM   38  C1  UNL     1      -0.292  53.715 -28.197  1.00  0.00     0.309 C 
HETATM   39  C2  UNL     1      -1.058  51.496 -27.700  1.00  0.00     0.309 C 
ENDBRANCH  36  37
ENDBRANCH  35  36
ENDBRANCH  33  35
ENDBRANCH   1  33
TORSDOF 9
ENDMDL
MODEL 9
REMARK minimizedAffinity -8.0882225
REMARK  9 active torsions:
REMARK  status: ('A' for Active; 'I' for Inactive)
REMARK    1  A    between atoms: N1_2  and  C3_4 
REMARK    2  A    between atoms: C3_4  and  C4_5 
REMARK    3  A    between atoms: C4_5  and  N2_6 
REMARK    4  A    between atoms: N2_6  and  C5_7 
REMARK    5  A    between atoms: C7_9  and  C8_10 
REMARK    6  A    between atoms: C15_17  and  N3_18 
REMARK    7  A    between atoms: C16_19  and  C17_20 
REMARK       I    between atoms: C17_20  and  N4_22 
REMARK    8  A    between atoms: N4_22  and  N5_23 
REMARK    9  A    between atoms: C18_25  and  C19_26 
ROOT
HETATM    1  C5  UNL     1      -1.776  50.153 -23.281  1.00  0.00     0.081 A 
HETATM    2  C6  UNL     1      -1.119  50.922 -24.229  1.00  0.00     0.055 A 
HETATM    3  C7  UNL     1      -1.522  50.884 -25.573  1.00  0.00    -0.007 A 
HETATM    4  C14 UNL     1      -2.608  50.037 -25.922  1.00  0.00     0.037 A 
HETATM    5  C15 UNL     1      -3.312  49.728 -27.145  1.00  0.00     0.062 A 
HETATM    6  C16 UNL     1      -4.331  48.801 -26.981  1.00  0.00     0.103 A 
HETATM    7  S1  UNL     1      -4.440  48.300 -25.346  1.00  0.00    -0.064 SA
HETATM    8  C24 UNL     1      -3.157  49.308 -24.872  1.00  0.00     0.089 A 
HETATM    9  N7  UNL     1      -2.784  49.328 -23.579  1.00  0.00    -0.341 N 
ATOM     10  H7  UNL     1      -3.241  48.751 -22.873  1.00  0.00     0.167 HD
ENDROOT
BRANCH   6  11
HETATM   11  C17 UNL     1      -5.245  48.278 -27.996  1.00  0.00     0.279 C 
HETATM   12  O1  UNL     1      -4.906  48.107 -29.169  1.00  0.00    -0.265 OA
HETATM   13  N4  UNL     1      -6.527  47.983 -27.536  1.00  0.00    -0.266 N 
HETATM   14  H20 UNL     1      -6.743  48.131 -26.557  1.00  0.00     0.190 HD
BRANCH  13  15
HETATM   15  N5  UNL     1      -7.479  47.494 -28.382  1.00  0.00    -0.307 N 
HETATM   16  C18 UNL     1      -8.533  48.230 -28.527  1.00  0.00     0.136 C 
ATOM     17  H5  UNL     1      -7.368  46.605 -28.869  1.00  0.00     0.186 HD
BRANCH  16  18
HETATM   18  C19 UNL     1      -9.621  47.843 -29.393  1.00  0.00     0.050 A 
HETATM   19  C20 UNL     1      -9.549  47.651 -30.767  1.00  0.00     0.032 A 
HETATM   20  C21 UNL     1     -10.828  47.273 -31.232  1.00  0.00     0.019 A 
HETATM   21  C22 UNL     1     -11.662  47.242 -30.139  1.00  0.00     0.091 A 
HETATM   22  N6  UNL     1     -10.931  47.592 -29.031  1.00  0.00    -0.360 N 
HETATM   23  C23 UNL     1     -11.481  47.672 -27.692  1.00  0.00     0.155 C 
ENDBRANCH  16  18
ENDBRANCH  13  15
ENDBRANCH   6  11
BRANCH   5  24
HETATM   24  N3  UNL     1      -3.022  50.270 -28.349  1.00  0.00    -0.397 N 
HETATM   25  H18 UNL     1      -3.623  50.096 -29.159  1.00  0.00     0.156 HD
HETATM   26  H19 UNL     1      -2.392  51.058 -28.471  1.00  0.00     0.156 HD
ENDBRANCH   5  24
BRANCH   3  27
HETATM   27  C8  UNL     1      -0.834  51.696 -26.574  1.00  0.00    -0.025 A 
HETATM   28  C9  UNL     1      -1.340  52.949 -26.953  1.00  0.00     0.012 A 
HETATM   29  C10 UNL     1      -0.682  53.725 -27.909  1.00  0.00     0.001 A 
HETATM   30  C11 UNL     1       0.488  53.255 -28.502  1.00  0.00     0.000 A 
HETATM   31  C12 UNL     1       1.000  52.010 -28.141  1.00  0.00     0.001 A 
HETATM   32  C13 UNL     1       0.341  51.234 -27.185  1.00  0.00     0.012 A 
ENDBRANCH   3  27
BRANCH   1  33
HETATM   33  N2  UNL     1      -1.383  50.170 -21.938  1.00  0.00    -0.277 NA
HETATM   34  H11 UNL     1      -2.199  49.795 -21.441  1.00  0.00     0.129 HD
BRANCH  33  35
HETATM   35  C4  UNL     1      -1.110  51.508 -21.393  1.00  0.00     0.124 C 
BRANCH  35  36
HETATM   36  C3  UNL     1       0.406  51.728 -21.173  1.00  0.00     0.286 C 
BRANCH  36  37
HETATM   37  N1  UNL     1       0.721  52.601 -20.021  1.00  0.00     0.081 N 
HETATM   38  C1  UNL     1       1.185  53.922 -20.447  1.00  0.00     0.309 C 
HETATM   39  C2  UNL     1      -0.455  52.737 -19.157  1.00  0.00     0.309 C 
ENDBRANCH  36  37
ENDBRANCH  35  36
ENDBRANCH  33  35
ENDBRANCH   1  33
TORSDOF 9
ENDMDL
