MODEL 1
REMARK minimizedAffinity -9.76131916
REMARK  8 active torsions:
REMARK  status: ('A' for Active; 'I' for Inactive)
REMARK    1  A    between atoms: N1_2  and  S1_3 
REMARK    2  A    between atoms: S1_3  and  C2_6 
REMARK    3  A    between atoms: C9_13  and  C10_14 
REMARK    4  A    between atoms: C13_18  and  C14_19 
REMARK    5  A    between atoms: C14_19  and  C15_20 
REMARK    6  A    between atoms: C15_20  and  C16_21 
REMARK    7  A    between atoms: C16_21  and  N3_22 
REMARK    8  A    between atoms: C19_25  and  O3_26 
ROOT
HETATM    1  C10 UNL     1      -0.842   5.741  12.062  1.00  0.00     0.040 A 
HETATM    2  N2  UNL     1      -0.325   5.742  10.787  1.00  0.00    -0.359 N 
HETATM    3  C11 UNL     1       0.966   6.184  10.822  1.00  0.00     0.016 A 
HETATM    4  C12 UNL     1       1.292   6.469  12.132  1.00  0.00    -0.027 A 
HETATM    5  C13 UNL     1       0.143   6.195  12.930  1.00  0.00    -0.023 A 
HETATM    6  C22 UNL     1       2.634   6.994  12.525  1.00  0.00     0.041 C 
HETATM    7  C23 UNL     1       3.662   6.791  11.395  1.00  0.00     0.005 C 
HETATM    8  C24 UNL     1       3.089   7.165  10.014  1.00  0.00     0.006 C 
HETATM    9  C25 UNL     1       1.862   6.312   9.643  1.00  0.00     0.057 C 
HETATM   10  H9  UNL     1      -0.827   5.473   9.952  1.00  0.00     0.166 HD
ENDROOT
BRANCH   1  11
HETATM   11  C9  UNL     1      -2.162   5.269  12.234  1.00  0.00     0.048 C 
HETATM   12  C8  UNL     1      -2.566   4.037  11.890  1.00  0.00     0.047 A 
HETATM   13  C6  UNL     1      -3.947   3.548  12.020  1.00  0.00     0.008 A 
HETATM   14  C26 UNL     1      -1.751   2.898  11.321  1.00  0.00     0.257 A 
HETATM   15  C5  UNL     1      -3.940   2.230  11.549  1.00  0.00     0.046 A 
HETATM   16  C7  UNL     1      -5.119   4.125  12.476  1.00  0.00     0.040 A 
HETATM   17  C4  UNL     1      -5.074   1.443  11.509  1.00  0.00     0.032 A 
HETATM   18  N4  UNL     1      -2.661   1.865  11.145  1.00  0.00    -0.322 N 
HETATM   19  C3  UNL     1      -6.265   2.013  11.965  1.00  0.00     0.027 A 
HETATM   20  C2  UNL     1      -6.279   3.338  12.450  1.00  0.00     0.080 A 
HETATM   21  H34 UNL     1      -2.388   0.968  10.773  1.00  0.00     0.169 HD
HETATM   22  O4  UNL     1      -0.564   2.843  11.070  1.00  0.00    -0.267 OA
BRANCH  20  23
HETATM   23  S1  UNL     1      -7.820   4.030  13.001  1.00  0.00     0.258 S 
HETATM   24  O1  UNL     1      -8.860   3.079  12.680  1.00  0.00    -0.201 OA
HETATM   25  O2  UNL     1      -7.888   5.413  12.585  1.00  0.00    -0.201 OA
BRANCH  23  26
HETATM   26  N1  UNL     1      -7.640   3.994  14.669  1.00  0.00    -0.320 N 
HETATM   27  C1  UNL     1      -7.428   5.250  15.376  1.00  0.00     0.159 C 
HETATM   28  H4  UNL     1      -8.221   3.281  15.109  1.00  0.00     0.171 HD
ENDBRANCH  23  26
ENDBRANCH  20  23
ENDBRANCH   1  11
BRANCH   5  29
HETATM   29  C14 UNL     1       0.035   6.365  14.415  1.00  0.00     0.043 C 
BRANCH  29  30
HETATM   30  C15 UNL     1      -0.365   7.789  14.803  1.00  0.00     0.035 C 
BRANCH  30  31
HETATM   31  C16 UNL     1      -1.697   7.864  15.560  1.00  0.00     0.272 C 
BRANCH  31  32
HETATM   32  N3  UNL     1      -2.437   9.089  15.217  1.00  0.00     0.088 N 
HETATM   33  C17 UNL     1      -3.751   9.158  15.870  1.00  0.00     0.275 C 
HETATM   34  C18 UNL     1      -4.790   8.223  15.257  1.00  0.00     0.062 C 
HETATM   35  C19 UNL     1      -4.923   8.476  13.760  1.00  0.00     0.121 C 
HETATM   36  C20 UNL     1      -3.562   8.394  13.078  1.00  0.00     0.062 C 
HETATM   37  C21 UNL     1      -2.549   9.306  13.768  1.00  0.00     0.275 C 
BRANCH  35  38
HETATM   38  O3  UNL     1      -5.806   7.506  13.204  1.00  0.00    -0.395 OA
HETATM   39  H21 UNL     1      -5.881   7.692  12.251  1.00  0.00     0.210 HD
ENDBRANCH  35  38
ENDBRANCH  31  32
ENDBRANCH  30  31
ENDBRANCH  29  30
ENDBRANCH   5  29
TORSDOF 8
ENDMDL
MODEL 2
REMARK minimizedAffinity -9.7405777
REMARK  8 active torsions:
REMARK  status: ('A' for Active; 'I' for Inactive)
REMARK    1  A    between atoms: N1_2  and  S1_3 
REMARK    2  A    between atoms: S1_3  and  C2_6 
REMARK    3  A    between atoms: C9_13  and  C10_14 
REMARK    4  A    between atoms: C13_18  and  C14_19 
REMARK    5  A    between atoms: C14_19  and  C15_20 
REMARK    6  A    between atoms: C15_20  and  C16_21 
REMARK    7  A    between atoms: C16_21  and  N3_22 
REMARK    8  A    between atoms: C19_25  and  O3_26 
ROOT
HETATM    1  C10 UNL     1      -0.798   5.727  12.048  1.00  0.00     0.040 A 
HETATM    2  N2  UNL     1      -0.005   5.133  11.093  1.00  0.00    -0.359 N 
HETATM    3  C11 UNL     1       1.236   5.702  11.118  1.00  0.00     0.016 A 
HETATM    4  C12 UNL     1       1.251   6.670  12.101  1.00  0.00    -0.027 A 
HETATM    5  C13 UNL     1      -0.044   6.698  12.696  1.00  0.00    -0.023 A 
HETATM    6  C22 UNL     1       2.459   7.502  12.384  1.00  0.00     0.041 C 
HETATM    7  C23 UNL     1       3.720   6.882  11.751  1.00  0.00     0.005 C 
HETATM    8  C24 UNL     1       3.470   6.397  10.311  1.00  0.00     0.006 C 
HETATM    9  C25 UNL     1       2.374   5.317  10.243  1.00  0.00     0.057 C 
HETATM   10  H9  UNL     1      -0.299   4.402  10.461  1.00  0.00     0.166 HD
ENDROOT
BRANCH   1  11
HETATM   11  C9  UNL     1      -2.113   5.238  12.204  1.00  0.00     0.048 C 
HETATM   12  C8  UNL     1      -2.489   3.990  11.888  1.00  0.00     0.047 A 
HETATM   13  C6  UNL     1      -3.864   3.482  12.002  1.00  0.00     0.008 A 
HETATM   14  C26 UNL     1      -1.643   2.849  11.372  1.00  0.00     0.257 A 
HETATM   15  C5  UNL     1      -3.826   2.151  11.570  1.00  0.00     0.046 A 
HETATM   16  C7  UNL     1      -5.056   4.052  12.414  1.00  0.00     0.040 A 
HETATM   17  C4  UNL     1      -4.945   1.344  11.528  1.00  0.00     0.032 A 
HETATM   18  N4  UNL     1      -2.532   1.796  11.206  1.00  0.00    -0.322 N 
HETATM   19  C3  UNL     1      -6.155   1.907  11.940  1.00  0.00     0.027 A 
HETATM   20  C2  UNL     1      -6.202   3.245  12.385  1.00  0.00     0.080 A 
HETATM   21  H34 UNL     1      -2.235   0.893  10.868  1.00  0.00     0.169 HD
HETATM   22  O4  UNL     1      -0.450   2.807  11.150  1.00  0.00    -0.267 OA
BRANCH  20  23
HETATM   23  S1  UNL     1      -7.766   3.927  12.881  1.00  0.00     0.258 S 
HETATM   24  O1  UNL     1      -8.776   2.926  12.619  1.00  0.00    -0.201 OA
HETATM   25  O2  UNL     1      -7.871   5.276  12.372  1.00  0.00    -0.201 OA
BRANCH  23  26
HETATM   26  N1  UNL     1      -7.597   4.007  14.549  1.00  0.00    -0.320 N 
HETATM   27  C1  UNL     1      -7.599   5.316  15.188  1.00  0.00     0.159 C 
HETATM   28  H4  UNL     1      -8.058   3.233  15.026  1.00  0.00     0.171 HD
ENDBRANCH  23  26
ENDBRANCH  20  23
ENDBRANCH   1  11
BRANCH   5  29
HETATM   29  C14 UNL     1      -0.490   7.601  13.806  1.00  0.00     0.043 C 
BRANCH  29  30
HETATM   30  C15 UNL     1      -1.026   8.935  13.281  1.00  0.00     0.035 C 
BRANCH  30  31
HETATM   31  C16 UNL     1      -2.511   9.159  13.591  1.00  0.00     0.272 C 
BRANCH  31  32
HETATM   32  N3  UNL     1      -3.027   8.125  14.501  1.00  0.00     0.088 N 
HETATM   33  C17 UNL     1      -4.113   7.335  13.904  1.00  0.00     0.275 C 
HETATM   34  C18 UNL     1      -5.441   8.084  13.819  1.00  0.00     0.062 C 
HETATM   35  C19 UNL     1      -5.852   8.606  15.190  1.00  0.00     0.121 C 
HETATM   36  C20 UNL     1      -4.731   9.436  15.808  1.00  0.00     0.062 C 
HETATM   37  C21 UNL     1      -3.415   8.657  15.815  1.00  0.00     0.275 C 
BRANCH  35  38
HETATM   38  O3  UNL     1      -7.025   9.401  15.050  1.00  0.00    -0.395 OA
HETATM   39  H21 UNL     1      -7.272   9.717  15.937  1.00  0.00     0.210 HD
ENDBRANCH  35  38
ENDBRANCH  31  32
ENDBRANCH  30  31
ENDBRANCH  29  30
ENDBRANCH   5  29
TORSDOF 8
ENDMDL
MODEL 3
REMARK minimizedAffinity -9.63469219
REMARK  8 active torsions:
REMARK  status: ('A' for Active; 'I' for Inactive)
REMARK    1  A    between atoms: N1_2  and  S1_3 
REMARK    2  A    between atoms: S1_3  and  C2_6 
REMARK    3  A    between atoms: C9_13  and  C10_14 
REMARK    4  A    between atoms: C13_18  and  C14_19 
REMARK    5  A    between atoms: C14_19  and  C15_20 
REMARK    6  A    between atoms: C15_20  and  C16_21 
REMARK    7  A    between atoms: C16_21  and  N3_22 
REMARK    8  A    between atoms: C19_25  and  O3_26 
ROOT
HETATM    1  C10 UNL     1      -1.176   6.926  13.652  1.00  0.00     0.040 A 
HETATM    2  N2  UNL     1      -0.542   6.773  14.864  1.00  0.00    -0.359 N 
HETATM    3  C11 UNL     1       0.598   7.522  14.875  1.00  0.00     0.016 A 
HETATM    4  C12 UNL     1       0.705   8.171  13.662  1.00  0.00    -0.027 A 
HETATM    5  C13 UNL     1      -0.419   7.791  12.872  1.00  0.00    -0.023 A 
HETATM    6  C22 UNL     1       1.855   9.066  13.333  1.00  0.00     0.041 C 
HETATM    7  C23 UNL     1       2.632   9.461  14.604  1.00  0.00     0.005 C 
HETATM    8  C24 UNL     1       2.866   8.259  15.540  1.00  0.00     0.006 C 
HETATM    9  C25 UNL     1       1.545   7.628  16.017  1.00  0.00     0.057 C 
HETATM   10  H9  UNL     1      -0.863   6.186  15.621  1.00  0.00     0.166 HD
ENDROOT
BRANCH   1  11
HETATM   11  C9  UNL     1      -2.407   6.257  13.467  1.00  0.00     0.048 C 
HETATM   12  C8  UNL     1      -2.531   5.085  12.829  1.00  0.00     0.047 A 
HETATM   13  C6  UNL     1      -3.810   4.401  12.588  1.00  0.00     0.008 A 
HETATM   14  C26 UNL     1      -1.450   4.211  12.234  1.00  0.00     0.257 A 
HETATM   15  C5  UNL     1      -3.500   3.226  11.894  1.00  0.00     0.046 A 
HETATM   16  C7  UNL     1      -5.124   4.707  12.898  1.00  0.00     0.040 A 
HETATM   17  C4  UNL     1      -4.460   2.322  11.484  1.00  0.00     0.032 A 
HETATM   18  N4  UNL     1      -2.128   3.128  11.693  1.00  0.00    -0.322 N 
HETATM   19  C3  UNL     1      -5.791   2.619  11.790  1.00  0.00     0.027 A 
HETATM   20  C2  UNL     1      -6.111   3.796  12.497  1.00  0.00     0.080 A 
HETATM   21  H34 UNL     1      -1.647   2.375  11.225  1.00  0.00     0.169 HD
HETATM   22  O4  UNL     1      -0.246   4.368  12.220  1.00  0.00    -0.267 OA
BRANCH  20  23
HETATM   23  S1  UNL     1      -7.818   4.145  12.847  1.00  0.00     0.258 S 
HETATM   24  O1  UNL     1      -8.523   2.883  12.857  1.00  0.00    -0.201 OA
HETATM   25  O2  UNL     1      -8.246   5.258  12.030  1.00  0.00    -0.201 OA
BRANCH  23  26
HETATM   26  N1  UNL     1      -7.746   4.663  14.442  1.00  0.00    -0.320 N 
HETATM   27  C1  UNL     1      -8.195   6.012  14.758  1.00  0.00     0.159 C 
HETATM   28  H4  UNL     1      -7.951   3.916  15.105  1.00  0.00     0.171 HD
ENDBRANCH  23  26
ENDBRANCH  20  23
ENDBRANCH   1  11
BRANCH   5  29
HETATM   29  C14 UNL     1      -0.716   8.249  11.477  1.00  0.00     0.043 C 
BRANCH  29  30
HETATM   30  C15 UNL     1      -0.064   7.349  10.426  1.00  0.00     0.035 C 
BRANCH  30  31
HETATM   31  C16 UNL     1       0.304   8.088   9.134  1.00  0.00     0.272 C 
BRANCH  31  32
HETATM   32  N3  UNL     1       1.755   8.310   9.042  1.00  0.00     0.088 N 
HETATM   33  C17 UNL     1       2.288   8.030   7.701  1.00  0.00     0.275 C 
HETATM   34  C18 UNL     1       2.380   6.541   7.377  1.00  0.00     0.062 C 
HETATM   35  C19 UNL     1       3.194   5.810   8.438  1.00  0.00     0.121 C 
HETATM   36  C20 UNL     1       2.637   6.090   9.830  1.00  0.00     0.062 C 
HETATM   37  C21 UNL     1       2.514   7.594  10.076  1.00  0.00     0.275 C 
BRANCH  35  38
HETATM   38  O3  UNL     1       3.154   4.412   8.170  1.00  0.00    -0.395 OA
HETATM   39  H21 UNL     1       3.685   3.968   8.854  1.00  0.00     0.210 HD
ENDBRANCH  35  38
ENDBRANCH  31  32
ENDBRANCH  30  31
ENDBRANCH  29  30
ENDBRANCH   5  29
TORSDOF 8
ENDMDL
MODEL 4
REMARK minimizedAffinity -9.57638645
REMARK  8 active torsions:
REMARK  status: ('A' for Active; 'I' for Inactive)
REMARK    1  A    between atoms: N1_2  and  S1_3 
REMARK    2  A    between atoms: S1_3  and  C2_6 
REMARK    3  A    between atoms: C9_13  and  C10_14 
REMARK    4  A    between atoms: C13_18  and  C14_19 
REMARK    5  A    between atoms: C14_19  and  C15_20 
REMARK    6  A    between atoms: C15_20  and  C16_21 
REMARK    7  A    between atoms: C16_21  and  N3_22 
REMARK    8  A    between atoms: C19_25  and  O3_26 
ROOT
HETATM    1  C10 UNL     1      -0.842   5.740  12.038  1.00  0.00     0.040 A 
HETATM    2  N2  UNL     1      -0.307   5.708  10.771  1.00  0.00    -0.359 N 
HETATM    3  C11 UNL     1       0.979   6.165  10.811  1.00  0.00     0.016 A 
HETATM    4  C12 UNL     1       1.284   6.493  12.116  1.00  0.00    -0.027 A 
HETATM    5  C13 UNL     1       0.126   6.232  12.906  1.00  0.00    -0.023 A 
HETATM    6  C22 UNL     1       2.614   7.044  12.511  1.00  0.00     0.041 C 
HETATM    7  C23 UNL     1       3.660   6.817  11.402  1.00  0.00     0.005 C 
HETATM    8  C24 UNL     1       3.104   7.142  10.002  1.00  0.00     0.006 C 
HETATM    9  C25 UNL     1       1.890   6.266   9.641  1.00  0.00     0.057 C 
HETATM   10  H9  UNL     1      -0.794   5.408   9.939  1.00  0.00     0.166 HD
ENDROOT
BRANCH   1  11
HETATM   11  C9  UNL     1      -2.159   5.260  12.207  1.00  0.00     0.048 C 
HETATM   12  C8  UNL     1      -2.551   4.021  11.875  1.00  0.00     0.047 A 
HETATM   13  C6  UNL     1      -3.929   3.523  12.001  1.00  0.00     0.008 A 
HETATM   14  C26 UNL     1      -1.723   2.882  11.325  1.00  0.00     0.257 A 
HETATM   15  C5  UNL     1      -3.908   2.200  11.546  1.00  0.00     0.046 A 
HETATM   16  C7  UNL     1      -5.109   4.096  12.441  1.00  0.00     0.040 A 
HETATM   17  C4  UNL     1      -5.036   1.403  11.507  1.00  0.00     0.032 A 
HETATM   18  N4  UNL     1      -2.624   1.840  11.155  1.00  0.00    -0.322 N 
HETATM   19  C3  UNL     1      -6.234   1.969  11.948  1.00  0.00     0.027 A 
HETATM   20  C2  UNL     1      -6.262   3.299  12.416  1.00  0.00     0.080 A 
HETATM   21  H34 UNL     1      -2.340   0.941  10.796  1.00  0.00     0.169 HD
HETATM   22  O4  UNL     1      -0.534   2.833  11.083  1.00  0.00    -0.267 OA
BRANCH  20  23
HETATM   23  S1  UNL     1      -7.812   3.986  12.949  1.00  0.00     0.258 S 
HETATM   24  O1  UNL     1      -8.837   3.005  12.671  1.00  0.00    -0.201 OA
HETATM   25  O2  UNL     1      -7.907   5.349  12.478  1.00  0.00    -0.201 OA
BRANCH  23  26
HETATM   26  N1  UNL     1      -7.623   4.018  14.616  1.00  0.00    -0.320 N 
HETATM   27  C1  UNL     1      -7.493   5.309  15.279  1.00  0.00     0.159 C 
HETATM   28  H4  UNL     1      -8.155   3.284  15.084  1.00  0.00     0.171 HD
ENDBRANCH  23  26
ENDBRANCH  20  23
ENDBRANCH   1  11
BRANCH   5  29
HETATM   29  C14 UNL     1      -0.005   6.446  14.383  1.00  0.00     0.043 C 
BRANCH  29  30
HETATM   30  C15 UNL     1      -1.062   7.498  14.720  1.00  0.00     0.035 C 
BRANCH  30  31
HETATM   31  C16 UNL     1      -0.736   8.310  15.979  1.00  0.00     0.272 C 
BRANCH  31  32
HETATM   32  N3  UNL     1      -0.049   9.566  15.640  1.00  0.00     0.088 N 
HETATM   33  C17 UNL     1       1.390   9.380  15.407  1.00  0.00     0.275 C 
HETATM   34  C18 UNL     1       2.194   9.153  16.685  1.00  0.00     0.062 C 
HETATM   35  C19 UNL     1       1.955  10.284  17.678  1.00  0.00     0.121 C 
HETATM   36  C20 UNL     1       0.463  10.472  17.930  1.00  0.00     0.062 C 
HETATM   37  C21 UNL     1      -0.297  10.638  16.615  1.00  0.00     0.275 C 
BRANCH  35  38
HETATM   38  O3  UNL     1       2.621   9.976  18.899  1.00  0.00    -0.395 OA
HETATM   39  H21 UNL     1       2.461  10.715  19.513  1.00  0.00     0.210 HD
ENDBRANCH  35  38
ENDBRANCH  31  32
ENDBRANCH  30  31
ENDBRANCH  29  30
ENDBRANCH   5  29
TORSDOF 8
ENDMDL
MODEL 5
REMARK minimizedAffinity -9.48949718
REMARK  8 active torsions:
REMARK  status: ('A' for Active; 'I' for Inactive)
REMARK    1  A    between atoms: N1_2  and  S1_3 
REMARK    2  A    between atoms: S1_3  and  C2_6 
REMARK    3  A    between atoms: C9_13  and  C10_14 
REMARK    4  A    between atoms: C13_18  and  C14_19 
REMARK    5  A    between atoms: C14_19  and  C15_20 
REMARK    6  A    between atoms: C15_20  and  C16_21 
REMARK    7  A    between atoms: C16_21  and  N3_22 
REMARK    8  A    between atoms: C19_25  and  O3_26 
ROOT
HETATM    1  C10 UNL     1      -3.190   4.559  11.959  1.00  0.00     0.040 A 
HETATM    2  N2  UNL     1      -3.712   3.442  11.348  1.00  0.00    -0.359 N 
HETATM    3  C11 UNL     1      -4.960   3.197  11.845  1.00  0.00     0.016 A 
HETATM    4  C12 UNL     1      -5.252   4.164  12.783  1.00  0.00    -0.027 A 
HETATM    5  C13 UNL     1      -4.127   5.034  12.869  1.00  0.00    -0.023 A 
HETATM    6  C22 UNL     1      -6.541   4.181  13.538  1.00  0.00     0.041 C 
HETATM    7  C23 UNL     1      -7.590   3.273  12.866  1.00  0.00     0.005 C 
HETATM    8  C24 UNL     1      -6.996   1.919  12.435  1.00  0.00     0.006 C 
HETATM    9  C25 UNL     1      -5.849   2.083  11.420  1.00  0.00     0.057 C 
HETATM   10  H9  UNL     1      -3.241   2.883  10.652  1.00  0.00     0.166 HD
ENDROOT
BRANCH   1  11
HETATM   11  C9  UNL     1      -1.915   4.999  11.541  1.00  0.00     0.048 C 
HETATM   12  C8  UNL     1      -0.944   5.382  12.383  1.00  0.00     0.047 A 
HETATM   13  C6  UNL     1       0.371   5.886  11.960  1.00  0.00     0.008 A 
HETATM   14  C26 UNL     1      -0.948   5.386  13.894  1.00  0.00     0.257 A 
HETATM   15  C5  UNL     1       1.074   6.176  13.135  1.00  0.00     0.046 A 
HETATM   16  C7  UNL     1       0.953   6.102  10.723  1.00  0.00     0.040 A 
HETATM   17  C4  UNL     1       2.359   6.683  13.135  1.00  0.00     0.032 A 
HETATM   18  N4  UNL     1       0.298   5.883  14.251  1.00  0.00    -0.322 N 
HETATM   19  C3  UNL     1       2.958   6.907  11.893  1.00  0.00     0.027 A 
HETATM   20  C2  UNL     1       2.260   6.610  10.703  1.00  0.00     0.080 A 
HETATM   21  H34 UNL     1       0.574   5.995  15.214  1.00  0.00     0.169 HD
HETATM   22  O4  UNL     1      -1.814   5.031  14.668  1.00  0.00    -0.267 OA
BRANCH  20  23
HETATM   23  S1  UNL     1       3.052   6.929   9.145  1.00  0.00     0.258 S 
HETATM   24  O1  UNL     1       3.634   5.685   8.695  1.00  0.00    -0.201 OA
HETATM   25  O2  UNL     1       3.826   8.145   9.253  1.00  0.00    -0.201 OA
BRANCH  23  26
HETATM   26  N1  UNL     1       1.739   7.230   8.144  1.00  0.00    -0.320 N 
HETATM   27  C1  UNL     1       0.989   8.465   8.329  1.00  0.00     0.159 C 
HETATM   28  H4  UNL     1       1.886   6.889   7.194  1.00  0.00     0.171 HD
ENDBRANCH  23  26
ENDBRANCH  20  23
ENDBRANCH   1  11
BRANCH   5  29
HETATM   29  C14 UNL     1      -3.995   6.228  13.765  1.00  0.00     0.043 C 
BRANCH  29  30
HETATM   30  C15 UNL     1      -4.511   7.506  13.100  1.00  0.00     0.035 C 
BRANCH  30  31
HETATM   31  C16 UNL     1      -6.015   7.730  13.294  1.00  0.00     0.272 C 
BRANCH  31  32
HETATM   32  N3  UNL     1      -6.301   8.320  14.611  1.00  0.00     0.088 N 
HETATM   33  C17 UNL     1      -5.782   7.508  15.720  1.00  0.00     0.275 C 
HETATM   34  C18 UNL     1      -6.593   6.242  15.985  1.00  0.00     0.062 C 
HETATM   35  C19 UNL     1      -8.061   6.583  16.213  1.00  0.00     0.121 C 
HETATM   36  C20 UNL     1      -8.605   7.416  15.058  1.00  0.00     0.062 C 
HETATM   37  C21 UNL     1      -7.722   8.638  14.803  1.00  0.00     0.275 C 
BRANCH  35  38
HETATM   38  O3  UNL     1      -8.803   5.373  16.334  1.00  0.00    -0.395 OA
HETATM   39  H21 UNL     1      -9.734   5.616  16.486  1.00  0.00     0.210 HD
ENDBRANCH  35  38
ENDBRANCH  31  32
ENDBRANCH  30  31
ENDBRANCH  29  30
ENDBRANCH   5  29
TORSDOF 8
ENDMDL
MODEL 6
REMARK minimizedAffinity -9.10599232
REMARK  8 active torsions:
REMARK  status: ('A' for Active; 'I' for Inactive)
REMARK    1  A    between atoms: N1_2  and  S1_3 
REMARK    2  A    between atoms: S1_3  and  C2_6 
REMARK    3  A    between atoms: C9_13  and  C10_14 
REMARK    4  A    between atoms: C13_18  and  C14_19 
REMARK    5  A    between atoms: C14_19  and  C15_20 
REMARK    6  A    between atoms: C15_20  and  C16_21 
REMARK    7  A    between atoms: C16_21  and  N3_22 
REMARK    8  A    between atoms: C19_25  and  O3_26 
ROOT
HETATM    1  C10 UNL     1      -7.388   6.260  13.712  1.00  0.00     0.040 A 
HETATM    2  N2  UNL     1      -8.546   6.028  13.007  1.00  0.00    -0.359 N 
HETATM    3  C11 UNL     1      -9.574   6.713  13.587  1.00  0.00     0.016 A 
HETATM    4  C12 UNL     1      -9.080   7.400  14.676  1.00  0.00    -0.027 A 
HETATM    5  C13 UNL     1      -7.687   7.112  14.768  1.00  0.00    -0.023 A 
HETATM    6  C22 UNL     1      -9.949   8.242  15.552  1.00  0.00     0.041 C 
HETATM    7  C23 UNL     1     -11.296   8.546  14.867  1.00  0.00     0.005 C 
HETATM    8  C24 UNL     1     -11.901   7.300  14.194  1.00  0.00     0.006 C 
HETATM    9  C25 UNL     1     -10.980   6.724  13.103  1.00  0.00     0.057 C 
HETATM   10  H9  UNL     1      -8.627   5.432  12.195  1.00  0.00     0.166 HD
ENDROOT
BRANCH   1  11
HETATM   11  C9  UNL     1      -6.199   5.668  13.234  1.00  0.00     0.048 C 
HETATM   12  C8  UNL     1      -6.109   4.391  12.833  1.00  0.00     0.047 A 
HETATM   13  C6  UNL     1      -4.867   3.748  12.377  1.00  0.00     0.008 A 
HETATM   14  C26 UNL     1      -7.199   3.348  12.745  1.00  0.00     0.257 A 
HETATM   15  C5  UNL     1      -5.205   2.427  12.062  1.00  0.00     0.046 A 
HETATM   16  C7  UNL     1      -3.565   4.193  12.235  1.00  0.00     0.040 A 
HETATM   17  C4  UNL     1      -4.283   1.507  11.602  1.00  0.00     0.032 A 
HETATM   18  N4  UNL     1      -6.560   2.206  12.281  1.00  0.00    -0.322 N 
HETATM   19  C3  UNL     1      -2.964   1.942  11.455  1.00  0.00     0.027 A 
HETATM   20  C2  UNL     1      -2.617   3.274  11.762  1.00  0.00     0.080 A 
HETATM   21  H34 UNL     1      -7.055   1.342  12.125  1.00  0.00     0.169 HD
HETATM   22  O4  UNL     1      -8.383   3.440  12.998  1.00  0.00    -0.267 OA
BRANCH  20  23
HETATM   23  S1  UNL     1      -0.923   3.780  11.580  1.00  0.00     0.258 S 
HETATM   24  O1  UNL     1      -0.895   4.851  10.610  1.00  0.00    -0.201 OA
HETATM   25  O2  UNL     1      -0.094   2.603  11.450  1.00  0.00    -0.201 OA
BRANCH  23  26
HETATM   26  N1  UNL     1      -0.607   4.481  13.072  1.00  0.00    -0.320 N 
HETATM   27  C1  UNL     1      -0.078   5.838  13.107  1.00  0.00     0.159 C 
HETATM   28  H4  UNL     1      -1.283   4.205  13.784  1.00  0.00     0.171 HD
ENDBRANCH  23  26
ENDBRANCH  20  23
ENDBRANCH   1  11
BRANCH   5  29
HETATM   29  C14 UNL     1      -6.740   7.638  15.805  1.00  0.00     0.043 C 
BRANCH  29  30
HETATM   30  C15 UNL     1      -5.857   8.761  15.260  1.00  0.00     0.035 C 
BRANCH  30  31
HETATM   31  C16 UNL     1      -4.462   8.288  14.834  1.00  0.00     0.272 C 
BRANCH  31  32
HETATM   32  N3  UNL     1      -3.495   9.396  14.851  1.00  0.00     0.088 N 
HETATM   33  C17 UNL     1      -2.171   8.986  15.339  1.00  0.00     0.275 C 
HETATM   34  C18 UNL     1      -2.116   8.765  16.849  1.00  0.00     0.062 C 
HETATM   35  C19 UNL     1      -2.599  10.005  17.591  1.00  0.00     0.121 C 
HETATM   36  C20 UNL     1      -3.977  10.427  17.094  1.00  0.00     0.062 C 
HETATM   37  C21 UNL     1      -3.987  10.578  15.573  1.00  0.00     0.275 C 
BRANCH  35  38
HETATM   38  O3  UNL     1      -2.650   9.719  18.985  1.00  0.00    -0.395 OA
HETATM   39  H21 UNL     1      -2.953  10.526  19.438  1.00  0.00     0.210 HD
ENDBRANCH  35  38
ENDBRANCH  31  32
ENDBRANCH  30  31
ENDBRANCH  29  30
ENDBRANCH   5  29
TORSDOF 8
ENDMDL
MODEL 7
REMARK minimizedAffinity -9.04671669
REMARK  8 active torsions:
REMARK  status: ('A' for Active; 'I' for Inactive)
REMARK    1  A    between atoms: N1_2  and  S1_3 
REMARK    2  A    between atoms: S1_3  and  C2_6 
REMARK    3  A    between atoms: C9_13  and  C10_14 
REMARK    4  A    between atoms: C13_18  and  C14_19 
REMARK    5  A    between atoms: C14_19  and  C15_20 
REMARK    6  A    between atoms: C15_20  and  C16_21 
REMARK    7  A    between atoms: C16_21  and  N3_22 
REMARK    8  A    between atoms: C19_25  and  O3_26 
ROOT
HETATM    1  C10 UNL     1      -5.146   6.072  13.723  1.00  0.00     0.040 A 
HETATM    2  N2  UNL     1      -4.342   5.440  12.801  1.00  0.00    -0.359 N 
HETATM    3  C11 UNL     1      -4.921   4.261  12.430  1.00  0.00     0.016 A 
HETATM    4  C12 UNL     1      -6.112   4.127  13.112  1.00  0.00    -0.027 A 
HETATM    5  C13 UNL     1      -6.261   5.274  13.945  1.00  0.00    -0.023 A 
HETATM    6  C22 UNL     1      -6.995   2.933  12.951  1.00  0.00     0.041 C 
HETATM    7  C23 UNL     1      -6.616   2.129  11.691  1.00  0.00     0.005 C 
HETATM    8  C24 UNL     1      -5.092   1.954  11.550  1.00  0.00     0.006 C 
HETATM    9  C25 UNL     1      -4.360   3.304  11.440  1.00  0.00     0.057 C 
HETATM   10  H9  UNL     1      -3.456   5.787  12.464  1.00  0.00     0.166 HD
ENDROOT
BRANCH   1  11
HETATM   11  C9  UNL     1      -4.732   7.337  14.195  1.00  0.00     0.048 C 
HETATM   12  C8  UNL     1      -3.631   7.535  14.934  1.00  0.00     0.047 A 
HETATM   13  C6  UNL     1      -3.214   8.839  15.471  1.00  0.00     0.008 A 
HETATM   14  C26 UNL     1      -2.591   6.529  15.371  1.00  0.00     0.257 A 
HETATM   15  C5  UNL     1      -2.029   8.608  16.180  1.00  0.00     0.046 A 
HETATM   16  C7  UNL     1      -3.753  10.112  15.400  1.00  0.00     0.040 A 
HETATM   17  C4  UNL     1      -1.342   9.609  16.838  1.00  0.00     0.032 A 
HETATM   18  N4  UNL     1      -1.679   7.264  16.116  1.00  0.00    -0.322 N 
HETATM   19  C3  UNL     1      -1.875  10.899  16.775  1.00  0.00     0.027 A 
HETATM   20  C2  UNL     1      -3.064  11.142  16.056  1.00  0.00     0.080 A 
HETATM   21  H34 UNL     1      -0.867   6.840  16.538  1.00  0.00     0.169 HD
HETATM   22  O4  UNL     1      -2.516   5.340  15.138  1.00  0.00    -0.267 OA
BRANCH  20  23
HETATM   23  S1  UNL     1      -3.718  12.794  16.019  1.00  0.00     0.258 S 
HETATM   24  O1  UNL     1      -3.329  13.384  14.758  1.00  0.00    -0.201 OA
HETATM   25  O2  UNL     1      -3.443  13.435  17.285  1.00  0.00    -0.201 OA
BRANCH  23  26
HETATM   26  N1  UNL     1      -5.370  12.511  15.922  1.00  0.00    -0.320 N 
HETATM   27  C1  UNL     1      -6.281  13.502  16.479  1.00  0.00     0.159 C 
HETATM   28  H4  UNL     1      -5.635  12.038  15.058  1.00  0.00     0.171 HD
ENDBRANCH  23  26
ENDBRANCH  20  23
ENDBRANCH   1  11
BRANCH   5  29
HETATM   29  C14 UNL     1      -7.407   5.554  14.870  1.00  0.00     0.043 C 
BRANCH  29  30
HETATM   30  C15 UNL     1      -8.603   6.162  14.136  1.00  0.00     0.035 C 
BRANCH  30  31
HETATM   31  C16 UNL     1      -9.045   7.515  14.706  1.00  0.00     0.272 C 
BRANCH  31  32
HETATM   32  N3  UNL     1     -10.495   7.544  14.950  1.00  0.00     0.088 N 
HETATM   33  C17 UNL     1     -11.257   6.824  13.920  1.00  0.00     0.275 C 
HETATM   34  C18 UNL     1     -11.351   7.572  12.593  1.00  0.00     0.062 C 
HETATM   35  C19 UNL     1     -11.923   8.969  12.802  1.00  0.00     0.121 C 
HETATM   36  C20 UNL     1     -11.128   9.722  13.863  1.00  0.00     0.062 C 
HETATM   37  C21 UNL     1     -11.019   8.902  15.149  1.00  0.00     0.275 C 
BRANCH  35  38
HETATM   38  O3  UNL     1     -11.881   9.677  11.567  1.00  0.00    -0.395 OA
HETATM   39  H21 UNL     1     -12.257  10.561  11.724  1.00  0.00     0.210 HD
ENDBRANCH  35  38
ENDBRANCH  31  32
ENDBRANCH  30  31
ENDBRANCH  29  30
ENDBRANCH   5  29
TORSDOF 8
ENDMDL
MODEL 8
REMARK minimizedAffinity -9.00853825
REMARK  8 active torsions:
REMARK  status: ('A' for Active; 'I' for Inactive)
REMARK    1  A    between atoms: N1_2  and  S1_3 
REMARK    2  A    between atoms: S1_3  and  C2_6 
REMARK    3  A    between atoms: C9_13  and  C10_14 
REMARK    4  A    between atoms: C13_18  and  C14_19 
REMARK    5  A    between atoms: C14_19  and  C15_20 
REMARK    6  A    between atoms: C15_20  and  C16_21 
REMARK    7  A    between atoms: C16_21  and  N3_22 
REMARK    8  A    between atoms: C19_25  and  O3_26 
ROOT
HETATM    1  C10 UNL     1      -3.369   4.810  12.250  1.00  0.00     0.040 A 
HETATM    2  N2  UNL     1      -3.809   3.675  11.609  1.00  0.00    -0.359 N 
HETATM    3  C11 UNL     1      -5.078   3.387  12.020  1.00  0.00     0.016 A 
HETATM    4  C12 UNL     1      -5.468   4.344  12.933  1.00  0.00    -0.027 A 
HETATM    5  C13 UNL     1      -4.382   5.254  13.092  1.00  0.00    -0.023 A 
HETATM    6  C22 UNL     1      -6.805   4.317  13.598  1.00  0.00     0.041 C 
HETATM    7  C23 UNL     1      -7.773   3.372  12.859  1.00  0.00     0.005 C 
HETATM    8  C24 UNL     1      -7.103   2.039  12.475  1.00  0.00     0.006 C 
HETATM    9  C25 UNL     1      -5.897   2.241  11.541  1.00  0.00     0.057 C 
HETATM   10  H9  UNL     1      -3.272   3.131  10.949  1.00  0.00     0.166 HD
ENDROOT
BRANCH   1  11
HETATM   11  C9  UNL     1      -2.084   5.294  11.918  1.00  0.00     0.048 C 
HETATM   12  C8  UNL     1      -1.147   5.606  12.824  1.00  0.00     0.047 A 
HETATM   13  C6  UNL     1       0.178   6.155  12.495  1.00  0.00     0.008 A 
HETATM   14  C26 UNL     1      -1.203   5.473  14.329  1.00  0.00     0.257 A 
HETATM   15  C5  UNL     1       0.837   6.341  13.716  1.00  0.00     0.046 A 
HETATM   16  C7  UNL     1       0.799   6.485  11.304  1.00  0.00     0.040 A 
HETATM   17  C4  UNL     1       2.115   6.855  13.806  1.00  0.00     0.032 A 
HETATM   18  N4  UNL     1       0.025   5.944  14.772  1.00  0.00    -0.322 N 
HETATM   19  C3  UNL     1       2.755   7.194  12.611  1.00  0.00     0.027 A 
HETATM   20  C2  UNL     1       2.101   7.001  11.376  1.00  0.00     0.080 A 
HETATM   21  H34 UNL     1       0.267   5.971  15.751  1.00  0.00     0.169 HD
HETATM   22  O4  UNL     1      -2.091   5.045  15.037  1.00  0.00    -0.267 OA
BRANCH  20  23
HETATM   23  S1  UNL     1       2.943   7.464   9.881  1.00  0.00     0.258 S 
HETATM   24  O1  UNL     1       3.383   6.246   9.239  1.00  0.00    -0.201 OA
HETATM   25  O2  UNL     1       3.851   8.551  10.172  1.00  0.00    -0.201 OA
BRANCH  23  26
HETATM   26  N1  UNL     1       1.686   8.067   8.947  1.00  0.00    -0.320 N 
HETATM   27  C1  UNL     1       1.585   7.644   7.557  1.00  0.00     0.159 C 
HETATM   28  H4  UNL     1       0.826   8.189   9.481  1.00  0.00     0.171 HD
ENDBRANCH  23  26
ENDBRANCH  20  23
ENDBRANCH   1  11
BRANCH   5  29
HETATM   29  C14 UNL     1      -4.354   6.453  13.990  1.00  0.00     0.043 C 
BRANCH  29  30
HETATM   30  C15 UNL     1      -4.257   7.760  13.202  1.00  0.00     0.035 C 
BRANCH  30  31
HETATM   31  C16 UNL     1      -4.495   9.008  14.059  1.00  0.00     0.272 C 
BRANCH  31  32
HETATM   32  N3  UNL     1      -3.237   9.729  14.311  1.00  0.00     0.088 N 
HETATM   33  C17 UNL     1      -2.200   8.870  14.900  1.00  0.00     0.275 C 
HETATM   34  C18 UNL     1      -2.439   8.542  16.371  1.00  0.00     0.062 C 
HETATM   35  C19 UNL     1      -2.602   9.818  17.187  1.00  0.00     0.121 C 
HETATM   36  C20 UNL     1      -3.685  10.706  16.586  1.00  0.00     0.062 C 
HETATM   37  C21 UNL     1      -3.425  10.955  15.100  1.00  0.00     0.275 C 
BRANCH  35  38
HETATM   38  O3  UNL     1      -2.944   9.471  18.526  1.00  0.00    -0.395 OA
HETATM   39  H21 UNL     1      -3.035  10.300  19.028  1.00  0.00     0.210 HD
ENDBRANCH  35  38
ENDBRANCH  31  32
ENDBRANCH  30  31
ENDBRANCH  29  30
ENDBRANCH   5  29
TORSDOF 8
ENDMDL
MODEL 9
REMARK minimizedAffinity -8.91680527
REMARK  8 active torsions:
REMARK  status: ('A' for Active; 'I' for Inactive)
REMARK    1  A    between atoms: N1_2  and  S1_3 
REMARK    2  A    between atoms: S1_3  and  C2_6 
REMARK    3  A    between atoms: C9_13  and  C10_14 
REMARK    4  A    between atoms: C13_18  and  C14_19 
REMARK    5  A    between atoms: C14_19  and  C15_20 
REMARK    6  A    between atoms: C15_20  and  C16_21 
REMARK    7  A    between atoms: C16_21  and  N3_22 
REMARK    8  A    between atoms: C19_25  and  O3_26 
ROOT
HETATM    1  C10 UNL     1      -0.250   6.426  12.036  1.00  0.00     0.040 A 
HETATM    2  N2  UNL     1      -0.113   6.577  10.675  1.00  0.00    -0.359 N 
HETATM    3  C11 UNL     1       1.211   6.694  10.364  1.00  0.00     0.016 A 
HETATM    4  C12 UNL     1       1.941   6.615  11.532  1.00  0.00    -0.027 A 
HETATM    5  C13 UNL     1       1.017   6.450  12.605  1.00  0.00    -0.023 A 
HETATM    6  C22 UNL     1       3.430   6.725  11.552  1.00  0.00     0.041 C 
HETATM    7  C23 UNL     1       4.020   6.533  10.141  1.00  0.00     0.005 C 
HETATM    8  C24 UNL     1       3.229   7.309   9.070  1.00  0.00     0.006 C 
HETATM    9  C25 UNL     1       1.759   6.858   8.992  1.00  0.00     0.057 C 
HETATM   10  H9  UNL     1      -0.874   6.611  10.011  1.00  0.00     0.166 HD
ENDROOT
BRANCH   1  11
HETATM   11  C9  UNL     1      -1.554   6.244  12.547  1.00  0.00     0.048 C 
HETATM   12  C8  UNL     1      -2.357   5.228  12.200  1.00  0.00     0.047 A 
HETATM   13  C6  UNL     1      -3.733   5.052  12.689  1.00  0.00     0.008 A 
HETATM   14  C26 UNL     1      -2.069   4.066  11.277  1.00  0.00     0.257 A 
HETATM   15  C5  UNL     1      -4.215   3.885  12.085  1.00  0.00     0.046 A 
HETATM   16  C7  UNL     1      -4.536   5.781  13.548  1.00  0.00     0.040 A 
HETATM   17  C4  UNL     1      -5.490   3.401  12.302  1.00  0.00     0.032 A 
HETATM   18  N4  UNL     1      -3.242   3.323  11.267  1.00  0.00    -0.322 N 
HETATM   19  C3  UNL     1      -6.312   4.127  13.166  1.00  0.00     0.027 A 
HETATM   20  C2  UNL     1      -5.832   5.300  13.786  1.00  0.00     0.080 A 
HETATM   21  H34 UNL     1      -3.334   2.477  10.726  1.00  0.00     0.169 HD
HETATM   22  O4  UNL     1      -1.055   3.792  10.669  1.00  0.00    -0.267 OA
BRANCH  20  23
HETATM   23  S1  UNL     1      -6.918   6.205  14.862  1.00  0.00     0.258 S 
HETATM   24  O1  UNL     1      -6.409   6.061  16.208  1.00  0.00    -0.201 OA
HETATM   25  O2  UNL     1      -8.286   5.889  14.520  1.00  0.00    -0.201 OA
BRANCH  23  26
HETATM   26  N1  UNL     1      -6.616   7.792  14.406  1.00  0.00    -0.320 N 
HETATM   27  C1  UNL     1      -5.454   8.069  13.572  1.00  0.00     0.159 C 
HETATM   28  H4  UNL     1      -7.472   8.319  14.237  1.00  0.00     0.171 HD
ENDBRANCH  23  26
ENDBRANCH  20  23
ENDBRANCH   1  11
BRANCH   5  29
HETATM   29  C14 UNL     1       1.361   6.325  14.058  1.00  0.00     0.043 C 
BRANCH  29  30
HETATM   30  C15 UNL     1       1.638   7.684  14.703  1.00  0.00     0.035 C 
BRANCH  30  31
HETATM   31  C16 UNL     1       0.600   8.081  15.759  1.00  0.00     0.272 C 
BRANCH  31  32
HETATM   32  N3  UNL     1      -0.332   9.092  15.236  1.00  0.00     0.088 N 
HETATM   33  C17 UNL     1      -0.313  10.338  16.015  1.00  0.00     0.275 C 
HETATM   34  C18 UNL     1      -1.014  10.226  17.366  1.00  0.00     0.062 C 
HETATM   35  C19 UNL     1      -2.444   9.727  17.191  1.00  0.00     0.121 C 
HETATM   36  C20 UNL     1      -2.466   8.429  16.392  1.00  0.00     0.062 C 
HETATM   37  C21 UNL     1      -1.702   8.583  15.077  1.00  0.00     0.275 C 
BRANCH  35  38
HETATM   38  O3  UNL     1      -3.022   9.519  18.475  1.00  0.00    -0.395 OA
HETATM   39  H21 UNL     1      -3.935   9.209  18.338  1.00  0.00     0.210 HD
ENDBRANCH  35  38
ENDBRANCH  31  32
ENDBRANCH  30  31
ENDBRANCH  29  30
ENDBRANCH   5  29
TORSDOF 8
ENDMDL
