MODEL 1
REMARK minimizedAffinity -9.59991646
REMARK  4 active torsions:
REMARK  status: ('A' for Active; 'I' for Inactive)
REMARK    1  A    between atoms: O1_1  and  C1_2 
REMARK    2  A    between atoms: C5_6  and  N1_7 
REMARK    3  A    between atoms: C9_18  and  N6_19 
REMARK    4  A    between atoms: N6_19  and  C10_20 
ROOT
HETATM    1  N1  UNL     1      -0.157  53.211 -24.429  1.00  0.00    -0.340 N 
HETATM    2  C6  UNL     1      -0.012  52.574 -23.235  1.00  0.00     0.138 A 
HETATM    3  N2  UNL     1       0.756  53.128 -22.238  1.00  0.00    -0.283 N 
HETATM    4  N3  UNL     1       0.858  52.382 -21.123  1.00  0.00    -0.283 N 
ATOM      5  H3  UNL     1       1.396  52.578 -20.279  1.00  0.00     0.188 HD
HETATM    6  C7  UNL     1       0.087  51.324 -21.385  1.00  0.00     0.139 A 
HETATM    7  N4  UNL     1      -0.156  50.287 -20.553  1.00  0.00    -0.337 N 
ATOM      8  H4  UNL     1       0.244  50.185 -19.621  1.00  0.00     0.168 HD
HETATM    9  C8  UNL     1      -1.006  49.402 -21.128  1.00  0.00     0.183 A 
HETATM   10  N5  UNL     1      -1.614  49.428 -22.354  1.00  0.00    -0.338 N 
ATOM     11  H5  UNL     1      -2.236  48.667 -22.630  1.00  0.00     0.168 HD
HETATM   12  C9  UNL     1      -1.393  50.470 -23.211  1.00  0.00     0.124 A 
HETATM   13  C16 UNL     1      -0.495  51.408 -22.680  1.00  0.00     0.099 A 
HETATM   14  H5  UNL     1      -0.046  54.227 -24.451  1.00  0.00     0.167 HD
HETATM   15  H6  UNL     1       1.275  53.998 -22.274  1.00  0.00     0.188 HD
ENDROOT
BRANCH   1  16
HETATM   16  C5  UNL     1       0.273  52.695 -25.684  1.00  0.00     0.036 A 
HETATM   17  C4  UNL     1      -0.497  52.754 -26.853  1.00  0.00     0.029 A 
HETATM   18  C3  UNL     1       0.013  52.298 -28.073  1.00  0.00     0.005 A 
HETATM   19  C2  UNL     1       1.306  51.786 -28.147  1.00  0.00     0.036 A 
HETATM   20  C1  UNL     1       2.080  51.739 -26.994  1.00  0.00     0.067 A 
HETATM   21  C17 UNL     1       1.579  52.191 -25.777  1.00  0.00     0.066 A 
BRANCH  20  22
HETATM   22  O1  UNL     1       3.356  51.259 -27.016  1.00  0.00    -0.361 OA
HETATM   23  H1  UNL     1       3.567  50.972 -27.920  1.00  0.00     0.217 HD
ENDBRANCH  20  22
ENDBRANCH   1  16
BRANCH  12  24
HETATM   24  N6  UNL     1      -2.007  50.587 -24.460  1.00  0.00    -0.342 N 
HETATM   25  H8  UNL     1      -1.725  51.432 -24.944  1.00  0.00     0.167 HD
BRANCH  24  26
HETATM   26  C10 UNL     1      -2.914  49.781 -25.164  1.00  0.00     0.035 A 
HETATM   27  C11 UNL     1      -2.589  49.409 -26.481  1.00  0.00     0.029 A 
HETATM   28  C12 UNL     1      -3.436  48.598 -27.241  1.00  0.00     0.004 A 
HETATM   29  C13 UNL     1      -4.628  48.139 -26.693  1.00  0.00     0.024 A 
HETATM   30  C14 UNL     1      -4.962  48.494 -25.388  1.00  0.00     0.036 A 
HETATM   31 CL1  UNL     1      -6.437  47.923 -24.706  1.00  0.00    -0.084 Cl
HETATM   32  C15 UNL     1      -4.114  49.305 -24.629  1.00  0.00     0.053 A 
ENDBRANCH  24  26
ENDBRANCH  12  24
TORSDOF 4
ENDMDL
MODEL 2
REMARK minimizedAffinity -9.56770039
REMARK  4 active torsions:
REMARK  status: ('A' for Active; 'I' for Inactive)
REMARK    1  A    between atoms: O1_1  and  C1_2 
REMARK    2  A    between atoms: C5_6  and  N1_7 
REMARK    3  A    between atoms: C9_18  and  N6_19 
REMARK    4  A    between atoms: N6_19  and  C10_20 
ROOT
HETATM    1  N1  UNL     1      -2.541  52.847 -26.141  1.00  0.00    -0.340 N 
HETATM    2  C6  UNL     1      -1.405  52.731 -26.882  1.00  0.00     0.138 A 
HETATM    3  N2  UNL     1      -1.377  53.164 -28.188  1.00  0.00    -0.283 N 
HETATM    4  N3  UNL     1      -0.212  52.954 -28.827  1.00  0.00    -0.283 N 
ATOM      5  H3  UNL     1       0.023  53.162 -29.797  1.00  0.00     0.188 HD
HETATM    6  C7  UNL     1       0.565  52.409 -27.888  1.00  0.00     0.139 A 
HETATM    7  N4  UNL     1       1.855  52.035 -28.035  1.00  0.00    -0.337 N 
ATOM      8  H4  UNL     1       2.385  52.112 -28.903  1.00  0.00     0.168 HD
HETATM    9  C8  UNL     1       2.348  51.544 -26.873  1.00  0.00     0.183 A 
HETATM   10  N5  UNL     1       1.749  51.399 -25.650  1.00  0.00    -0.338 N 
ATOM     11  H5  UNL     1       2.276  51.007 -24.869  1.00  0.00     0.168 HD
HETATM   12  C9  UNL     1       0.448  51.778 -25.471  1.00  0.00     0.124 A 
HETATM   13  C16 UNL     1      -0.126  52.270 -26.652  1.00  0.00     0.099 A 
HETATM   14  H5  UNL     1      -3.209  53.578 -26.393  1.00  0.00     0.167 HD
HETATM   15  H6  UNL     1      -2.139  53.573 -28.715  1.00  0.00     0.188 HD
ENDROOT
BRANCH   1  16
HETATM   16  C5  UNL     1      -3.270  51.753 -25.594  1.00  0.00     0.036 A 
HETATM   17  C4  UNL     1      -2.958  50.410 -25.843  1.00  0.00     0.029 A 
HETATM   18  C3  UNL     1      -3.664  49.380 -25.214  1.00  0.00     0.005 A 
HETATM   19  C2  UNL     1      -4.688  49.675 -24.317  1.00  0.00     0.036 A 
HETATM   20  C1  UNL     1      -4.992  51.005 -24.054  1.00  0.00     0.067 A 
HETATM   21  C17 UNL     1      -4.293  52.036 -24.676  1.00  0.00     0.066 A 
BRANCH  20  22
HETATM   22  O1  UNL     1      -5.975  51.348 -23.174  1.00  0.00    -0.361 OA
HETATM   23  H1  UNL     1      -6.381  50.536 -22.827  1.00  0.00     0.217 HD
ENDBRANCH  20  22
ENDBRANCH   1  16
BRANCH  12  24
HETATM   24  N6  UNL     1      -0.218  51.698 -24.245  1.00  0.00    -0.342 N 
HETATM   25  H8  UNL     1      -1.121  51.245 -24.333  1.00  0.00     0.167 HD
BRANCH  24  26
HETATM   26  C10 UNL     1       0.112  52.107 -22.944  1.00  0.00     0.035 A 
HETATM   27  C11 UNL     1       0.800  53.323 -22.784  1.00  0.00     0.029 A 
HETATM   28  C12 UNL     1       1.152  53.802 -21.518  1.00  0.00     0.004 A 
HETATM   29  C13 UNL     1       0.817  53.069 -20.385  1.00  0.00     0.024 A 
HETATM   30  C14 UNL     1       0.131  51.866 -20.527  1.00  0.00     0.036 A 
HETATM   31 CL1  UNL     1      -0.288  50.959 -19.124  1.00  0.00    -0.084 Cl
HETATM   32  C15 UNL     1      -0.221  51.389 -21.793  1.00  0.00     0.053 A 
ENDBRANCH  24  26
ENDBRANCH  12  24
TORSDOF 4
ENDMDL
MODEL 3
REMARK minimizedAffinity -9.45444584
REMARK  4 active torsions:
REMARK  status: ('A' for Active; 'I' for Inactive)
REMARK    1  A    between atoms: O1_1  and  C1_2 
REMARK    2  A    between atoms: C5_6  and  N1_7 
REMARK    3  A    between atoms: C9_18  and  N6_19 
REMARK    4  A    between atoms: N6_19  and  C10_20 
ROOT
HETATM    1  N1  UNL     1       0.242  54.284 -25.204  1.00  0.00    -0.340 N 
HETATM    2  C6  UNL     1       0.674  54.150 -23.921  1.00  0.00     0.138 A 
HETATM    3  N2  UNL     1       1.561  55.055 -23.385  1.00  0.00    -0.283 N 
HETATM    4  N3  UNL     1       1.947  54.789 -22.124  1.00  0.00    -0.283 N 
ATOM      5  H3  UNL     1       2.614  55.299 -21.546  1.00  0.00     0.188 HD
HETATM    6  C7  UNL     1       1.246  53.697 -21.808  1.00  0.00     0.139 A 
HETATM    7  N4  UNL     1       1.269  53.048 -20.623  1.00  0.00    -0.337 N 
ATOM      8  H4  UNL     1       1.848  53.314 -19.827  1.00  0.00     0.168 HD
HETATM    9  C8  UNL     1       0.416  51.996 -20.636  1.00  0.00     0.183 A 
HETATM   10  N5  UNL     1      -0.416  51.544 -21.626  1.00  0.00    -0.338 N 
ATOM     11  H5  UNL     1      -1.001  50.725 -21.464  1.00  0.00     0.168 HD
HETATM   12  C9  UNL     1      -0.465  52.187 -22.832  1.00  0.00     0.124 A 
HETATM   13  C16 UNL     1       0.422  53.273 -22.887  1.00  0.00     0.099 A 
HETATM   14  H5  UNL     1       0.247  55.218 -25.620  1.00  0.00     0.167 HD
HETATM   15  H6  UNL     1       1.976  55.854 -23.848  1.00  0.00     0.188 HD
ENDROOT
BRANCH   1  16
HETATM   16  C5  UNL     1       0.472  53.338 -26.243  1.00  0.00     0.036 A 
HETATM   17  C4  UNL     1      -0.424  53.107 -27.295  1.00  0.00     0.029 A 
HETATM   18  C3  UNL     1      -0.105  52.220 -28.328  1.00  0.00     0.005 A 
HETATM   19  C2  UNL     1       1.121  51.557 -28.333  1.00  0.00     0.036 A 
HETATM   20  C1  UNL     1       2.020  51.794 -27.300  1.00  0.00     0.067 A 
HETATM   21  C17 UNL     1       1.709  52.676 -26.269  1.00  0.00     0.066 A 
BRANCH  20  22
HETATM   22  O1  UNL     1       3.237  51.182 -27.265  1.00  0.00    -0.361 OA
HETATM   23  H1  UNL     1       3.313  50.593 -28.034  1.00  0.00     0.217 HD
ENDBRANCH  20  22
ENDBRANCH   1  16
BRANCH  12  24
HETATM   24  N6  UNL     1      -1.315  51.811 -23.874  1.00  0.00    -0.342 N 
HETATM   25  H8  UNL     1      -1.388  52.532 -24.583  1.00  0.00     0.167 HD
BRANCH  24  26
HETATM   26  C10 UNL     1      -2.067  50.655 -24.131  1.00  0.00     0.035 A 
HETATM   27  C11 UNL     1      -2.671  50.000 -23.043  1.00  0.00     0.029 A 
HETATM   28  C12 UNL     1      -3.444  48.849 -23.221  1.00  0.00     0.004 A 
HETATM   29  C13 UNL     1      -3.631  48.333 -24.499  1.00  0.00     0.024 A 
HETATM   30  C14 UNL     1      -3.044  48.973 -25.587  1.00  0.00     0.036 A 
HETATM   31 CL1  UNL     1      -3.277  48.338 -27.171  1.00  0.00    -0.084 Cl
HETATM   32  C15 UNL     1      -2.271  50.124 -25.407  1.00  0.00     0.053 A 
ENDBRANCH  24  26
ENDBRANCH  12  24
TORSDOF 4
ENDMDL
MODEL 4
REMARK minimizedAffinity -9.30769539
REMARK  4 active torsions:
REMARK  status: ('A' for Active; 'I' for Inactive)
REMARK    1  A    between atoms: O1_1  and  C1_2 
REMARK    2  A    between atoms: C5_6  and  N1_7 
REMARK    3  A    between atoms: C9_18  and  N6_19 
REMARK    4  A    between atoms: N6_19  and  C10_20 
ROOT
HETATM    1  N1  UNL     1       0.074  53.395 -24.180  1.00  0.00    -0.340 N 
HETATM    2  C6  UNL     1       0.195  52.748 -22.989  1.00  0.00     0.138 A 
HETATM    3  N2  UNL     1       0.966  53.279 -21.981  1.00  0.00    -0.283 N 
HETATM    4  N3  UNL     1       1.041  52.525 -20.869  1.00  0.00    -0.283 N 
ATOM      5  H3  UNL     1       1.575  52.704 -20.019  1.00  0.00     0.188 HD
HETATM    6  C7  UNL     1       0.249  51.486 -21.144  1.00  0.00     0.139 A 
HETATM    7  N4  UNL     1      -0.025  50.450 -20.321  1.00  0.00    -0.337 N 
ATOM      8  H4  UNL     1       0.365  50.334 -19.386  1.00  0.00     0.168 HD
HETATM    9  C8  UNL     1      -0.888  49.586 -20.909  1.00  0.00     0.183 A 
HETATM   10  N5  UNL     1      -1.484  49.633 -22.140  1.00  0.00    -0.338 N 
ATOM     11  H5  UNL     1      -2.119  48.887 -22.426  1.00  0.00     0.168 HD
HETATM   12  C9  UNL     1      -1.232  50.674 -22.989  1.00  0.00     0.124 A 
HETATM   13  C16 UNL     1      -0.319  51.589 -22.444  1.00  0.00     0.099 A 
HETATM   14  H5  UNL     1       0.208  54.408 -24.194  1.00  0.00     0.167 HD
HETATM   15  H6  UNL     1       1.504  54.137 -22.007  1.00  0.00     0.188 HD
ENDROOT
BRANCH   1  16
HETATM   16  C5  UNL     1       0.505  52.876 -25.434  1.00  0.00     0.036 A 
HETATM   17  C4  UNL     1       1.450  51.850 -25.567  1.00  0.00     0.029 A 
HETATM   18  C3  UNL     1       1.774  51.330 -26.824  1.00  0.00     0.005 A 
HETATM   19  C2  UNL     1       1.149  51.819 -27.969  1.00  0.00     0.036 A 
HETATM   20  C1  UNL     1       0.200  52.826 -27.842  1.00  0.00     0.067 A 
HETATM   21  C17 UNL     1      -0.128  53.348 -26.594  1.00  0.00     0.066 A 
BRANCH  20  22
HETATM   22  O1  UNL     1      -0.449  53.329 -28.930  1.00  0.00    -0.361 OA
HETATM   23  H1  UNL     1      -0.116  52.884 -29.727  1.00  0.00     0.217 HD
ENDBRANCH  20  22
ENDBRANCH   1  16
BRANCH  12  24
HETATM   24  N6  UNL     1      -1.832  50.812 -24.243  1.00  0.00    -0.342 N 
HETATM   25  H8  UNL     1      -1.605  51.700 -24.677  1.00  0.00     0.167 HD
BRANCH  24  26
HETATM   26  C10 UNL     1      -2.663  49.979 -25.007  1.00  0.00     0.035 A 
HETATM   27  C11 UNL     1      -2.225  49.597 -26.287  1.00  0.00     0.029 A 
HETATM   28  C12 UNL     1      -2.993  48.760 -27.102  1.00  0.00     0.004 A 
HETATM   29  C13 UNL     1      -4.218  48.285 -26.646  1.00  0.00     0.024 A 
HETATM   30  C14 UNL     1      -4.663  48.650 -25.378  1.00  0.00     0.036 A 
HETATM   31 CL1  UNL     1      -6.178  48.060 -24.810  1.00  0.00    -0.084 Cl
HETATM   32  C15 UNL     1      -3.894  49.487 -24.564  1.00  0.00     0.053 A 
ENDBRANCH  24  26
ENDBRANCH  12  24
TORSDOF 4
ENDMDL
MODEL 5
REMARK minimizedAffinity -9.22402
REMARK  4 active torsions:
REMARK  status: ('A' for Active; 'I' for Inactive)
REMARK    1  A    between atoms: O1_1  and  C1_2 
REMARK    2  A    between atoms: C5_6  and  N1_7 
REMARK    3  A    between atoms: C9_18  and  N6_19 
REMARK    4  A    between atoms: N6_19  and  C10_20 
ROOT
HETATM    1  N1  UNL     1      -2.861  52.356 -26.188  1.00  0.00    -0.340 N 
HETATM    2  C6  UNL     1      -1.698  52.550 -26.868  1.00  0.00     0.138 A 
HETATM    3  N2  UNL     1      -1.683  53.294 -28.026  1.00  0.00    -0.283 N 
HETATM    4  N3  UNL     1      -0.483  53.375 -28.629  1.00  0.00    -0.283 N 
ATOM      5  H3  UNL     1      -0.247  53.841 -29.504  1.00  0.00     0.188 HD
HETATM    6  C7  UNL     1       0.325  52.702 -27.806  1.00  0.00     0.139 A 
HETATM    7  N4  UNL     1       1.654  52.517 -27.966  1.00  0.00    -0.337 N 
ATOM      8  H4  UNL     1       2.196  52.863 -28.757  1.00  0.00     0.168 HD
HETATM    9  C8  UNL     1       2.167  51.810 -26.930  1.00  0.00     0.183 A 
HETATM   10  N5  UNL     1       1.554  51.304 -25.815  1.00  0.00    -0.338 N 
ATOM     11  H5  UNL     1       2.100  50.789 -25.124  1.00  0.00     0.168 HD
HETATM   12  C9  UNL     1       0.212  51.484 -25.625  1.00  0.00     0.124 A 
HETATM   13  C16 UNL     1      -0.381  52.188 -26.684  1.00  0.00     0.099 A 
HETATM   14  H5  UNL     1      -3.604  53.051 -26.294  1.00  0.00     0.167 HD
HETATM   15  H6  UNL     1      -2.472  53.736 -28.482  1.00  0.00     0.188 HD
ENDROOT
BRANCH   1  16
HETATM   16  C5  UNL     1      -3.471  51.090 -25.965  1.00  0.00     0.036 A 
HETATM   17  C4  UNL     1      -3.384  50.018 -26.863  1.00  0.00     0.029 A 
HETATM   18  C3  UNL     1      -3.940  48.773 -26.552  1.00  0.00     0.005 A 
HETATM   19  C2  UNL     1      -4.583  48.575 -25.332  1.00  0.00     0.036 A 
HETATM   20  C1  UNL     1      -4.660  49.630 -24.431  1.00  0.00     0.067 A 
HETATM   21  C17 UNL     1      -4.108  50.872 -24.734  1.00  0.00     0.066 A 
BRANCH  20  22
HETATM   22  O1  UNL     1      -5.266  49.485 -23.219  1.00  0.00    -0.361 OA
HETATM   23  H1  UNL     1      -5.611  48.580 -23.148  1.00  0.00     0.217 HD
ENDBRANCH  20  22
ENDBRANCH   1  16
BRANCH  12  24
HETATM   24  N6  UNL     1      -0.475  51.032 -24.496  1.00  0.00    -0.342 N 
HETATM   25  H8  UNL     1      -1.079  50.246 -24.709  1.00  0.00     0.167 HD
BRANCH  24  26
HETATM   26  C10 UNL     1      -0.489  51.439 -23.153  1.00  0.00     0.035 A 
HETATM   27  C11 UNL     1      -1.311  50.735 -22.255  1.00  0.00     0.029 A 
HETATM   28  C12 UNL     1      -1.369  51.074 -20.900  1.00  0.00     0.004 A 
HETATM   29  C13 UNL     1      -0.599  52.126 -20.417  1.00  0.00     0.024 A 
HETATM   30  C14 UNL     1       0.224  52.829 -21.293  1.00  0.00     0.036 A 
HETATM   31 CL1  UNL     1       1.181  54.130 -20.697  1.00  0.00    -0.084 Cl
HETATM   32  C15 UNL     1       0.281  52.489 -22.648  1.00  0.00     0.053 A 
ENDBRANCH  24  26
ENDBRANCH  12  24
TORSDOF 4
ENDMDL
MODEL 6
REMARK minimizedAffinity -8.98402596
REMARK  4 active torsions:
REMARK  status: ('A' for Active; 'I' for Inactive)
REMARK    1  A    between atoms: O1_1  and  C1_2 
REMARK    2  A    between atoms: C5_6  and  N1_7 
REMARK    3  A    between atoms: C9_18  and  N6_19 
REMARK    4  A    between atoms: N6_19  and  C10_20 
ROOT
HETATM    1  N1  UNL     1      -2.107  49.833 -25.754  1.00  0.00    -0.340 N 
HETATM    2  C6  UNL     1      -3.267  49.987 -25.059  1.00  0.00     0.138 A 
HETATM    3  N2  UNL     1      -4.452  49.504 -25.564  1.00  0.00    -0.283 N 
HETATM    4  N3  UNL     1      -5.534  49.758 -24.806  1.00  0.00    -0.283 N 
ATOM      5  H3  UNL     1      -6.508  49.525 -24.997  1.00  0.00     0.188 HD
HETATM    6  C7  UNL     1      -5.028  50.386 -23.742  1.00  0.00     0.139 A 
HETATM    7  N4  UNL     1      -5.723  50.832 -22.672  1.00  0.00    -0.337 N 
ATOM      8  H4  UNL     1      -6.733  50.752 -22.563  1.00  0.00     0.168 HD
HETATM    9  C8  UNL     1      -4.892  51.399 -21.764  1.00  0.00     0.183 A 
HETATM   10  N5  UNL     1      -3.532  51.557 -21.787  1.00  0.00    -0.338 N 
ATOM     11  H5  UNL     1      -3.060  52.012 -21.006  1.00  0.00     0.168 HD
HETATM   12  C9  UNL     1      -2.804  51.107 -22.853  1.00  0.00     0.124 A 
HETATM   13  C16 UNL     1      -3.617  50.534 -23.843  1.00  0.00     0.099 A 
HETATM   14  H5  UNL     1      -2.038  49.053 -26.411  1.00  0.00     0.167 HD
HETATM   15  H6  UNL     1      -4.594  49.028 -26.447  1.00  0.00     0.188 HD
ENDROOT
BRANCH   1  16
HETATM   16  C5  UNL     1      -1.310  50.901 -26.254  1.00  0.00     0.036 A 
HETATM   17  C4  UNL     1       0.088  50.928 -26.179  1.00  0.00     0.029 A 
HETATM   18  C3  UNL     1       0.819  51.971 -26.758  1.00  0.00     0.005 A 
HETATM   19  C2  UNL     1       0.164  52.998 -27.433  1.00  0.00     0.036 A 
HETATM   20  C1  UNL     1      -1.222  52.969 -27.524  1.00  0.00     0.067 A 
HETATM   21  C17 UNL     1      -1.956  51.935 -26.950  1.00  0.00     0.066 A 
BRANCH  20  22
HETATM   22  O1  UNL     1      -1.910  53.943 -28.185  1.00  0.00    -0.361 OA
HETATM   23  H1  UNL     1      -1.277  54.599 -28.522  1.00  0.00     0.217 HD
ENDBRANCH  20  22
ENDBRANCH   1  16
BRANCH  12  24
HETATM   24  N6  UNL     1      -1.412  51.196 -22.931  1.00  0.00    -0.342 N 
HETATM   25  H8  UNL     1      -1.028  50.546 -23.608  1.00  0.00     0.167 HD
BRANCH  24  26
HETATM   26  C10 UNL     1      -0.463  51.994 -22.277  1.00  0.00     0.035 A 
HETATM   27  C11 UNL     1       0.295  52.893 -23.048  1.00  0.00     0.029 A 
HETATM   28  C12 UNL     1       1.252  53.730 -22.466  1.00  0.00     0.004 A 
HETATM   29  C13 UNL     1       1.466  53.683 -21.093  1.00  0.00     0.024 A 
HETATM   30  C14 UNL     1       0.720  52.802 -20.314  1.00  0.00     0.036 A 
HETATM   31 CL1  UNL     1       0.982  52.745 -18.613  1.00  0.00    -0.084 Cl
HETATM   32  C15 UNL     1      -0.236  51.966 -20.898  1.00  0.00     0.053 A 
ENDBRANCH  24  26
ENDBRANCH  12  24
TORSDOF 4
ENDMDL
MODEL 7
REMARK minimizedAffinity -8.89865303
REMARK  4 active torsions:
REMARK  status: ('A' for Active; 'I' for Inactive)
REMARK    1  A    between atoms: O1_1  and  C1_2 
REMARK    2  A    between atoms: C5_6  and  N1_7 
REMARK    3  A    between atoms: C9_18  and  N6_19 
REMARK    4  A    between atoms: N6_19  and  C10_20 
ROOT
HETATM    1  N1  UNL     1      -0.254  51.511 -23.267  1.00  0.00    -0.340 N 
HETATM    2  C6  UNL     1      -0.098  52.459 -24.231  1.00  0.00     0.138 A 
HETATM    3  N2  UNL     1       0.596  53.617 -23.965  1.00  0.00    -0.283 N 
HETATM    4  N3  UNL     1       0.642  54.494 -24.984  1.00  0.00    -0.283 N 
ATOM      5  H3  UNL     1       1.069  55.420 -25.001  1.00  0.00     0.188 HD
HETATM    6  C7  UNL     1      -0.002  53.863 -25.968  1.00  0.00     0.139 A 
HETATM    7  N4  UNL     1      -0.204  54.330 -27.220  1.00  0.00    -0.337 N 
ATOM      8  H4  UNL     1       0.104  55.242 -27.555  1.00  0.00     0.168 HD
HETATM    9  C8  UNL     1      -0.871  53.419 -27.969  1.00  0.00     0.183 A 
HETATM   10  N5  UNL     1      -1.326  52.169 -27.644  1.00  0.00    -0.338 N 
ATOM     11  H5  UNL     1      -1.815  51.609 -28.342  1.00  0.00     0.168 HD
HETATM   12  C9  UNL     1      -1.127  51.669 -26.388  1.00  0.00     0.124 A 
HETATM   13  C16 UNL     1      -0.463  52.583 -25.555  1.00  0.00     0.099 A 
HETATM   14  H5  UNL     1       0.441  51.464 -22.519  1.00  0.00     0.167 HD
HETATM   15  H6  UNL     1       1.025  53.888 -23.088  1.00  0.00     0.188 HD
ENDROOT
BRANCH   1  16
HETATM   16  C5  UNL     1      -1.505  51.095 -22.732  1.00  0.00     0.036 A 
HETATM   17  C4  UNL     1      -1.690  49.896 -22.031  1.00  0.00     0.029 A 
HETATM   18  C3  UNL     1      -2.927  49.579 -21.462  1.00  0.00     0.005 A 
HETATM   19  C2  UNL     1      -3.999  50.461 -21.574  1.00  0.00     0.036 A 
HETATM   20  C1  UNL     1      -3.819  51.659 -22.254  1.00  0.00     0.067 A 
HETATM   21  C17 UNL     1      -2.589  51.981 -22.823  1.00  0.00     0.066 A 
BRANCH  20  22
HETATM   22  O1  UNL     1      -4.831  52.563 -22.381  1.00  0.00    -0.361 OA
HETATM   23  H1  UNL     1      -5.625  52.205 -21.949  1.00  0.00     0.217 HD
ENDBRANCH  20  22
ENDBRANCH   1  16
BRANCH  12  24
HETATM   24  N6  UNL     1      -1.525  50.389 -25.993  1.00  0.00    -0.342 N 
HETATM   25  H8  UNL     1      -0.814  49.924 -25.441  1.00  0.00     0.167 HD
BRANCH  24  26
HETATM   26  C10 UNL     1      -2.693  49.640 -26.202  1.00  0.00     0.035 A 
HETATM   27  C11 UNL     1      -3.387  49.165 -25.075  1.00  0.00     0.029 A 
HETATM   28  C12 UNL     1      -4.564  48.421 -25.202  1.00  0.00     0.004 A 
HETATM   29  C13 UNL     1      -5.071  48.142 -26.467  1.00  0.00     0.024 A 
HETATM   30  C14 UNL     1      -4.398  48.609 -27.592  1.00  0.00     0.036 A 
HETATM   31 CL1  UNL     1      -5.026  48.266 -29.158  1.00  0.00    -0.084 Cl
HETATM   32  C15 UNL     1      -3.221  49.352 -27.463  1.00  0.00     0.053 A 
ENDBRANCH  24  26
ENDBRANCH  12  24
TORSDOF 4
ENDMDL
MODEL 8
REMARK minimizedAffinity -8.80823326
REMARK  4 active torsions:
REMARK  status: ('A' for Active; 'I' for Inactive)
REMARK    1  A    between atoms: O1_1  and  C1_2 
REMARK    2  A    between atoms: C5_6  and  N1_7 
REMARK    3  A    between atoms: C9_18  and  N6_19 
REMARK    4  A    between atoms: N6_19  and  C10_20 
ROOT
HETATM    1  N1  UNL     1       0.089  52.039 -23.410  1.00  0.00    -0.340 N 
HETATM    2  C6  UNL     1       0.114  52.938 -24.432  1.00  0.00     0.138 A 
HETATM    3  N2  UNL     1       0.768  54.139 -24.288  1.00  0.00    -0.283 N 
HETATM    4  N3  UNL     1       0.683  54.959 -25.351  1.00  0.00    -0.283 N 
ATOM      5  H3  UNL     1       1.059  55.902 -25.453  1.00  0.00     0.188 HD
HETATM    6  C7  UNL     1      -0.011  54.245 -26.240  1.00  0.00     0.139 A 
HETATM    7  N4  UNL     1      -0.343  54.632 -27.492  1.00  0.00    -0.337 N 
ATOM      8  H4  UNL     1      -0.111  55.538 -27.899  1.00  0.00     0.168 HD
HETATM    9  C8  UNL     1      -1.025  53.652 -28.131  1.00  0.00     0.183 A 
HETATM   10  N5  UNL     1      -1.386  52.402 -27.703  1.00  0.00    -0.338 N 
ATOM     11  H5  UNL     1      -1.904  51.782 -28.326  1.00  0.00     0.168 HD
HETATM   12  C9  UNL     1      -1.055  51.982 -26.445  1.00  0.00     0.124 A 
HETATM   13  C16 UNL     1      -0.370  52.970 -25.723  1.00  0.00     0.099 A 
HETATM   14  H5  UNL     1       0.847  52.066 -22.725  1.00  0.00     0.167 HD
HETATM   15  H6  UNL     1       1.257  54.478 -23.467  1.00  0.00     0.188 HD
ENDROOT
BRANCH   1  16
HETATM   16  C5  UNL     1      -1.089  51.596 -22.745  1.00  0.00     0.036 A 
HETATM   17  C4  UNL     1      -2.325  52.250 -22.837  1.00  0.00     0.029 A 
HETATM   18  C3  UNL     1      -3.465  51.722 -22.223  1.00  0.00     0.005 A 
HETATM   19  C2  UNL     1      -3.391  50.523 -21.516  1.00  0.00     0.036 A 
HETATM   20  C1  UNL     1      -2.172  49.862 -21.434  1.00  0.00     0.067 A 
HETATM   21  C17 UNL     1      -1.033  50.382 -22.044  1.00  0.00     0.066 A 
BRANCH  20  22
HETATM   22  O1  UNL     1      -2.050  48.680 -20.767  1.00  0.00    -0.361 OA
HETATM   23  H1  UNL     1      -2.912  48.445 -20.387  1.00  0.00     0.217 HD
ENDBRANCH  20  22
ENDBRANCH   1  16
BRANCH  12  24
HETATM   24  N6  UNL     1      -1.353  50.710 -25.952  1.00  0.00    -0.342 N 
HETATM   25  H8  UNL     1      -0.581  50.317 -25.425  1.00  0.00     0.167 HD
BRANCH  24  26
HETATM   26  C10 UNL     1      -2.487  49.888 -26.035  1.00  0.00     0.035 A 
HETATM   27  C11 UNL     1      -2.941  49.510 -27.311  1.00  0.00     0.029 A 
HETATM   28  C12 UNL     1      -4.058  48.684 -27.474  1.00  0.00     0.004 A 
HETATM   29  C13 UNL     1      -4.741  48.218 -26.356  1.00  0.00     0.024 A 
HETATM   30  C14 UNL     1      -4.301  48.580 -25.086  1.00  0.00     0.036 A 
HETATM   31 CL1  UNL     1      -5.144  48.001 -23.700  1.00  0.00    -0.084 Cl
HETATM   32  C15 UNL     1      -3.184  49.405 -24.925  1.00  0.00     0.053 A 
ENDBRANCH  24  26
ENDBRANCH  12  24
TORSDOF 4
ENDMDL
MODEL 9
REMARK minimizedAffinity -8.74852848
REMARK  4 active torsions:
REMARK  status: ('A' for Active; 'I' for Inactive)
REMARK    1  A    between atoms: O1_1  and  C1_2 
REMARK    2  A    between atoms: C5_6  and  N1_7 
REMARK    3  A    between atoms: C9_18  and  N6_19 
REMARK    4  A    between atoms: N6_19  and  C10_20 
ROOT
HETATM    1  N1  UNL     1      -1.693  49.450 -26.390  1.00  0.00    -0.340 N 
HETATM    2  C6  UNL     1      -2.925  49.281 -25.838  1.00  0.00     0.138 A 
HETATM    3  N2  UNL     1      -3.948  48.722 -26.570  1.00  0.00    -0.283 N 
HETATM    4  N3  UNL     1      -5.128  48.650 -25.928  1.00  0.00    -0.283 N 
ATOM      5  H3  UNL     1      -6.020  48.307 -26.284  1.00  0.00     0.188 HD
HETATM    6  C7  UNL     1      -4.853  49.134 -24.715  1.00  0.00     0.139 A 
HETATM    7  N4  UNL     1      -5.720  49.248 -23.685  1.00  0.00    -0.337 N 
ATOM      8  H4  UNL     1      -6.705  48.990 -23.725  1.00  0.00     0.168 HD
HETATM    9  C8  UNL     1      -5.100  49.754 -22.591  1.00  0.00     0.183 A 
HETATM   10  N5  UNL     1      -3.795  50.127 -22.407  1.00  0.00    -0.338 N 
ATOM     11  H5  UNL     1      -3.493  50.492 -21.504  1.00  0.00     0.168 HD
HETATM   12  C9  UNL     1      -2.896  50.013 -23.430  1.00  0.00     0.124 A 
HETATM   13  C16 UNL     1      -3.489  49.520 -24.602  1.00  0.00     0.099 A 
HETATM   14  H5  UNL     1      -1.419  48.832 -27.157  1.00  0.00     0.167 HD
HETATM   15  H6  UNL     1      -3.913  48.409 -27.533  1.00  0.00     0.188 HD
ENDROOT
BRANCH   1  16
HETATM   16  C5  UNL     1      -1.057  50.707 -26.589  1.00  0.00     0.036 A 
HETATM   17  C4  UNL     1       0.280  50.962 -26.255  1.00  0.00     0.029 A 
HETATM   18  C3  UNL     1       0.871  52.196 -26.546  1.00  0.00     0.005 A 
HETATM   19  C2  UNL     1       0.137  53.192 -27.187  1.00  0.00     0.036 A 
HETATM   20  C1  UNL     1      -1.184  52.940 -27.534  1.00  0.00     0.067 A 
HETATM   21  C17 UNL     1      -1.778  51.714 -27.248  1.00  0.00     0.066 A 
BRANCH  20  22
HETATM   22  O1  UNL     1      -1.940  53.876 -28.175  1.00  0.00    -0.361 OA
HETATM   23  H1  UNL     1      -1.405  54.678 -28.299  1.00  0.00     0.217 HD
ENDBRANCH  20  22
ENDBRANCH   1  16
BRANCH  12  24
HETATM   24  N6  UNL     1      -1.542  50.335 -23.308  1.00  0.00    -0.342 N 
HETATM   25  H8  UNL     1      -0.985  49.923 -24.048  1.00  0.00     0.167 HD
BRANCH  24  26
HETATM   26  C10 UNL     1      -0.817  51.106 -22.386  1.00  0.00     0.035 A 
HETATM   27  C11 UNL     1      -0.766  50.669 -21.050  1.00  0.00     0.029 A 
HETATM   28  C12 UNL     1      -0.054  51.377 -20.077  1.00  0.00     0.004 A 
HETATM   29  C13 UNL     1       0.625  52.539 -20.427  1.00  0.00     0.024 A 
HETATM   30  C14 UNL     1       0.587  52.982 -21.746  1.00  0.00     0.036 A 
HETATM   31 CL1  UNL     1       1.430  54.419 -22.182  1.00  0.00    -0.084 Cl
HETATM   32  C15 UNL     1      -0.124  52.273 -22.718  1.00  0.00     0.053 A 
ENDBRANCH  24  26
ENDBRANCH  12  24
TORSDOF 4
ENDMDL
