MODEL 1
REMARK minimizedAffinity -9.46075058
REMARK  8 active torsions:
REMARK  status: ('A' for Active; 'I' for Inactive)
REMARK    1  A    between atoms: C4_4  and  C5_5 
REMARK    2  A    between atoms: C7_7  and  O1_8 
REMARK    3  A    between atoms: C13_19  and  N3_20 
REMARK    4  A    between atoms: N3_20  and  C14_21 
REMARK    5  A    between atoms: C14_21  and  C15_22 
REMARK    6  A    between atoms: C15_22  and  C16_23 
REMARK    7  A    between atoms: C16_23  and  C17_24 
REMARK    8  A    between atoms: C17_24  and  N4_25 
ROOT
HETATM    1  C1  UNL     1       1.139  53.731 -20.790  1.00  0.00     0.050 C 
HETATM    2  C2  UNL     1       0.330  52.872 -21.724  1.00  0.00    -0.032 A 
HETATM    3  C3  UNL     1       0.684  52.803 -23.082  1.00  0.00     0.021 A 
HETATM    4  C4  UNL     1      -0.043  52.007 -23.972  1.00  0.00    -0.021 A 
HETATM    5  C11 UNL     1      -1.131  51.286 -23.473  1.00  0.00     0.045 A 
HETATM    6  C12 UNL     1      -1.489  51.343 -22.129  1.00  0.00     0.076 A 
HETATM    7  N1  UNL     1      -2.536  50.648 -21.674  1.00  0.00    -0.296 N 
ATOM      8  H1  UNL     1      -3.084  50.068 -22.310  1.00  0.00     0.187 HD
HETATM    9  N2  UNL     1      -2.867  50.720 -20.353  1.00  0.00    -0.275 N 
ATOM     10  H2  UNL     1      -3.661  50.189 -19.996  1.00  0.00     0.189 HD
HETATM   11  C13 UNL     1      -2.144  51.491 -19.520  1.00  0.00     0.172 A 
HETATM   12  N5  UNL     1      -1.094  52.211 -19.934  1.00  0.00    -0.329 N 
ATOM     13  H5  UNL     1      -0.566  52.795 -19.284  1.00  0.00     0.168 HD
HETATM   14  C22 UNL     1      -0.759  52.140 -21.234  1.00  0.00     0.069 A 
ENDROOT
BRANCH  11  15
HETATM   15  N3  UNL     1      -2.541  51.535 -18.191  1.00  0.00    -0.263 NA
HETATM   16  H10 UNL     1      -2.410  52.483 -17.854  1.00  0.00     0.130 HD
BRANCH  15  17
HETATM   17  C14 UNL     1      -2.056  50.472 -17.326  1.00  0.00     0.095 C 
BRANCH  17  18
HETATM   18  C15 UNL     1      -0.685  49.962 -17.778  1.00  0.00     0.016 C 
BRANCH  18  19
HETATM   19  C16 UNL     1       0.393  50.092 -16.699  1.00  0.00     0.031 C 
BRANCH  19  20
HETATM   20  C17 UNL     1       0.190  51.315 -15.795  1.00  0.00     0.272 C 
BRANCH  20  21
HETATM   21  N4  UNL     1       1.439  52.049 -15.582  1.00  0.00     0.088 N 
HETATM   22  C18 UNL     1       2.513  51.238 -15.005  1.00  0.00     0.272 C 
HETATM   23  C19 UNL     1       3.765  52.061 -15.277  1.00  0.00     0.032 C 
HETATM   24  C20 UNL     1       3.401  52.973 -16.443  1.00  0.00     0.032 C 
HETATM   25  C21 UNL     1       1.992  52.564 -16.837  1.00  0.00     0.272 C 
ENDBRANCH  20  21
ENDBRANCH  19  20
ENDBRANCH  18  19
ENDBRANCH  17  18
ENDBRANCH  15  17
ENDBRANCH  11  15
BRANCH   4  26
HETATM   26  C5  UNL     1       0.319  51.939 -25.393  1.00  0.00    -0.001 A 
HETATM   27  C6  UNL     1       1.673  51.787 -25.747  1.00  0.00     0.050 A 
HETATM   28  C7  UNL     1       2.048  51.717 -27.087  1.00  0.00     0.066 A 
HETATM   29  C8  UNL     1       1.099  51.794 -28.098  1.00  0.00     0.038 A 
HETATM   30  C9  UNL     1      -0.247  51.945 -27.769  1.00  0.00     0.027 A 
HETATM   31  C10 UNL     1      -0.636  52.017 -26.427  1.00  0.00     0.045 A 
HETATM   32 CL1  UNL     1      -2.323  52.208 -26.093  1.00  0.00    -0.083 Cl
BRANCH  28  33
HETATM   33  O1  UNL     1       3.352  51.569 -27.454  1.00  0.00    -0.361 OA
HETATM   34  H6  UNL     1       3.906  51.539 -26.656  1.00  0.00     0.217 HD
ENDBRANCH  28  33
ENDBRANCH   4  26
TORSDOF 8
ENDMDL
MODEL 2
REMARK minimizedAffinity -8.99721432
REMARK  8 active torsions:
REMARK  status: ('A' for Active; 'I' for Inactive)
REMARK    1  A    between atoms: C4_4  and  C5_5 
REMARK    2  A    between atoms: C7_7  and  O1_8 
REMARK    3  A    between atoms: C13_19  and  N3_20 
REMARK    4  A    between atoms: N3_20  and  C14_21 
REMARK    5  A    between atoms: C14_21  and  C15_22 
REMARK    6  A    between atoms: C15_22  and  C16_23 
REMARK    7  A    between atoms: C16_23  and  C17_24 
REMARK    8  A    between atoms: C17_24  and  N4_25 
ROOT
HETATM    1  C1  UNL     1       0.416  51.230 -27.295  1.00  0.00     0.050 C 
HETATM    2  C2  UNL     1      -0.453  51.121 -26.071  1.00  0.00    -0.032 A 
HETATM    3  C3  UNL     1       0.051  51.531 -24.825  1.00  0.00     0.021 A 
HETATM    4  C4  UNL     1      -0.735  51.451 -23.672  1.00  0.00    -0.021 A 
HETATM    5  C11 UNL     1      -2.034  50.949 -23.795  1.00  0.00     0.045 A 
HETATM    6  C12 UNL     1      -2.546  50.543 -25.024  1.00  0.00     0.076 A 
HETATM    7  N1  UNL     1      -3.790  50.063 -25.117  1.00  0.00    -0.296 N 
ATOM      8  H1  UNL     1      -4.376  49.988 -24.285  1.00  0.00     0.187 HD
HETATM    9  N2  UNL     1      -4.269  49.672 -26.333  1.00  0.00    -0.275 N 
ATOM     10  H2  UNL     1      -5.218  49.309 -26.414  1.00  0.00     0.189 HD
HETATM   11  C13 UNL     1      -3.490  49.767 -27.425  1.00  0.00     0.172 A 
HETATM   12  N5  UNL     1      -2.235  50.233 -27.377  1.00  0.00    -0.329 N 
ATOM     13  H5  UNL     1      -1.661  50.288 -28.218  1.00  0.00     0.168 HD
HETATM   14  C22 UNL     1      -1.758  50.626 -26.182  1.00  0.00     0.069 A 
ENDROOT
BRANCH  11  15
HETATM   15  N3  UNL     1      -4.030  49.338 -28.630  1.00  0.00    -0.263 NA
HETATM   16  H10 UNL     1      -4.375  50.152 -29.128  1.00  0.00     0.130 HD
BRANCH  15  17
HETATM   17  C14 UNL     1      -4.920  48.190 -28.579  1.00  0.00     0.095 C 
BRANCH  17  18
HETATM   18  C15 UNL     1      -5.798  48.106 -29.830  1.00  0.00     0.016 C 
BRANCH  18  19
HETATM   19  C16 UNL     1      -6.350  46.701 -30.086  1.00  0.00     0.031 C 
BRANCH  19  20
HETATM   20  C17 UNL     1      -6.217  46.263 -31.550  1.00  0.00     0.272 C 
BRANCH  20  21
HETATM   21  N4  UNL     1      -5.391  47.193 -32.323  1.00  0.00     0.088 N 
HETATM   22  C18 UNL     1      -4.094  46.643 -32.725  1.00  0.00     0.272 C 
HETATM   23  C19 UNL     1      -3.635  47.586 -33.829  1.00  0.00     0.032 C 
HETATM   24  C20 UNL     1      -4.907  48.247 -34.349  1.00  0.00     0.032 C 
HETATM   25  C21 UNL     1      -6.036  47.584 -33.580  1.00  0.00     0.272 C 
ENDBRANCH  20  21
ENDBRANCH  19  20
ENDBRANCH  18  19
ENDBRANCH  17  18
ENDBRANCH  15  17
ENDBRANCH  11  15
BRANCH   4  26
HETATM   26  C5  UNL     1      -0.209  51.870 -22.368  1.00  0.00    -0.001 A 
HETATM   27  C6  UNL     1       0.527  53.067 -22.281  1.00  0.00     0.050 A 
HETATM   28  C7  UNL     1       1.038  53.493 -21.057  1.00  0.00     0.066 A 
HETATM   29  C8  UNL     1       0.834  52.751 -19.901  1.00  0.00     0.038 A 
HETATM   30  C9  UNL     1       0.108  51.562 -19.966  1.00  0.00     0.027 A 
HETATM   31  C10 UNL     1      -0.410  51.123 -21.189  1.00  0.00     0.045 A 
HETATM   32 CL1  UNL     1      -1.296  49.637 -21.195  1.00  0.00    -0.083 Cl
BRANCH  28  33
HETATM   33  O1  UNL     1       1.751  54.649 -20.948  1.00  0.00    -0.361 OA
HETATM   34  H6  UNL     1       1.828  55.061 -21.825  1.00  0.00     0.217 HD
ENDBRANCH  28  33
ENDBRANCH   4  26
TORSDOF 8
ENDMDL
MODEL 3
REMARK minimizedAffinity -8.9896698
REMARK  8 active torsions:
REMARK  status: ('A' for Active; 'I' for Inactive)
REMARK    1  A    between atoms: C4_4  and  C5_5 
REMARK    2  A    between atoms: C7_7  and  O1_8 
REMARK    3  A    between atoms: C13_19  and  N3_20 
REMARK    4  A    between atoms: N3_20  and  C14_21 
REMARK    5  A    between atoms: C14_21  and  C15_22 
REMARK    6  A    between atoms: C15_22  and  C16_23 
REMARK    7  A    between atoms: C16_23  and  C17_24 
REMARK    8  A    between atoms: C17_24  and  N4_25 
ROOT
HETATM    1  C1  UNL     1       1.153  53.479 -20.662  1.00  0.00     0.050 C 
HETATM    2  C2  UNL     1       0.303  52.708 -21.637  1.00  0.00    -0.032 A 
HETATM    3  C3  UNL     1       0.668  52.670 -22.993  1.00  0.00     0.021 A 
HETATM    4  C4  UNL     1      -0.096  51.955 -23.920  1.00  0.00    -0.021 A 
HETATM    5  C11 UNL     1      -1.231  51.282 -23.459  1.00  0.00     0.045 A 
HETATM    6  C12 UNL     1      -1.599  51.308 -22.117  1.00  0.00     0.076 A 
HETATM    7  N1  UNL     1      -2.691  50.660 -21.699  1.00  0.00    -0.296 N 
ATOM      8  H1  UNL     1      -3.266  50.140 -22.362  1.00  0.00     0.187 HD
HETATM    9  N2  UNL     1      -3.031  50.701 -20.378  1.00  0.00    -0.275 N 
ATOM     10  H2  UNL     1      -3.859  50.206 -20.050  1.00  0.00     0.189 HD
HETATM   11  C13 UNL     1      -2.273  51.394 -19.510  1.00  0.00     0.172 A 
HETATM   12  N5  UNL     1      -1.177  52.065 -19.886  1.00  0.00    -0.329 N 
ATOM     13  H5  UNL     1      -0.623  52.590 -19.210  1.00  0.00     0.168 HD
HETATM   14  C22 UNL     1      -0.832  52.024 -21.185  1.00  0.00     0.069 A 
ENDROOT
BRANCH  11  15
HETATM   15  N3  UNL     1      -2.681  51.410 -18.183  1.00  0.00    -0.263 NA
HETATM   16  H10 UNL     1      -2.452  52.318 -17.794  1.00  0.00     0.130 HD
BRANCH  15  17
HETATM   17  C14 UNL     1      -2.327  50.255 -17.374  1.00  0.00     0.095 C 
BRANCH  17  18
HETATM   18  C15 UNL     1      -1.821  50.674 -15.991  1.00  0.00     0.016 C 
BRANCH  18  19
HETATM   19  C16 UNL     1      -2.947  51.050 -15.025  1.00  0.00     0.031 C 
BRANCH  19  20
HETATM   20  C17 UNL     1      -2.842  50.330 -13.674  1.00  0.00     0.272 C 
BRANCH  20  21
HETATM   21  N4  UNL     1      -2.960  51.260 -12.550  1.00  0.00     0.088 N 
HETATM   22  C18 UNL     1      -3.469  52.582 -12.923  1.00  0.00     0.272 C 
HETATM   23  C19 UNL     1      -3.895  53.187 -11.592  1.00  0.00     0.032 C 
HETATM   24  C20 UNL     1      -4.117  52.000 -10.663  1.00  0.00     0.032 C 
HETATM   25  C21 UNL     1      -3.894  50.774 -11.531  1.00  0.00     0.272 C 
ENDBRANCH  20  21
ENDBRANCH  19  20
ENDBRANCH  18  19
ENDBRANCH  17  18
ENDBRANCH  15  17
ENDBRANCH  11  15
BRANCH   4  26
HETATM   26  C5  UNL     1       0.276  51.920 -25.340  1.00  0.00    -0.001 A 
HETATM   27  C6  UNL     1       1.629  51.737 -25.687  1.00  0.00     0.050 A 
HETATM   28  C7  UNL     1       2.013  51.697 -27.025  1.00  0.00     0.066 A 
HETATM   29  C8  UNL     1       1.077  51.837 -28.041  1.00  0.00     0.038 A 
HETATM   30  C9  UNL     1      -0.267  52.020 -27.718  1.00  0.00     0.027 A 
HETATM   31  C10 UNL     1      -0.666  52.062 -26.378  1.00  0.00     0.045 A 
HETATM   32 CL1  UNL     1      -2.349  52.296 -26.052  1.00  0.00    -0.083 Cl
BRANCH  28  33
HETATM   33  O1  UNL     1       3.315  51.519 -27.386  1.00  0.00    -0.361 OA
HETATM   34  H6  UNL     1       3.861  51.447 -26.585  1.00  0.00     0.217 HD
ENDBRANCH  28  33
ENDBRANCH   4  26
TORSDOF 8
ENDMDL
MODEL 4
REMARK minimizedAffinity -8.93223763
REMARK  8 active torsions:
REMARK  status: ('A' for Active; 'I' for Inactive)
REMARK    1  A    between atoms: C4_4  and  C5_5 
REMARK    2  A    between atoms: C7_7  and  O1_8 
REMARK    3  A    between atoms: C13_19  and  N3_20 
REMARK    4  A    between atoms: N3_20  and  C14_21 
REMARK    5  A    between atoms: C14_21  and  C15_22 
REMARK    6  A    between atoms: C15_22  and  C16_23 
REMARK    7  A    between atoms: C16_23  and  C17_24 
REMARK    8  A    between atoms: C17_24  and  N4_25 
ROOT
HETATM    1  C1  UNL     1      -2.831  49.255 -22.512  1.00  0.00     0.050 C 
HETATM    2  C2  UNL     1      -1.800  50.323 -22.758  1.00  0.00    -0.032 A 
HETATM    3  C3  UNL     1      -1.311  50.526 -24.060  1.00  0.00     0.021 A 
HETATM    4  C4  UNL     1      -0.360  51.516 -24.321  1.00  0.00    -0.021 A 
HETATM    5  C11 UNL     1       0.090  52.296 -23.252  1.00  0.00     0.045 A 
HETATM    6  C12 UNL     1      -0.390  52.107 -21.959  1.00  0.00     0.076 A 
HETATM    7  N1  UNL     1       0.059  52.861 -20.951  1.00  0.00    -0.296 N 
ATOM      8  H1  UNL     1       0.759  53.584 -21.120  1.00  0.00     0.187 HD
HETATM    9  N2  UNL     1      -0.428  52.657 -19.692  1.00  0.00    -0.275 N 
ATOM     10  H2  UNL     1      -0.095  53.231 -18.918  1.00  0.00     0.189 HD
HETATM   11  C13 UNL     1      -1.346  51.699 -19.474  1.00  0.00     0.172 A 
HETATM   12  N5  UNL     1      -1.816  50.914 -20.452  1.00  0.00    -0.329 N 
ATOM     13  H5  UNL     1      -2.507  50.189 -20.259  1.00  0.00     0.168 HD
HETATM   14  C22 UNL     1      -1.346  51.114 -21.696  1.00  0.00     0.069 A 
ENDROOT
BRANCH  11  15
HETATM   15  N3  UNL     1      -1.789  51.530 -18.169  1.00  0.00    -0.263 NA
HETATM   16  H10 UNL     1      -1.442  52.306 -17.615  1.00  0.00     0.130 HD
BRANCH  15  17
HETATM   17  C14 UNL     1      -1.635  50.206 -17.590  1.00  0.00     0.095 C 
BRANCH  17  18
HETATM   18  C15 UNL     1      -0.192  49.954 -17.145  1.00  0.00     0.016 C 
BRANCH  18  19
HETATM   19  C16 UNL     1      -0.046  49.805 -15.628  1.00  0.00     0.031 C 
BRANCH  19  20
HETATM   20  C17 UNL     1       0.652  51.005 -14.974  1.00  0.00     0.272 C 
BRANCH  20  21
HETATM   21  N4  UNL     1       1.892  51.359 -15.668  1.00  0.00     0.088 N 
HETATM   22  C18 UNL     1       1.876  52.694 -16.271  1.00  0.00     0.272 C 
HETATM   23  C19 UNL     1       3.347  52.982 -16.535  1.00  0.00     0.032 C 
HETATM   24  C20 UNL     1       4.113  52.070 -15.583  1.00  0.00     0.032 C 
HETATM   25  C21 UNL     1       3.043  51.372 -14.762  1.00  0.00     0.272 C 
ENDBRANCH  20  21
ENDBRANCH  19  20
ENDBRANCH  18  19
ENDBRANCH  17  18
ENDBRANCH  15  17
ENDBRANCH  11  15
BRANCH   4  26
HETATM   26  C5  UNL     1       0.159  51.726 -25.678  1.00  0.00    -0.001 A 
HETATM   27  C6  UNL     1       1.533  51.531 -25.922  1.00  0.00     0.050 A 
HETATM   28  C7  UNL     1       2.056  51.720 -27.198  1.00  0.00     0.066 A 
HETATM   29  C8  UNL     1       1.240  52.104 -28.254  1.00  0.00     0.038 A 
HETATM   30  C9  UNL     1      -0.122  52.304 -28.034  1.00  0.00     0.027 A 
HETATM   31  C10 UNL     1      -0.660  52.117 -26.756  1.00  0.00     0.045 A 
HETATM   32 CL1  UNL     1      -2.358  52.386 -26.556  1.00  0.00    -0.083 Cl
BRANCH  28  33
HETATM   33  O1  UNL     1       3.381  51.535 -27.458  1.00  0.00    -0.361 OA
HETATM   34  H6  UNL     1       3.834  51.281 -26.637  1.00  0.00     0.217 HD
ENDBRANCH  28  33
ENDBRANCH   4  26
TORSDOF 8
ENDMDL
MODEL 5
REMARK minimizedAffinity -8.90562153
REMARK  8 active torsions:
REMARK  status: ('A' for Active; 'I' for Inactive)
REMARK    1  A    between atoms: C4_4  and  C5_5 
REMARK    2  A    between atoms: C7_7  and  O1_8 
REMARK    3  A    between atoms: C13_19  and  N3_20 
REMARK    4  A    between atoms: N3_20  and  C14_21 
REMARK    5  A    between atoms: C14_21  and  C15_22 
REMARK    6  A    between atoms: C15_22  and  C16_23 
REMARK    7  A    between atoms: C16_23  and  C17_24 
REMARK    8  A    between atoms: C17_24  and  N4_25 
ROOT
HETATM    1  C1  UNL     1      -3.319  48.581 -23.650  1.00  0.00     0.050 C 
HETATM    2  C2  UNL     1      -2.540  49.814 -24.023  1.00  0.00    -0.032 A 
HETATM    3  C3  UNL     1      -1.772  50.470 -23.046  1.00  0.00     0.021 A 
HETATM    4  C4  UNL     1      -1.031  51.611 -23.365  1.00  0.00    -0.021 A 
HETATM    5  C11 UNL     1      -1.078  52.080 -24.682  1.00  0.00     0.045 A 
HETATM    6  C12 UNL     1      -1.833  51.437 -25.658  1.00  0.00     0.076 A 
HETATM    7  N1  UNL     1      -1.866  51.907 -26.910  1.00  0.00    -0.296 N 
ATOM      8  H1  UNL     1      -1.339  52.743 -27.160  1.00  0.00     0.187 HD
HETATM    9  N2  UNL     1      -2.613  51.258 -27.850  1.00  0.00    -0.275 N 
ATOM     10  H2  UNL     1      -2.641  51.606 -28.807  1.00  0.00     0.189 HD
HETATM   11  C13 UNL     1      -3.311  50.159 -27.512  1.00  0.00     0.172 A 
HETATM   12  N5  UNL     1      -3.314  49.659 -26.270  1.00  0.00    -0.329 N 
ATOM     13  H5  UNL     1      -3.858  48.828 -26.037  1.00  0.00     0.168 HD
HETATM   14  C22 UNL     1      -2.575  50.290 -25.340  1.00  0.00     0.069 A 
ENDROOT
BRANCH  11  15
HETATM   15  N3  UNL     1      -4.063  49.553 -28.510  1.00  0.00    -0.263 NA
HETATM   16  H10 UNL     1      -4.786  50.204 -28.799  1.00  0.00     0.130 HD
BRANCH  15  17
HETATM   17  C14 UNL     1      -4.488  48.184 -28.272  1.00  0.00     0.095 C 
BRANCH  17  18
HETATM   18  C15 UNL     1      -6.014  48.060 -28.285  1.00  0.00     0.016 C 
BRANCH  18  19
HETATM   19  C16 UNL     1      -6.539  47.196 -29.435  1.00  0.00     0.031 C 
BRANCH  19  20
HETATM   20  C17 UNL     1      -6.706  47.979 -30.744  1.00  0.00     0.272 C 
BRANCH  20  21
HETATM   21  N4  UNL     1      -5.990  47.345 -31.853  1.00  0.00     0.088 N 
HETATM   22  C18 UNL     1      -4.880  48.144 -32.377  1.00  0.00     0.272 C 
HETATM   23  C19 UNL     1      -4.065  47.137 -33.179  1.00  0.00     0.032 C 
HETATM   24  C20 UNL     1      -4.440  45.773 -32.610  1.00  0.00     0.032 C 
HETATM   25  C21 UNL     1      -5.380  46.073 -31.455  1.00  0.00     0.272 C 
ENDBRANCH  20  21
ENDBRANCH  19  20
ENDBRANCH  18  19
ENDBRANCH  17  18
ENDBRANCH  15  17
ENDBRANCH  11  15
BRANCH   4  26
HETATM   26  C5  UNL     1      -0.234  52.304 -22.346  1.00  0.00    -0.001 A 
HETATM   27  C6  UNL     1       0.586  53.380 -22.736  1.00  0.00     0.050 A 
HETATM   28  C7  UNL     1       1.353  54.060 -21.792  1.00  0.00     0.066 A 
HETATM   29  C8  UNL     1       1.327  53.692 -20.454  1.00  0.00     0.038 A 
HETATM   30  C9  UNL     1       0.523  52.629 -20.048  1.00  0.00     0.027 A 
HETATM   31  C10 UNL     1      -0.252  51.938 -20.985  1.00  0.00     0.045 A 
HETATM   32 CL1  UNL     1      -1.224  50.626 -20.410  1.00  0.00    -0.083 Cl
BRANCH  28  33
HETATM   33  O1  UNL     1       2.153  55.106 -22.145  1.00  0.00    -0.361 OA
HETATM   34  H6  UNL     1       2.085  55.249 -23.105  1.00  0.00     0.217 HD
ENDBRANCH  28  33
ENDBRANCH   4  26
TORSDOF 8
ENDMDL
MODEL 6
REMARK minimizedAffinity -8.80158234
REMARK  8 active torsions:
REMARK  status: ('A' for Active; 'I' for Inactive)
REMARK    1  A    between atoms: C4_4  and  C5_5 
REMARK    2  A    between atoms: C7_7  and  O1_8 
REMARK    3  A    between atoms: C13_19  and  N3_20 
REMARK    4  A    between atoms: N3_20  and  C14_21 
REMARK    5  A    between atoms: C14_21  and  C15_22 
REMARK    6  A    between atoms: C15_22  and  C16_23 
REMARK    7  A    between atoms: C16_23  and  C17_24 
REMARK    8  A    between atoms: C17_24  and  N4_25 
ROOT
HETATM    1  C1  UNL     1      -3.095  48.484 -23.739  1.00  0.00     0.050 C 
HETATM    2  C2  UNL     1      -2.423  49.794 -24.054  1.00  0.00    -0.032 A 
HETATM    3  C3  UNL     1      -1.719  50.471 -23.043  1.00  0.00     0.021 A 
HETATM    4  C4  UNL     1      -1.077  51.684 -23.308  1.00  0.00    -0.021 A 
HETATM    5  C11 UNL     1      -1.157  52.202 -24.604  1.00  0.00     0.045 A 
HETATM    6  C12 UNL     1      -1.847  51.538 -25.614  1.00  0.00     0.076 A 
HETATM    7  N1  UNL     1      -1.914  52.055 -26.845  1.00  0.00    -0.296 N 
ATOM      8  H1  UNL     1      -1.459  52.944 -27.055  1.00  0.00     0.187 HD
HETATM    9  N2  UNL     1      -2.596  51.385 -27.818  1.00  0.00    -0.275 N 
ATOM     10  H2  UNL     1      -2.648  51.769 -28.760  1.00  0.00     0.189 HD
HETATM   11  C13 UNL     1      -3.200  50.217 -27.532  1.00  0.00     0.172 A 
HETATM   12  N5  UNL     1      -3.167  49.668 -26.312  1.00  0.00    -0.329 N 
ATOM     13  H5  UNL     1      -3.639  48.784 -26.119  1.00  0.00     0.168 HD
HETATM   14  C22 UNL     1      -2.491  50.320 -25.349  1.00  0.00     0.069 A 
ENDROOT
BRANCH  11  15
HETATM   15  N3  UNL     1      -3.892  49.592 -28.561  1.00  0.00    -0.263 NA
HETATM   16  H10 UNL     1      -4.433  50.297 -29.050  1.00  0.00     0.130 HD
BRANCH  15  17
HETATM   17  C14 UNL     1      -4.588  48.360 -28.230  1.00  0.00     0.095 C 
BRANCH  17  18
HETATM   18  C15 UNL     1      -5.660  48.025 -29.271  1.00  0.00     0.016 C 
BRANCH  18  19
HETATM   19  C16 UNL     1      -7.013  47.668 -28.650  1.00  0.00     0.031 C 
BRANCH  19  20
HETATM   20  C17 UNL     1      -8.178  48.455 -29.263  1.00  0.00     0.272 C 
BRANCH  20  21
HETATM   21  N4  UNL     1      -9.129  47.576 -29.947  1.00  0.00     0.088 N 
HETATM   22  C18 UNL     1     -10.529  47.834 -29.606  1.00  0.00     0.272 C 
HETATM   23  C19 UNL     1     -11.301  47.131 -30.715  1.00  0.00     0.032 C 
HETATM   24  C20 UNL     1     -10.318  47.008 -31.874  1.00  0.00     0.032 C 
HETATM   25  C21 UNL     1      -9.064  47.726 -31.403  1.00  0.00     0.272 C 
ENDBRANCH  20  21
ENDBRANCH  19  20
ENDBRANCH  18  19
ENDBRANCH  17  18
ENDBRANCH  15  17
ENDBRANCH  11  15
BRANCH   4  26
HETATM   26  C5  UNL     1      -0.348  52.399 -22.254  1.00  0.00    -0.001 A 
HETATM   27  C6  UNL     1       0.639  53.335 -22.620  1.00  0.00     0.050 A 
HETATM   28  C7  UNL     1       1.346  54.031 -21.643  1.00  0.00     0.066 A 
HETATM   29  C8  UNL     1       1.097  53.819 -20.294  1.00  0.00     0.038 A 
HETATM   30  C9  UNL     1       0.124  52.897 -19.911  1.00  0.00     0.027 A 
HETATM   31  C10 UNL     1      -0.594  52.191 -20.881  1.00  0.00     0.045 A 
HETATM   32 CL1  UNL     1      -1.782  51.059 -20.333  1.00  0.00    -0.083 Cl
BRANCH  28  33
HETATM   33  O1  UNL     1       2.305  54.943 -21.973  1.00  0.00    -0.361 OA
HETATM   34  H6  UNL     1       2.384  54.985 -22.941  1.00  0.00     0.217 HD
ENDBRANCH  28  33
ENDBRANCH   4  26
TORSDOF 8
ENDMDL
MODEL 7
REMARK minimizedAffinity -8.66337395
REMARK  8 active torsions:
REMARK  status: ('A' for Active; 'I' for Inactive)
REMARK    1  A    between atoms: C4_4  and  C5_5 
REMARK    2  A    between atoms: C7_7  and  O1_8 
REMARK    3  A    between atoms: C13_19  and  N3_20 
REMARK    4  A    between atoms: N3_20  and  C14_21 
REMARK    5  A    between atoms: C14_21  and  C15_22 
REMARK    6  A    between atoms: C15_22  and  C16_23 
REMARK    7  A    between atoms: C16_23  and  C17_24 
REMARK    8  A    between atoms: C17_24  and  N4_25 
ROOT
HETATM    1  C1  UNL     1      -1.771  50.215 -21.217  1.00  0.00     0.050 C 
HETATM    2  C2  UNL     1      -0.833  51.181 -21.891  1.00  0.00    -0.032 A 
HETATM    3  C3  UNL     1      -0.697  51.152 -23.289  1.00  0.00     0.021 A 
HETATM    4  C4  UNL     1       0.158  52.042 -23.944  1.00  0.00    -0.021 A 
HETATM    5  C11 UNL     1       0.873  52.959 -23.168  1.00  0.00     0.045 A 
HETATM    6  C12 UNL     1       0.743  53.001 -21.783  1.00  0.00     0.076 A 
HETATM    7  N1  UNL     1       1.441  53.884 -21.061  1.00  0.00    -0.296 N 
ATOM      8  H1  UNL     1       2.077  54.536 -21.520  1.00  0.00     0.187 HD
HETATM    9  N2  UNL     1       1.295  53.905 -19.705  1.00  0.00    -0.275 N 
ATOM     10  H2  UNL     1       1.820  54.578 -19.147  1.00  0.00     0.189 HD
HETATM   11  C13 UNL     1       0.461  53.038 -19.105  1.00  0.00     0.172 A 
HETATM   12  N5  UNL     1      -0.250  52.131 -19.787  1.00  0.00    -0.329 N 
ATOM     13  H5  UNL     1      -0.871  51.479 -19.308  1.00  0.00     0.168 HD
HETATM   14  C22 UNL     1      -0.116  52.108 -21.125  1.00  0.00     0.069 A 
ENDROOT
BRANCH  11  15
HETATM   15  N3  UNL     1       0.369  53.099 -17.721  1.00  0.00    -0.263 NA
HETATM   16  H10 UNL     1       0.174  54.060 -17.460  1.00  0.00     0.130 HD
BRANCH  15  17
HETATM   17  C14 UNL     1       1.411  52.425 -16.964  1.00  0.00     0.095 C 
BRANCH  17  18
HETATM   18  C15 UNL     1       0.935  51.067 -16.442  1.00  0.00     0.016 C 
BRANCH  18  19
HETATM   19  C16 UNL     1      -0.017  51.179 -15.248  1.00  0.00     0.031 C 
BRANCH  19  20
HETATM   20  C17 UNL     1       0.513  52.106 -14.146  1.00  0.00     0.272 C 
BRANCH  20  21
HETATM   21  N4  UNL     1      -0.287  52.011 -12.923  1.00  0.00     0.088 N 
HETATM   22  C18 UNL     1      -0.057  53.103 -11.976  1.00  0.00     0.272 C 
HETATM   23  C19 UNL     1      -1.257  53.023 -11.042  1.00  0.00     0.032 C 
HETATM   24  C20 UNL     1      -2.331  52.283 -11.830  1.00  0.00     0.032 C 
HETATM   25  C21 UNL     1      -1.725  52.057 -13.204  1.00  0.00     0.272 C 
ENDBRANCH  20  21
ENDBRANCH  19  20
ENDBRANCH  18  19
ENDBRANCH  17  18
ENDBRANCH  15  17
ENDBRANCH  11  15
BRANCH   4  26
HETATM   26  C5  UNL     1       0.311  52.009 -25.404  1.00  0.00    -0.001 A 
HETATM   27  C6  UNL     1       1.589  51.792 -25.953  1.00  0.00     0.050 A 
HETATM   28  C7  UNL     1       1.765  51.753 -27.334  1.00  0.00     0.066 A 
HETATM   29  C8  UNL     1       0.691  51.928 -28.196  1.00  0.00     0.038 A 
HETATM   30  C9  UNL     1      -0.582  52.146 -27.672  1.00  0.00     0.027 A 
HETATM   31  C10 UNL     1      -0.774  52.187 -26.287  1.00  0.00     0.045 A 
HETATM   32 CL1  UNL     1      -2.381  52.465 -25.709  1.00  0.00    -0.083 Cl
BRANCH  28  33
HETATM   33  O1  UNL     1       2.993  51.542 -27.888  1.00  0.00    -0.361 OA
HETATM   34  H6  UNL     1       3.651  51.446 -27.179  1.00  0.00     0.217 HD
ENDBRANCH  28  33
ENDBRANCH   4  26
TORSDOF 8
ENDMDL
MODEL 8
REMARK minimizedAffinity -8.62757206
REMARK  8 active torsions:
REMARK  status: ('A' for Active; 'I' for Inactive)
REMARK    1  A    between atoms: C4_4  and  C5_5 
REMARK    2  A    between atoms: C7_7  and  O1_8 
REMARK    3  A    between atoms: C13_19  and  N3_20 
REMARK    4  A    between atoms: N3_20  and  C14_21 
REMARK    5  A    between atoms: C14_21  and  C15_22 
REMARK    6  A    between atoms: C15_22  and  C16_23 
REMARK    7  A    between atoms: C16_23  and  C17_24 
REMARK    8  A    between atoms: C17_24  and  N4_25 
ROOT
HETATM    1  C1  UNL     1      -1.379  50.148 -21.603  1.00  0.00     0.050 C 
HETATM    2  C2  UNL     1      -0.610  51.265 -22.256  1.00  0.00    -0.032 A 
HETATM    3  C3  UNL     1      -0.589  51.364 -23.657  1.00  0.00     0.021 A 
HETATM    4  C4  UNL     1       0.108  52.396 -24.292  1.00  0.00    -0.021 A 
HETATM    5  C11 UNL     1       0.783  53.323 -23.493  1.00  0.00     0.045 A 
HETATM    6  C12 UNL     1       0.766  53.238 -22.104  1.00  0.00     0.076 A 
HETATM    7  N1  UNL     1       1.422  54.134 -21.360  1.00  0.00    -0.296 N 
ATOM      8  H1  UNL     1       1.944  54.889 -21.805  1.00  0.00     0.187 HD
HETATM    9  N2  UNL     1       1.390  54.029 -20.000  1.00  0.00    -0.275 N 
ATOM     10  H2  UNL     1       1.883  54.711 -19.424  1.00  0.00     0.189 HD
HETATM   11  C13 UNL     1       0.706  53.027 -19.419  1.00  0.00     0.172 A 
HETATM   12  N5  UNL     1       0.042  52.103 -20.125  1.00  0.00    -0.329 N 
ATOM     13  H5  UNL     1      -0.463  51.348 -19.661  1.00  0.00     0.168 HD
HETATM   14  C22 UNL     1       0.065  52.204 -21.466  1.00  0.00     0.069 A 
ENDROOT
BRANCH  11  15
HETATM   15  N3  UNL     1       0.724  52.966 -18.032  1.00  0.00    -0.263 NA
HETATM   16  H10 UNL     1       1.303  53.726 -17.691  1.00  0.00     0.130 HD
BRANCH  15  17
HETATM   17  C14 UNL     1       0.958  51.662 -17.435  1.00  0.00     0.095 C 
BRANCH  17  18
HETATM   18  C15 UNL     1       1.844  51.765 -16.191  1.00  0.00     0.016 C 
BRANCH  18  19
HETATM   19  C16 UNL     1       1.242  51.078 -14.963  1.00  0.00     0.031 C 
BRANCH  19  20
HETATM   20  C17 UNL     1       0.424  52.034 -14.084  1.00  0.00     0.272 C 
BRANCH  20  21
HETATM   21  N4  UNL     1      -0.766  51.383 -13.533  1.00  0.00     0.088 N 
HETATM   22  C18 UNL     1      -1.523  52.220 -12.600  1.00  0.00     0.272 C 
HETATM   23  C19 UNL     1      -2.874  51.523 -12.513  1.00  0.00     0.032 C 
HETATM   24  C20 UNL     1      -2.980  50.690 -13.786  1.00  0.00     0.032 C 
HETATM   25  C21 UNL     1      -1.728  51.023 -14.578  1.00  0.00     0.272 C 
ENDBRANCH  20  21
ENDBRANCH  19  20
ENDBRANCH  18  19
ENDBRANCH  17  18
ENDBRANCH  15  17
ENDBRANCH  11  15
BRANCH   4  26
HETATM   26  C5  UNL     1       0.140  52.498 -25.756  1.00  0.00    -0.001 A 
HETATM   27  C6  UNL     1      -0.868  53.231 -26.412  1.00  0.00     0.050 A 
HETATM   28  C7  UNL     1      -0.864  53.348 -27.800  1.00  0.00     0.066 A 
HETATM   29  C8  UNL     1       0.128  52.748 -28.564  1.00  0.00     0.038 A 
HETATM   30  C9  UNL     1       1.134  52.017 -27.933  1.00  0.00     0.027 A 
HETATM   31  C10 UNL     1       1.142  51.892 -26.540  1.00  0.00     0.045 A 
HETATM   32 CL1  UNL     1       2.419  50.967 -25.827  1.00  0.00    -0.083 Cl
BRANCH  28  33
HETATM   33  O1  UNL     1      -1.827  54.054 -28.456  1.00  0.00    -0.361 OA
HETATM   34  H6  UNL     1      -2.459  54.410 -27.809  1.00  0.00     0.217 HD
ENDBRANCH  28  33
ENDBRANCH   4  26
TORSDOF 8
ENDMDL
MODEL 9
REMARK minimizedAffinity -8.51784039
REMARK  8 active torsions:
REMARK  status: ('A' for Active; 'I' for Inactive)
REMARK    1  A    between atoms: C4_4  and  C5_5 
REMARK    2  A    between atoms: C7_7  and  O1_8 
REMARK    3  A    between atoms: C13_19  and  N3_20 
REMARK    4  A    between atoms: N3_20  and  C14_21 
REMARK    5  A    between atoms: C14_21  and  C15_22 
REMARK    6  A    between atoms: C15_22  and  C16_23 
REMARK    7  A    between atoms: C16_23  and  C17_24 
REMARK    8  A    between atoms: C17_24  and  N4_25 
ROOT
HETATM    1  C1  UNL     1      -2.310  49.107 -22.529  1.00  0.00     0.050 C 
HETATM    2  C2  UNL     1      -1.419  50.284 -22.823  1.00  0.00    -0.032 A 
HETATM    3  C3  UNL     1      -1.206  50.675 -24.156  1.00  0.00     0.021 A 
HETATM    4  C4  UNL     1      -0.392  51.770 -24.460  1.00  0.00    -0.021 A 
HETATM    5  C11 UNL     1       0.205  52.460 -23.401  1.00  0.00     0.045 A 
HETATM    6  C12 UNL     1      -0.002  52.085 -22.077  1.00  0.00     0.076 A 
HETATM    7  N1  UNL     1       0.583  52.758 -21.080  1.00  0.00    -0.296 N 
ATOM      8  H1  UNL     1       1.188  53.554 -21.282  1.00  0.00     0.187 HD
HETATM    9  N2  UNL     1       0.365  52.370 -19.790  1.00  0.00    -0.275 N 
ATOM     10  H2  UNL     1       0.802  52.880 -19.024  1.00  0.00     0.189 HD
HETATM   11  C13 UNL     1      -0.428  51.315 -19.531  1.00  0.00     0.172 A 
HETATM   12  N5  UNL     1      -1.026  50.607 -20.497  1.00  0.00    -0.329 N 
ATOM     13  H5  UNL     1      -1.617  49.806 -20.275  1.00  0.00     0.168 HD
HETATM   14  C22 UNL     1      -0.820  50.987 -21.771  1.00  0.00     0.069 A 
ENDROOT
BRANCH  11  15
HETATM   15  N3  UNL     1      -0.598  50.961 -18.199  1.00  0.00    -0.263 NA
HETATM   16  H10 UNL     1      -0.111  51.643 -17.627  1.00  0.00     0.130 HD
BRANCH  15  17
HETATM   17  C14 UNL     1      -0.382  49.565 -17.858  1.00  0.00     0.095 C 
BRANCH  17  18
HETATM   18  C15 UNL     1       0.243  49.416 -16.469  1.00  0.00     0.016 C 
BRANCH  18  19
HETATM   19  C16 UNL     1      -0.462  50.253 -15.398  1.00  0.00     0.031 C 
BRANCH  19  20
HETATM   20  C17 UNL     1       0.463  51.288 -14.743  1.00  0.00     0.272 C 
BRANCH  20  21
HETATM   21  N4  UNL     1       1.711  51.454 -15.490  1.00  0.00     0.088 N 
HETATM   22  C18 UNL     1       1.780  52.695 -16.264  1.00  0.00     0.272 C 
HETATM   23  C19 UNL     1       3.263  52.836 -16.578  1.00  0.00     0.032 C 
HETATM   24  C20 UNL     1       3.979  52.001 -15.523  1.00  0.00     0.032 C 
HETATM   25  C21 UNL     1       2.878  51.499 -14.605  1.00  0.00     0.272 C 
ENDBRANCH  20  21
ENDBRANCH  19  20
ENDBRANCH  18  19
ENDBRANCH  17  18
ENDBRANCH  15  17
ENDBRANCH  11  15
BRANCH   4  26
HETATM   26  C5  UNL     1      -0.160  52.177 -25.851  1.00  0.00    -0.001 A 
HETATM   27  C6  UNL     1      -1.132  52.959 -26.504  1.00  0.00     0.050 A 
HETATM   28  C7  UNL     1      -0.940  53.364 -27.823  1.00  0.00     0.066 A 
HETATM   29  C8  UNL     1       0.206  53.006 -28.520  1.00  0.00     0.038 A 
HETATM   30  C9  UNL     1       1.179  52.230 -27.891  1.00  0.00     0.027 A 
HETATM   31  C10 UNL     1       1.000  51.818 -26.567  1.00  0.00     0.045 A 
HETATM   32 CL1  UNL     1       2.247  50.855 -25.852  1.00  0.00    -0.083 Cl
BRANCH  28  33
HETATM   33  O1  UNL     1      -1.865  54.123 -28.476  1.00  0.00    -0.361 OA
HETATM   34  H6  UNL     1      -2.616  54.291 -27.881  1.00  0.00     0.217 HD
ENDBRANCH  28  33
ENDBRANCH   4  26
TORSDOF 8
ENDMDL
