MODEL 1
REMARK minimizedAffinity -10.2926111
REMARK  6 active torsions:
REMARK  status: ('A' for Active; 'I' for Inactive)
REMARK    1  A    between atoms: N2_5  and  C4_6 
REMARK    2  A    between atoms: C7_9  and  N3_10 
REMARK    3  A    between atoms: N3_10  and  C8_11 
REMARK    4  A    between atoms: C11_18  and  N6_19 
REMARK    5  A    between atoms: N6_19  and  C12_20 
REMARK    6  A    between atoms: N7_26  and  C18_27 
ROOT
HETATM    1  C8  UNL     1      -3.600  49.273 -26.662  1.00  0.00     0.684 A 
HETATM    2  N4  UNL     1      -4.476  49.638 -25.703  1.00  0.00    -0.199 N 
ATOM      3  H4  UNL     1      -5.439  49.304 -25.734  1.00  0.00     0.183 HD
HETATM    4  C9  UNL     1      -4.069  50.451 -24.696  1.00  0.00     0.140 A 
HETATM    5  C10 UNL     1      -2.759  50.897 -24.671  1.00  0.00     0.110 A 
HETATM    6  N5  UNL     1      -2.062  51.683 -23.799  1.00  0.00    -0.186 N 
ATOM      7  H5  UNL     1      -2.423  52.137 -22.960  1.00  0.00     0.184 HD
HETATM    8  C11 UNL     1      -0.827  51.736 -24.259  1.00  0.00     0.687 A 
HETATM    9  N7  UNL     1      -0.735  51.064 -25.476  1.00  0.00    -0.160 N 
HETATM   10  C23 UNL     1      -1.955  50.476 -25.709  1.00  0.00     0.168 A 
HETATM   11  N8  UNL     1      -2.311  49.666 -26.717  1.00  0.00    -0.173 N 
ATOM     12  H8  UNL     1      -1.669  49.375 -27.454  1.00  0.00     0.186 HD
ENDROOT
BRANCH   1  13
HETATM   13  N3  UNL     1      -3.978  48.431 -27.707  1.00  0.00    -0.192 N 
HETATM   14  H10 UNL     1      -3.149  48.023 -28.112  1.00  0.00     0.184 HD
BRANCH  13  15
HETATM   15  C7  UNL     1      -5.204  48.048 -28.256  1.00  0.00     0.049 A 
HETATM   16  C6  UNL     1      -6.187  47.528 -27.408  1.00  0.00     0.032 A 
HETATM   17  C5  UNL     1      -7.440  47.130 -27.898  1.00  0.00     0.031 A 
HETATM   18  C4  UNL     1      -7.773  47.240 -29.255  1.00  0.00     0.030 A 
HETATM   19  C25 UNL     1      -6.776  47.741 -30.101  1.00  0.00     0.031 A 
HETATM   20  C24 UNL     1      -5.521  48.142 -29.610  1.00  0.00     0.032 A 
BRANCH  18  21
HETATM   21  N2  UNL     1      -9.036  46.822 -29.703  1.00  0.00    -0.378 N 
HETATM   22  C3  UNL     1      -9.926  47.833 -30.310  1.00  0.00     0.153 C 
HETATM   23  C2  UNL     1     -11.172  47.166 -30.937  1.00  0.00     0.291 C 
HETATM   24  N1  UNL     1     -11.942  46.285 -30.031  1.00  0.00     0.087 N 
HETATM   25  C1  UNL     1     -12.662  47.050 -29.016  1.00  0.00     0.310 C 
HETATM   26  C27 UNL     1     -11.009  45.311 -29.421  1.00  0.00     0.291 C 
HETATM   27  C26 UNL     1      -9.738  45.910 -28.768  1.00  0.00     0.153 C 
ENDBRANCH  18  21
ENDBRANCH  13  15
ENDBRANCH   1  13
BRANCH   9  28
HETATM   28  C18 UNL     1       0.438  50.968 -26.316  1.00  0.00     0.109 C 
HETATM   29  C19 UNL     1       0.243  51.568 -27.710  1.00  0.00     0.026 C 
HETATM   30  C20 UNL     1       1.654  51.837 -28.238  1.00  0.00     0.002 C 
HETATM   31  C21 UNL     1       2.610  51.593 -27.070  1.00  0.00     0.002 C 
HETATM   32  C22 UNL     1       1.732  51.629 -25.826  1.00  0.00     0.026 C 
ENDBRANCH   9  28
BRANCH   8  33
HETATM   33  N6  UNL     1       0.263  52.308 -23.687  1.00  0.00    -0.191 N 
HETATM   34  H12 UNL     1       1.112  52.429 -24.226  1.00  0.00     0.184 HD
BRANCH  33  35
HETATM   35  C12 UNL     1       0.469  52.623 -22.325  1.00  0.00     0.049 A 
HETATM   36  C13 UNL     1       1.072  53.803 -21.874  1.00  0.00     0.030 A 
HETATM   37  C14 UNL     1       1.240  54.056 -20.508  1.00  0.00     0.002 A 
HETATM   38  C15 UNL     1       0.803  53.131 -19.564  1.00  0.00     0.000 A 
HETATM   39  C16 UNL     1       0.204  51.949 -19.987  1.00  0.00     0.002 A 
HETATM   40  C17 UNL     1       0.042  51.699 -21.353  1.00  0.00     0.030 A 
ENDBRANCH  33  35
ENDBRANCH   8  33
TORSDOF 6
ENDMDL
MODEL 2
REMARK minimizedAffinity -10.1164675
REMARK  6 active torsions:
REMARK  status: ('A' for Active; 'I' for Inactive)
REMARK    1  A    between atoms: N2_5  and  C4_6 
REMARK    2  A    between atoms: C7_9  and  N3_10 
REMARK    3  A    between atoms: N3_10  and  C8_11 
REMARK    4  A    between atoms: C11_18  and  N6_19 
REMARK    5  A    between atoms: N6_19  and  C12_20 
REMARK    6  A    between atoms: N7_26  and  C18_27 
ROOT
HETATM    1  C8  UNL     1      -3.648  49.155 -26.676  1.00  0.00     0.684 A 
HETATM    2  N4  UNL     1      -4.524  49.496 -25.709  1.00  0.00    -0.199 N 
ATOM      3  H4  UNL     1      -5.482  49.147 -25.739  1.00  0.00     0.183 HD
HETATM    4  C9  UNL     1      -4.125  50.305 -24.696  1.00  0.00     0.140 A 
HETATM    5  C10 UNL     1      -2.822  50.771 -24.672  1.00  0.00     0.110 A 
HETATM    6  N5  UNL     1      -2.133  51.558 -23.795  1.00  0.00    -0.186 N 
ATOM      7  H5  UNL     1      -2.498  51.998 -22.950  1.00  0.00     0.184 HD
HETATM    8  C11 UNL     1      -0.901  51.635 -24.261  1.00  0.00     0.687 A 
HETATM    9  N7  UNL     1      -0.805  50.978 -25.485  1.00  0.00    -0.160 N 
HETATM   10  C23 UNL     1      -2.017  50.373 -25.718  1.00  0.00     0.168 A 
HETATM   11  N8  UNL     1      -2.365  49.568 -26.733  1.00  0.00    -0.173 N 
ATOM     12  H8  UNL     1      -1.723  49.295 -27.476  1.00  0.00     0.186 HD
ENDROOT
BRANCH   1  13
HETATM   13  N3  UNL     1      -4.018  48.318 -27.728  1.00  0.00    -0.192 N 
HETATM   14  H10 UNL     1      -3.194  47.852 -28.078  1.00  0.00     0.184 HD
BRANCH  13  15
HETATM   15  C7  UNL     1      -5.232  47.999 -28.341  1.00  0.00     0.049 A 
HETATM   16  C6  UNL     1      -5.347  48.158 -29.726  1.00  0.00     0.032 A 
HETATM   17  C5  UNL     1      -6.538  47.850 -30.401  1.00  0.00     0.031 A 
HETATM   18  C4  UNL     1      -7.665  47.361 -29.727  1.00  0.00     0.030 A 
HETATM   19  C25 UNL     1      -7.549  47.225 -28.339  1.00  0.00     0.031 A 
HETATM   20  C24 UNL     1      -6.355  47.532 -27.662  1.00  0.00     0.032 A 
BRANCH  18  21
HETATM   21  N2  UNL     1      -8.838  47.073 -30.442  1.00  0.00    -0.378 N 
HETATM   22  C3  UNL     1      -9.912  46.335 -29.745  1.00  0.00     0.153 C 
HETATM   23  C2  UNL     1     -11.200  46.296 -30.600  1.00  0.00     0.291 C 
HETATM   24  N1  UNL     1     -11.032  45.778 -31.975  1.00  0.00     0.087 N 
HETATM   25  C1  UNL     1     -10.790  44.337 -31.983  1.00  0.00     0.310 C 
HETATM   26  C27 UNL     1      -9.929  46.520 -32.624  1.00  0.00     0.291 C 
HETATM   27  C26 UNL     1      -8.602  46.596 -31.826  1.00  0.00     0.153 C 
ENDBRANCH  18  21
ENDBRANCH  13  15
ENDBRANCH   1  13
BRANCH   9  28
HETATM   28  C18 UNL     1       0.366  50.909 -26.332  1.00  0.00     0.109 C 
HETATM   29  C19 UNL     1       0.179  51.589 -27.689  1.00  0.00     0.026 C 
HETATM   30  C20 UNL     1       1.594  51.863 -28.204  1.00  0.00     0.002 C 
HETATM   31  C21 UNL     1       2.547  51.538 -27.054  1.00  0.00     0.002 C 
HETATM   32  C22 UNL     1       1.671  51.519 -25.808  1.00  0.00     0.026 C 
ENDBRANCH   9  28
BRANCH   8  33
HETATM   33  N6  UNL     1       0.183  52.218 -23.688  1.00  0.00    -0.191 N 
HETATM   34  H12 UNL     1       1.023  52.369 -24.233  1.00  0.00     0.184 HD
BRANCH  33  35
HETATM   35  C12 UNL     1       0.397  52.508 -22.322  1.00  0.00     0.049 A 
HETATM   36  C13 UNL     1      -0.006  51.678 -21.270  1.00  0.00     0.030 A 
HETATM   37  C14 UNL     1       0.244  52.022 -19.936  1.00  0.00     0.002 A 
HETATM   38  C15 UNL     1       0.907  53.207 -19.630  1.00  0.00     0.000 A 
HETATM   39  C16 UNL     1       1.315  54.051 -20.657  1.00  0.00     0.002 A 
HETATM   40  C17 UNL     1       1.059  53.704 -21.988  1.00  0.00     0.030 A 
ENDBRANCH  33  35
ENDBRANCH   8  33
TORSDOF 6
ENDMDL
MODEL 3
REMARK minimizedAffinity -9.90137672
REMARK  6 active torsions:
REMARK  status: ('A' for Active; 'I' for Inactive)
REMARK    1  A    between atoms: N2_5  and  C4_6 
REMARK    2  A    between atoms: C7_9  and  N3_10 
REMARK    3  A    between atoms: N3_10  and  C8_11 
REMARK    4  A    between atoms: C11_18  and  N6_19 
REMARK    5  A    between atoms: N6_19  and  C12_20 
REMARK    6  A    between atoms: N7_26  and  C18_27 
ROOT
HETATM    1  C8  UNL     1       0.630  52.899 -19.149  1.00  0.00     0.684 A 
HETATM    2  N4  UNL     1       1.382  53.887 -19.676  1.00  0.00    -0.199 N 
ATOM      3  H4  UNL     1       1.888  54.527 -19.065  1.00  0.00     0.183 HD
HETATM    4  C9  UNL     1       1.461  54.025 -21.023  1.00  0.00     0.140 A 
HETATM    5  C10 UNL     1       0.764  53.149 -21.838  1.00  0.00     0.110 A 
HETATM    6  N5  UNL     1       0.667  53.019 -23.192  1.00  0.00    -0.186 N 
ATOM      7  H5  UNL     1       1.106  53.611 -23.898  1.00  0.00     0.184 HD
HETATM    8  C11 UNL     1      -0.108  51.973 -23.407  1.00  0.00     0.687 A 
HETATM    9  N7  UNL     1      -0.591  51.475 -22.199  1.00  0.00    -0.160 N 
HETATM   10  C23 UNL     1       0.015  52.188 -21.193  1.00  0.00     0.168 A 
HETATM   11  N8  UNL     1      -0.084  52.008 -19.867  1.00  0.00    -0.173 N 
ATOM     12  H8  UNL     1      -0.645  51.270 -19.443  1.00  0.00     0.186 HD
ENDROOT
BRANCH   1  13
HETATM   13  N3  UNL     1       0.532  52.719 -17.770  1.00  0.00    -0.192 N 
HETATM   14  H10 UNL     1       0.273  53.597 -17.344  1.00  0.00     0.184 HD
BRANCH  13  15
HETATM   15  C7  UNL     1       0.689  51.626 -16.914  1.00  0.00     0.049 A 
HETATM   16  C6  UNL     1       1.449  51.788 -15.750  1.00  0.00     0.032 A 
HETATM   17  C5  UNL     1       1.639  50.730 -14.848  1.00  0.00     0.031 A 
HETATM   18  C4  UNL     1       1.074  49.465 -15.062  1.00  0.00     0.030 A 
HETATM   19  C25 UNL     1       0.334  49.305 -16.239  1.00  0.00     0.031 A 
HETATM   20  C24 UNL     1       0.141  50.365 -17.143  1.00  0.00     0.032 A 
BRANCH  18  21
HETATM   21  N2  UNL     1       1.298  48.433 -14.136  1.00  0.00    -0.378 N 
HETATM   22  C3  UNL     1       2.655  48.296 -13.568  1.00  0.00     0.153 C 
HETATM   23  C2  UNL     1       2.669  47.261 -12.418  1.00  0.00     0.291 C 
HETATM   24  N1  UNL     1       2.119  45.930 -12.757  1.00  0.00     0.087 N 
HETATM   25  C1  UNL     1       3.007  45.190 -13.651  1.00  0.00     0.310 C 
HETATM   26  C27 UNL     1       0.777  46.117 -13.352  1.00  0.00     0.291 C 
HETATM   27  C26 UNL     1       0.688  47.137 -14.515  1.00  0.00     0.153 C 
ENDBRANCH  18  21
ENDBRANCH  13  15
ENDBRANCH   1  13
BRANCH   9  28
HETATM   28  C18 UNL     1      -1.524  50.382 -22.034  1.00  0.00     0.109 C 
HETATM   29  C19 UNL     1      -2.218  49.970 -23.334  1.00  0.00     0.026 C 
HETATM   30  C20 UNL     1      -2.734  48.550 -23.086  1.00  0.00     0.002 C 
HETATM   31  C21 UNL     1      -2.147  48.100 -21.748  1.00  0.00     0.002 C 
HETATM   32  C22 UNL     1      -0.990  49.054 -21.484  1.00  0.00     0.026 C 
ENDBRANCH   9  28
BRANCH   8  33
HETATM   33  N6  UNL     1      -0.419  51.380 -24.587  1.00  0.00    -0.191 N 
HETATM   34  H12 UNL     1      -1.117  50.647 -24.617  1.00  0.00     0.184 HD
BRANCH  33  35
HETATM   35  C12 UNL     1       0.241  51.513 -25.830  1.00  0.00     0.049 A 
HETATM   36  C13 UNL     1      -0.415  51.689 -27.053  1.00  0.00     0.030 A 
HETATM   37  C14 UNL     1       0.300  51.821 -28.249  1.00  0.00     0.002 A 
HETATM   38  C15 UNL     1       1.691  51.781 -28.243  1.00  0.00     0.000 A 
HETATM   39  C16 UNL     1       2.367  51.603 -27.040  1.00  0.00     0.002 A 
HETATM   40  C17 UNL     1       1.647  51.468 -25.848  1.00  0.00     0.030 A 
ENDBRANCH  33  35
ENDBRANCH   8  33
TORSDOF 6
ENDMDL
MODEL 4
REMARK minimizedAffinity -9.77942085
REMARK  6 active torsions:
REMARK  status: ('A' for Active; 'I' for Inactive)
REMARK    1  A    between atoms: N2_5  and  C4_6 
REMARK    2  A    between atoms: C7_9  and  N3_10 
REMARK    3  A    between atoms: N3_10  and  C8_11 
REMARK    4  A    between atoms: C11_18  and  N6_19 
REMARK    5  A    between atoms: N6_19  and  C12_20 
REMARK    6  A    between atoms: N7_26  and  C18_27 
ROOT
HETATM    1  C8  UNL     1       0.283  52.415 -19.021  1.00  0.00     0.684 A 
HETATM    2  N4  UNL     1       1.130  53.395 -19.398  1.00  0.00    -0.199 N 
ATOM      3  H4  UNL     1       1.621  53.947 -18.696  1.00  0.00     0.183 HD
HETATM    4  C9  UNL     1       1.325  53.642 -20.718  1.00  0.00     0.140 A 
HETATM    5  C10 UNL     1       0.648  52.885 -21.658  1.00  0.00     0.110 A 
HETATM    6  N5  UNL     1       0.654  52.877 -23.023  1.00  0.00    -0.186 N 
ATOM      7  H5  UNL     1       1.180  53.499 -23.637  1.00  0.00     0.184 HD
HETATM    8  C11 UNL     1      -0.159  51.904 -23.388  1.00  0.00     0.687 A 
HETATM    9  N7  UNL     1      -0.765  51.336 -22.270  1.00  0.00    -0.160 N 
HETATM   10  C23 UNL     1      -0.204  51.921 -21.161  1.00  0.00     0.168 A 
HETATM   11  N8  UNL     1      -0.419  51.636 -19.868  1.00  0.00    -0.173 N 
ATOM     12  H8  UNL     1      -1.054  50.901 -19.556  1.00  0.00     0.186 HD
ENDROOT
BRANCH   1  13
HETATM   13  N3  UNL     1       0.064  52.124 -17.675  1.00  0.00    -0.192 N 
HETATM   14  H10 UNL     1      -0.927  52.005 -17.525  1.00  0.00     0.184 HD
BRANCH  13  15
HETATM   15  C7  UNL     1       0.895  51.955 -16.565  1.00  0.00     0.049 A 
HETATM   16  C6  UNL     1       0.333  51.496 -15.369  1.00  0.00     0.032 A 
HETATM   17  C5  UNL     1       1.116  51.299 -14.221  1.00  0.00     0.031 A 
HETATM   18  C4  UNL     1       2.496  51.545 -14.216  1.00  0.00     0.030 A 
HETATM   19  C25 UNL     1       3.047  52.024 -15.410  1.00  0.00     0.031 A 
HETATM   20  C24 UNL     1       2.264  52.219 -16.561  1.00  0.00     0.032 A 
BRANCH  18  21
HETATM   21  N2  UNL     1       3.239  51.342 -13.042  1.00  0.00    -0.378 N 
HETATM   22  C3  UNL     1       3.741  49.981 -12.766  1.00  0.00     0.153 C 
HETATM   23  C2  UNL     1       4.710  49.984 -11.560  1.00  0.00     0.291 C 
HETATM   24  N1  UNL     1       4.178  50.594 -10.322  1.00  0.00     0.087 N 
HETATM   25  C1  UNL     1       3.154  49.755  -9.703  1.00  0.00     0.310 C 
HETATM   26  C27 UNL     1       3.657  51.940 -10.650  1.00  0.00     0.291 C 
HETATM   27  C26 UNL     1       2.674  52.012 -11.846  1.00  0.00     0.153 C 
ENDBRANCH  18  21
ENDBRANCH  13  15
ENDBRANCH   1  13
BRANCH   9  28
HETATM   28  C18 UNL     1      -1.769  50.294 -22.276  1.00  0.00     0.109 C 
HETATM   29  C19 UNL     1      -2.370  50.032 -23.658  1.00  0.00     0.026 C 
HETATM   30  C20 UNL     1      -2.984  48.632 -23.574  1.00  0.00     0.002 C 
HETATM   31  C21 UNL     1      -2.541  48.041 -22.236  1.00  0.00     0.002 C 
HETATM   32  C22 UNL     1      -1.359  48.896 -21.798  1.00  0.00     0.026 C 
ENDBRANCH   9  28
BRANCH   8  33
HETATM   33  N6  UNL     1      -0.407  51.435 -24.638  1.00  0.00    -0.191 N 
HETATM   34  H12 UNL     1      -1.185  50.807 -24.797  1.00  0.00     0.184 HD
BRANCH  33  35
HETATM   35  C12 UNL     1       0.402  51.556 -25.790  1.00  0.00     0.049 A 
HETATM   36  C13 UNL     1       1.799  51.489 -25.781  1.00  0.00     0.030 A 
HETATM   37  C14 UNL     1       2.541  51.609 -26.962  1.00  0.00     0.002 A 
HETATM   38  C15 UNL     1       1.895  51.797 -28.180  1.00  0.00     0.000 A 
HETATM   39  C16 UNL     1       0.506  51.870 -28.216  1.00  0.00     0.002 A 
HETATM   40  C17 UNL     1      -0.230  51.753 -27.032  1.00  0.00     0.030 A 
ENDBRANCH  33  35
ENDBRANCH   8  33
TORSDOF 6
ENDMDL
MODEL 5
REMARK minimizedAffinity -9.424613
REMARK  6 active torsions:
REMARK  status: ('A' for Active; 'I' for Inactive)
REMARK    1  A    between atoms: N2_5  and  C4_6 
REMARK    2  A    between atoms: C7_9  and  N3_10 
REMARK    3  A    between atoms: N3_10  and  C8_11 
REMARK    4  A    between atoms: C11_18  and  N6_19 
REMARK    5  A    between atoms: N6_19  and  C12_20 
REMARK    6  A    between atoms: N7_26  and  C18_27 
ROOT
HETATM    1  C8  UNL     1      -0.381  51.614 -24.824  1.00  0.00     0.684 A 
HETATM    2  N4  UNL     1       0.328  52.755 -24.702  1.00  0.00    -0.199 N 
ATOM      3  H4  UNL     1       0.692  53.223 -25.532  1.00  0.00     0.183 HD
HETATM    4  C9  UNL     1       0.554  53.277 -23.471  1.00  0.00     0.140 A 
HETATM    5  C10 UNL     1       0.055  52.627 -22.355  1.00  0.00     0.110 A 
HETATM    6  N5  UNL     1       0.093  52.911 -21.021  1.00  0.00    -0.186 N 
ATOM      7  H5  UNL     1       0.559  53.702 -20.576  1.00  0.00     0.184 HD
HETATM    8  C11 UNL     1      -0.593  51.956 -20.423  1.00  0.00     0.687 A 
HETATM    9  N7  UNL     1      -1.002  51.001 -21.351  1.00  0.00    -0.160 N 
HETATM   10  C23 UNL     1      -0.641  51.461 -22.594  1.00  0.00     0.168 A 
HETATM   11  N8  UNL     1      -0.897  50.915 -23.792  1.00  0.00    -0.173 N 
ATOM     12  H8  UNL     1      -1.430  50.054 -23.912  1.00  0.00     0.186 HD
ENDROOT
BRANCH   1  13
HETATM   13  N3  UNL     1      -0.643  51.053 -26.073  1.00  0.00    -0.192 N 
HETATM   14  H10 UNL     1       0.160  51.192 -26.667  1.00  0.00     0.184 HD
BRANCH  13  15
HETATM   15  C7  UNL     1      -1.723  50.358 -26.623  1.00  0.00     0.049 A 
HETATM   16  C6  UNL     1      -2.103  49.141 -26.047  1.00  0.00     0.032 A 
HETATM   17  C5  UNL     1      -3.183  48.399 -26.550  1.00  0.00     0.031 A 
HETATM   18  C4  UNL     1      -3.937  48.841 -27.646  1.00  0.00     0.030 A 
HETATM   19  C25 UNL     1      -3.536  50.048 -28.230  1.00  0.00     0.031 A 
HETATM   20  C24 UNL     1      -2.456  50.793 -27.726  1.00  0.00     0.032 A 
BRANCH  18  21
HETATM   21  N2  UNL     1      -5.003  48.061 -28.122  1.00  0.00    -0.378 N 
HETATM   22  C3  UNL     1      -5.420  48.242 -29.527  1.00  0.00     0.153 C 
HETATM   23  C2  UNL     1      -6.450  47.164 -29.940  1.00  0.00     0.291 C 
HETATM   24  N1  UNL     1      -7.637  47.053 -29.064  1.00  0.00     0.087 N 
HETATM   25  C1  UNL     1      -8.532  48.198 -29.220  1.00  0.00     0.310 C 
HETATM   26  C27 UNL     1      -7.175  46.907 -27.666  1.00  0.00     0.291 C 
HETATM   27  C26 UNL     1      -6.144  47.958 -27.180  1.00  0.00     0.153 C 
ENDBRANCH  18  21
ENDBRANCH  13  15
ENDBRANCH   1  13
BRANCH   9  28
HETATM   28  C18 UNL     1      -1.712  49.774 -21.063  1.00  0.00     0.109 C 
HETATM   29  C19 UNL     1      -2.698  49.367 -22.159  1.00  0.00     0.026 C 
HETATM   30  C20 UNL     1      -2.949  47.872 -21.944  1.00  0.00     0.002 C 
HETATM   31  C21 UNL     1      -1.953  47.411 -20.881  1.00  0.00     0.002 C 
HETATM   32  C22 UNL     1      -0.889  48.500 -20.837  1.00  0.00     0.026 C 
ENDBRANCH   9  28
BRANCH   8  33
HETATM   33  N6  UNL     1      -0.928  51.851 -19.112  1.00  0.00    -0.191 N 
HETATM   34  H12 UNL     1      -1.856  52.115 -18.804  1.00  0.00     0.184 HD
BRANCH  33  35
HETATM   35  C12 UNL     1      -0.080  51.579 -18.014  1.00  0.00     0.049 A 
HETATM   36  C13 UNL     1      -0.206  50.460 -17.183  1.00  0.00     0.030 A 
HETATM   37  C14 UNL     1       0.673  50.246 -16.115  1.00  0.00     0.002 A 
HETATM   38  C15 UNL     1       1.700  51.150 -15.859  1.00  0.00     0.000 A 
HETATM   39  C16 UNL     1       1.844  52.272 -16.669  1.00  0.00     0.002 A 
HETATM   40  C17 UNL     1       0.960  52.483 -17.732  1.00  0.00     0.030 A 
ENDBRANCH  33  35
ENDBRANCH   8  33
TORSDOF 6
ENDMDL
MODEL 6
REMARK minimizedAffinity -9.38894176
REMARK  6 active torsions:
REMARK  status: ('A' for Active; 'I' for Inactive)
REMARK    1  A    between atoms: N2_5  and  C4_6 
REMARK    2  A    between atoms: C7_9  and  N3_10 
REMARK    3  A    between atoms: N3_10  and  C8_11 
REMARK    4  A    between atoms: C11_18  and  N6_19 
REMARK    5  A    between atoms: N6_19  and  C12_20 
REMARK    6  A    between atoms: N7_26  and  C18_27 
ROOT
HETATM    1  C8  UNL     1      -5.249  48.489 -24.506  1.00  0.00     0.684 A 
HETATM    2  N4  UNL     1      -5.337  48.104 -23.216  1.00  0.00    -0.199 N 
ATOM      3  H4  UNL     1      -6.114  47.520 -22.907  1.00  0.00     0.183 HD
HETATM    4  C9  UNL     1      -4.387  48.497 -22.331  1.00  0.00     0.140 A 
HETATM    5  C10 UNL     1      -3.341  49.292 -22.767  1.00  0.00     0.110 A 
HETATM    6  N5  UNL     1      -2.247  49.814 -22.139  1.00  0.00    -0.186 N 
ATOM      7  H5  UNL     1      -2.007  49.724 -21.152  1.00  0.00     0.184 HD
HETATM    8  C11 UNL     1      -1.564  50.459 -23.065  1.00  0.00     0.687 A 
HETATM    9  N7  UNL     1      -2.253  50.437 -24.276  1.00  0.00    -0.160 N 
HETATM   10  C23 UNL     1      -3.358  49.640 -24.101  1.00  0.00     0.168 A 
HETATM   11  N8  UNL     1      -4.270  49.266 -25.012  1.00  0.00    -0.173 N 
ATOM     12  H8  UNL     1      -4.226  49.543 -25.992  1.00  0.00     0.186 HD
ENDROOT
BRANCH   1  13
HETATM   13  N3  UNL     1      -6.200  48.097 -25.446  1.00  0.00    -0.192 N 
HETATM   14  H10 UNL     1      -7.100  48.034 -24.993  1.00  0.00     0.184 HD
BRANCH  13  15
HETATM   15  C7  UNL     1      -6.162  47.812 -26.813  1.00  0.00     0.049 A 
HETATM   16  C6  UNL     1      -5.048  48.224 -27.554  1.00  0.00     0.032 A 
HETATM   17  C5  UNL     1      -4.947  47.963 -28.929  1.00  0.00     0.031 A 
HETATM   18  C4  UNL     1      -5.948  47.273 -29.626  1.00  0.00     0.030 A 
HETATM   19  C25 UNL     1      -7.068  46.884 -28.883  1.00  0.00     0.031 A 
HETATM   20  C24 UNL     1      -7.170  47.143 -27.505  1.00  0.00     0.032 A 
BRANCH  18  21
HETATM   21  N2  UNL     1      -5.809  47.041 -31.004  1.00  0.00    -0.378 N 
HETATM   22  C3  UNL     1      -4.473  46.666 -31.512  1.00  0.00     0.153 C 
HETATM   23  C2  UNL     1      -4.546  46.241 -32.997  1.00  0.00     0.291 C 
HETATM   24  N1  UNL     1      -5.182  47.221 -33.905  1.00  0.00     0.087 N 
HETATM   25  C1  UNL     1      -4.334  48.393 -34.115  1.00  0.00     0.310 C 
HETATM   26  C27 UNL     1      -6.500  47.594 -33.343  1.00  0.00     0.291 C 
HETATM   27  C26 UNL     1      -6.502  48.035 -31.858  1.00  0.00     0.153 C 
ENDBRANCH  18  21
ENDBRANCH  13  15
ENDBRANCH   1  13
BRANCH   9  28
HETATM   28  C18 UNL     1      -1.855  51.096 -25.501  1.00  0.00     0.109 C 
HETATM   29  C19 UNL     1      -1.495  52.571 -25.312  1.00  0.00     0.026 C 
HETATM   30  C20 UNL     1      -0.646  52.940 -26.531  1.00  0.00     0.002 C 
HETATM   31  C21 UNL     1      -0.358  51.635 -27.274  1.00  0.00     0.002 C 
HETATM   32  C22 UNL     1      -0.650  50.533 -26.264  1.00  0.00     0.026 C 
ENDBRANCH   9  28
BRANCH   8  33
HETATM   33  N6  UNL     1      -0.350  51.056 -22.957  1.00  0.00    -0.191 N 
HETATM   34  H12 UNL     1       0.430  50.719 -23.507  1.00  0.00     0.184 HD
BRANCH  33  35
HETATM   35  C12 UNL     1       0.065  52.023 -22.013  1.00  0.00     0.049 A 
HETATM   36  C13 UNL     1       0.825  53.154 -22.330  1.00  0.00     0.030 A 
HETATM   37  C14 UNL     1       1.198  54.078 -21.346  1.00  0.00     0.002 A 
HETATM   38  C15 UNL     1       0.812  53.887 -20.023  1.00  0.00     0.000 A 
HETATM   39  C16 UNL     1       0.059  52.768 -19.682  1.00  0.00     0.002 A 
HETATM   40  C17 UNL     1      -0.308  51.847 -20.668  1.00  0.00     0.030 A 
ENDBRANCH  33  35
ENDBRANCH   8  33
TORSDOF 6
ENDMDL
MODEL 7
REMARK minimizedAffinity -9.38231564
REMARK  6 active torsions:
REMARK  status: ('A' for Active; 'I' for Inactive)
REMARK    1  A    between atoms: N2_5  and  C4_6 
REMARK    2  A    between atoms: C7_9  and  N3_10 
REMARK    3  A    between atoms: N3_10  and  C8_11 
REMARK    4  A    between atoms: C11_18  and  N6_19 
REMARK    5  A    between atoms: N6_19  and  C12_20 
REMARK    6  A    between atoms: N7_26  and  C18_27 
ROOT
HETATM    1  C8  UNL     1      -0.788  50.060 -18.103  1.00  0.00     0.684 A 
HETATM    2  N4  UNL     1      -2.055  49.791 -17.726  1.00  0.00    -0.199 N 
ATOM      3  H4  UNL     1      -2.702  49.351 -18.380  1.00  0.00     0.183 HD
HETATM    4  C9  UNL     1      -2.464  50.109 -16.472  1.00  0.00     0.140 A 
HETATM    5  C10 UNL     1      -1.574  50.709 -15.599  1.00  0.00     0.110 A 
HETATM    6  N5  UNL     1      -1.677  51.114 -14.300  1.00  0.00    -0.186 N 
ATOM      7  H5  UNL     1      -2.506  51.065 -13.707  1.00  0.00     0.184 HD
HETATM    8  C11 UNL     1      -0.490  51.580 -13.964  1.00  0.00     0.687 A 
HETATM    9  N7  UNL     1       0.363  51.566 -15.065  1.00  0.00    -0.160 N 
HETATM   10  C23 UNL     1      -0.310  50.953 -16.094  1.00  0.00     0.168 A 
HETATM   11  N8  UNL     1       0.140  50.647 -17.320  1.00  0.00    -0.173 N 
ATOM     12  H8  UNL     1       1.092  50.839 -17.630  1.00  0.00     0.186 HD
ENDROOT
BRANCH   1  13
HETATM   13  N3  UNL     1      -0.328  49.739 -19.379  1.00  0.00    -0.192 N 
HETATM   14  H10 UNL     1       0.247  48.912 -19.319  1.00  0.00     0.184 HD
BRANCH  13  15
HETATM   15  C7  UNL     1      -0.511  50.289 -20.650  1.00  0.00     0.049 A 
HETATM   16  C6  UNL     1       0.176  51.462 -20.980  1.00  0.00     0.032 A 
HETATM   17  C5  UNL     1       0.038  52.060 -22.242  1.00  0.00     0.031 A 
HETATM   18  C4  UNL     1      -0.784  51.511 -23.235  1.00  0.00     0.030 A 
HETATM   19  C25 UNL     1      -1.485  50.349 -22.890  1.00  0.00     0.031 A 
HETATM   20  C24 UNL     1      -1.346  49.748 -21.627  1.00  0.00     0.032 A 
BRANCH  18  21
HETATM   21  N2  UNL     1      -0.898  52.148 -24.481  1.00  0.00    -0.378 N 
HETATM   22  C3  UNL     1      -1.619  51.439 -25.558  1.00  0.00     0.153 C 
HETATM   23  C2  UNL     1      -1.837  52.364 -26.779  1.00  0.00     0.291 C 
HETATM   24  N1  UNL     1      -0.615  53.003 -27.314  1.00  0.00     0.087 N 
HETATM   25  C1  UNL     1       0.245  52.039 -27.996  1.00  0.00     0.310 C 
HETATM   26  C27 UNL     1       0.091  53.672 -26.199  1.00  0.00     0.291 C 
HETATM   27  C26 UNL     1       0.349  52.803 -24.943  1.00  0.00     0.153 C 
ENDBRANCH  18  21
ENDBRANCH  13  15
ENDBRANCH   1  13
BRANCH   9  28
HETATM   28  C18 UNL     1       1.720  52.066 -15.105  1.00  0.00     0.109 C 
HETATM   29  C19 UNL     1       2.767  51.026 -14.700  1.00  0.00     0.026 C 
HETATM   30  C20 UNL     1       4.090  51.537 -15.275  1.00  0.00     0.002 C 
HETATM   31  C21 UNL     1       3.746  52.728 -16.170  1.00  0.00     0.002 C 
HETATM   32  C22 UNL     1       2.253  52.601 -16.440  1.00  0.00     0.026 C 
ENDBRANCH   9  28
BRANCH   8  33
HETATM   33  N6  UNL     1      -0.061  52.003 -12.748  1.00  0.00    -0.191 N 
HETATM   34  H12 UNL     1       0.722  51.543 -12.299  1.00  0.00     0.184 HD
BRANCH  33  35
HETATM   35  C12 UNL     1      -0.681  52.928 -11.877  1.00  0.00     0.049 A 
HETATM   36  C13 UNL     1      -2.033  52.884 -11.519  1.00  0.00     0.030 A 
HETATM   37  C14 UNL     1      -2.584  53.829 -10.645  1.00  0.00     0.002 A 
HETATM   38  C15 UNL     1      -1.787  54.837 -10.110  1.00  0.00     0.000 A 
HETATM   39  C16 UNL     1      -0.441  54.904 -10.453  1.00  0.00     0.002 A 
HETATM   40  C17 UNL     1       0.103  53.960 -11.330  1.00  0.00     0.030 A 
ENDBRANCH  33  35
ENDBRANCH   8  33
TORSDOF 6
ENDMDL
MODEL 8
REMARK minimizedAffinity -9.38172245
REMARK  6 active torsions:
REMARK  status: ('A' for Active; 'I' for Inactive)
REMARK    1  A    between atoms: N2_5  and  C4_6 
REMARK    2  A    between atoms: C7_9  and  N3_10 
REMARK    3  A    between atoms: N3_10  and  C8_11 
REMARK    4  A    between atoms: C11_18  and  N6_19 
REMARK    5  A    between atoms: N6_19  and  C12_20 
REMARK    6  A    between atoms: N7_26  and  C18_27 
ROOT
HETATM    1  C8  UNL     1      -3.844  49.295 -26.838  1.00  0.00     0.684 A 
HETATM    2  N4  UNL     1      -4.384  48.754 -25.726  1.00  0.00    -0.199 N 
ATOM      3  H4  UNL     1      -5.198  48.144 -25.795  1.00  0.00     0.183 HD
HETATM    4  C9  UNL     1      -3.838  49.027 -24.514  1.00  0.00     0.140 A 
HETATM    5  C10 UNL     1      -2.736  49.861 -24.438  1.00  0.00     0.110 A 
HETATM    6  N5  UNL     1      -1.968  50.291 -23.395  1.00  0.00    -0.186 N 
ATOM      7  H5  UNL     1      -2.102  50.078 -22.407  1.00  0.00     0.184 HD
HETATM    8  C11 UNL     1      -1.018  51.039 -23.923  1.00  0.00     0.687 A 
HETATM    9  N7  UNL     1      -1.215  51.173 -25.295  1.00  0.00    -0.160 N 
HETATM   10  C23 UNL     1      -2.277  50.370 -25.634  1.00  0.00     0.168 A 
HETATM   11  N8  UNL     1      -2.778  50.120 -26.853  1.00  0.00    -0.173 N 
ATOM     12  H8  UNL     1      -2.389  50.515 -27.709  1.00  0.00     0.186 HD
ENDROOT
BRANCH   1  13
HETATM   13  N3  UNL     1      -4.371  49.030 -28.102  1.00  0.00    -0.192 N 
HETATM   14  H10 UNL     1      -3.958  49.668 -28.766  1.00  0.00     0.184 HD
BRANCH  13  15
HETATM   15  C7  UNL     1      -5.283  48.099 -28.603  1.00  0.00     0.049 A 
HETATM   16  C6  UNL     1      -6.287  47.619 -27.756  1.00  0.00     0.032 A 
HETATM   17  C5  UNL     1      -7.237  46.688 -28.202  1.00  0.00     0.031 A 
HETATM   18  C4  UNL     1      -7.234  46.199 -29.516  1.00  0.00     0.030 A 
HETATM   19  C25 UNL     1      -6.214  46.668 -30.351  1.00  0.00     0.031 A 
HETATM   20  C24 UNL     1      -5.262  47.603 -29.906  1.00  0.00     0.032 A 
BRANCH  18  21
HETATM   21  N2  UNL     1      -8.199  45.261 -29.916  1.00  0.00    -0.378 N 
HETATM   22  C3  UNL     1      -8.271  43.983 -29.177  1.00  0.00     0.153 C 
HETATM   23  C2  UNL     1      -9.516  43.170 -29.603  1.00  0.00     0.291 C 
HETATM   24  N1  UNL     1      -9.649  42.930 -31.056  1.00  0.00     0.087 N 
HETATM   25  C1  UNL     1      -8.658  41.970 -31.538  1.00  0.00     0.310 C 
HETATM   26  C27 UNL     1      -9.539  44.228 -31.757  1.00  0.00     0.291 C 
HETATM   27  C26 UNL     1      -8.311  45.096 -31.385  1.00  0.00     0.153 C 
ENDBRANCH  18  21
ENDBRANCH  13  15
ENDBRANCH   1  13
BRANCH   9  28
HETATM   28  C18 UNL     1      -0.422  51.975 -26.201  1.00  0.00     0.109 C 
HETATM   29  C19 UNL     1       0.569  51.158 -27.033  1.00  0.00     0.026 C 
HETATM   30  C20 UNL     1       0.919  52.043 -28.231  1.00  0.00     0.002 C 
HETATM   31  C21 UNL     1      -0.026  53.244 -28.178  1.00  0.00     0.002 C 
HETATM   32  C22 UNL     1      -1.156  52.815 -27.252  1.00  0.00     0.026 C 
ENDBRANCH   9  28
BRANCH   8  33
HETATM   33  N6  UNL     1       0.049  51.608 -23.307  1.00  0.00    -0.191 N 
HETATM   34  H12 UNL     1       0.972  51.525 -23.714  1.00  0.00     0.184 HD
BRANCH  33  35
HETATM   35  C12 UNL     1       0.106  52.186 -22.018  1.00  0.00     0.049 A 
HETATM   36  C13 UNL     1      -0.589  51.698 -20.906  1.00  0.00     0.030 A 
HETATM   37  C14 UNL     1      -0.483  52.315 -19.654  1.00  0.00     0.002 A 
HETATM   38  C15 UNL     1       0.326  53.436 -19.491  1.00  0.00     0.000 A 
HETATM   39  C16 UNL     1       1.024  53.943 -20.582  1.00  0.00     0.002 A 
HETATM   40  C17 UNL     1       0.912  53.325 -21.831  1.00  0.00     0.030 A 
ENDBRANCH  33  35
ENDBRANCH   8  33
TORSDOF 6
ENDMDL
MODEL 9
REMARK minimizedAffinity -9.29209137
REMARK  6 active torsions:
REMARK  status: ('A' for Active; 'I' for Inactive)
REMARK    1  A    between atoms: N2_5  and  C4_6 
REMARK    2  A    between atoms: C7_9  and  N3_10 
REMARK    3  A    between atoms: N3_10  and  C8_11 
REMARK    4  A    between atoms: C11_18  and  N6_19 
REMARK    5  A    between atoms: N6_19  and  C12_20 
REMARK    6  A    between atoms: N7_26  and  C18_27 
ROOT
HETATM    1  C8  UNL     1      -1.370  48.775 -19.777  1.00  0.00     0.684 A 
HETATM    2  N4  UNL     1      -2.134  48.012 -20.586  1.00  0.00    -0.199 N 
ATOM      3  H4  UNL     1      -2.611  47.190 -20.215  1.00  0.00     0.183 HD
HETATM    4  C9  UNL     1      -2.265  48.343 -21.895  1.00  0.00     0.140 A 
HETATM    5  C10 UNL     1      -1.608  49.460 -22.382  1.00  0.00     0.110 A 
HETATM    6  N5  UNL     1      -1.566  50.049 -23.612  1.00  0.00    -0.186 N 
ATOM      7  H5  UNL     1      -2.027  49.726 -24.463  1.00  0.00     0.184 HD
HETATM    8  C11 UNL     1      -0.808  51.121 -23.480  1.00  0.00     0.687 A 
HETATM    9  N7  UNL     1      -0.282  51.185 -22.192  1.00  0.00    -0.160 N 
HETATM   10  C23 UNL     1      -0.842  50.157 -21.472  1.00  0.00     0.168 A 
HETATM   11  N8  UNL     1      -0.692  49.872 -20.170  1.00  0.00    -0.173 N 
ATOM     12  H8  UNL     1      -0.120  50.432 -19.537  1.00  0.00     0.186 HD
ENDROOT
BRANCH   1  13
HETATM   13  N3  UNL     1      -1.219  48.472 -18.425  1.00  0.00    -0.192 N 
HETATM   14  H10 UNL     1      -1.003  47.491 -18.333  1.00  0.00     0.184 HD
BRANCH  13  15
HETATM   15  C7  UNL     1      -1.283  49.218 -17.245  1.00  0.00     0.049 A 
HETATM   16  C6  UNL     1      -2.451  49.936 -16.966  1.00  0.00     0.032 A 
HETATM   17  C5  UNL     1      -2.578  50.698 -15.795  1.00  0.00     0.031 A 
HETATM   18  C4  UNL     1      -1.551  50.773 -14.845  1.00  0.00     0.030 A 
HETATM   19  C25 UNL     1      -0.378  50.069 -15.142  1.00  0.00     0.031 A 
HETATM   20  C24 UNL     1      -0.249  49.303 -16.314  1.00  0.00     0.032 A 
BRANCH  18  21
HETATM   21  N2  UNL     1      -1.719  51.555 -13.692  1.00  0.00    -0.378 N 
HETATM   22  C3  UNL     1      -0.599  51.623 -12.731  1.00  0.00     0.153 C 
HETATM   23  C2  UNL     1      -0.869  52.688 -11.642  1.00  0.00     0.291 C 
HETATM   24  N1  UNL     1      -2.153  52.546 -10.922  1.00  0.00     0.087 N 
HETATM   25  C1  UNL     1      -2.143  51.395 -10.022  1.00  0.00     0.310 C 
HETATM   26  C27 UNL     1      -3.242  52.448 -11.920  1.00  0.00     0.291 C 
HETATM   27  C26 UNL     1      -3.041  51.396 -13.040  1.00  0.00     0.153 C 
ENDBRANCH  18  21
ENDBRANCH  13  15
ENDBRANCH   1  13
BRANCH   9  28
HETATM   28  C18 UNL     1       0.649  52.174 -21.693  1.00  0.00     0.109 C 
HETATM   29  C19 UNL     1       0.904  53.321 -22.673  1.00  0.00     0.026 C 
HETATM   30  C20 UNL     1       1.461  54.465 -21.822  1.00  0.00     0.002 C 
HETATM   31  C21 UNL     1       1.313  54.035 -20.362  1.00  0.00     0.002 C 
HETATM   32  C22 UNL     1       0.301  52.897 -20.387  1.00  0.00     0.026 C 
ENDBRANCH   9  28
BRANCH   8  33
HETATM   33  N6  UNL     1      -0.548  52.090 -24.394  1.00  0.00    -0.191 N 
HETATM   34  H12 UNL     1      -0.912  53.025 -24.258  1.00  0.00     0.184 HD
BRANCH  33  35
HETATM   35  C12 UNL     1       0.042  51.948 -25.671  1.00  0.00     0.049 A 
HETATM   36  C13 UNL     1      -0.676  51.945 -26.872  1.00  0.00     0.030 A 
HETATM   37  C14 UNL     1      -0.029  51.807 -28.106  1.00  0.00     0.002 A 
HETATM   38  C15 UNL     1       1.355  51.672 -28.160  1.00  0.00     0.000 A 
HETATM   39  C16 UNL     1       2.092  51.669 -26.979  1.00  0.00     0.002 A 
HETATM   40  C17 UNL     1       1.439  51.803 -25.750  1.00  0.00     0.030 A 
ENDBRANCH  33  35
ENDBRANCH   8  33
TORSDOF 6
ENDMDL
