MODEL 1
REMARK minimizedAffinity -6.39324284
REMARK CNNscore 0.470921814
REMARK CNNaffinity 6.01446915
REMARK  3 active torsions:
REMARK  status: ('A' for Active; 'I' for Inactive)
REMARK    1  A    between atoms: N2_11  and  C8_12 
REMARK    2  A    between atoms: C11_15  and  O2_16 
REMARK    3  A    between atoms: C14_19  and  C15_20 
ROOT
HETATM    1  C1  UNL     1       3.717  57.915  -4.804  1.00  0.00     0.015 C 
HETATM    2  C2  UNL     1       2.973  57.324  -6.016  1.00  0.00    -0.036 C 
HETATM    3  C3  UNL     1       2.833  58.435  -7.077  1.00  0.00     0.015 C 
HETATM    4  C4  UNL     1       1.566  56.848  -5.556  1.00  0.00     0.093 C 
HETATM    5  C5  UNL     1       0.792  56.055  -6.611  1.00  0.00     0.164 C 
HETATM    6  O1  UNL     1      -0.436  56.047  -6.623  1.00  0.00    -0.292 OA
HETATM    7  C6  UNL     1       1.600  55.272  -7.526  1.00  0.00     0.063 A 
HETATM    8  C7  UNL     1       3.000  55.314  -7.523  1.00  0.00     0.043 A 
HETATM    9  N1  UNL     1       3.535  54.565  -8.478  1.00  0.00    -0.296 N 
ATOM     10  H1  UNL     1       4.524  54.467  -8.709  1.00  0.00     0.187 HD
HETATM   11  N2  UNL     1       2.473  53.951  -9.086  1.00  0.00    -0.255 N 
HETATM   12  C14 UNL     1       1.255  54.436  -8.578  1.00  0.00     0.083 A 
HETATM   13  C21 UNL     1       3.809  56.138  -6.583  1.00  0.00     0.069 C 
ENDROOT
BRANCH  11  14
HETATM   14  C8  UNL     1       2.740  52.957 -10.082  1.00  0.00     0.057 A 
HETATM   15  C9  UNL     1       2.154  52.984 -11.352  1.00  0.00     0.034 A 
HETATM   16  C10 UNL     1       2.450  51.987 -12.288  1.00  0.00     0.039 A 
HETATM   17  C11 UNL     1       3.319  50.956 -11.957  1.00  0.00     0.065 A 
HETATM   18  C12 UNL     1       3.897  50.896 -10.695  1.00  0.00     0.039 A 
HETATM   19  C13 UNL     1       3.602  51.891  -9.758  1.00  0.00     0.034 A 
BRANCH  17  20
HETATM   20  O2  UNL     1       3.574  50.010 -12.903  1.00  0.00    -0.361 OA
HETATM   21  H11 UNL     1       4.195  49.361 -12.533  1.00  0.00     0.217 HD
ENDBRANCH  17  20
ENDBRANCH  11  14
BRANCH  12  22
HETATM   22  C15 UNL     1      -0.076  54.187  -9.128  1.00  0.00    -0.005 A 
HETATM   23  C16 UNL     1      -0.700  55.144  -9.938  1.00  0.00     0.015 A 
HETATM   24  C17 UNL     1      -1.965  54.896 -10.477  1.00  0.00     0.026 A 
HETATM   25  C18 UNL     1      -2.614  53.686 -10.218  1.00  0.00     0.055 A 
HETATM   26 CL1  UNL     1      -4.178  53.449 -10.913  1.00  0.00    -0.083 Cl
HETATM   27  C19 UNL     1      -1.992  52.720  -9.420  1.00  0.00     0.056 A 
HETATM   28 CL2  UNL     1      -2.732  51.201  -9.059  1.00  0.00    -0.083 Cl
HETATM   29  C20 UNL     1      -0.725  52.969  -8.881  1.00  0.00     0.039 A 
ENDBRANCH  12  22
TORSDOF 3
ENDMDL
MODEL 2
REMARK minimizedAffinity -7.69406462
REMARK CNNscore 0.408074141
REMARK CNNaffinity 6.74372435
REMARK  3 active torsions:
REMARK  status: ('A' for Active; 'I' for Inactive)
REMARK    1  A    between atoms: N2_11  and  C8_12 
REMARK    2  A    between atoms: C11_15  and  O2_16 
REMARK    3  A    between atoms: C14_19  and  C15_20 
ROOT
HETATM    1  C1  UNL     1       1.905  51.579 -13.907  1.00  0.00     0.015 C 
HETATM    2  C2  UNL     1       0.903  51.314 -15.046  1.00  0.00    -0.036 C 
HETATM    3  C3  UNL     1      -0.466  51.883 -14.619  1.00  0.00     0.015 C 
HETATM    4  C4  UNL     1       0.794  49.778 -15.268  1.00  0.00     0.093 C 
HETATM    5  C5  UNL     1      -0.014  49.375 -16.503  1.00  0.00     0.164 C 
HETATM    6  O1  UNL     1      -0.604  48.300 -16.551  1.00  0.00    -0.292 OA
HETATM    7  C6  UNL     1       0.036  50.305 -17.616  1.00  0.00     0.063 A 
HETATM    8  C7  UNL     1       0.687  51.542 -17.539  1.00  0.00     0.043 A 
HETATM    9  N1  UNL     1       0.560  52.256 -18.649  1.00  0.00    -0.296 N 
ATOM     10  H1  UNL     1       0.901  53.201 -18.821  1.00  0.00     0.187 HD
HETATM   11  N2  UNL     1      -0.128  51.448 -19.515  1.00  0.00    -0.255 N 
HETATM   12  C14 UNL     1      -0.545  50.267 -18.876  1.00  0.00     0.083 A 
HETATM   13  C21 UNL     1       1.410  52.031 -16.332  1.00  0.00     0.069 C 
ENDROOT
BRANCH  11  14
HETATM   14  C8  UNL     1      -0.303  51.891 -20.865  1.00  0.00     0.057 A 
HETATM   15  C9  UNL     1      -1.518  51.769 -21.549  1.00  0.00     0.034 A 
HETATM   16  C10 UNL     1      -1.634  52.219 -22.869  1.00  0.00     0.039 A 
HETATM   17  C11 UNL     1      -0.539  52.778 -23.514  1.00  0.00     0.065 A 
HETATM   18  C12 UNL     1       0.684  52.890 -22.864  1.00  0.00     0.039 A 
HETATM   19  C13 UNL     1       0.802  52.441 -21.545  1.00  0.00     0.034 A 
BRANCH  17  20
HETATM   20  O2  UNL     1      -0.703  53.199 -24.799  1.00  0.00    -0.361 OA
HETATM   21  H11 UNL     1       0.139  53.566 -25.115  1.00  0.00     0.217 HD
ENDBRANCH  17  20
ENDBRANCH  11  14
BRANCH  12  22
HETATM   22  C15 UNL     1      -1.482  49.278 -19.404  1.00  0.00    -0.005 A 
HETATM   23  C16 UNL     1      -1.047  48.300 -20.307  1.00  0.00     0.015 A 
HETATM   24  C17 UNL     1      -1.940  47.343 -20.796  1.00  0.00     0.026 A 
HETATM   25  C18 UNL     1      -3.274  47.351 -20.382  1.00  0.00     0.055 A 
HETATM   26 CL1  UNL     1      -4.324  46.142 -21.031  1.00  0.00    -0.083 Cl
HETATM   27  C19 UNL     1      -3.714  48.318 -19.471  1.00  0.00     0.056 A 
HETATM   28 CL2  UNL     1      -5.347  48.388 -18.912  1.00  0.00    -0.083 Cl
HETATM   29  C20 UNL     1      -2.818  49.274 -18.981  1.00  0.00     0.039 A 
ENDBRANCH  12  22
TORSDOF 3
ENDMDL
MODEL 3
REMARK minimizedAffinity -8.96687698
REMARK CNNscore 0.40578115
REMARK CNNaffinity 7.11041784
REMARK  3 active torsions:
REMARK  status: ('A' for Active; 'I' for Inactive)
REMARK    1  A    between atoms: N2_11  and  C8_12 
REMARK    2  A    between atoms: C11_15  and  O2_16 
REMARK    3  A    between atoms: C14_19  and  C15_20 
ROOT
HETATM    1  C1  UNL     1      -6.887  47.209 -22.785  1.00  0.00     0.015 C 
HETATM    2  C2  UNL     1      -5.981  48.381 -23.204  1.00  0.00    -0.036 C 
HETATM    3  C3  UNL     1      -6.881  49.605 -23.479  1.00  0.00     0.015 C 
HETATM    4  C4  UNL     1      -5.215  47.984 -24.498  1.00  0.00     0.093 C 
HETATM    5  C5  UNL     1      -4.127  48.975 -24.917  1.00  0.00     0.164 C 
HETATM    6  O1  UNL     1      -3.799  49.095 -26.093  1.00  0.00    -0.292 OA
HETATM    7  C6  UNL     1      -3.476  49.687 -23.833  1.00  0.00     0.063 A 
HETATM    8  C7  UNL     1      -3.879  49.564 -22.498  1.00  0.00     0.043 A 
HETATM    9  N1  UNL     1      -3.186  50.345 -21.681  1.00  0.00    -0.296 N 
ATOM     10  H1  UNL     1      -3.321  50.469 -20.677  1.00  0.00     0.187 HD
HETATM   11  N2  UNL     1      -2.248  50.948 -22.476  1.00  0.00    -0.255 N 
HETATM   12  C14 UNL     1      -2.458  50.629 -23.829  1.00  0.00     0.083 A 
HETATM   13  C21 UNL     1      -4.993  48.688 -22.040  1.00  0.00     0.069 C 
ENDROOT
BRANCH  11  14
HETATM   14  C8  UNL     1      -1.245  51.756 -21.851  1.00  0.00     0.057 A 
HETATM   15  C9  UNL     1      -0.287  52.470 -22.580  1.00  0.00     0.034 A 
HETATM   16  C10 UNL     1       0.672  53.245 -21.919  1.00  0.00     0.039 A 
HETATM   17  C11 UNL     1       0.687  53.301 -20.532  1.00  0.00     0.065 A 
HETATM   18  C12 UNL     1      -0.240  52.585 -19.785  1.00  0.00     0.039 A 
HETATM   19  C13 UNL     1      -1.199  51.809 -20.444  1.00  0.00     0.034 A 
BRANCH  17  20
HETATM   20  O2  UNL     1       1.641  54.068 -19.936  1.00  0.00    -0.361 OA
HETATM   21  H11 UNL     1       1.527  54.014 -18.973  1.00  0.00     0.217 HD
ENDBRANCH  17  20
ENDBRANCH  11  14
BRANCH  12  22
HETATM   22  C15 UNL     1      -1.807  51.253 -24.979  1.00  0.00    -0.005 A 
HETATM   23  C16 UNL     1      -2.492  52.192 -25.760  1.00  0.00     0.015 A 
HETATM   24  C17 UNL     1      -1.862  52.801 -26.848  1.00  0.00     0.026 A 
HETATM   25  C18 UNL     1      -0.538  52.482 -27.161  1.00  0.00     0.055 A 
HETATM   26 CL1  UNL     1       0.177  53.269 -28.523  1.00  0.00    -0.083 Cl
HETATM   27  C19 UNL     1       0.158  51.554 -26.379  1.00  0.00     0.056 A 
HETATM   28 CL2  UNL     1       1.797  51.113 -26.703  1.00  0.00    -0.083 Cl
HETATM   29  C20 UNL     1      -0.475  50.946 -25.289  1.00  0.00     0.039 A 
ENDBRANCH  12  22
TORSDOF 3
ENDMDL
MODEL 4
REMARK minimizedAffinity -7.40251207
REMARK CNNscore 0.396542907
REMARK CNNaffinity 6.80077124
REMARK  3 active torsions:
REMARK  status: ('A' for Active; 'I' for Inactive)
REMARK    1  A    between atoms: N2_11  and  C8_12 
REMARK    2  A    between atoms: C11_15  and  O2_16 
REMARK    3  A    between atoms: C14_19  and  C15_20 
ROOT
HETATM    1  C1  UNL     1      -6.034  46.885 -19.867  1.00  0.00     0.015 C 
HETATM    2  C2  UNL     1      -4.611  47.359 -19.520  1.00  0.00    -0.036 C 
HETATM    3  C3  UNL     1      -3.625  46.241 -19.919  1.00  0.00     0.015 C 
HETATM    4  C4  UNL     1      -4.529  47.617 -17.988  1.00  0.00     0.093 C 
HETATM    5  C5  UNL     1      -3.231  48.285 -17.528  1.00  0.00     0.164 C 
HETATM    6  O1  UNL     1      -2.795  48.107 -16.395  1.00  0.00    -0.292 OA
HETATM    7  C6  UNL     1      -2.614  49.182 -18.486  1.00  0.00     0.063 A 
HETATM    8  C7  UNL     1      -3.105  49.353 -19.787  1.00  0.00     0.043 A 
HETATM    9  N1  UNL     1      -2.357  50.175 -20.510  1.00  0.00    -0.296 N 
ATOM     10  H1  UNL     1      -2.478  50.422 -21.493  1.00  0.00     0.187 HD
HETATM   11  N2  UNL     1      -1.388  50.622 -19.653  1.00  0.00    -0.255 N 
HETATM   12  C14 UNL     1      -1.466  49.958 -18.417  1.00  0.00     0.083 A 
HETATM   13  C21 UNL     1      -4.308  48.659 -20.323  1.00  0.00     0.069 C 
ENDROOT
BRANCH  11  14
HETATM   14  C8  UNL     1      -0.497  51.647 -20.109  1.00  0.00     0.057 A 
HETATM   15  C9  UNL     1      -0.494  52.939 -19.572  1.00  0.00     0.034 A 
HETATM   16  C10 UNL     1       0.398  53.903 -20.055  1.00  0.00     0.039 A 
HETATM   17  C11 UNL     1       1.278  53.587 -21.080  1.00  0.00     0.065 A 
HETATM   18  C12 UNL     1       1.280  52.317 -21.644  1.00  0.00     0.039 A 
HETATM   19  C13 UNL     1       0.389  51.352 -21.164  1.00  0.00     0.034 A 
BRANCH  17  20
HETATM   20  O2  UNL     1       2.125  54.560 -21.516  1.00  0.00    -0.361 OA
HETATM   21  H11 UNL     1       2.678  54.196 -22.227  1.00  0.00     0.217 HD
ENDBRANCH  17  20
ENDBRANCH  11  14
BRANCH  12  22
HETATM   22  C15 UNL     1      -0.477  50.004 -17.342  1.00  0.00    -0.005 A 
HETATM   23  C16 UNL     1      -0.178  48.853 -16.602  1.00  0.00     0.015 A 
HETATM   24  C17 UNL     1       0.781  48.895 -15.587  1.00  0.00     0.026 A 
HETATM   25  C18 UNL     1       1.456  50.086 -15.307  1.00  0.00     0.055 A 
HETATM   26 CL1  UNL     1       2.625  50.067 -14.035  1.00  0.00    -0.083 Cl
HETATM   27  C19 UNL     1       1.171  51.237 -16.049  1.00  0.00     0.056 A 
HETATM   28 CL2  UNL     1       1.966  52.744 -15.761  1.00  0.00    -0.083 Cl
HETATM   29  C20 UNL     1       0.211  51.194 -17.066  1.00  0.00     0.039 A 
ENDBRANCH  12  22
TORSDOF 3
ENDMDL
MODEL 5
REMARK minimizedAffinity -9.4888258
REMARK CNNscore 0.324856758
REMARK CNNaffinity 6.96503687
REMARK  3 active torsions:
REMARK  status: ('A' for Active; 'I' for Inactive)
REMARK    1  A    between atoms: N2_11  and  C8_12 
REMARK    2  A    between atoms: C11_15  and  O2_16 
REMARK    3  A    between atoms: C14_19  and  C15_20 
ROOT
HETATM    1  C1  UNL     1      -0.195  53.504 -28.557  1.00  0.00     0.015 C 
HETATM    2  C2  UNL     1      -0.411  52.680 -27.275  1.00  0.00    -0.036 C 
HETATM    3  C3  UNL     1       0.318  51.330 -27.447  1.00  0.00     0.015 C 
HETATM    4  C4  UNL     1      -1.937  52.438 -27.088  1.00  0.00     0.093 C 
HETATM    5  C5  UNL     1      -2.315  51.804 -25.747  1.00  0.00     0.164 C 
HETATM    6  O1  UNL     1      -3.324  51.114 -25.635  1.00  0.00    -0.292 OA
HETATM    7  C6  UNL     1      -1.453  52.139 -24.629  1.00  0.00     0.063 A 
HETATM    8  C7  UNL     1      -0.288  52.902 -24.775  1.00  0.00     0.043 A 
HETATM    9  N1  UNL     1       0.378  53.039 -23.637  1.00  0.00    -0.296 N 
ATOM     10  H1  UNL     1       1.274  53.507 -23.494  1.00  0.00     0.187 HD
HETATM   11  N2  UNL     1      -0.396  52.417 -22.694  1.00  0.00    -0.255 N 
HETATM   12  C14 UNL     1      -1.493  51.772 -23.292  1.00  0.00     0.083 A 
HETATM   13  C21 UNL     1       0.184  53.467 -26.070  1.00  0.00     0.069 C 
ENDROOT
BRANCH  11  14
HETATM   14  C8  UNL     1      -0.005  52.517 -21.320  1.00  0.00     0.057 A 
HETATM   15  C9  UNL     1      -0.542  51.697 -20.321  1.00  0.00     0.034 A 
HETATM   16  C10 UNL     1      -0.126  51.837 -18.992  1.00  0.00     0.039 A 
HETATM   17  C11 UNL     1       0.815  52.800 -18.655  1.00  0.00     0.065 A 
HETATM   18  C12 UNL     1       1.347  53.640 -19.625  1.00  0.00     0.039 A 
HETATM   19  C13 UNL     1       0.932  53.502 -20.953  1.00  0.00     0.034 A 
BRANCH  17  20
HETATM   20  O2  UNL     1       1.187  52.897 -17.348  1.00  0.00    -0.361 OA
HETATM   21  H11 UNL     1       1.847  53.605 -17.264  1.00  0.00     0.217 HD
ENDBRANCH  17  20
ENDBRANCH  11  14
BRANCH  12  22
HETATM   22  C15 UNL     1      -2.404  50.831 -22.645  1.00  0.00    -0.005 A 
HETATM   23  C16 UNL     1      -3.681  51.242 -22.243  1.00  0.00     0.015 A 
HETATM   24  C17 UNL     1      -4.559  50.335 -21.642  1.00  0.00     0.026 A 
HETATM   25  C18 UNL     1      -4.170  49.008 -21.445  1.00  0.00     0.055 A 
HETATM   26 CL1  UNL     1      -5.303  47.943 -20.691  1.00  0.00    -0.083 Cl
HETATM   27  C19 UNL     1      -2.901  48.586 -21.854  1.00  0.00     0.056 A 
HETATM   28 CL2  UNL     1      -2.352  46.961 -21.646  1.00  0.00    -0.083 Cl
HETATM   29  C20 UNL     1      -2.024  49.495 -22.458  1.00  0.00     0.039 A 
ENDBRANCH  12  22
TORSDOF 3
ENDMDL
MODEL 6
REMARK minimizedAffinity -7.90467167
REMARK CNNscore 0.282671809
REMARK CNNaffinity 6.55185556
REMARK  3 active torsions:
REMARK  status: ('A' for Active; 'I' for Inactive)
REMARK    1  A    between atoms: N2_11  and  C8_12 
REMARK    2  A    between atoms: C11_15  and  O2_16 
REMARK    3  A    between atoms: C14_19  and  C15_20 
ROOT
HETATM    1  C1  UNL     1      -4.375  46.821 -17.652  1.00  0.00     0.015 C 
HETATM    2  C2  UNL     1      -4.174  47.877 -18.754  1.00  0.00    -0.036 C 
HETATM    3  C3  UNL     1      -5.367  48.855 -18.700  1.00  0.00     0.015 C 
HETATM    4  C4  UNL     1      -4.136  47.160 -20.134  1.00  0.00     0.093 C 
HETATM    5  C5  UNL     1      -3.741  48.064 -21.304  1.00  0.00     0.164 C 
HETATM    6  O1  UNL     1      -4.131  47.830 -22.444  1.00  0.00    -0.292 OA
HETATM    7  C6  UNL     1      -2.829  49.145 -20.982  1.00  0.00     0.063 A 
HETATM    8  C7  UNL     1      -2.416  49.420 -19.673  1.00  0.00     0.043 A 
HETATM    9  N1  UNL     1      -1.629  50.485 -19.599  1.00  0.00    -0.296 N 
ATOM     10  H1  UNL     1      -1.239  50.912 -18.758  1.00  0.00     0.187 HD
HETATM   11  N2  UNL     1      -1.452  50.887 -20.896  1.00  0.00    -0.255 N 
HETATM   12  C14 UNL     1      -2.254  50.132 -21.769  1.00  0.00     0.083 A 
HETATM   13  C21 UNL     1      -2.841  48.635 -18.480  1.00  0.00     0.069 C 
ENDROOT
BRANCH  11  14
HETATM   14  C8  UNL     1      -0.524  51.946 -21.159  1.00  0.00     0.057 A 
HETATM   15  C9  UNL     1       0.023  52.173 -22.427  1.00  0.00     0.034 A 
HETATM   16  C10 UNL     1       0.926  53.223 -22.629  1.00  0.00     0.039 A 
HETATM   17  C11 UNL     1       1.295  54.038 -21.568  1.00  0.00     0.065 A 
HETATM   18  C12 UNL     1       0.783  53.820 -20.296  1.00  0.00     0.039 A 
HETATM   19  C13 UNL     1      -0.120  52.772 -20.091  1.00  0.00     0.034 A 
BRANCH  17  20
HETATM   20  O2  UNL     1       2.178  55.045 -21.816  1.00  0.00    -0.361 OA
HETATM   21  H11 UNL     1       2.339  55.529 -20.989  1.00  0.00     0.217 HD
ENDBRANCH  17  20
ENDBRANCH  11  14
BRANCH  12  22
HETATM   22  C15 UNL     1      -2.502  50.412 -23.182  1.00  0.00    -0.005 A 
HETATM   23  C16 UNL     1      -3.735  50.929 -23.597  1.00  0.00     0.015 A 
HETATM   24  C17 UNL     1      -3.964  51.214 -24.946  1.00  0.00     0.026 A 
HETATM   25  C18 UNL     1      -2.959  50.992 -25.891  1.00  0.00     0.055 A 
HETATM   26 CL1  UNL     1      -3.312  51.361 -27.541  1.00  0.00    -0.083 Cl
HETATM   27  C19 UNL     1      -1.720  50.486 -25.482  1.00  0.00     0.056 A 
HETATM   28 CL2  UNL     1      -0.429  50.188 -26.592  1.00  0.00    -0.083 Cl
HETATM   29  C20 UNL     1      -1.492  50.203 -24.131  1.00  0.00     0.039 A 
ENDBRANCH  12  22
TORSDOF 3
ENDMDL
MODEL 7
REMARK minimizedAffinity -8.57246399
REMARK CNNscore 0.236009344
REMARK CNNaffinity 6.81423759
REMARK  3 active torsions:
REMARK  status: ('A' for Active; 'I' for Inactive)
REMARK    1  A    between atoms: N2_11  and  C8_12 
REMARK    2  A    between atoms: C11_15  and  O2_16 
REMARK    3  A    between atoms: C14_19  and  C15_20 
ROOT
HETATM    1  C1  UNL     1       0.170  53.818 -26.537  1.00  0.00     0.015 C 
HETATM    2  C2  UNL     1      -0.040  52.708 -25.492  1.00  0.00    -0.036 C 
HETATM    3  C3  UNL     1       0.880  51.525 -25.861  1.00  0.00     0.015 C 
HETATM    4  C4  UNL     1      -1.528  52.256 -25.534  1.00  0.00     0.093 C 
HETATM    5  C5  UNL     1      -1.929  51.298 -24.410  1.00  0.00     0.164 C 
HETATM    6  O1  UNL     1      -2.839  50.489 -24.562  1.00  0.00    -0.292 OA
HETATM    7  C6  UNL     1      -1.220  51.470 -23.156  1.00  0.00     0.063 A 
HETATM    8  C7  UNL     1      -0.163  52.375 -23.004  1.00  0.00     0.043 A 
HETATM    9  N1  UNL     1       0.379  52.330 -21.794  1.00  0.00    -0.296 N 
ATOM     10  H1  UNL     1       1.186  52.853 -21.455  1.00  0.00     0.187 HD
HETATM   11  N2  UNL     1      -0.380  51.427 -21.099  1.00  0.00    -0.255 N 
HETATM   12  C14 UNL     1      -1.323  50.810 -21.940  1.00  0.00     0.083 A 
HETATM   13  C21 UNL     1       0.336  53.267 -24.088  1.00  0.00     0.069 C 
ENDROOT
BRANCH  11  14
HETATM   14  C8  UNL     1      -0.126  51.260 -19.699  1.00  0.00     0.057 A 
HETATM   15  C9  UNL     1       0.410  52.278 -18.902  1.00  0.00     0.034 A 
HETATM   16  C10 UNL     1       0.639  52.061 -17.539  1.00  0.00     0.039 A 
HETATM   17  C11 UNL     1       0.348  50.829 -16.971  1.00  0.00     0.065 A 
HETATM   18  C12 UNL     1      -0.164  49.796 -17.745  1.00  0.00     0.039 A 
HETATM   19  C13 UNL     1      -0.394  50.010 -19.108  1.00  0.00     0.034 A 
BRANCH  17  20
HETATM   20  O2  UNL     1       0.591  50.668 -15.640  1.00  0.00    -0.361 OA
HETATM   21  H11 UNL     1       0.338  49.765 -15.385  1.00  0.00     0.217 HD
ENDBRANCH  17  20
ENDBRANCH  11  14
BRANCH  12  22
HETATM   22  C15 UNL     1      -2.149  49.650 -21.615  1.00  0.00    -0.005 A 
HETATM   23  C16 UNL     1      -1.676  48.353 -21.853  1.00  0.00     0.015 A 
HETATM   24  C17 UNL     1      -2.460  47.244 -21.525  1.00  0.00     0.026 A 
HETATM   25  C18 UNL     1      -3.720  47.420 -20.948  1.00  0.00     0.055 A 
HETATM   26 CL1  UNL     1      -4.637  46.005 -20.573  1.00  0.00    -0.083 Cl
HETATM   27  C19 UNL     1      -4.195  48.712 -20.697  1.00  0.00     0.056 A 
HETATM   28 CL2  UNL     1      -5.741  49.008 -19.984  1.00  0.00    -0.083 Cl
HETATM   29  C20 UNL     1      -3.408  49.821 -21.025  1.00  0.00     0.039 A 
ENDBRANCH  12  22
TORSDOF 3
ENDMDL
MODEL 8
REMARK minimizedAffinity -9.41987324
REMARK CNNscore 0.225438684
REMARK CNNaffinity 6.64614487
REMARK  3 active torsions:
REMARK  status: ('A' for Active; 'I' for Inactive)
REMARK    1  A    between atoms: N2_11  and  C8_12 
REMARK    2  A    between atoms: C11_15  and  O2_16 
REMARK    3  A    between atoms: C14_19  and  C15_20 
ROOT
HETATM    1  C1  UNL     1      -0.354  53.629 -28.458  1.00  0.00     0.015 C 
HETATM    2  C2  UNL     1      -0.505  52.750 -27.203  1.00  0.00    -0.036 C 
HETATM    3  C3  UNL     1       0.313  51.460 -27.423  1.00  0.00     0.015 C 
HETATM    4  C4  UNL     1      -2.009  52.401 -27.015  1.00  0.00     0.093 C 
HETATM    5  C5  UNL     1      -2.333  51.699 -25.694  1.00  0.00     0.164 C 
HETATM    6  O1  UNL     1      -3.292  50.939 -25.599  1.00  0.00    -0.292 OA
HETATM    7  C6  UNL     1      -1.486  52.054 -24.570  1.00  0.00     0.063 A 
HETATM    8  C7  UNL     1      -0.377  52.898 -24.698  1.00  0.00     0.043 A 
HETATM    9  N1  UNL     1       0.288  53.042 -23.559  1.00  0.00    -0.296 N 
ATOM     10  H1  UNL     1       1.151  53.565 -23.406  1.00  0.00     0.187 HD
HETATM   11  N2  UNL     1      -0.435  52.339 -22.634  1.00  0.00    -0.255 N 
HETATM   12  C14 UNL     1      -1.491  51.641 -23.246  1.00  0.00     0.083 A 
HETATM   13  C21 UNL     1       0.046  53.536 -25.976  1.00  0.00     0.069 C 
ENDROOT
BRANCH  11  14
HETATM   14  C8  UNL     1      -0.041  52.419 -21.259  1.00  0.00     0.057 A 
HETATM   15  C9  UNL     1      -0.509  51.529 -20.286  1.00  0.00     0.034 A 
HETATM   16  C10 UNL     1      -0.092  51.653 -18.956  1.00  0.00     0.039 A 
HETATM   17  C11 UNL     1       0.779  52.670 -18.590  1.00  0.00     0.065 A 
HETATM   18  C12 UNL     1       1.241  53.579 -19.534  1.00  0.00     0.039 A 
HETATM   19  C13 UNL     1       0.826  53.457 -20.863  1.00  0.00     0.034 A 
BRANCH  17  20
HETATM   20  O2  UNL     1       1.154  52.748 -17.283  1.00  0.00    -0.361 OA
HETATM   21  H11 UNL     1       1.762  53.499 -17.179  1.00  0.00     0.217 HD
ENDBRANCH  17  20
ENDBRANCH  11  14
BRANCH  12  22
HETATM   22  C15 UNL     1      -2.332  50.620 -22.626  1.00  0.00    -0.005 A 
HETATM   23  C16 UNL     1      -1.953  49.272 -22.659  1.00  0.00     0.015 A 
HETATM   24  C17 UNL     1      -2.750  48.299 -22.049  1.00  0.00     0.026 A 
HETATM   25  C18 UNL     1      -3.929  48.666 -21.395  1.00  0.00     0.055 A 
HETATM   26 CL1  UNL     1      -4.868  47.411 -20.668  1.00  0.00    -0.083 Cl
HETATM   27  C19 UNL     1      -4.308  50.012 -21.348  1.00  0.00     0.056 A 
HETATM   28 CL2  UNL     1      -5.750  50.540 -20.555  1.00  0.00    -0.083 Cl
HETATM   29  C20 UNL     1      -3.509  50.985 -21.957  1.00  0.00     0.039 A 
ENDBRANCH  12  22
TORSDOF 3
ENDMDL
MODEL 9
REMARK minimizedAffinity -8.83117867
REMARK CNNscore 0.216448173
REMARK CNNaffinity 6.17182684
REMARK  3 active torsions:
REMARK  status: ('A' for Active; 'I' for Inactive)
REMARK    1  A    between atoms: N2_11  and  C8_12 
REMARK    2  A    between atoms: C11_15  and  O2_16 
REMARK    3  A    between atoms: C14_19  and  C15_20 
ROOT
HETATM    1  C1  UNL     1      -2.529  49.411 -18.652  1.00  0.00     0.015 C 
HETATM    2  C2  UNL     1      -2.236  49.459 -20.162  1.00  0.00    -0.036 C 
HETATM    3  C3  UNL     1      -0.968  48.620 -20.429  1.00  0.00     0.015 C 
HETATM    4  C4  UNL     1      -1.990  50.938 -20.577  1.00  0.00     0.093 C 
HETATM    5  C5  UNL     1      -1.885  51.161 -22.088  1.00  0.00     0.164 C 
HETATM    6  O1  UNL     1      -1.228  52.090 -22.546  1.00  0.00    -0.292 OA
HETATM    7  C6  UNL     1      -2.667  50.258 -22.911  1.00  0.00     0.063 A 
HETATM    8  C7  UNL     1      -3.388  49.183 -22.378  1.00  0.00     0.043 A 
HETATM    9  N1  UNL     1      -3.984  48.454 -23.313  1.00  0.00    -0.296 N 
ATOM     10  H1  UNL     1      -4.525  47.599 -23.182  1.00  0.00     0.187 HD
HETATM   11  N2  UNL     1      -3.716  49.099 -24.491  1.00  0.00    -0.255 N 
HETATM   12  C14 UNL     1      -2.829  50.170 -24.286  1.00  0.00     0.083 A 
HETATM   13  C21 UNL     1      -3.453  48.858 -20.926  1.00  0.00     0.069 C 
ENDROOT
BRANCH  11  14
HETATM   14  C8  UNL     1      -4.349  48.624 -25.685  1.00  0.00     0.057 A 
HETATM   15  C9  UNL     1      -3.710  48.624 -26.929  1.00  0.00     0.034 A 
HETATM   16  C10 UNL     1      -4.375  48.149 -28.065  1.00  0.00     0.039 A 
HETATM   17  C11 UNL     1      -5.680  47.687 -27.966  1.00  0.00     0.065 A 
HETATM   18  C12 UNL     1      -6.343  47.698 -26.746  1.00  0.00     0.039 A 
HETATM   19  C13 UNL     1      -5.681  48.172 -25.610  1.00  0.00     0.034 A 
BRANCH  17  20
HETATM   20  O2  UNL     1      -6.283  47.237 -29.101  1.00  0.00    -0.361 OA
HETATM   21  H11 UNL     1      -7.183  46.945 -28.880  1.00  0.00     0.217 HD
ENDBRANCH  17  20
ENDBRANCH  11  14
BRANCH  12  22
HETATM   22  C15 UNL     1      -2.146  50.942 -25.322  1.00  0.00    -0.005 A 
HETATM   23  C16 UNL     1      -2.836  51.920 -26.049  1.00  0.00     0.015 A 
HETATM   24  C17 UNL     1      -2.176  52.670 -27.026  1.00  0.00     0.026 A 
HETATM   25  C18 UNL     1      -0.819  52.455 -27.280  1.00  0.00     0.055 A 
HETATM   26 CL1  UNL     1      -0.069  53.414 -28.506  1.00  0.00    -0.083 Cl
HETATM   27  C19 UNL     1      -0.120  51.487 -26.550  1.00  0.00     0.056 A 
HETATM   28 CL2  UNL     1       1.558  51.167 -26.807  1.00  0.00    -0.083 Cl
HETATM   29  C20 UNL     1      -0.782  50.738 -25.571  1.00  0.00     0.039 A 
ENDBRANCH  12  22
TORSDOF 3
ENDMDL
