MODEL 1
REMARK minimizedAffinity -10.1865473
REMARK  8 active torsions:
REMARK  status: ('A' for Active; 'I' for Inactive)
REMARK    1  A    between atoms: C4_4  and  C5_5 
REMARK    2  A    between atoms: C7_7  and  O1_8 
REMARK    3  A    between atoms: C13_19  and  N3_20 
REMARK    4  A    between atoms: N3_20  and  C14_21 
REMARK    5  A    between atoms: C18_25  and  C19_26 
REMARK       I    between atoms: C19_26  and  N4_28 
REMARK    6  A    between atoms: N4_28  and  C20_29 
REMARK    7  A    between atoms: C20_29  and  C21_30 
REMARK    8  A    between atoms: C21_30  and  N5_31 
ROOT
HETATM    1  C1  UNL     1      -1.298  50.036 -21.626  1.00  0.00     0.050 C 
HETATM    2  C2  UNL     1      -0.562  51.187 -22.255  1.00  0.00    -0.032 A 
HETATM    3  C3  UNL     1      -0.524  51.299 -23.656  1.00  0.00     0.021 A 
HETATM    4  C4  UNL     1       0.155  52.353 -24.274  1.00  0.00    -0.021 A 
HETATM    5  C11 UNL     1       0.788  53.294 -23.457  1.00  0.00     0.045 A 
HETATM    6  C12 UNL     1       0.759  53.193 -22.069  1.00  0.00     0.077 A 
HETATM    7  N1  UNL     1       1.376  54.103 -21.310  1.00  0.00    -0.284 N 
ATOM      8  H1  UNL     1       1.872  54.882 -21.742  1.00  0.00     0.187 HD
HETATM    9  N2  UNL     1       1.336  53.981 -19.950  1.00  0.00    -0.131 N 
ATOM     10  H2  UNL     1       1.807  54.670 -19.364  1.00  0.00     0.205 HD
HETATM   11  C13 UNL     1       0.679  52.956 -19.379  1.00  0.00     0.697 A 
HETATM   12  N6  UNL     1       0.046  52.021 -20.104  1.00  0.00    -0.188 N 
ATOM     13  H6  UNL     1      -0.447  51.249 -19.654  1.00  0.00     0.184 HD
HETATM   14  C25 UNL     1       0.082  52.133 -21.447  1.00  0.00     0.083 A 
ENDROOT
BRANCH  11  15
HETATM   15  N3  UNL     1       0.614  52.771 -17.999  1.00  0.00    -0.190 N 
HETATM   16  H10 UNL     1      -0.342  52.902 -17.701  1.00  0.00     0.184 HD
BRANCH  15  17
HETATM   17  C14 UNL     1       1.573  52.548 -17.005  1.00  0.00     0.050 A 
HETATM   18  C15 UNL     1       2.953  52.524 -17.244  1.00  0.00     0.030 A 
HETATM   19  C16 UNL     1       3.866  52.286 -16.210  1.00  0.00     0.003 A 
HETATM   20  C17 UNL     1       3.411  52.047 -14.917  1.00  0.00     0.017 A 
HETATM   21  C18 UNL     1       2.039  52.034 -14.657  1.00  0.00     0.034 A 
HETATM   22  C24 UNL     1       1.131  52.294 -15.695  1.00  0.00     0.047 A 
BRANCH  21  23
HETATM   23  C19 UNL     1       1.585  51.757 -13.267  1.00  0.00     0.251 C 
HETATM   24  O2  UNL     1       1.718  50.638 -12.784  1.00  0.00    -0.268 OA
HETATM   25  N4  UNL     1       0.982  52.804 -12.603  1.00  0.00    -0.355 N 
HETATM   26  H14 UNL     1       0.658  53.602 -13.132  1.00  0.00     0.162 HD
BRANCH  25  27
HETATM   27  C20 UNL     1       0.367  52.609 -11.305  1.00  0.00     0.153 C 
BRANCH  27  28
HETATM   28  C21 UNL     1      -1.169  52.748 -11.295  1.00  0.00     0.291 C 
BRANCH  28  29
HETATM   29  N5  UNL     1      -1.668  53.721 -10.294  1.00  0.00     0.081 N 
HETATM   30  C22 UNL     1      -0.906  54.974 -10.343  1.00  0.00     0.309 C 
HETATM   31  C23 UNL     1      -3.080  54.020 -10.551  1.00  0.00     0.309 C 
ENDBRANCH  28  29
ENDBRANCH  27  28
ENDBRANCH  25  27
ENDBRANCH  21  23
ENDBRANCH  15  17
ENDBRANCH  11  15
BRANCH   4  32
HETATM   32  C5  UNL     1       0.196  52.474 -25.736  1.00  0.00    -0.001 A 
HETATM   33  C6  UNL     1      -0.799  53.223 -26.388  1.00  0.00     0.050 A 
HETATM   34  C7  UNL     1      -0.795  53.360 -27.774  1.00  0.00     0.066 A 
HETATM   35  C8  UNL     1       0.191  52.763 -28.548  1.00  0.00     0.038 A 
HETATM   36  C9  UNL     1       1.189  52.018 -27.922  1.00  0.00     0.027 A 
HETATM   37  C10 UNL     1       1.194  51.874 -26.529  1.00  0.00     0.045 A 
HETATM   38 CL1  UNL     1       2.476  50.946 -25.829  1.00  0.00    -0.083 Cl
BRANCH  34  39
HETATM   39  O1  UNL     1      -1.792  54.099 -28.337  1.00  0.00    -0.361 OA
HETATM   40  H6  UNL     1      -1.665  54.121 -29.301  1.00  0.00     0.217 HD
ENDBRANCH  34  39
ENDBRANCH   4  32
TORSDOF 8
ENDMDL
MODEL 2
REMARK minimizedAffinity -9.9428196
REMARK  8 active torsions:
REMARK  status: ('A' for Active; 'I' for Inactive)
REMARK    1  A    between atoms: C4_4  and  C5_5 
REMARK    2  A    between atoms: C7_7  and  O1_8 
REMARK    3  A    between atoms: C13_19  and  N3_20 
REMARK    4  A    between atoms: N3_20  and  C14_21 
REMARK    5  A    between atoms: C18_25  and  C19_26 
REMARK       I    between atoms: C19_26  and  N4_28 
REMARK    6  A    between atoms: N4_28  and  C20_29 
REMARK    7  A    between atoms: C20_29  and  C21_30 
REMARK    8  A    between atoms: C21_30  and  N5_31 
ROOT
HETATM    1  C1  UNL     1      -1.441  50.234 -21.686  1.00  0.00     0.050 C 
HETATM    2  C2  UNL     1      -0.641  51.332 -22.333  1.00  0.00    -0.032 A 
HETATM    3  C3  UNL     1      -0.607  51.426 -23.735  1.00  0.00     0.021 A 
HETATM    4  C4  UNL     1       0.131  52.430 -24.369  1.00  0.00    -0.021 A 
HETATM    5  C11 UNL     1       0.825  53.340 -23.567  1.00  0.00     0.045 A 
HETATM    6  C12 UNL     1       0.800  53.256 -22.179  1.00  0.00     0.077 A 
HETATM    7  N1  UNL     1       1.477  54.135 -21.434  1.00  0.00    -0.284 N 
ATOM      8  H1  UNL     1       2.017  54.878 -21.877  1.00  0.00     0.187 HD
HETATM    9  N2  UNL     1       1.440  54.029 -20.072  1.00  0.00    -0.131 N 
ATOM     10  H2  UNL     1       1.957  54.695 -19.497  1.00  0.00     0.205 HD
HETATM   11  C13 UNL     1       0.727  53.053 -19.485  1.00  0.00     0.697 A 
HETATM   12  N6  UNL     1       0.033  52.150 -20.196  1.00  0.00    -0.188 N 
ATOM     13  H6  UNL     1      -0.502  51.414 -19.733  1.00  0.00     0.184 HD
HETATM   14  C25 UNL     1       0.065  52.246 -21.540  1.00  0.00     0.083 A 
ENDROOT
BRANCH  11  15
HETATM   15  N3  UNL     1       0.661  52.887 -18.102  1.00  0.00    -0.190 N 
HETATM   16  H10 UNL     1       0.628  53.799 -17.669  1.00  0.00     0.184 HD
BRANCH  15  17
HETATM   17  C14 UNL     1       0.724  51.774 -17.256  1.00  0.00     0.050 A 
HETATM   18  C15 UNL     1       0.044  50.573 -17.495  1.00  0.00     0.030 A 
HETATM   19  C16 UNL     1       0.137  49.496 -16.606  1.00  0.00     0.003 A 
HETATM   20  C17 UNL     1       0.901  49.608 -15.448  1.00  0.00     0.017 A 
HETATM   21  C18 UNL     1       1.565  50.806 -15.171  1.00  0.00     0.034 A 
HETATM   22  C24 UNL     1       1.482  51.874 -16.077  1.00  0.00     0.047 A 
BRANCH  21  23
HETATM   23  C19 UNL     1       2.358  50.900 -13.915  1.00  0.00     0.251 C 
HETATM   24  O2  UNL     1       2.992  49.931 -13.510  1.00  0.00    -0.268 OA
HETATM   25  N4  UNL     1       2.292  52.100 -13.241  1.00  0.00    -0.355 N 
HETATM   26  H14 UNL     1       1.556  52.754 -13.469  1.00  0.00     0.162 HD
BRANCH  25  27
HETATM   27  C20 UNL     1       2.901  52.257 -11.935  1.00  0.00     0.153 C 
BRANCH  27  28
HETATM   28  C21 UNL     1       1.946  52.782 -10.842  1.00  0.00     0.291 C 
BRANCH  28  29
HETATM   29  N5  UNL     1       2.385  54.064 -10.242  1.00  0.00     0.081 N 
HETATM   30  C22 UNL     1       3.692  54.479 -10.765  1.00  0.00     0.309 C 
HETATM   31  C23 UNL     1       1.406  55.114 -10.542  1.00  0.00     0.309 C 
ENDBRANCH  28  29
ENDBRANCH  27  28
ENDBRANCH  25  27
ENDBRANCH  21  23
ENDBRANCH  15  17
ENDBRANCH  11  15
BRANCH   4  32
HETATM   32  C5  UNL     1       0.168  52.533 -25.833  1.00  0.00    -0.001 A 
HETATM   33  C6  UNL     1      -0.822  53.283 -26.491  1.00  0.00     0.050 A 
HETATM   34  C7  UNL     1      -0.822  53.403 -27.878  1.00  0.00     0.066 A 
HETATM   35  C8  UNL     1       0.156  52.787 -28.648  1.00  0.00     0.038 A 
HETATM   36  C9  UNL     1       1.149  52.040 -28.016  1.00  0.00     0.027 A 
HETATM   37  C10 UNL     1       1.157  51.914 -26.621  1.00  0.00     0.045 A 
HETATM   38 CL1  UNL     1       2.433  50.983 -25.914  1.00  0.00    -0.083 Cl
BRANCH  34  39
HETATM   39  O1  UNL     1      -1.813  54.144 -28.448  1.00  0.00    -0.361 OA
HETATM   40  H6  UNL     1      -1.689  54.153 -29.412  1.00  0.00     0.217 HD
ENDBRANCH  34  39
ENDBRANCH   4  32
TORSDOF 8
ENDMDL
MODEL 3
REMARK minimizedAffinity -9.90252686
REMARK  8 active torsions:
REMARK  status: ('A' for Active; 'I' for Inactive)
REMARK    1  A    between atoms: C4_4  and  C5_5 
REMARK    2  A    between atoms: C7_7  and  O1_8 
REMARK    3  A    between atoms: C13_19  and  N3_20 
REMARK    4  A    between atoms: N3_20  and  C14_21 
REMARK    5  A    between atoms: C18_25  and  C19_26 
REMARK       I    between atoms: C19_26  and  N4_28 
REMARK    6  A    between atoms: N4_28  and  C20_29 
REMARK    7  A    between atoms: C20_29  and  C21_30 
REMARK    8  A    between atoms: C21_30  and  N5_31 
ROOT
HETATM    1  C1  UNL     1      -1.625  50.114 -21.067  1.00  0.00     0.050 C 
HETATM    2  C2  UNL     1      -0.751  51.110 -21.778  1.00  0.00    -0.032 A 
HETATM    3  C3  UNL     1      -0.691  51.098 -23.182  1.00  0.00     0.021 A 
HETATM    4  C4  UNL     1       0.115  52.005 -23.875  1.00  0.00    -0.021 A 
HETATM    5  C11 UNL     1       0.852  52.930 -23.129  1.00  0.00     0.045 A 
HETATM    6  C12 UNL     1       0.802  52.951 -21.739  1.00  0.00     0.077 A 
HETATM    7  N1  UNL     1       1.520  53.842 -21.048  1.00  0.00    -0.284 N 
ATOM      8  H1  UNL     1       2.110  54.516 -21.535  1.00  0.00     0.187 HD
HETATM    9  N2  UNL     1       1.457  53.841 -19.683  1.00  0.00    -0.131 N 
ATOM     10  H2  UNL     1       2.005  54.517 -19.150  1.00  0.00     0.205 HD
HETATM   11  C13 UNL     1       0.678  52.955 -19.040  1.00  0.00     0.697 A 
HETATM   12  N6  UNL     1      -0.059  52.045 -19.695  1.00  0.00    -0.188 N 
ATOM     13  H6  UNL     1      -0.645  51.379 -19.189  1.00  0.00     0.184 HD
HETATM   14  C25 UNL     1      -0.002  52.037 -21.042  1.00  0.00     0.083 A 
ENDROOT
BRANCH  11  15
HETATM   15  N3  UNL     1       0.582  52.897 -17.650  1.00  0.00    -0.190 N 
HETATM   16  H10 UNL     1      -0.319  53.261 -17.374  1.00  0.00     0.184 HD
BRANCH  15  17
HETATM   17  C14 UNL     1       1.474  52.544 -16.631  1.00  0.00     0.050 A 
HETATM   18  C15 UNL     1       2.867  52.547 -16.779  1.00  0.00     0.030 A 
HETATM   19  C16 UNL     1       3.710  52.173 -15.726  1.00  0.00     0.003 A 
HETATM   20  C17 UNL     1       3.171  51.770 -14.508  1.00  0.00     0.017 A 
HETATM   21  C18 UNL     1       1.785  51.728 -14.344  1.00  0.00     0.034 A 
HETATM   22  C24 UNL     1       0.947  52.124 -15.398  1.00  0.00     0.047 A 
BRANCH  21  23
HETATM   23  C19 UNL     1       1.240  51.275 -13.035  1.00  0.00     0.251 C 
HETATM   24  O2  UNL     1       1.748  50.326 -12.449  1.00  0.00    -0.268 OA
HETATM   25  N4  UNL     1       0.131  51.949 -12.571  1.00  0.00    -0.355 N 
HETATM   26  H14 UNL     1      -0.399  52.526 -13.209  1.00  0.00     0.162 HD
BRANCH  25  27
HETATM   27  C20 UNL     1      -0.573  51.499 -11.386  1.00  0.00     0.153 C 
BRANCH  27  28
HETATM   28  C21 UNL     1      -1.525  52.546 -10.770  1.00  0.00     0.291 C 
BRANCH  28  29
HETATM   29  N5  UNL     1      -2.759  52.759 -11.563  1.00  0.00     0.081 N 
HETATM   30  C22 UNL     1      -3.401  51.485 -11.905  1.00  0.00     0.309 C 
HETATM   31  C23 UNL     1      -3.709  53.572 -10.796  1.00  0.00     0.309 C 
ENDBRANCH  28  29
ENDBRANCH  27  28
ENDBRANCH  25  27
ENDBRANCH  21  23
ENDBRANCH  15  17
ENDBRANCH  11  15
BRANCH   4  32
HETATM   32  C5  UNL     1       0.180  51.996 -25.341  1.00  0.00    -0.001 A 
HETATM   33  C6  UNL     1       1.427  51.837 -25.969  1.00  0.00     0.050 A 
HETATM   34  C7  UNL     1       1.530  51.826 -27.358  1.00  0.00     0.066 A 
HETATM   35  C8  UNL     1       0.405  51.969 -28.159  1.00  0.00     0.038 A 
HETATM   36  C9  UNL     1      -0.843  52.126 -27.557  1.00  0.00     0.027 A 
HETATM   37  C10 UNL     1      -0.957  52.139 -26.161  1.00  0.00     0.045 A 
HETATM   38 CL1  UNL     1      -2.542  52.323 -25.494  1.00  0.00    -0.083 Cl
BRANCH  34  39
HETATM   39  O1  UNL     1       2.771  51.668 -27.898  1.00  0.00    -0.361 OA
HETATM   40  H6  UNL     1       2.698  51.669 -28.867  1.00  0.00     0.217 HD
ENDBRANCH  34  39
ENDBRANCH   4  32
TORSDOF 8
ENDMDL
MODEL 4
REMARK minimizedAffinity -9.77873421
REMARK  8 active torsions:
REMARK  status: ('A' for Active; 'I' for Inactive)
REMARK    1  A    between atoms: C4_4  and  C5_5 
REMARK    2  A    between atoms: C7_7  and  O1_8 
REMARK    3  A    between atoms: C13_19  and  N3_20 
REMARK    4  A    between atoms: N3_20  and  C14_21 
REMARK    5  A    between atoms: C18_25  and  C19_26 
REMARK       I    between atoms: C19_26  and  N4_28 
REMARK    6  A    between atoms: N4_28  and  C20_29 
REMARK    7  A    between atoms: C20_29  and  C21_30 
REMARK    8  A    between atoms: C21_30  and  N5_31 
ROOT
HETATM    1  C1  UNL     1      -1.345  50.058 -21.569  1.00  0.00     0.050 C 
HETATM    2  C2  UNL     1      -0.593  51.192 -22.212  1.00  0.00    -0.032 A 
HETATM    3  C3  UNL     1      -0.571  51.298 -23.614  1.00  0.00     0.021 A 
HETATM    4  C4  UNL     1       0.122  52.335 -24.244  1.00  0.00    -0.021 A 
HETATM    5  C11 UNL     1       0.784  53.267 -23.439  1.00  0.00     0.045 A 
HETATM    6  C12 UNL     1       0.770  53.171 -22.051  1.00  0.00     0.077 A 
HETATM    7  N1  UNL     1       1.415  54.071 -21.303  1.00  0.00    -0.284 N 
ATOM      8  H1  UNL     1       1.922  54.839 -21.744  1.00  0.00     0.187 HD
HETATM    9  N2  UNL     1       1.390  53.955 -19.942  1.00  0.00    -0.131 N 
ATOM     10  H2  UNL     1       1.882  54.637 -19.365  1.00  0.00     0.205 HD
HETATM   11  C13 UNL     1       0.720  52.946 -19.359  1.00  0.00     0.697 A 
HETATM   12  N6  UNL     1       0.059  52.021 -20.072  1.00  0.00    -0.188 N 
ATOM     13  H6  UNL     1      -0.444  51.261 -19.613  1.00  0.00     0.184 HD
HETATM   14  C25 UNL     1       0.080  52.128 -21.416  1.00  0.00     0.083 A 
ENDROOT
BRANCH  11  15
HETATM   15  N3  UNL     1       0.668  52.767 -17.977  1.00  0.00    -0.190 N 
HETATM   16  H10 UNL     1      -0.269  52.969 -17.661  1.00  0.00     0.184 HD
BRANCH  15  17
HETATM   17  C14 UNL     1       1.628  52.475 -17.002  1.00  0.00     0.050 A 
HETATM   18  C15 UNL     1       2.976  52.841 -17.099  1.00  0.00     0.030 A 
HETATM   19  C16 UNL     1       3.894  52.511 -16.095  1.00  0.00     0.003 A 
HETATM   20  C17 UNL     1       3.480  51.789 -14.980  1.00  0.00     0.017 A 
HETATM   21  C18 UNL     1       2.148  51.384 -14.872  1.00  0.00     0.034 A 
HETATM   22  C24 UNL     1       1.230  51.736 -15.873  1.00  0.00     0.047 A 
BRANCH  21  23
HETATM   23  C19 UNL     1       1.742  50.597 -13.676  1.00  0.00     0.251 C 
HETATM   24  O2  UNL     1       0.940  51.062 -12.873  1.00  0.00    -0.268 OA
HETATM   25  N4  UNL     1       2.350  49.370 -13.519  1.00  0.00    -0.355 N 
HETATM   26  H14 UNL     1       3.185  49.162 -14.049  1.00  0.00     0.162 HD
BRANCH  25  27
HETATM   27  C20 UNL     1       2.146  48.584 -12.318  1.00  0.00     0.153 C 
BRANCH  27  28
HETATM   28  C21 UNL     1       1.726  47.122 -12.572  1.00  0.00     0.291 C 
BRANCH  28  29
HETATM   29  N5  UNL     1       2.720  46.350 -13.355  1.00  0.00     0.081 N 
HETATM   30  C22 UNL     1       3.094  45.109 -12.669  1.00  0.00     0.309 C 
HETATM   31  C23 UNL     1       2.163  46.010 -14.668  1.00  0.00     0.309 C 
ENDBRANCH  28  29
ENDBRANCH  27  28
ENDBRANCH  25  27
ENDBRANCH  21  23
ENDBRANCH  15  17
ENDBRANCH  11  15
BRANCH   4  32
HETATM   32  C5  UNL     1       0.147  52.450 -25.707  1.00  0.00    -0.001 A 
HETATM   33  C6  UNL     1      -0.862  53.186 -26.352  1.00  0.00     0.050 A 
HETATM   34  C7  UNL     1      -0.875  53.317 -27.739  1.00  0.00     0.066 A 
HETATM   35  C8  UNL     1       0.109  52.726 -28.520  1.00  0.00     0.038 A 
HETATM   36  C9  UNL     1       1.122  51.993 -27.901  1.00  0.00     0.027 A 
HETATM   37  C10 UNL     1       1.142  51.856 -26.507  1.00  0.00     0.045 A 
HETATM   38 CL1  UNL     1       2.440  50.944 -25.817  1.00  0.00    -0.083 Cl
BRANCH  34  39
HETATM   39  O1  UNL     1      -1.883  54.043 -28.295  1.00  0.00    -0.361 OA
HETATM   40  H6  UNL     1      -1.767  54.062 -29.260  1.00  0.00     0.217 HD
ENDBRANCH  34  39
ENDBRANCH   4  32
TORSDOF 8
ENDMDL
MODEL 5
REMARK minimizedAffinity -9.6579752
REMARK  8 active torsions:
REMARK  status: ('A' for Active; 'I' for Inactive)
REMARK    1  A    between atoms: C4_4  and  C5_5 
REMARK    2  A    between atoms: C7_7  and  O1_8 
REMARK    3  A    between atoms: C13_19  and  N3_20 
REMARK    4  A    between atoms: N3_20  and  C14_21 
REMARK    5  A    between atoms: C18_25  and  C19_26 
REMARK       I    between atoms: C19_26  and  N4_28 
REMARK    6  A    between atoms: N4_28  and  C20_29 
REMARK    7  A    between atoms: C20_29  and  C21_30 
REMARK    8  A    between atoms: C21_30  and  N5_31 
ROOT
HETATM    1  C1  UNL     1       1.070  53.910 -22.917  1.00  0.00     0.050 C 
HETATM    2  C2  UNL     1       0.239  52.687 -22.638  1.00  0.00    -0.032 A 
HETATM    3  C3  UNL     1      -0.440  52.057 -23.696  1.00  0.00     0.021 A 
HETATM    4  C4  UNL     1      -1.225  50.923 -23.471  1.00  0.00    -0.021 A 
HETATM    5  C11 UNL     1      -1.308  50.431 -22.165  1.00  0.00     0.045 A 
HETATM    6  C12 UNL     1      -0.642  51.046 -21.110  1.00  0.00     0.077 A 
HETATM    7  N1  UNL     1      -0.741  50.559 -19.870  1.00  0.00    -0.284 N 
ATOM      8  H1  UNL     1      -1.304  49.729 -19.686  1.00  0.00     0.187 HD
HETATM    9  N2  UNL     1      -0.081  51.183 -18.849  1.00  0.00    -0.131 N 
ATOM     10  H2  UNL     1      -0.154  50.818 -17.899  1.00  0.00     0.205 HD
HETATM   11  C13 UNL     1       0.665  52.275 -19.089  1.00  0.00     0.697 A 
HETATM   12  N6  UNL     1       0.792  52.796 -20.320  1.00  0.00    -0.188 N 
ATOM     13  H6  UNL     1       1.362  53.627 -20.484  1.00  0.00     0.184 HD
HETATM   14  C25 UNL     1       0.142  52.188 -21.333  1.00  0.00     0.083 A 
ENDROOT
BRANCH  11  15
HETATM   15  N3  UNL     1       1.351  52.961 -18.089  1.00  0.00    -0.190 N 
HETATM   16  H10 UNL     1       1.526  53.904 -18.406  1.00  0.00     0.184 HD
BRANCH  15  17
HETATM   17  C14 UNL     1       1.890  52.588 -16.852  1.00  0.00     0.050 A 
HETATM   18  C15 UNL     1       3.261  52.439 -16.612  1.00  0.00     0.030 A 
HETATM   19  C16 UNL     1       3.741  52.053 -15.355  1.00  0.00     0.003 A 
HETATM   20  C17 UNL     1       2.852  51.789 -14.318  1.00  0.00     0.017 A 
HETATM   21  C18 UNL     1       1.477  51.900 -14.539  1.00  0.00     0.034 A 
HETATM   22  C24 UNL     1       1.005  52.307 -15.796  1.00  0.00     0.047 A 
BRANCH  21  23
HETATM   23  C19 UNL     1       0.553  51.593 -13.415  1.00  0.00     0.251 C 
HETATM   24  O2  UNL     1       0.630  50.521 -12.824  1.00  0.00    -0.268 OA
HETATM   25  N4  UNL     1      -0.395  52.551 -13.126  1.00  0.00    -0.355 N 
HETATM   26  H14 UNL     1      -0.586  53.276 -13.804  1.00  0.00     0.162 HD
BRANCH  25  27
HETATM   27  C20 UNL     1      -1.441  52.299 -12.154  1.00  0.00     0.153 C 
BRANCH  27  28
HETATM   28  C21 UNL     1      -2.866  52.251 -12.743  1.00  0.00     0.291 C 
BRANCH  28  29
HETATM   29  N5  UNL     1      -3.904  52.768 -11.818  1.00  0.00     0.081 N 
HETATM   30  C22 UNL     1      -4.389  51.715 -10.919  1.00  0.00     0.309 C 
HETATM   31  C23 UNL     1      -3.349  53.857 -11.008  1.00  0.00     0.309 C 
ENDBRANCH  28  29
ENDBRANCH  27  28
ENDBRANCH  25  27
ENDBRANCH  21  23
ENDBRANCH  15  17
ENDBRANCH  11  15
BRANCH   4  32
HETATM   32  C5  UNL     1      -1.935  50.262 -24.573  1.00  0.00    -0.001 A 
HETATM   33  C6  UNL     1      -1.814  50.782 -25.873  1.00  0.00     0.050 A 
HETATM   34  C7  UNL     1      -2.474  50.184 -26.945  1.00  0.00     0.066 A 
HETATM   35  C8  UNL     1      -3.265  49.059 -26.758  1.00  0.00     0.038 A 
HETATM   36  C9  UNL     1      -3.396  48.524 -25.477  1.00  0.00     0.027 A 
HETATM   37  C10 UNL     1      -2.737  49.119 -24.393  1.00  0.00     0.045 A 
HETATM   38 CL1  UNL     1      -2.940  48.385 -22.839  1.00  0.00    -0.083 Cl
BRANCH  34  39
HETATM   39  O1  UNL     1      -2.312  50.744 -28.176  1.00  0.00    -0.361 OA
HETATM   40  H6  UNL     1      -2.815  50.226 -28.828  1.00  0.00     0.217 HD
ENDBRANCH  34  39
ENDBRANCH   4  32
TORSDOF 8
ENDMDL
MODEL 6
REMARK minimizedAffinity -9.5555954
REMARK  8 active torsions:
REMARK  status: ('A' for Active; 'I' for Inactive)
REMARK    1  A    between atoms: C4_4  and  C5_5 
REMARK    2  A    between atoms: C7_7  and  O1_8 
REMARK    3  A    between atoms: C13_19  and  N3_20 
REMARK    4  A    between atoms: N3_20  and  C14_21 
REMARK    5  A    between atoms: C18_25  and  C19_26 
REMARK       I    between atoms: C19_26  and  N4_28 
REMARK    6  A    between atoms: N4_28  and  C20_29 
REMARK    7  A    between atoms: C20_29  and  C21_30 
REMARK    8  A    between atoms: C21_30  and  N5_31 
ROOT
HETATM    1  C1  UNL     1       1.055  53.713 -20.832  1.00  0.00     0.050 C 
HETATM    2  C2  UNL     1       0.315  52.798 -21.770  1.00  0.00    -0.032 A 
HETATM    3  C3  UNL     1       0.659  52.782 -23.133  1.00  0.00     0.021 A 
HETATM    4  C4  UNL     1      -0.012  51.949 -24.033  1.00  0.00    -0.021 A 
HETATM    5  C11 UNL     1      -1.028  51.128 -23.535  1.00  0.00     0.045 A 
HETATM    6  C12 UNL     1      -1.379  51.137 -22.188  1.00  0.00     0.077 A 
HETATM    7  N1  UNL     1      -2.358  50.347 -21.737  1.00  0.00    -0.284 N 
ATOM      8  H1  UNL     1      -2.855  49.728 -22.377  1.00  0.00     0.187 HD
HETATM    9  N2  UNL     1      -2.686  50.376 -20.411  1.00  0.00    -0.131 N 
ATOM     10  H2  UNL     1      -3.434  49.777 -20.061  1.00  0.00     0.205 HD
HETATM   11  C13 UNL     1      -2.029  51.188 -19.566  1.00  0.00     0.697 A 
HETATM   12  N6  UNL     1      -1.040  51.997 -19.977  1.00  0.00    -0.188 N 
ATOM     13  H6  UNL     1      -0.553  52.609 -19.321  1.00  0.00     0.184 HD
HETATM   14  C25 UNL     1      -0.711  51.976 -21.284  1.00  0.00     0.083 A 
ENDROOT
BRANCH  11  15
HETATM   15  N3  UNL     1      -2.327  51.271 -18.207  1.00  0.00    -0.190 N 
HETATM   16  H10 UNL     1      -2.996  52.015 -18.068  1.00  0.00     0.184 HD
BRANCH  15  17
HETATM   17  C14 UNL     1      -1.837  50.625 -17.067  1.00  0.00     0.050 A 
HETATM   18  C15 UNL     1      -0.703  49.802 -17.063  1.00  0.00     0.030 A 
HETATM   19  C16 UNL     1      -0.265  49.173 -15.892  1.00  0.00     0.003 A 
HETATM   20  C17 UNL     1      -0.967  49.342 -14.703  1.00  0.00     0.017 A 
HETATM   21  C18 UNL     1      -2.119  50.132 -14.685  1.00  0.00     0.034 A 
HETATM   22  C24 UNL     1      -2.540  50.776 -15.859  1.00  0.00     0.047 A 
BRANCH  21  23
HETATM   23  C19 UNL     1      -2.857  50.277 -13.401  1.00  0.00     0.251 C 
HETATM   24  O2  UNL     1      -3.424  49.312 -12.900  1.00  0.00    -0.268 OA
HETATM   25  N4  UNL     1      -2.895  51.545 -12.860  1.00  0.00    -0.355 N 
HETATM   26  H14 UNL     1      -2.653  52.336 -13.440  1.00  0.00     0.162 HD
BRANCH  25  27
HETATM   27  C20 UNL     1      -3.709  51.835 -11.696  1.00  0.00     0.153 C 
BRANCH  27  28
HETATM   28  C21 UNL     1      -3.768  53.328 -11.311  1.00  0.00     0.291 C 
BRANCH  28  29
HETATM   29  N5  UNL     1      -3.064  53.638 -10.043  1.00  0.00     0.081 N 
HETATM   30  C22 UNL     1      -2.608  52.416  -9.373  1.00  0.00     0.309 C 
HETATM   31  C23 UNL     1      -1.899  54.486 -10.316  1.00  0.00     0.309 C 
ENDBRANCH  28  29
ENDBRANCH  27  28
ENDBRANCH  25  27
ENDBRANCH  21  23
ENDBRANCH  15  17
ENDBRANCH  11  15
BRANCH   4  32
HETATM   32  C5  UNL     1       0.345  51.928 -25.456  1.00  0.00    -0.001 A 
HETATM   33  C6  UNL     1       1.685  51.714 -25.822  1.00  0.00     0.050 A 
HETATM   34  C7  UNL     1       2.064  51.689 -27.162  1.00  0.00     0.066 A 
HETATM   35  C8  UNL     1       1.129  51.873 -28.172  1.00  0.00     0.038 A 
HETATM   36  C9  UNL     1      -0.207  52.084 -27.832  1.00  0.00     0.027 A 
HETATM   37  C10 UNL     1      -0.597  52.111 -26.487  1.00  0.00     0.045 A 
HETATM   38 CL1  UNL     1      -2.275  52.364 -26.151  1.00  0.00    -0.083 Cl
BRANCH  34  39
HETATM   39  O1  UNL     1       3.380  51.478 -27.441  1.00  0.00    -0.361 OA
HETATM   40  H6  UNL     1       3.504  51.475 -28.406  1.00  0.00     0.217 HD
ENDBRANCH  34  39
ENDBRANCH   4  32
TORSDOF 8
ENDMDL
MODEL 7
REMARK minimizedAffinity -9.50837898
REMARK  8 active torsions:
REMARK  status: ('A' for Active; 'I' for Inactive)
REMARK    1  A    between atoms: C4_4  and  C5_5 
REMARK    2  A    between atoms: C7_7  and  O1_8 
REMARK    3  A    between atoms: C13_19  and  N3_20 
REMARK    4  A    between atoms: N3_20  and  C14_21 
REMARK    5  A    between atoms: C18_25  and  C19_26 
REMARK       I    between atoms: C19_26  and  N4_28 
REMARK    6  A    between atoms: N4_28  and  C20_29 
REMARK    7  A    between atoms: C20_29  and  C21_30 
REMARK    8  A    between atoms: C21_30  and  N5_31 
ROOT
HETATM    1  C1  UNL     1      -1.478  50.004 -21.028  1.00  0.00     0.050 C 
HETATM    2  C2  UNL     1      -0.670  51.048 -21.750  1.00  0.00    -0.032 A 
HETATM    3  C3  UNL     1      -0.649  51.054 -23.155  1.00  0.00     0.021 A 
HETATM    4  C4  UNL     1       0.095  52.005 -23.858  1.00  0.00    -0.021 A 
HETATM    5  C11 UNL     1       0.810  52.954 -23.121  1.00  0.00     0.045 A 
HETATM    6  C12 UNL     1       0.798  52.957 -21.730  1.00  0.00     0.077 A 
HETATM    7  N1  UNL     1       1.493  53.872 -21.048  1.00  0.00    -0.284 N 
ATOM      8  H1  UNL     1       2.038  54.578 -21.542  1.00  0.00     0.187 HD
HETATM    9  N2  UNL     1       1.469  53.853 -19.682  1.00  0.00    -0.131 N 
ATOM     10  H2  UNL     1       2.000  54.546 -19.155  1.00  0.00     0.205 HD
HETATM   11  C13 UNL     1       0.749  52.925 -19.028  1.00  0.00     0.697 A 
HETATM   12  N6  UNL     1       0.035  51.989 -19.674  1.00  0.00    -0.188 N 
ATOM     13  H6  UNL     1      -0.505  51.291 -19.162  1.00  0.00     0.184 HD
HETATM   14  C25 UNL     1       0.056  52.000 -21.022  1.00  0.00     0.083 A 
ENDROOT
BRANCH  11  15
HETATM   15  N3  UNL     1       0.694  52.846 -17.637  1.00  0.00    -0.190 N 
HETATM   16  H10 UNL     1       0.545  53.775 -17.268  1.00  0.00     0.184 HD
BRANCH  15  17
HETATM   17  C14 UNL     1       0.889  51.811 -16.717  1.00  0.00     0.050 A 
HETATM   18  C15 UNL     1       0.334  50.532 -16.853  1.00  0.00     0.030 A 
HETATM   19  C16 UNL     1       0.555  49.537 -15.893  1.00  0.00     0.003 A 
HETATM   20  C17 UNL     1       1.325  49.812 -14.766  1.00  0.00     0.017 A 
HETATM   21  C18 UNL     1       1.864  51.088 -14.591  1.00  0.00     0.034 A 
HETATM   22  C24 UNL     1       1.654  52.073 -15.568  1.00  0.00     0.047 A 
BRANCH  21  23
HETATM   23  C19 UNL     1       2.667  51.354 -13.366  1.00  0.00     0.251 C 
HETATM   24  O2  UNL     1       3.613  50.631 -13.077  1.00  0.00    -0.268 OA
HETATM   25  N4  UNL     1       2.251  52.410 -12.583  1.00  0.00    -0.355 N 
HETATM   26  H14 UNL     1       1.325  52.791 -12.720  1.00  0.00     0.162 HD
BRANCH  25  27
HETATM   27  C20 UNL     1       2.862  52.669 -11.294  1.00  0.00     0.153 C 
BRANCH  27  28
HETATM   28  C21 UNL     1       3.352  54.119 -11.096  1.00  0.00     0.291 C 
BRANCH  28  29
HETATM   29  N5  UNL     1       2.935  54.710  -9.802  1.00  0.00     0.081 N 
HETATM   30  C22 UNL     1       3.549  54.005  -8.671  1.00  0.00     0.309 C 
HETATM   31  C23 UNL     1       3.334  56.120  -9.748  1.00  0.00     0.309 C 
ENDBRANCH  28  29
ENDBRANCH  27  28
ENDBRANCH  25  27
ENDBRANCH  21  23
ENDBRANCH  15  17
ENDBRANCH  11  15
BRANCH   4  32
HETATM   32  C5  UNL     1       0.119  52.016 -25.326  1.00  0.00    -0.001 A 
HETATM   33  C6  UNL     1       1.347  51.852 -25.990  1.00  0.00     0.050 A 
HETATM   34  C7  UNL     1       1.411  51.859 -27.381  1.00  0.00     0.066 A 
HETATM   35  C8  UNL     1       0.266  52.026 -28.149  1.00  0.00     0.038 A 
HETATM   36  C9  UNL     1      -0.963  52.188 -27.510  1.00  0.00     0.027 A 
HETATM   37  C10 UNL     1      -1.038  52.183 -26.111  1.00  0.00     0.045 A 
HETATM   38 CL1  UNL     1      -2.602  52.374 -25.398  1.00  0.00    -0.083 Cl
BRANCH  34  39
HETATM   39  O1  UNL     1       2.635  51.695 -27.957  1.00  0.00    -0.361 OA
HETATM   40  H6  UNL     1       2.536  51.710 -28.924  1.00  0.00     0.217 HD
ENDBRANCH  34  39
ENDBRANCH   4  32
TORSDOF 8
ENDMDL
MODEL 8
REMARK minimizedAffinity -9.40811253
REMARK  8 active torsions:
REMARK  status: ('A' for Active; 'I' for Inactive)
REMARK    1  A    between atoms: C4_4  and  C5_5 
REMARK    2  A    between atoms: C7_7  and  O1_8 
REMARK    3  A    between atoms: C13_19  and  N3_20 
REMARK    4  A    between atoms: N3_20  and  C14_21 
REMARK    5  A    between atoms: C18_25  and  C19_26 
REMARK       I    between atoms: C19_26  and  N4_28 
REMARK    6  A    between atoms: N4_28  and  C20_29 
REMARK    7  A    between atoms: C20_29  and  C21_30 
REMARK    8  A    between atoms: C21_30  and  N5_31 
ROOT
HETATM    1  C1  UNL     1      -2.087  47.346 -21.909  1.00  0.00     0.050 C 
HETATM    2  C2  UNL     1      -2.278  48.825 -22.109  1.00  0.00    -0.032 A 
HETATM    3  C3  UNL     1      -1.305  49.717 -21.626  1.00  0.00     0.021 A 
HETATM    4  C4  UNL     1      -1.454  51.097 -21.790  1.00  0.00    -0.021 A 
HETATM    5  C11 UNL     1      -2.593  51.561 -22.455  1.00  0.00     0.045 A 
HETATM    6  C12 UNL     1      -3.562  50.687 -22.936  1.00  0.00     0.077 A 
HETATM    7  N1  UNL     1      -4.645  51.155 -23.564  1.00  0.00    -0.284 N 
ATOM      8  H1  UNL     1      -4.769  52.158 -23.699  1.00  0.00     0.187 HD
HETATM    9  N2  UNL     1      -5.586  50.277 -24.025  1.00  0.00    -0.131 N 
ATOM     10  H2  UNL     1      -6.416  50.627 -24.502  1.00  0.00     0.205 HD
HETATM   11  C13 UNL     1      -5.423  48.954 -23.851  1.00  0.00     0.697 A 
HETATM   12  N6  UNL     1      -4.350  48.442 -23.226  1.00  0.00    -0.188 N 
ATOM     13  H6  UNL     1      -4.244  47.435 -23.103  1.00  0.00     0.184 HD
HETATM   14  C25 UNL     1      -3.419  49.301 -22.768  1.00  0.00     0.083 A 
ENDROOT
BRANCH  11  15
HETATM   15  N3  UNL     1      -6.353  48.011 -24.287  1.00  0.00    -0.190 N 
HETATM   16  H10 UNL     1      -6.755  47.558 -23.479  1.00  0.00     0.184 HD
BRANCH  15  17
HETATM   17  C14 UNL     1      -6.737  47.541 -25.548  1.00  0.00     0.050 A 
HETATM   18  C15 UNL     1      -7.813  46.670 -25.760  1.00  0.00     0.030 A 
HETATM   19  C16 UNL     1      -8.144  46.224 -27.045  1.00  0.00     0.003 A 
HETATM   20  C17 UNL     1      -7.390  46.628 -28.142  1.00  0.00     0.017 A 
HETATM   21  C18 UNL     1      -6.292  47.472 -27.954  1.00  0.00     0.034 A 
HETATM   22  C24 UNL     1      -5.979  47.931 -26.666  1.00  0.00     0.047 A 
BRANCH  21  23
HETATM   23  C19 UNL     1      -5.495  47.871 -29.146  1.00  0.00     0.251 C 
HETATM   24  O2  UNL     1      -4.337  48.252 -29.016  1.00  0.00    -0.268 OA
HETATM   25  N4  UNL     1      -6.149  47.828 -30.359  1.00  0.00    -0.355 N 
HETATM   26  H14 UNL     1      -7.158  47.773 -30.374  1.00  0.00     0.162 HD
BRANCH  25  27
HETATM   27  C20 UNL     1      -5.521  48.336 -31.563  1.00  0.00     0.153 C 
BRANCH  27  28
HETATM   28  C21 UNL     1      -5.852  47.540 -32.843  1.00  0.00     0.291 C 
BRANCH  28  29
HETATM   29  N5  UNL     1      -4.689  46.809 -33.400  1.00  0.00     0.081 N 
HETATM   30  C22 UNL     1      -3.620  47.732 -33.798  1.00  0.00     0.309 C 
HETATM   31  C23 UNL     1      -4.158  45.882 -32.396  1.00  0.00     0.309 C 
ENDBRANCH  28  29
ENDBRANCH  27  28
ENDBRANCH  25  27
ENDBRANCH  21  23
ENDBRANCH  15  17
ENDBRANCH  11  15
BRANCH   4  32
HETATM   32  C5  UNL     1      -0.440  52.033 -21.288  1.00  0.00    -0.001 A 
HETATM   33  C6  UNL     1      -0.279  52.187 -19.900  1.00  0.00     0.050 A 
HETATM   34  C7  UNL     1       0.670  53.067 -19.385  1.00  0.00     0.066 A 
HETATM   35  C8  UNL     1       1.483  53.813 -20.228  1.00  0.00     0.038 A 
HETATM   36  C9  UNL     1       1.342  53.675 -21.608  1.00  0.00     0.027 A 
HETATM   37  C10 UNL     1       0.390  52.793 -22.136  1.00  0.00     0.045 A 
HETATM   38 CL1  UNL     1       0.289  52.668 -23.858  1.00  0.00    -0.083 Cl
BRANCH  34  39
HETATM   39  O1  UNL     1       0.769  53.165 -18.030  1.00  0.00    -0.361 OA
HETATM   40  H6  UNL     1       1.470  53.801 -17.809  1.00  0.00     0.217 HD
ENDBRANCH  34  39
ENDBRANCH   4  32
TORSDOF 8
ENDMDL
MODEL 9
REMARK minimizedAffinity -9.40599728
REMARK  8 active torsions:
REMARK  status: ('A' for Active; 'I' for Inactive)
REMARK    1  A    between atoms: C4_4  and  C5_5 
REMARK    2  A    between atoms: C7_7  and  O1_8 
REMARK    3  A    between atoms: C13_19  and  N3_20 
REMARK    4  A    between atoms: N3_20  and  C14_21 
REMARK    5  A    between atoms: C18_25  and  C19_26 
REMARK       I    between atoms: C19_26  and  N4_28 
REMARK    6  A    between atoms: N4_28  and  C20_29 
REMARK    7  A    between atoms: C20_29  and  C21_30 
REMARK    8  A    between atoms: C21_30  and  N5_31 
ROOT
HETATM    1  C1  UNL     1      -2.677  48.561 -23.156  1.00  0.00     0.050 C 
HETATM    2  C2  UNL     1      -2.834  49.079 -24.560  1.00  0.00    -0.032 A 
HETATM    3  C3  UNL     1      -3.743  48.452 -25.430  1.00  0.00     0.021 A 
HETATM    4  C4  UNL     1      -3.908  48.904 -26.743  1.00  0.00    -0.021 A 
HETATM    5  C11 UNL     1      -3.150  50.001 -27.160  1.00  0.00     0.045 A 
HETATM    6  C12 UNL     1      -2.246  50.629 -26.308  1.00  0.00     0.077 A 
HETATM    7  N1  UNL     1      -1.528  51.674 -26.732  1.00  0.00    -0.284 N 
ATOM      8  H1  UNL     1      -1.639  52.022 -27.684  1.00  0.00     0.187 HD
HETATM    9  N2  UNL     1      -0.645  52.272 -25.879  1.00  0.00    -0.131 N 
ATOM     10  H2  UNL     1      -0.092  53.068 -26.197  1.00  0.00     0.205 HD
HETATM   11  C13 UNL     1      -0.500  51.817 -24.622  1.00  0.00     0.697 A 
HETATM   12  N6  UNL     1      -1.201  50.771 -24.156  1.00  0.00    -0.188 N 
ATOM     13  H6  UNL     1      -1.077  50.438 -23.199  1.00  0.00     0.184 HD
HETATM   14  C25 UNL     1      -2.074  50.174 -24.992  1.00  0.00     0.083 A 
ENDROOT
BRANCH  11  15
HETATM   15  N3  UNL     1       0.394  52.376 -23.710  1.00  0.00    -0.190 N 
HETATM   16  H10 UNL     1       1.282  52.513 -24.172  1.00  0.00     0.184 HD
BRANCH  15  17
HETATM   17  C14 UNL     1       0.324  52.675 -22.345  1.00  0.00     0.050 A 
HETATM   18  C15 UNL     1       1.194  53.559 -21.695  1.00  0.00     0.030 A 
HETATM   19  C16 UNL     1       1.083  53.811 -20.323  1.00  0.00     0.003 A 
HETATM   20  C17 UNL     1       0.107  53.165 -19.570  1.00  0.00     0.017 A 
HETATM   21  C18 UNL     1      -0.754  52.255 -20.187  1.00  0.00     0.034 A 
HETATM   22  C24 UNL     1      -0.649  52.024 -21.567  1.00  0.00     0.047 A 
BRANCH  21  23
HETATM   23  C19 UNL     1      -1.775  51.568 -19.351  1.00  0.00     0.251 C 
HETATM   24  O2  UNL     1      -1.562  51.359 -18.161  1.00  0.00    -0.268 OA
HETATM   25  N4  UNL     1      -2.918  51.155 -20.001  1.00  0.00    -0.355 N 
HETATM   26  H14 UNL     1      -2.922  51.108 -21.011  1.00  0.00     0.162 HD
BRANCH  25  27
HETATM   27  C20 UNL     1      -3.911  50.345 -19.323  1.00  0.00     0.153 C 
BRANCH  27  28
HETATM   28  C21 UNL     1      -4.781  49.480 -20.259  1.00  0.00     0.291 C 
BRANCH  28  29
HETATM   29  N5  UNL     1      -6.077  50.109 -20.608  1.00  0.00     0.081 N 
HETATM   30  C22 UNL     1      -6.315  50.077 -22.055  1.00  0.00     0.309 C 
HETATM   31  C23 UNL     1      -7.171  49.397 -19.938  1.00  0.00     0.309 C 
ENDBRANCH  28  29
ENDBRANCH  27  28
ENDBRANCH  25  27
ENDBRANCH  21  23
ENDBRANCH  15  17
ENDBRANCH  11  15
BRANCH   4  32
HETATM   32  C5  UNL     1      -4.857  48.253 -27.654  1.00  0.00    -0.001 A 
HETATM   33  C6  UNL     1      -4.513  48.108 -29.009  1.00  0.00     0.050 A 
HETATM   34  C7  UNL     1      -5.388  47.498 -29.906  1.00  0.00     0.066 A 
HETATM   35  C8  UNL     1      -6.620  47.015 -29.485  1.00  0.00     0.038 A 
HETATM   36  C9  UNL     1      -6.980  47.145 -28.144  1.00  0.00     0.027 A 
HETATM   37  C10 UNL     1      -6.108  47.758 -27.235  1.00  0.00     0.045 A 
HETATM   38 CL1  UNL     1      -6.624  47.867 -25.588  1.00  0.00    -0.083 Cl
BRANCH  34  39
HETATM   39  O1  UNL     1      -4.989  47.394 -31.204  1.00  0.00    -0.361 OA
HETATM   40  H6  UNL     1      -5.683  46.944 -31.714  1.00  0.00     0.217 HD
ENDBRANCH  34  39
ENDBRANCH   4  32
TORSDOF 8
ENDMDL
