MODEL 1
REMARK minimizedAffinity -11.581995
REMARK  5 active torsions:
REMARK  status: ('A' for Active; 'I' for Inactive)
REMARK    1  A    between atoms: N2_8  and  C7_9 
REMARK    2  A    between atoms: C10_12  and  C11_13 
REMARK    3  A    between atoms: C15_19  and  C16_20 
REMARK    4  A    between atoms: C20_24  and  O1_25 
REMARK    5  A    between atoms: C22_27  and  C23_28 
ROOT
HETATM    1  C11 UNL     1      -3.105  48.887 -24.168  1.00  0.00     0.070 A 
HETATM    2  C12 UNL     1      -3.230  48.081 -23.097  1.00  0.00     0.049 A 
HETATM    3  C13 UNL     1      -2.475  48.489 -21.886  1.00  0.00     0.092 A 
HETATM    4  N3  UNL     1      -1.723  49.538 -21.768  1.00  0.00    -0.350 N 
ATOM      5  H3  UNL     1      -1.235  49.757 -20.901  1.00  0.00     0.166 HD
HETATM    6  C14 UNL     1      -1.622  50.336 -22.879  1.00  0.00     0.141 A 
HETATM    7  C15 UNL     1      -0.945  51.519 -23.108  1.00  0.00     0.049 A 
HETATM    8  C22 UNL     1      -1.218  51.859 -24.465  1.00  0.00     0.073 A 
HETATM    9  N5  UNL     1      -2.050  50.970 -25.024  1.00  0.00    -0.290 N 
ATOM     10  H5  UNL     1      -2.424  50.993 -25.973  1.00  0.00     0.187 HD
HETATM   11  N6  UNL     1      -2.292  50.035 -24.072  1.00  0.00    -0.238 N 
ENDROOT
BRANCH   1  12
HETATM   12  C10 UNL     1      -3.856  48.560 -25.396  1.00  0.00    -0.007 A 
HETATM   13  C9  UNL     1      -5.223  48.272 -25.356  1.00  0.00     0.016 A 
HETATM   14  C8  UNL     1      -5.930  47.989 -26.535  1.00  0.00     0.030 A 
HETATM   15  C7  UNL     1      -5.306  47.965 -27.790  1.00  0.00     0.030 A 
HETATM   16  C29 UNL     1      -3.936  48.269 -27.808  1.00  0.00     0.030 A 
HETATM   17  C28 UNL     1      -3.219  48.555 -26.639  1.00  0.00     0.016 A 
BRANCH  15  18
HETATM   18  N2  UNL     1      -5.998  47.715 -28.952  1.00  0.00    -0.372 N 
HETATM   19  C3  UNL     1      -7.313  47.038 -29.025  1.00  0.00     0.115 C 
HETATM   20  C2  UNL     1      -7.114  45.500 -29.002  1.00  0.00     0.297 C 
HETATM   21  C4  UNL     1      -7.668  47.246 -30.497  1.00  0.00     0.064 C 
HETATM   22  N1  UNL     1      -6.477  45.200 -30.322  1.00  0.00     0.092 N 
HETATM   23  C1  UNL     1      -7.243  44.237 -31.102  1.00  0.00     0.310 C 
HETATM   24  C5  UNL     1      -6.399  46.543 -30.971  1.00  0.00     0.242 C 
HETATM   25  C6  UNL     1      -5.312  47.389 -30.226  1.00  0.00     0.159 C 
ENDBRANCH  15  18
ENDBRANCH   1  12
BRANCH   7  26
HETATM   26  C16 UNL     1      -0.184  52.213 -22.083  1.00  0.00    -0.017 A 
HETATM   27  C17 UNL     1      -0.425  51.944 -20.729  1.00  0.00     0.012 A 
HETATM   28  C18 UNL     1       0.286  52.623 -19.736  1.00  0.00     0.004 A 
HETATM   29  C19 UNL     1       1.242  53.576 -20.089  1.00  0.00     0.036 A 
HETATM   30  C20 UNL     1       1.481  53.837 -21.434  1.00  0.00     0.066 A 
HETATM   31  C21 UNL     1       0.781  53.165 -22.431  1.00  0.00     0.049 A 
BRANCH  30  32
HETATM   32  O1  UNL     1       2.406  54.764 -21.821  1.00  0.00    -0.361 OA
HETATM   33  H19 UNL     1       2.831  55.128 -21.027  1.00  0.00     0.217 HD
ENDBRANCH  30  32
ENDBRANCH   7  26
BRANCH   8  34
HETATM   34  C23 UNL     1      -0.729  52.992 -25.257  1.00  0.00    -0.004 A 
HETATM   35  C24 UNL     1      -0.290  54.171 -24.653  1.00  0.00     0.030 A 
HETATM   36  C25 UNL     1       0.162  55.201 -25.462  1.00  0.00     0.088 A 
HETATM   37  N4  UNL     1       0.212  55.134 -26.809  1.00  0.00    -0.375 N 
HETATM   38  C26 UNL     1      -0.195  53.978 -27.372  1.00  0.00     0.088 A 
ATOM     39  H4  UNL     1       0.543  55.917 -27.372  1.00  0.00     0.164 HD
HETATM   40  C27 UNL     1      -0.668  52.895 -26.650  1.00  0.00     0.030 A 
ENDBRANCH   8  34
TORSDOF 5
ENDMDL
MODEL 2
REMARK minimizedAffinity -11.5316277
REMARK  5 active torsions:
REMARK  status: ('A' for Active; 'I' for Inactive)
REMARK    1  A    between atoms: N2_8  and  C7_9 
REMARK    2  A    between atoms: C10_12  and  C11_13 
REMARK    3  A    between atoms: C15_19  and  C16_20 
REMARK    4  A    between atoms: C20_24  and  O1_25 
REMARK    5  A    between atoms: C22_27  and  C23_28 
ROOT
HETATM    1  C11 UNL     1      -3.893  49.445 -24.468  1.00  0.00     0.070 A 
HETATM    2  C12 UNL     1      -4.557  49.418 -23.297  1.00  0.00     0.049 A 
HETATM    3  C13 UNL     1      -3.889  50.092 -22.156  1.00  0.00     0.092 A 
HETATM    4  N3  UNL     1      -2.745  50.701 -22.188  1.00  0.00    -0.350 N 
ATOM      5  H3  UNL     1      -2.348  51.146 -21.361  1.00  0.00     0.166 HD
HETATM    6  C14 UNL     1      -2.100  50.710 -23.397  1.00  0.00     0.141 A 
HETATM    7  C15 UNL     1      -0.902  51.270 -23.801  1.00  0.00     0.049 A 
HETATM    8  C22 UNL     1      -0.767  50.930 -25.179  1.00  0.00     0.073 A 
HETATM    9  N5  UNL     1      -1.834  50.246 -25.612  1.00  0.00    -0.290 N 
ATOM     10  H5  UNL     1      -2.003  49.905 -26.559  1.00  0.00     0.187 HD
HETATM   11  N6  UNL     1      -2.644  50.098 -24.534  1.00  0.00    -0.238 N 
ENDROOT
BRANCH   1  12
HETATM   12  C10 UNL     1      -4.515  48.823 -25.653  1.00  0.00    -0.007 A 
HETATM   13  C9  UNL     1      -3.859  48.798 -26.887  1.00  0.00     0.016 A 
HETATM   14  C8  UNL     1      -4.451  48.179 -27.999  1.00  0.00     0.030 A 
HETATM   15  C7  UNL     1      -5.717  47.581 -27.933  1.00  0.00     0.030 A 
HETATM   16  C29 UNL     1      -6.352  47.608 -26.682  1.00  0.00     0.030 A 
HETATM   17  C28 UNL     1      -5.771  48.219 -25.563  1.00  0.00     0.016 A 
BRANCH  15  18
HETATM   18  N2  UNL     1      -6.290  46.950 -29.013  1.00  0.00    -0.372 N 
HETATM   19  C3  UNL     1      -5.833  47.087 -30.414  1.00  0.00     0.115 C 
HETATM   20  C2  UNL     1      -6.443  48.367 -31.043  1.00  0.00     0.297 C 
HETATM   21  C4  UNL     1      -6.678  46.015 -31.103  1.00  0.00     0.064 C 
HETATM   22  N1  UNL     1      -7.899  48.049 -31.165  1.00  0.00     0.092 N 
HETATM   23  C1  UNL     1      -8.382  48.172 -32.534  1.00  0.00     0.310 C 
HETATM   24  C5  UNL     1      -7.985  46.653 -30.641  1.00  0.00     0.242 C 
HETATM   25  C6  UNL     1      -7.749  46.692 -29.093  1.00  0.00     0.159 C 
ENDBRANCH  15  18
ENDBRANCH   1  12
BRANCH   7  26
HETATM   26  C16 UNL     1      -0.061  52.069 -22.927  1.00  0.00    -0.017 A 
HETATM   27  C17 UNL     1       0.258  51.604 -21.644  1.00  0.00     0.012 A 
HETATM   28  C18 UNL     1       1.048  52.376 -20.788  1.00  0.00     0.004 A 
HETATM   29  C19 UNL     1       1.525  53.618 -21.207  1.00  0.00     0.036 A 
HETATM   30  C20 UNL     1       1.210  54.075 -22.483  1.00  0.00     0.066 A 
HETATM   31  C21 UNL     1       0.426  53.313 -23.344  1.00  0.00     0.049 A 
BRANCH  30  32
HETATM   32  O1  UNL     1       1.655  55.285 -22.930  1.00  0.00    -0.361 OA
HETATM   33  H19 UNL     1       2.206  55.687 -22.240  1.00  0.00     0.217 HD
ENDBRANCH  30  32
ENDBRANCH   7  26
BRANCH   8  34
HETATM   34  C23 UNL     1       0.329  51.226 -26.107  1.00  0.00    -0.004 A 
HETATM   35  C24 UNL     1       1.666  51.105 -25.722  1.00  0.00     0.030 A 
HETATM   36  C25 UNL     1       2.651  51.400 -26.651  1.00  0.00     0.088 A 
HETATM   37  N4  UNL     1       2.399  51.791 -27.918  1.00  0.00    -0.375 N 
HETATM   38  C26 UNL     1       1.102  51.880 -28.277  1.00  0.00     0.088 A 
ATOM     39  H4  UNL     1       3.152  52.008 -28.571  1.00  0.00     0.164 HD
HETATM   40  C27 UNL     1       0.047  51.612 -27.420  1.00  0.00     0.030 A 
ENDBRANCH   8  34
TORSDOF 5
ENDMDL
MODEL 3
REMARK minimizedAffinity -11.2410345
REMARK  5 active torsions:
REMARK  status: ('A' for Active; 'I' for Inactive)
REMARK    1  A    between atoms: N2_8  and  C7_9 
REMARK    2  A    between atoms: C10_12  and  C11_13 
REMARK    3  A    between atoms: C15_19  and  C16_20 
REMARK    4  A    between atoms: C20_24  and  O1_25 
REMARK    5  A    between atoms: C22_27  and  C23_28 
ROOT
HETATM    1  C11 UNL     1      -4.369  48.621 -24.704  1.00  0.00     0.070 A 
HETATM    2  C12 UNL     1      -4.948  48.156 -23.581  1.00  0.00     0.049 A 
HETATM    3  C13 UNL     1      -4.314  48.570 -22.304  1.00  0.00     0.092 A 
HETATM    4  N3  UNL     1      -3.275  49.333 -22.176  1.00  0.00    -0.350 N 
ATOM      5  H3  UNL     1      -2.896  49.579 -21.262  1.00  0.00     0.166 HD
HETATM    6  C14 UNL     1      -2.715  49.791 -23.340  1.00  0.00     0.141 A 
HETATM    7  C15 UNL     1      -1.638  50.623 -23.583  1.00  0.00     0.049 A 
HETATM    8  C22 UNL     1      -1.541  50.718 -25.002  1.00  0.00     0.073 A 
HETATM    9  N5  UNL     1      -2.522  50.029 -25.598  1.00  0.00    -0.290 N 
ATOM     10  H5  UNL     1      -2.698  49.953 -26.600  1.00  0.00     0.187 HD
HETATM   11  N6  UNL     1      -3.234  49.452 -24.596  1.00  0.00    -0.238 N 
ENDROOT
BRANCH   1  12
HETATM   12  C10 UNL     1      -4.966  48.277 -26.008  1.00  0.00    -0.007 A 
HETATM   13  C9  UNL     1      -6.276  47.799 -26.103  1.00  0.00     0.016 A 
HETATM   14  C8  UNL     1      -6.840  47.501 -27.353  1.00  0.00     0.030 A 
HETATM   15  C7  UNL     1      -6.123  47.648 -28.549  1.00  0.00     0.030 A 
HETATM   16  C29 UNL     1      -4.814  48.140 -28.430  1.00  0.00     0.030 A 
HETATM   17  C28 UNL     1      -4.240  48.444 -27.189  1.00  0.00     0.016 A 
BRANCH  15  18
HETATM   18  N2  UNL     1      -6.679  47.382 -29.778  1.00  0.00    -0.372 N 
HETATM   19  C3  UNL     1      -6.193  46.351 -30.723  1.00  0.00     0.115 C 
HETATM   20  C2  UNL     1      -5.016  46.918 -31.558  1.00  0.00     0.297 C 
HETATM   21  C4  UNL     1      -7.305  46.368 -31.772  1.00  0.00     0.064 C 
HETATM   22  N1  UNL     1      -5.658  47.942 -32.437  1.00  0.00     0.092 N 
HETATM   23  C1  UNL     1      -5.424  47.686 -33.853  1.00  0.00     0.310 C 
HETATM   24  C5  UNL     1      -7.101  47.852 -32.061  1.00  0.00     0.242 C 
HETATM   25  C6  UNL     1      -7.274  48.447 -30.623  1.00  0.00     0.159 C 
ENDBRANCH  15  18
ENDBRANCH   1  12
BRANCH   7  26
HETATM   26  C16 UNL     1      -0.868  51.259 -22.527  1.00  0.00    -0.017 A 
HETATM   27  C17 UNL     1      -0.144  52.429 -22.795  1.00  0.00     0.012 A 
HETATM   28  C18 UNL     1       0.616  53.035 -21.791  1.00  0.00     0.004 A 
HETATM   29  C19 UNL     1       0.660  52.476 -20.514  1.00  0.00     0.036 A 
HETATM   30  C20 UNL     1      -0.063  51.317 -20.251  1.00  0.00     0.066 A 
HETATM   31  C21 UNL     1      -0.826  50.707 -21.242  1.00  0.00     0.049 A 
BRANCH  30  32
HETATM   32  O1  UNL     1      -0.045  50.737 -19.015  1.00  0.00    -0.361 OA
HETATM   33  H19 UNL     1       0.500  51.282 -18.425  1.00  0.00     0.217 HD
ENDBRANCH  30  32
ENDBRANCH   7  26
BRANCH   8  34
HETATM   34  C23 UNL     1      -0.559  51.436 -25.821  1.00  0.00    -0.004 A 
HETATM   35  C24 UNL     1       0.687  50.881 -26.123  1.00  0.00     0.030 A 
HETATM   36  C25 UNL     1       1.565  51.614 -26.904  1.00  0.00     0.088 A 
HETATM   37  N4  UNL     1       1.290  52.837 -27.403  1.00  0.00    -0.375 N 
HETATM   38  C26 UNL     1       0.073  53.346 -27.119  1.00  0.00     0.088 A 
ATOM     39  H4  UNL     1       1.966  53.350 -27.967  1.00  0.00     0.164 HD
HETATM   40  C27 UNL     1      -0.871  52.693 -26.344  1.00  0.00     0.030 A 
ENDBRANCH   8  34
TORSDOF 5
ENDMDL
MODEL 4
REMARK minimizedAffinity -11.1024666
REMARK  5 active torsions:
REMARK  status: ('A' for Active; 'I' for Inactive)
REMARK    1  A    between atoms: N2_8  and  C7_9 
REMARK    2  A    between atoms: C10_12  and  C11_13 
REMARK    3  A    between atoms: C15_19  and  C16_20 
REMARK    4  A    between atoms: C20_24  and  O1_25 
REMARK    5  A    between atoms: C22_27  and  C23_28 
ROOT
HETATM    1  C11 UNL     1      -4.360  48.556 -24.978  1.00  0.00     0.070 A 
HETATM    2  C12 UNL     1      -4.943  48.056 -23.873  1.00  0.00     0.049 A 
HETATM    3  C13 UNL     1      -4.318  48.435 -22.581  1.00  0.00     0.092 A 
HETATM    4  N3  UNL     1      -3.283  49.198 -22.424  1.00  0.00    -0.350 N 
ATOM      5  H3  UNL     1      -2.909  49.418 -21.502  1.00  0.00     0.166 HD
HETATM    6  C14 UNL     1      -2.717  49.691 -23.572  1.00  0.00     0.141 A 
HETATM    7  C15 UNL     1      -1.642  50.534 -23.784  1.00  0.00     0.049 A 
HETATM    8  C22 UNL     1      -1.537  50.670 -25.199  1.00  0.00     0.073 A 
HETATM    9  N5  UNL     1      -2.513  49.995 -25.820  1.00  0.00    -0.290 N 
ATOM     10  H5  UNL     1      -2.683  49.948 -26.825  1.00  0.00     0.187 HD
HETATM   11  N6  UNL     1      -3.228  49.388 -24.840  1.00  0.00    -0.238 N 
ENDROOT
BRANCH   1  12
HETATM   12  C10 UNL     1      -4.949  48.248 -26.296  1.00  0.00    -0.007 A 
HETATM   13  C9  UNL     1      -6.235  47.714 -26.409  1.00  0.00     0.016 A 
HETATM   14  C8  UNL     1      -6.793  47.451 -27.670  1.00  0.00     0.030 A 
HETATM   15  C7  UNL     1      -6.091  47.690 -28.859  1.00  0.00     0.030 A 
HETATM   16  C29 UNL     1      -4.805  48.237 -28.722  1.00  0.00     0.030 A 
HETATM   17  C28 UNL     1      -4.238  48.507 -27.470  1.00  0.00     0.016 A 
BRANCH  15  18
HETATM   18  N2  UNL     1      -6.642  47.459 -30.098  1.00  0.00    -0.372 N 
HETATM   19  C3  UNL     1      -6.216  46.388 -31.028  1.00  0.00     0.115 C 
HETATM   20  C2  UNL     1      -4.984  46.860 -31.843  1.00  0.00     0.297 C 
HETATM   21  C4  UNL     1      -7.303  46.481 -32.099  1.00  0.00     0.064 C 
HETATM   22  N1  UNL     1      -5.531  47.924 -32.740  1.00  0.00     0.092 N 
HETATM   23  C1  UNL     1      -5.290  47.641 -34.149  1.00  0.00     0.310 C 
HETATM   24  C5  UNL     1      -6.984  47.944 -32.392  1.00  0.00     0.242 C 
HETATM   25  C6  UNL     1      -7.139  48.559 -30.960  1.00  0.00     0.159 C 
ENDBRANCH  15  18
ENDBRANCH   1  12
BRANCH   7  26
HETATM   26  C16 UNL     1      -0.880  51.141 -22.706  1.00  0.00    -0.017 A 
HETATM   27  C17 UNL     1      -0.921  50.585 -21.420  1.00  0.00     0.012 A 
HETATM   28  C18 UNL     1      -0.209  51.175 -20.372  1.00  0.00     0.004 A 
HETATM   29  C19 UNL     1       0.547  52.325 -20.601  1.00  0.00     0.036 A 
HETATM   30  C20 UNL     1       0.587  52.872 -21.880  1.00  0.00     0.066 A 
HETATM   31  C21 UNL     1      -0.115  52.291 -22.931  1.00  0.00     0.049 A 
BRANCH  30  32
HETATM   32  O1  UNL     1       1.313  53.998 -22.144  1.00  0.00    -0.361 OA
HETATM   33  H19 UNL     1       1.766  54.272 -21.331  1.00  0.00     0.217 HD
ENDBRANCH  30  32
ENDBRANCH   7  26
BRANCH   8  34
HETATM   34  C23 UNL     1      -0.553  51.415 -25.992  1.00  0.00    -0.004 A 
HETATM   35  C24 UNL     1       0.677  50.855 -26.342  1.00  0.00     0.030 A 
HETATM   36  C25 UNL     1       1.559  51.614 -27.094  1.00  0.00     0.088 A 
HETATM   37  N4  UNL     1       1.300  52.868 -27.520  1.00  0.00    -0.375 N 
HETATM   38  C26 UNL     1       0.097  53.382 -27.190  1.00  0.00     0.088 A 
ATOM     39  H4  UNL     1       1.978  53.400 -28.065  1.00  0.00     0.164 HD
HETATM   40  C27 UNL     1      -0.848  52.705 -26.438  1.00  0.00     0.030 A 
ENDBRANCH   8  34
TORSDOF 5
ENDMDL
MODEL 5
REMARK minimizedAffinity -10.6765423
REMARK  5 active torsions:
REMARK  status: ('A' for Active; 'I' for Inactive)
REMARK    1  A    between atoms: N2_8  and  C7_9 
REMARK    2  A    between atoms: C10_12  and  C11_13 
REMARK    3  A    between atoms: C15_19  and  C16_20 
REMARK    4  A    between atoms: C20_24  and  O1_25 
REMARK    5  A    between atoms: C22_27  and  C23_28 
ROOT
HETATM    1  C11 UNL     1      -4.010  49.299 -23.658  1.00  0.00     0.070 A 
HETATM    2  C12 UNL     1      -4.553  49.100 -22.442  1.00  0.00     0.049 A 
HETATM    3  C13 UNL     1      -3.842  49.731 -21.303  1.00  0.00     0.092 A 
HETATM    4  N3  UNL     1      -2.766  50.450 -21.373  1.00  0.00    -0.350 N 
ATOM      5  H3  UNL     1      -2.333  50.855 -20.544  1.00  0.00     0.166 HD
HETATM    6  C14 UNL     1      -2.244  50.633 -22.627  1.00  0.00     0.141 A 
HETATM    7  C15 UNL     1      -1.145  51.343 -23.076  1.00  0.00     0.049 A 
HETATM    8  C22 UNL     1      -1.114  51.145 -24.487  1.00  0.00     0.073 A 
HETATM    9  N5  UNL     1      -2.151  50.400 -24.891  1.00  0.00    -0.290 N 
ATOM     10  H5  UNL     1      -2.379  50.133 -25.849  1.00  0.00     0.187 HD
HETATM   11  N6  UNL     1      -2.838  50.075 -23.767  1.00  0.00    -0.238 N 
ENDROOT
BRANCH   1  12
HETATM   12  C10 UNL     1      -4.684  48.729 -24.841  1.00  0.00    -0.007 A 
HETATM   13  C9  UNL     1      -5.967  48.182 -24.752  1.00  0.00     0.016 A 
HETATM   14  C8  UNL     1      -6.607  47.668 -25.890  1.00  0.00     0.030 A 
HETATM   15  C7  UNL     1      -5.993  47.662 -27.151  1.00  0.00     0.030 A 
HETATM   16  C29 UNL     1      -4.710  48.227 -27.219  1.00  0.00     0.030 A 
HETATM   17  C28 UNL     1      -4.061  48.746 -26.091  1.00  0.00     0.016 A 
BRANCH  15  18
HETATM   18  N2  UNL     1      -6.625  47.184 -28.275  1.00  0.00    -0.372 N 
HETATM   19  C3  UNL     1      -7.084  48.019 -29.408  1.00  0.00     0.115 C 
HETATM   20  C2  UNL     1      -8.473  48.627 -29.083  1.00  0.00     0.297 C 
HETATM   21  C4  UNL     1      -7.487  46.944 -30.418  1.00  0.00     0.064 C 
HETATM   22  N1  UNL     1      -9.395  47.450 -29.101  1.00  0.00     0.092 N 
HETATM   23  C1  UNL     1     -10.489  47.616 -30.050  1.00  0.00     0.310 C 
HETATM   24  C5  UNL     1      -8.489  46.317 -29.453  1.00  0.00     0.242 C 
HETATM   25  C6  UNL     1      -7.558  46.031 -28.226  1.00  0.00     0.159 C 
ENDBRANCH  15  18
ENDBRANCH   1  12
BRANCH   7  26
HETATM   26  C16 UNL     1      -0.299  52.139 -22.203  1.00  0.00    -0.017 A 
HETATM   27  C17 UNL     1       0.461  53.191 -22.732  1.00  0.00     0.012 A 
HETATM   28  C18 UNL     1       1.294  53.947 -21.903  1.00  0.00     0.004 A 
HETATM   29  C19 UNL     1       1.375  53.657 -20.541  1.00  0.00     0.036 A 
HETATM   30  C20 UNL     1       0.616  52.613 -20.019  1.00  0.00     0.066 A 
HETATM   31  C21 UNL     1      -0.219  51.856 -20.835  1.00  0.00     0.049 A 
BRANCH  30  32
HETATM   32  O1  UNL     1       0.668  52.296 -18.692  1.00  0.00    -0.361 OA
HETATM   33  H19 UNL     1       1.265  52.920 -18.248  1.00  0.00     0.217 HD
ENDBRANCH  30  32
ENDBRANCH   7  26
BRANCH   8  34
HETATM   34  C23 UNL     1      -0.143  51.631 -25.474  1.00  0.00    -0.004 A 
HETATM   35  C24 UNL     1       1.129  51.065 -25.588  1.00  0.00     0.030 A 
HETATM   36  C25 UNL     1       1.994  51.573 -26.543  1.00  0.00     0.088 A 
HETATM   37  N4  UNL     1       1.683  52.582 -27.382  1.00  0.00    -0.375 N 
HETATM   38  C26 UNL     1       0.442  53.100 -27.271  1.00  0.00     0.088 A 
ATOM     39  H4  UNL     1       2.351  52.935 -28.067  1.00  0.00     0.164 HD
HETATM   40  C27 UNL     1      -0.492  52.665 -26.346  1.00  0.00     0.030 A 
ENDBRANCH   8  34
TORSDOF 5
ENDMDL
MODEL 6
REMARK minimizedAffinity -10.2268782
REMARK  5 active torsions:
REMARK  status: ('A' for Active; 'I' for Inactive)
REMARK    1  A    between atoms: N2_8  and  C7_9 
REMARK    2  A    between atoms: C10_12  and  C11_13 
REMARK    3  A    between atoms: C15_19  and  C16_20 
REMARK    4  A    between atoms: C20_24  and  O1_25 
REMARK    5  A    between atoms: C22_27  and  C23_28 
ROOT
HETATM    1  C11 UNL     1      -0.143  51.439 -21.391  1.00  0.00     0.070 A 
HETATM    2  C12 UNL     1       0.690  52.229 -22.094  1.00  0.00     0.049 A 
HETATM    3  C13 UNL     1       0.504  52.220 -23.566  1.00  0.00     0.092 A 
HETATM    4  N3  UNL     1      -0.378  51.536 -24.224  1.00  0.00    -0.350 N 
ATOM      5  H3  UNL     1      -0.449  51.583 -25.240  1.00  0.00     0.166 HD
HETATM    6  C14 UNL     1      -1.210  50.746 -23.475  1.00  0.00     0.141 A 
HETATM    7  C15 UNL     1      -2.260  49.916 -23.825  1.00  0.00     0.049 A 
HETATM    8  C22 UNL     1      -2.727  49.355 -22.600  1.00  0.00     0.073 A 
HETATM    9  N5  UNL     1      -2.044  49.843 -21.557  1.00  0.00    -0.290 N 
ATOM     10  H5  UNL     1      -2.194  49.628 -20.571  1.00  0.00     0.187 HD
HETATM   11  N6  UNL     1      -1.113  50.680 -22.079  1.00  0.00    -0.238 N 
ENDROOT
BRANCH   1  12
HETATM   12  C10 UNL     1      -0.037  51.425 -19.919  1.00  0.00    -0.007 A 
HETATM   13  C9  UNL     1      -0.373  50.288 -19.178  1.00  0.00     0.016 A 
HETATM   14  C8  UNL     1      -0.243  50.280 -17.781  1.00  0.00     0.030 A 
HETATM   15  C7  UNL     1       0.208  51.399 -17.068  1.00  0.00     0.030 A 
HETATM   16  C29 UNL     1       0.551  52.525 -17.833  1.00  0.00     0.030 A 
HETATM   17  C28 UNL     1       0.428  52.546 -19.228  1.00  0.00     0.016 A 
BRANCH  15  18
HETATM   18  N2  UNL     1       0.364  51.388 -15.702  1.00  0.00    -0.372 N 
HETATM   19  C3  UNL     1       1.320  52.234 -14.951  1.00  0.00     0.115 C 
HETATM   20  C2  UNL     1       2.721  51.571 -14.954  1.00  0.00     0.297 C 
HETATM   21  C4  UNL     1       0.889  51.955 -13.511  1.00  0.00     0.064 C 
HETATM   22  N1  UNL     1       2.550  50.363 -14.090  1.00  0.00     0.092 N 
HETATM   23  C1  UNL     1       3.480  50.345 -12.968  1.00  0.00     0.310 C 
HETATM   24  C5  UNL     1       1.123  50.455 -13.661  1.00  0.00     0.242 C 
HETATM   25  C6  UNL     1       0.214  50.149 -14.899  1.00  0.00     0.159 C 
ENDBRANCH  15  18
ENDBRANCH   1  12
BRANCH   7  26
HETATM   26  C16 UNL     1      -2.736  49.766 -25.189  1.00  0.00    -0.017 A 
HETATM   27  C17 UNL     1      -3.231  48.530 -25.627  1.00  0.00     0.012 A 
HETATM   28  C18 UNL     1      -3.671  48.371 -26.943  1.00  0.00     0.004 A 
HETATM   29  C19 UNL     1      -3.619  49.445 -27.832  1.00  0.00     0.036 A 
HETATM   30  C20 UNL     1      -3.130  50.671 -27.393  1.00  0.00     0.066 A 
HETATM   31  C21 UNL     1      -2.693  50.841 -26.083  1.00  0.00     0.049 A 
BRANCH  30  32
HETATM   32  O1  UNL     1      -3.061  51.746 -28.232  1.00  0.00    -0.361 OA
HETATM   33  H19 UNL     1      -3.422  51.489 -29.095  1.00  0.00     0.217 HD
ENDBRANCH  30  32
ENDBRANCH   7  26
BRANCH   8  34
HETATM   34  C23 UNL     1      -3.797  48.378 -22.373  1.00  0.00    -0.004 A 
HETATM   35  C24 UNL     1      -3.586  47.229 -21.608  1.00  0.00     0.030 A 
HETATM   36  C25 UNL     1      -4.641  46.348 -21.433  1.00  0.00     0.088 A 
HETATM   37  N4  UNL     1      -5.872  46.535 -21.952  1.00  0.00    -0.375 N 
HETATM   38  C26 UNL     1      -6.061  47.661 -22.670  1.00  0.00     0.088 A 
ATOM     39  H4  UNL     1      -6.622  45.859 -21.809  1.00  0.00     0.164 HD
HETATM   40  C27 UNL     1      -5.069  48.599 -22.905  1.00  0.00     0.030 A 
ENDBRANCH   8  34
TORSDOF 5
ENDMDL
MODEL 7
REMARK minimizedAffinity -10.2046957
REMARK  5 active torsions:
REMARK  status: ('A' for Active; 'I' for Inactive)
REMARK    1  A    between atoms: N2_8  and  C7_9 
REMARK    2  A    between atoms: C10_12  and  C11_13 
REMARK    3  A    between atoms: C15_19  and  C16_20 
REMARK    4  A    between atoms: C20_24  and  O1_25 
REMARK    5  A    between atoms: C22_27  and  C23_28 
ROOT
HETATM    1  C11 UNL     1       0.438  52.507 -20.102  1.00  0.00     0.070 A 
HETATM    2  C12 UNL     1       1.370  53.476 -20.024  1.00  0.00     0.049 A 
HETATM    3  C13 UNL     1       1.858  54.013 -21.318  1.00  0.00     0.092 A 
HETATM    4  N3  UNL     1       1.470  53.642 -22.498  1.00  0.00    -0.350 N 
ATOM      5  H3  UNL     1       1.849  54.060 -23.347  1.00  0.00     0.166 HD
HETATM    6  C14 UNL     1       0.518  52.656 -22.538  1.00  0.00     0.141 A 
HETATM    7  C15 UNL     1      -0.132  52.041 -23.592  1.00  0.00     0.049 A 
HETATM    8  C22 UNL     1      -1.005  51.084 -22.996  1.00  0.00     0.073 A 
HETATM    9  N5  UNL     1      -0.934  51.137 -21.659  1.00  0.00    -0.290 N 
ATOM     10  H5  UNL     1      -1.471  50.580 -20.994  1.00  0.00     0.187 HD
HETATM   11  N6  UNL     1      -0.003  52.080 -21.371  1.00  0.00    -0.238 N 
ENDROOT
BRANCH   1  12
HETATM   12  C10 UNL     1      -0.117  51.951 -18.852  1.00  0.00    -0.007 A 
HETATM   13  C9  UNL     1       0.706  51.644 -17.766  1.00  0.00     0.016 A 
HETATM   14  C8  UNL     1       0.161  51.141 -16.574  1.00  0.00     0.030 A 
HETATM   15  C7  UNL     1      -1.214  50.910 -16.423  1.00  0.00     0.030 A 
HETATM   16  C29 UNL     1      -2.022  51.236 -17.523  1.00  0.00     0.030 A 
HETATM   17  C28 UNL     1      -1.491  51.742 -18.717  1.00  0.00     0.016 A 
BRANCH  15  18
HETATM   18  N2  UNL     1      -1.757  50.442 -15.249  1.00  0.00    -0.372 N 
HETATM   19  C3  UNL     1      -3.109  50.777 -14.750  1.00  0.00     0.115 C 
HETATM   20  C2  UNL     1      -3.071  52.135 -14.002  1.00  0.00     0.297 C 
HETATM   21  C4  UNL     1      -3.229  49.818 -13.565  1.00  0.00     0.064 C 
HETATM   22  N1  UNL     1      -2.288  51.843 -12.763  1.00  0.00     0.092 N 
HETATM   23  C1  UNL     1      -3.029  52.162 -11.549  1.00  0.00     0.310 C 
HETATM   24  C5  UNL     1      -1.984  50.386 -12.892  1.00  0.00     0.242 C 
HETATM   25  C6  UNL     1      -0.933  50.202 -14.039  1.00  0.00     0.159 C 
ENDBRANCH  15  18
ENDBRANCH   1  12
BRANCH   7  26
HETATM   26  C16 UNL     1       0.072  52.415 -24.981  1.00  0.00    -0.017 A 
HETATM   27  C17 UNL     1       0.633  51.497 -25.878  1.00  0.00     0.012 A 
HETATM   28  C18 UNL     1       0.854  51.855 -27.211  1.00  0.00     0.004 A 
HETATM   29  C19 UNL     1       0.515  53.133 -27.656  1.00  0.00     0.036 A 
HETATM   30  C20 UNL     1      -0.046  54.041 -26.763  1.00  0.00     0.066 A 
HETATM   31  C21 UNL     1      -0.272  53.693 -25.434  1.00  0.00     0.049 A 
BRANCH  30  32
HETATM   32  O1  UNL     1      -0.389  55.302 -27.158  1.00  0.00    -0.361 OA
HETATM   33  H19 UNL     1      -0.201  55.391 -28.106  1.00  0.00     0.217 HD
ENDBRANCH  30  32
ENDBRANCH   7  26
BRANCH   8  34
HETATM   34  C23 UNL     1      -1.907  50.122 -23.637  1.00  0.00    -0.004 A 
HETATM   35  C24 UNL     1      -2.622  49.183 -22.891  1.00  0.00     0.030 A 
HETATM   36  C25 UNL     1      -3.458  48.304 -23.562  1.00  0.00     0.088 A 
HETATM   37  N4  UNL     1      -3.632  48.302 -24.900  1.00  0.00    -0.375 N 
HETATM   38  C26 UNL     1      -2.949  49.231 -25.599  1.00  0.00     0.088 A 
ATOM     39  H4  UNL     1      -4.249  47.633 -25.359  1.00  0.00     0.164 HD
HETATM   40  C27 UNL     1      -2.086  50.148 -25.022  1.00  0.00     0.030 A 
ENDBRANCH   8  34
TORSDOF 5
ENDMDL
MODEL 8
REMARK minimizedAffinity -10.1902876
REMARK  5 active torsions:
REMARK  status: ('A' for Active; 'I' for Inactive)
REMARK    1  A    between atoms: N2_8  and  C7_9 
REMARK    2  A    between atoms: C10_12  and  C11_13 
REMARK    3  A    between atoms: C15_19  and  C16_20 
REMARK    4  A    between atoms: C20_24  and  O1_25 
REMARK    5  A    between atoms: C22_27  and  C23_28 
ROOT
HETATM    1  C11 UNL     1      -4.230  49.054 -24.536  1.00  0.00     0.070 A 
HETATM    2  C12 UNL     1      -4.652  48.496 -25.686  1.00  0.00     0.049 A 
HETATM    3  C13 UNL     1      -3.832  48.787 -26.888  1.00  0.00     0.092 A 
HETATM    4  N3  UNL     1      -2.759  49.513 -26.927  1.00  0.00    -0.350 N 
ATOM      5  H3  UNL     1      -2.244  49.667 -27.793  1.00  0.00     0.166 HD
HETATM    6  C14 UNL     1      -2.359  50.063 -25.737  1.00  0.00     0.141 A 
HETATM    7  C15 UNL     1      -1.275  50.855 -25.403  1.00  0.00     0.049 A 
HETATM    8  C22 UNL     1      -1.409  51.115 -24.007  1.00  0.00     0.073 A 
HETATM    9  N5  UNL     1      -2.477  50.485 -23.501  1.00  0.00    -0.290 N 
ATOM     10  H5  UNL     1      -2.785  50.482 -22.529  1.00  0.00     0.187 HD
HETATM   11  N6  UNL     1      -3.067  49.852 -24.547  1.00  0.00    -0.238 N 
ENDROOT
BRANCH   1  12
HETATM   12  C10 UNL     1      -4.979  48.780 -23.294  1.00  0.00    -0.007 A 
HETATM   13  C9  UNL     1      -5.981  49.644 -22.845  1.00  0.00     0.016 A 
HETATM   14  C8  UNL     1      -6.703  49.356 -21.676  1.00  0.00     0.030 A 
HETATM   15  C7  UNL     1      -6.449  48.214 -20.905  1.00  0.00     0.030 A 
HETATM   16  C29 UNL     1      -5.446  47.354 -21.381  1.00  0.00     0.030 A 
HETATM   17  C28 UNL     1      -4.720  47.628 -22.547  1.00  0.00     0.016 A 
BRANCH  15  18
HETATM   18  N2  UNL     1      -7.171  47.913 -19.774  1.00  0.00    -0.372 N 
HETATM   19  C3  UNL     1      -8.073  46.748 -19.630  1.00  0.00     0.115 C 
HETATM   20  C2  UNL     1      -9.462  47.082 -20.233  1.00  0.00     0.297 C 
HETATM   21  C4  UNL     1      -8.400  46.814 -18.138  1.00  0.00     0.064 C 
HETATM   22  N1  UNL     1     -10.028  48.098 -19.292  1.00  0.00     0.092 N 
HETATM   23  C1  UNL     1     -11.312  47.688 -18.738  1.00  0.00     0.310 C 
HETATM   24  C5  UNL     1      -8.962  48.228 -18.255  1.00  0.00     0.242 C 
HETATM   25  C6  UNL     1      -7.738  48.966 -18.895  1.00  0.00     0.159 C 
ENDBRANCH  15  18
ENDBRANCH   1  12
BRANCH   7  26
HETATM   26  C16 UNL     1      -0.244  51.237 -26.352  1.00  0.00    -0.017 A 
HETATM   27  C17 UNL     1      -0.600  51.827 -27.573  1.00  0.00     0.012 A 
HETATM   28  C18 UNL     1       0.383  52.177 -28.501  1.00  0.00     0.004 A 
HETATM   29  C19 UNL     1       1.729  51.940 -28.218  1.00  0.00     0.036 A 
HETATM   30  C20 UNL     1       2.078  51.357 -27.003  1.00  0.00     0.066 A 
HETATM   31  C21 UNL     1       1.107  51.007 -26.070  1.00  0.00     0.049 A 
BRANCH  30  32
HETATM   32  O1  UNL     1       3.383  51.106 -26.689  1.00  0.00    -0.361 OA
HETATM   33  H19 UNL     1       3.943  51.425 -27.415  1.00  0.00     0.217 HD
ENDBRANCH  30  32
ENDBRANCH   7  26
BRANCH   8  34
HETATM   34  C23 UNL     1      -0.567  51.932 -23.129  1.00  0.00    -0.004 A 
HETATM   35  C24 UNL     1      -0.412  51.629 -21.775  1.00  0.00     0.030 A 
HETATM   36  C25 UNL     1       0.401  52.443 -21.003  1.00  0.00     0.088 A 
HETATM   37  N4  UNL     1       1.064  53.517 -21.481  1.00  0.00    -0.375 N 
HETATM   38  C26 UNL     1       0.919  53.780 -22.796  1.00  0.00     0.088 A 
ATOM     39  H4  UNL     1       1.646  54.099 -20.880  1.00  0.00     0.164 HD
HETATM   40  C27 UNL     1       0.126  53.029 -23.648  1.00  0.00     0.030 A 
ENDBRANCH   8  34
TORSDOF 5
ENDMDL
MODEL 9
REMARK minimizedAffinity -10.1145649
REMARK  5 active torsions:
REMARK  status: ('A' for Active; 'I' for Inactive)
REMARK    1  A    between atoms: N2_8  and  C7_9 
REMARK    2  A    between atoms: C10_12  and  C11_13 
REMARK    3  A    between atoms: C15_19  and  C16_20 
REMARK    4  A    between atoms: C20_24  and  O1_25 
REMARK    5  A    between atoms: C22_27  and  C23_28 
ROOT
HETATM    1  C11 UNL     1      -2.225  50.261 -26.145  1.00  0.00     0.070 A 
HETATM    2  C12 UNL     1      -1.314  50.739 -27.014  1.00  0.00     0.049 A 
HETATM    3  C13 UNL     1      -0.211  51.538 -26.425  1.00  0.00     0.092 A 
HETATM    4  N3  UNL     1      -0.046  51.807 -25.168  1.00  0.00    -0.350 N 
ATOM      5  H3  UNL     1       0.742  52.362 -24.834  1.00  0.00     0.166 HD
HETATM    6  C14 UNL     1      -0.991  51.302 -24.313  1.00  0.00     0.141 A 
HETATM    7  C15 UNL     1      -1.122  51.366 -22.938  1.00  0.00     0.049 A 
HETATM    8  C22 UNL     1      -2.320  50.655 -22.635  1.00  0.00     0.073 A 
HETATM    9  N5  UNL     1      -2.868  50.143 -23.745  1.00  0.00    -0.290 N 
ATOM     10  H5  UNL     1      -3.710  49.571 -23.805  1.00  0.00     0.187 HD
HETATM   11  N6  UNL     1      -2.074  50.540 -24.771  1.00  0.00    -0.238 N 
ENDROOT
BRANCH   1  12
HETATM   12  C10 UNL     1      -3.332  49.430 -26.658  1.00  0.00    -0.007 A 
HETATM   13  C9  UNL     1      -4.205  48.769 -25.791  1.00  0.00     0.016 A 
HETATM   14  C8  UNL     1      -5.269  48.003 -26.292  1.00  0.00     0.030 A 
HETATM   15  C7  UNL     1      -5.494  47.851 -27.667  1.00  0.00     0.030 A 
HETATM   16  C29 UNL     1      -4.611  48.533 -28.520  1.00  0.00     0.030 A 
HETATM   17  C28 UNL     1      -3.547  49.303 -28.032  1.00  0.00     0.016 A 
BRANCH  15  18
HETATM   18  N2  UNL     1      -6.550  47.124 -28.164  1.00  0.00    -0.372 N 
HETATM   19  C3  UNL     1      -6.927  47.047 -29.594  1.00  0.00     0.115 C 
HETATM   20  C2  UNL     1      -7.800  48.270 -29.974  1.00  0.00     0.297 C 
HETATM   21  C4  UNL     1      -7.993  45.951 -29.557  1.00  0.00     0.064 C 
HETATM   22  N1  UNL     1      -9.085  48.035 -29.246  1.00  0.00     0.092 N 
HETATM   23  C1  UNL     1     -10.235  48.009 -30.142  1.00  0.00     0.310 C 
HETATM   24  C5  UNL     1      -8.852  46.728 -28.563  1.00  0.00     0.242 C 
HETATM   25  C6  UNL     1      -7.816  46.952 -27.410  1.00  0.00     0.159 C 
ENDBRANCH  15  18
ENDBRANCH   1  12
BRANCH   7  26
HETATM   26  C16 UNL     1      -0.147  52.009 -22.074  1.00  0.00    -0.017 A 
HETATM   27  C17 UNL     1       0.177  51.437 -20.835  1.00  0.00     0.012 A 
HETATM   28  C18 UNL     1       1.097  52.060 -19.988  1.00  0.00     0.004 A 
HETATM   29  C19 UNL     1       1.700  53.258 -20.372  1.00  0.00     0.036 A 
HETATM   30  C20 UNL     1       1.379  53.821 -21.603  1.00  0.00     0.066 A 
HETATM   31  C21 UNL     1       0.466  53.207 -22.456  1.00  0.00     0.049 A 
BRANCH  30  32
HETATM   32  O1  UNL     1       1.945  54.993 -22.014  1.00  0.00    -0.361 OA
HETATM   33  H19 UNL     1       2.575  55.287 -21.337  1.00  0.00     0.217 HD
ENDBRANCH  30  32
ENDBRANCH   7  26
BRANCH   8  34
HETATM   34  C23 UNL     1      -2.969  50.436 -21.338  1.00  0.00    -0.004 A 
HETATM   35  C24 UNL     1      -2.807  51.331 -20.279  1.00  0.00     0.030 A 
HETATM   36  C25 UNL     1      -3.451  51.063 -19.082  1.00  0.00     0.088 A 
HETATM   37  N4  UNL     1      -4.238  49.988 -18.875  1.00  0.00    -0.375 N 
HETATM   38  C26 UNL     1      -4.400  49.147 -19.917  1.00  0.00     0.088 A 
ATOM     39  H4  UNL     1      -4.689  49.819 -17.975  1.00  0.00     0.164 HD
HETATM   40  C27 UNL     1      -3.795  49.325 -21.150  1.00  0.00     0.030 A 
ENDBRANCH   8  34
TORSDOF 5
ENDMDL
