MODEL 1
REMARK minimizedAffinity -6.45768595
REMARK CNNscore 0.898083746
REMARK CNNaffinity 7.90938711
REMARK  10 active torsions:
REMARK  status: ('A' for Active; 'I' for Inactive)
REMARK    1  A    between atoms: O1_2  and  C2_3 
REMARK    2  A    between atoms: C2_3  and  C3_4 
REMARK    3  A    between atoms: C3_4  and  O2_5 
REMARK    4  A    between atoms: O2_5  and  C4_6 
REMARK    5  A    between atoms: C10_15  and  N3_16 
REMARK    6  A    between atoms: N3_16  and  C11_17 
REMARK    7  A    between atoms: C19_27  and  O3_28 
REMARK    8  A    between atoms: O3_28  and  C20_29 
REMARK    9  A    between atoms: C20_29  and  C21_30 
REMARK   10  A    between atoms: C21_30  and  O4_31 
ROOT
HETATM    1  C4  UNL     1      -2.356  48.107 -20.940  1.00  0.00     0.104 A 
HETATM    2  C5  UNL     1      -1.461  48.736 -20.067  1.00  0.00     0.070 A 
HETATM    3  C6  UNL     1      -0.870  49.954 -20.373  1.00  0.00     0.047 A 
HETATM    4  N1  UNL     1      -0.024  50.493 -19.482  1.00  0.00    -0.364 N 
ATOM      5  H1  UNL     1       0.182  50.016 -18.604  1.00  0.00     0.165 HD
HETATM    6  C7  UNL     1       0.550  51.681 -19.775  1.00  0.00     0.113 A 
HETATM    7  C8  UNL     1       0.314  52.386 -20.939  1.00  0.00     0.087 A 
HETATM    8  C9  UNL     1       0.959  53.645 -21.137  1.00  0.00     0.103 C 
HETATM    9  N2  UNL     1       1.487  54.664 -21.312  1.00  0.00    -0.191 NA
HETATM   10  C10 UNL     1      -0.565  51.832 -21.880  1.00  0.00     0.067 A 
HETATM   11  C17 UNL     1      -1.181  50.580 -21.596  1.00  0.00     0.022 A 
HETATM   12  C18 UNL     1      -2.074  49.936 -22.485  1.00  0.00     0.055 A 
HETATM   13  C19 UNL     1      -2.666  48.713 -22.167  1.00  0.00     0.103 A 
ENDROOT
BRANCH  10  14
HETATM   14  N3  UNL     1      -0.903  52.539 -23.071  1.00  0.00    -0.353 N 
HETATM   15  H10 UNL     1      -1.910  52.711 -23.150  1.00  0.00     0.166 HD
BRANCH  14  16
HETATM   16  C11 UNL     1      -0.390  52.267 -24.374  1.00  0.00     0.054 A 
HETATM   17  C12 UNL     1       0.988  52.175 -24.625  1.00  0.00     0.033 A 
HETATM   18  C13 UNL     1       1.466  51.981 -25.924  1.00  0.00     0.026 A 
HETATM   19  C14 UNL     1       0.574  51.894 -26.991  1.00  0.00     0.035 A 
HETATM   20 CL1  UNL     1       1.172  51.662 -28.587  1.00  0.00    -0.084 Cl
HETATM   21  C15 UNL     1      -0.795  52.005 -26.775  1.00  0.00     0.050 A 
HETATM   22  C16 UNL     1      -1.269  52.200 -25.476  1.00  0.00     0.062 A 
HETATM   23 CL2  UNL     1      -2.977  52.354 -25.246  1.00  0.00    -0.082 Cl
ENDBRANCH  14  16
ENDBRANCH  10  14
BRANCH  13  24
HETATM   24  O3  UNL     1      -3.555  48.041 -22.964  1.00  0.00    -0.346 OA
BRANCH  24  25
HETATM   25  C20 UNL     1      -4.805  48.648 -23.287  1.00  0.00     0.201 C 
BRANCH  25  26
HETATM   26  C21 UNL     1      -4.795  49.225 -24.704  1.00  0.00     0.193 C 
BRANCH  26  27
HETATM   27  O4  UNL     1      -5.008  48.214 -25.689  1.00  0.00    -0.394 OA
HETATM   28  C22 UNL     1      -4.212  48.398 -26.852  1.00  0.00     0.201 C 
ENDBRANCH  26  27
ENDBRANCH  25  26
ENDBRANCH  24  25
ENDBRANCH  13  24
BRANCH   1  29
HETATM   29  O2  UNL     1      -2.976  46.908 -20.688  1.00  0.00    -0.346 OA
BRANCH  29  30
HETATM   30  C3  UNL     1      -3.566  46.715 -19.405  1.00  0.00     0.201 C 
BRANCH  30  31
HETATM   31  C2  UNL     1      -5.065  46.484 -19.593  1.00  0.00     0.193 C 
BRANCH  31  32
HETATM   32  O1  UNL     1      -5.821  46.920 -18.462  1.00  0.00    -0.394 OA
HETATM   33  C1  UNL     1      -6.739  47.959 -18.776  1.00  0.00     0.201 C 
ENDBRANCH  31  32
ENDBRANCH  30  31
ENDBRANCH  29  30
ENDBRANCH   1  29
TORSDOF 10
ENDMDL
MODEL 2
REMARK minimizedAffinity -6.87093353
REMARK CNNscore 0.878564596
REMARK CNNaffinity 7.56311655
REMARK  10 active torsions:
REMARK  status: ('A' for Active; 'I' for Inactive)
REMARK    1  A    between atoms: O1_2  and  C2_3 
REMARK    2  A    between atoms: C2_3  and  C3_4 
REMARK    3  A    between atoms: C3_4  and  O2_5 
REMARK    4  A    between atoms: O2_5  and  C4_6 
REMARK    5  A    between atoms: C10_15  and  N3_16 
REMARK    6  A    between atoms: N3_16  and  C11_17 
REMARK    7  A    between atoms: C19_27  and  O3_28 
REMARK    8  A    between atoms: O3_28  and  C20_29 
REMARK    9  A    between atoms: C20_29  and  C21_30 
REMARK   10  A    between atoms: C21_30  and  O4_31 
ROOT
HETATM    1  C4  UNL     1      -2.304  48.407 -21.859  1.00  0.00     0.104 A 
HETATM    2  C5  UNL     1      -1.572  49.030 -20.843  1.00  0.00     0.070 A 
HETATM    3  C6  UNL     1      -0.887  50.218 -21.055  1.00  0.00     0.047 A 
HETATM    4  N1  UNL     1      -0.209  50.754 -20.028  1.00  0.00    -0.364 N 
ATOM      5  H1  UNL     1      -0.197  50.296 -19.116  1.00  0.00     0.165 HD
HETATM    6  C7  UNL     1       0.456  51.913 -20.229  1.00  0.00     0.113 A 
HETATM    7  C8  UNL     1       0.478  52.591 -21.433  1.00  0.00     0.087 A 
HETATM    8  C9  UNL     1       1.198  53.821 -21.529  1.00  0.00     0.103 C 
HETATM    9  N2  UNL     1       1.789  54.816 -21.620  1.00  0.00    -0.191 NA
HETATM   10  C10 UNL     1      -0.222  52.039 -22.514  1.00  0.00     0.067 A 
HETATM   11  C17 UNL     1      -0.930  50.818 -22.329  1.00  0.00     0.022 A 
HETATM   12  C18 UNL     1      -1.657  50.179 -23.360  1.00  0.00     0.055 A 
HETATM   13  C19 UNL     1      -2.347  48.986 -23.136  1.00  0.00     0.103 A 
ENDROOT
BRANCH  10  14
HETATM   14  N3  UNL     1      -0.295  52.722 -23.764  1.00  0.00    -0.353 N 
HETATM   15  H10 UNL     1      -0.441  53.730 -23.650  1.00  0.00     0.166 HD
BRANCH  14  16
HETATM   16  C11 UNL     1      -1.029  52.288 -24.907  1.00  0.00     0.054 A 
HETATM   17  C12 UNL     1      -2.417  52.465 -25.009  1.00  0.00     0.033 A 
HETATM   18  C13 UNL     1      -3.123  51.964 -26.107  1.00  0.00     0.026 A 
HETATM   19  C14 UNL     1      -2.452  51.264 -27.108  1.00  0.00     0.035 A 
HETATM   20 CL1  UNL     1      -3.329  50.646 -28.452  1.00  0.00    -0.084 Cl
HETATM   21  C15 UNL     1      -1.080  51.053 -27.022  1.00  0.00     0.050 A 
HETATM   22  C16 UNL     1      -0.379  51.554 -25.923  1.00  0.00     0.062 A 
HETATM   23 CL2  UNL     1       1.323  51.256 -25.837  1.00  0.00    -0.082 Cl
ENDBRANCH  14  16
ENDBRANCH  10  14
BRANCH  13  24
HETATM   24  O3  UNL     1      -3.089  48.322 -24.077  1.00  0.00    -0.346 OA
BRANCH  24  25
HETATM   25  C20 UNL     1      -4.306  48.900 -24.547  1.00  0.00     0.201 C 
BRANCH  25  26
HETATM   26  C21 UNL     1      -4.658  48.395 -25.947  1.00  0.00     0.193 C 
BRANCH  26  27
HETATM   27  O4  UNL     1      -6.001  47.917 -26.015  1.00  0.00    -0.394 OA
HETATM   28  C22 UNL     1      -6.402  47.577 -27.336  1.00  0.00     0.201 C 
ENDBRANCH  26  27
ENDBRANCH  25  26
ENDBRANCH  24  25
ENDBRANCH  13  24
BRANCH   1  29
HETATM   29  O2  UNL     1      -3.007  47.237 -21.707  1.00  0.00    -0.346 OA
BRANCH  29  30
HETATM   30  C3  UNL     1      -3.903  47.132 -20.602  1.00  0.00     0.201 C 
BRANCH  30  31
HETATM   31  C2  UNL     1      -4.907  46.019 -20.899  1.00  0.00     0.193 C 
BRANCH  31  32
HETATM   32  O1  UNL     1      -6.200  46.534 -21.218  1.00  0.00    -0.394 OA
HETATM   33  C1  UNL     1      -6.984  46.816 -20.066  1.00  0.00     0.201 C 
ENDBRANCH  31  32
ENDBRANCH  30  31
ENDBRANCH  29  30
ENDBRANCH   1  29
TORSDOF 10
ENDMDL
MODEL 3
REMARK minimizedAffinity -7.07774401
REMARK CNNscore 0.802380502
REMARK CNNaffinity 7.77581596
REMARK  10 active torsions:
REMARK  status: ('A' for Active; 'I' for Inactive)
REMARK    1  A    between atoms: O1_2  and  C2_3 
REMARK    2  A    between atoms: C2_3  and  C3_4 
REMARK    3  A    between atoms: C3_4  and  O2_5 
REMARK    4  A    between atoms: O2_5  and  C4_6 
REMARK    5  A    between atoms: C10_15  and  N3_16 
REMARK    6  A    between atoms: N3_16  and  C11_17 
REMARK    7  A    between atoms: C19_27  and  O3_28 
REMARK    8  A    between atoms: O3_28  and  C20_29 
REMARK    9  A    between atoms: C20_29  and  C21_30 
REMARK   10  A    between atoms: C21_30  and  O4_31 
ROOT
HETATM    1  C4  UNL     1      -2.424  49.603 -25.591  1.00  0.00     0.104 A 
HETATM    2  C5  UNL     1      -1.271  50.337 -25.888  1.00  0.00     0.070 A 
HETATM    3  C6  UNL     1      -0.692  51.199 -24.966  1.00  0.00     0.047 A 
HETATM    4  N1  UNL     1       0.415  51.866 -25.328  1.00  0.00    -0.364 N 
ATOM      5  H1  UNL     1       0.816  51.745 -26.257  1.00  0.00     0.165 HD
HETATM    6  C7  UNL     1       0.985  52.702 -24.431  1.00  0.00     0.113 A 
HETATM    7  C8  UNL     1       0.500  52.911 -23.154  1.00  0.00     0.087 A 
HETATM    8  C9  UNL     1       1.194  53.804 -22.281  1.00  0.00     0.103 C 
HETATM    9  N2  UNL     1       1.744  54.535 -21.567  1.00  0.00    -0.191 NA
HETATM   10  C10 UNL     1      -0.658  52.223 -22.767  1.00  0.00     0.067 A 
HETATM   11  C17 UNL     1      -1.278  51.337 -23.693  1.00  0.00     0.022 A 
HETATM   12  C18 UNL     1      -2.453  50.606 -23.399  1.00  0.00     0.055 A 
HETATM   13  C19 UNL     1      -3.026  49.739 -24.331  1.00  0.00     0.103 A 
ENDROOT
BRANCH  10  14
HETATM   14  N3  UNL     1      -1.171  52.342 -21.442  1.00  0.00    -0.353 N 
HETATM   15  H10 UNL     1      -1.211  53.315 -21.125  1.00  0.00     0.166 HD
BRANCH  14  16
HETATM   16  C11 UNL     1      -0.807  51.522 -20.333  1.00  0.00     0.054 A 
HETATM   17  C12 UNL     1      -1.021  50.136 -20.333  1.00  0.00     0.033 A 
HETATM   18  C13 UNL     1      -0.723  49.366 -19.204  1.00  0.00     0.026 A 
HETATM   19  C14 UNL     1      -0.226  49.977 -18.055  1.00  0.00     0.035 A 
HETATM   20 CL1  UNL     1       0.131  49.023 -16.669  1.00  0.00    -0.084 Cl
HETATM   21  C15 UNL     1      -0.027  51.353 -18.017  1.00  0.00     0.050 A 
HETATM   22  C16 UNL     1      -0.326  52.117 -19.146  1.00  0.00     0.062 A 
HETATM   23 CL2  UNL     1      -0.085  53.829 -19.059  1.00  0.00    -0.082 Cl
ENDBRANCH  14  16
ENDBRANCH  10  14
BRANCH  13  24
HETATM   24  O3  UNL     1      -4.147  48.982 -24.112  1.00  0.00    -0.346 OA
BRANCH  24  25
HETATM   25  C20 UNL     1      -5.435  49.577 -24.260  1.00  0.00     0.201 C 
BRANCH  25  26
HETATM   26  C21 UNL     1      -5.647  50.707 -23.251  1.00  0.00     0.193 C 
BRANCH  26  27
HETATM   27  O4  UNL     1      -6.278  50.241 -22.058  1.00  0.00    -0.394 OA
HETATM   28  C22 UNL     1      -5.436  50.328 -20.916  1.00  0.00     0.201 C 
ENDBRANCH  26  27
ENDBRANCH  25  26
ENDBRANCH  24  25
ENDBRANCH  13  24
BRANCH   1  29
HETATM   29  O2  UNL     1      -3.036  48.731 -26.457  1.00  0.00    -0.346 OA
BRANCH  29  30
HETATM   30  C3  UNL     1      -3.652  49.269 -27.626  1.00  0.00     0.201 C 
BRANCH  30  31
HETATM   31  C2  UNL     1      -4.729  48.291 -28.097  1.00  0.00     0.193 C 
BRANCH  31  32
HETATM   32  O1  UNL     1      -4.596  47.976 -29.483  1.00  0.00    -0.394 OA
HETATM   33  C1  UNL     1      -5.773  48.255 -30.230  1.00  0.00     0.201 C 
ENDBRANCH  31  32
ENDBRANCH  30  31
ENDBRANCH  29  30
ENDBRANCH   1  29
TORSDOF 10
ENDMDL
MODEL 4
REMARK minimizedAffinity -6.83660269
REMARK CNNscore 0.769686282
REMARK CNNaffinity 7.71543932
REMARK  10 active torsions:
REMARK  status: ('A' for Active; 'I' for Inactive)
REMARK    1  A    between atoms: O1_2  and  C2_3 
REMARK    2  A    between atoms: C2_3  and  C3_4 
REMARK    3  A    between atoms: C3_4  and  O2_5 
REMARK    4  A    between atoms: O2_5  and  C4_6 
REMARK    5  A    between atoms: C10_15  and  N3_16 
REMARK    6  A    between atoms: N3_16  and  C11_17 
REMARK    7  A    between atoms: C19_27  and  O3_28 
REMARK    8  A    between atoms: O3_28  and  C20_29 
REMARK    9  A    between atoms: C20_29  and  C21_30 
REMARK   10  A    between atoms: C21_30  and  O4_31 
ROOT
HETATM    1  C4  UNL     1      -2.068  49.749 -25.978  1.00  0.00     0.104 A 
HETATM    2  C5  UNL     1      -1.133  50.780 -26.121  1.00  0.00     0.070 A 
HETATM    3  C6  UNL     1      -0.617  51.459 -25.026  1.00  0.00     0.047 A 
HETATM    4  N1  UNL     1       0.277  52.435 -25.247  1.00  0.00    -0.364 N 
ATOM      5  H1  UNL     1       0.566  52.672 -26.196  1.00  0.00     0.165 HD
HETATM    6  C7  UNL     1       0.786  53.096 -24.183  1.00  0.00     0.113 A 
HETATM    7  C8  UNL     1       0.446  52.826 -22.872  1.00  0.00     0.087 A 
HETATM    8  C9  UNL     1       1.061  53.573 -21.822  1.00  0.00     0.103 C 
HETATM    9  N2  UNL     1       1.547  54.183 -20.962  1.00  0.00    -0.191 NA
HETATM   10  C10 UNL     1      -0.491  51.811 -22.628  1.00  0.00     0.067 A 
HETATM   11  C17 UNL     1      -1.043  51.101 -23.732  1.00  0.00     0.022 A 
HETATM   12  C18 UNL     1      -1.999  50.069 -23.589  1.00  0.00     0.055 A 
HETATM   13  C19 UNL     1      -2.510  49.388 -24.696  1.00  0.00     0.103 A 
ENDROOT
BRANCH  10  14
HETATM   14  N3  UNL     1      -0.834  51.437 -21.296  1.00  0.00    -0.353 N 
HETATM   15  H10 UNL     1      -0.063  50.969 -20.811  1.00  0.00     0.166 HD
BRANCH  14  16
HETATM   16  C11 UNL     1      -2.057  50.822 -20.895  1.00  0.00     0.054 A 
HETATM   17  C12 UNL     1      -3.242  51.558 -20.741  1.00  0.00     0.033 A 
HETATM   18  C13 UNL     1      -4.409  50.944 -20.275  1.00  0.00     0.026 A 
HETATM   19  C14 UNL     1      -4.401  49.592 -19.939  1.00  0.00     0.035 A 
HETATM   20 CL1  UNL     1      -5.839  48.847 -19.361  1.00  0.00    -0.084 Cl
HETATM   21  C15 UNL     1      -3.234  48.844 -20.058  1.00  0.00     0.050 A 
HETATM   22  C16 UNL     1      -2.071  49.460 -20.523  1.00  0.00     0.062 A 
HETATM   23 CL2  UNL     1      -0.633  48.505 -20.640  1.00  0.00    -0.082 Cl
ENDBRANCH  14  16
ENDBRANCH  10  14
BRANCH  13  24
HETATM   24  O3  UNL     1      -3.420  48.366 -24.636  1.00  0.00    -0.346 OA
BRANCH  24  25
HETATM   25  C20 UNL     1      -4.534  48.468 -23.751  1.00  0.00     0.201 C 
BRANCH  25  26
HETATM   26  C21 UNL     1      -5.584  49.442 -24.287  1.00  0.00     0.193 C 
BRANCH  26  27
HETATM   27  O4  UNL     1      -5.716  50.591 -23.450  1.00  0.00    -0.394 OA
HETATM   28  C22 UNL     1      -5.141  51.760 -24.019  1.00  0.00     0.201 C 
ENDBRANCH  26  27
ENDBRANCH  25  26
ENDBRANCH  24  25
ENDBRANCH  13  24
BRANCH   1  29
HETATM   29  O2  UNL     1      -2.607  49.037 -27.021  1.00  0.00    -0.346 OA
BRANCH  29  30
HETATM   30  C3  UNL     1      -3.718  49.600 -27.714  1.00  0.00     0.201 C 
BRANCH  30  31
HETATM   31  C2  UNL     1      -4.670  48.468 -28.101  1.00  0.00     0.193 C 
BRANCH  31  32
HETATM   32  O1  UNL     1      -4.564  48.128 -29.483  1.00  0.00    -0.394 OA
HETATM   33  C1  UNL     1      -5.822  48.096 -30.145  1.00  0.00     0.201 C 
ENDBRANCH  31  32
ENDBRANCH  30  31
ENDBRANCH  29  30
ENDBRANCH   1  29
TORSDOF 10
ENDMDL
MODEL 5
REMARK minimizedAffinity -7.37128592
REMARK CNNscore 0.755245268
REMARK CNNaffinity 7.60417891
REMARK  10 active torsions:
REMARK  status: ('A' for Active; 'I' for Inactive)
REMARK    1  A    between atoms: O1_2  and  C2_3 
REMARK    2  A    between atoms: C2_3  and  C3_4 
REMARK    3  A    between atoms: C3_4  and  O2_5 
REMARK    4  A    between atoms: O2_5  and  C4_6 
REMARK    5  A    between atoms: C10_15  and  N3_16 
REMARK    6  A    between atoms: N3_16  and  C11_17 
REMARK    7  A    between atoms: C19_27  and  O3_28 
REMARK    8  A    between atoms: O3_28  and  C20_29 
REMARK    9  A    between atoms: C20_29  and  C21_30 
REMARK   10  A    between atoms: C21_30  and  O4_31 
ROOT
HETATM    1  C4  UNL     1      -0.515  52.139 -24.957  1.00  0.00     0.104 A 
HETATM    2  C5  UNL     1       0.237  53.035 -24.190  1.00  0.00     0.070 A 
HETATM    3  C6  UNL     1       0.357  52.902 -22.813  1.00  0.00     0.047 A 
HETATM    4  N1  UNL     1       1.098  53.802 -22.150  1.00  0.00    -0.364 N 
ATOM      5  H1  UNL     1       1.559  54.566 -22.645  1.00  0.00     0.165 HD
HETATM    6  C7  UNL     1       1.221  53.674 -20.809  1.00  0.00     0.113 A 
HETATM    7  C8  UNL     1       0.632  52.664 -20.074  1.00  0.00     0.087 A 
HETATM    8  C9  UNL     1       0.844  52.612 -18.662  1.00  0.00     0.103 C 
HETATM    9  N2  UNL     1       1.002  52.567 -17.513  1.00  0.00    -0.191 NA
HETATM   10  C10 UNL     1      -0.149  51.720 -20.755  1.00  0.00     0.067 A 
HETATM   11  C17 UNL     1      -0.295  51.834 -22.167  1.00  0.00     0.022 A 
HETATM   12  C18 UNL     1      -1.068  50.937 -22.941  1.00  0.00     0.055 A 
HETATM   13  C19 UNL     1      -1.180  51.076 -24.326  1.00  0.00     0.103 A 
ENDROOT
BRANCH  10  14
HETATM   14  N3  UNL     1      -0.729  50.615 -20.066  1.00  0.00    -0.353 N 
HETATM   15  H10 UNL     1      -0.113  49.796 -20.053  1.00  0.00     0.166 HD
BRANCH  14  16
HETATM   16  C11 UNL     1      -2.075  50.163 -20.203  1.00  0.00     0.054 A 
HETATM   17  C12 UNL     1      -3.168  50.974 -19.862  1.00  0.00     0.033 A 
HETATM   18  C13 UNL     1      -4.475  50.480 -19.935  1.00  0.00     0.026 A 
HETATM   19  C14 UNL     1      -4.702  49.164 -20.333  1.00  0.00     0.035 A 
HETATM   20 CL1  UNL     1      -6.312  48.564 -20.415  1.00  0.00    -0.084 Cl
HETATM   21  C15 UNL     1      -3.636  48.331 -20.654  1.00  0.00     0.050 A 
HETATM   22  C16 UNL     1      -2.334  48.827 -20.578  1.00  0.00     0.062 A 
HETATM   23 CL2  UNL     1      -1.030  47.757 -20.965  1.00  0.00    -0.082 Cl
ENDBRANCH  14  16
ENDBRANCH  10  14
BRANCH  13  24
HETATM   24  O3  UNL     1      -1.889  50.237 -25.143  1.00  0.00    -0.346 OA
BRANCH  24  25
HETATM   25  C20 UNL     1      -3.139  49.714 -24.697  1.00  0.00     0.201 C 
BRANCH  25  26
HETATM   26  C21 UNL     1      -3.549  48.483 -25.507  1.00  0.00     0.193 C 
BRANCH  26  27
HETATM   27  O4  UNL     1      -3.075  48.550 -26.851  1.00  0.00    -0.394 OA
HETATM   28  C22 UNL     1      -4.124  48.525 -27.810  1.00  0.00     0.201 C 
ENDBRANCH  26  27
ENDBRANCH  25  26
ENDBRANCH  24  25
ENDBRANCH  13  24
BRANCH   1  29
HETATM   29  O2  UNL     1      -0.663  52.214 -26.320  1.00  0.00    -0.346 OA
BRANCH  29  30
HETATM   30  C3  UNL     1       0.339  52.903 -27.066  1.00  0.00     0.201 C 
BRANCH  30  31
HETATM   31  C2  UNL     1       0.826  51.982 -28.185  1.00  0.00     0.193 C 
BRANCH  31  32
HETATM   32  O1  UNL     1       2.230  51.739 -28.105  1.00  0.00    -0.394 OA
HETATM   33  C1  UNL     1       2.680  51.520 -26.773  1.00  0.00     0.201 C 
ENDBRANCH  31  32
ENDBRANCH  30  31
ENDBRANCH  29  30
ENDBRANCH   1  29
TORSDOF 10
ENDMDL
MODEL 6
REMARK minimizedAffinity -6.00148726
REMARK CNNscore 0.690447092
REMARK CNNaffinity 7.35715437
REMARK  10 active torsions:
REMARK  status: ('A' for Active; 'I' for Inactive)
REMARK    1  A    between atoms: O1_2  and  C2_3 
REMARK    2  A    between atoms: C2_3  and  C3_4 
REMARK    3  A    between atoms: C3_4  and  O2_5 
REMARK    4  A    between atoms: O2_5  and  C4_6 
REMARK    5  A    between atoms: C10_15  and  N3_16 
REMARK    6  A    between atoms: N3_16  and  C11_17 
REMARK    7  A    between atoms: C19_27  and  O3_28 
REMARK    8  A    between atoms: O3_28  and  C20_29 
REMARK    9  A    between atoms: C20_29  and  C21_30 
REMARK   10  A    between atoms: C21_30  and  O4_31 
ROOT
HETATM    1  C4  UNL     1      -4.154  47.994 -22.331  1.00  0.00     0.104 A 
HETATM    2  C5  UNL     1      -3.202  48.088 -21.310  1.00  0.00     0.070 A 
HETATM    3  C6  UNL     1      -2.227  49.076 -21.304  1.00  0.00     0.047 A 
HETATM    4  N1  UNL     1      -1.352  49.099 -20.288  1.00  0.00    -0.364 N 
ATOM      5  H1  UNL     1      -1.400  48.406 -19.541  1.00  0.00     0.165 HD
HETATM    6  C7  UNL     1      -0.403  50.063 -20.276  1.00  0.00     0.113 A 
HETATM    7  C8  UNL     1      -0.280  51.036 -21.249  1.00  0.00     0.087 A 
HETATM    8  C9  UNL     1       0.748  52.020 -21.127  1.00  0.00     0.103 C 
HETATM    9  N2  UNL     1       1.587  52.817 -21.043  1.00  0.00    -0.191 NA
HETATM   10  C10 UNL     1      -1.186  51.019 -22.319  1.00  0.00     0.067 A 
HETATM   11  C17 UNL     1      -2.194  50.013 -22.354  1.00  0.00     0.022 A 
HETATM   12  C18 UNL     1      -3.147  49.908 -23.394  1.00  0.00     0.055 A 
HETATM   13  C19 UNL     1      -4.127  48.914 -23.390  1.00  0.00     0.103 A 
ENDROOT
BRANCH  10  14
HETATM   14  N3  UNL     1      -1.157  52.034 -23.319  1.00  0.00    -0.353 N 
HETATM   15  H10 UNL     1      -2.079  52.449 -23.481  1.00  0.00     0.166 HD
BRANCH  14  16
HETATM   16  C11 UNL     1      -0.475  51.950 -24.569  1.00  0.00     0.054 A 
HETATM   17  C12 UNL     1      -0.640  50.856 -25.432  1.00  0.00     0.033 A 
HETATM   18  C13 UNL     1       0.096  50.763 -26.618  1.00  0.00     0.026 A 
HETATM   19  C14 UNL     1       1.020  51.753 -26.945  1.00  0.00     0.035 A 
HETATM   20 CL1  UNL     1       1.925  51.627 -28.402  1.00  0.00    -0.084 Cl
HETATM   21  C15 UNL     1       1.222  52.837 -26.097  1.00  0.00     0.050 A 
HETATM   22  C16 UNL     1       0.485  52.925 -24.914  1.00  0.00     0.062 A 
HETATM   23 CL2  UNL     1       0.777  54.276 -23.872  1.00  0.00    -0.082 Cl
ENDBRANCH  14  16
ENDBRANCH  10  14
BRANCH  13  24
HETATM   24  O3  UNL     1      -5.095  48.762 -24.347  1.00  0.00    -0.346 OA
BRANCH  24  25
HETATM   25  C20 UNL     1      -4.717  48.420 -25.679  1.00  0.00     0.201 C 
BRANCH  25  26
HETATM   26  C21 UNL     1      -5.922  47.958 -26.500  1.00  0.00     0.193 C 
BRANCH  26  27
HETATM   27  O4  UNL     1      -6.991  47.511 -25.666  1.00  0.00    -0.394 OA
HETATM   28  C22 UNL     1      -7.828  46.556 -26.303  1.00  0.00     0.201 C 
ENDBRANCH  26  27
ENDBRANCH  25  26
ENDBRANCH  24  25
ENDBRANCH  13  24
BRANCH   1  29
HETATM   29  O2  UNL     1      -5.145  47.045 -22.385  1.00  0.00    -0.346 OA
BRANCH  29  30
HETATM   30  C3  UNL     1      -6.003  46.905 -21.255  1.00  0.00     0.201 C 
BRANCH  30  31
HETATM   31  C2  UNL     1      -7.013  45.796 -21.549  1.00  0.00     0.193 C 
BRANCH  31  32
HETATM   32  O1  UNL     1      -7.742  46.042 -22.752  1.00  0.00    -0.394 OA
HETATM   33  C1  UNL     1      -9.084  46.447 -22.514  1.00  0.00     0.201 C 
ENDBRANCH  31  32
ENDBRANCH  30  31
ENDBRANCH  29  30
ENDBRANCH   1  29
TORSDOF 10
ENDMDL
MODEL 7
REMARK minimizedAffinity -6.93355179
REMARK CNNscore 0.608629107
REMARK CNNaffinity 7.13180161
REMARK  10 active torsions:
REMARK  status: ('A' for Active; 'I' for Inactive)
REMARK    1  A    between atoms: O1_2  and  C2_3 
REMARK    2  A    between atoms: C2_3  and  C3_4 
REMARK    3  A    between atoms: C3_4  and  O2_5 
REMARK    4  A    between atoms: O2_5  and  C4_6 
REMARK    5  A    between atoms: C10_15  and  N3_16 
REMARK    6  A    between atoms: N3_16  and  C11_17 
REMARK    7  A    between atoms: C19_27  and  O3_28 
REMARK    8  A    between atoms: O3_28  and  C20_29 
REMARK    9  A    between atoms: C20_29  and  C21_30 
REMARK   10  A    between atoms: C21_30  and  O4_31 
ROOT
HETATM    1  C4  UNL     1       0.342  51.627 -17.723  1.00  0.00     0.104 A 
HETATM    2  C5  UNL     1       0.894  52.712 -18.413  1.00  0.00     0.070 A 
HETATM    3  C6  UNL     1       0.810  52.823 -19.794  1.00  0.00     0.047 A 
HETATM    4  N1  UNL     1       1.363  53.896 -20.381  1.00  0.00    -0.364 N 
ATOM      5  H1  UNL     1       1.835  54.609 -19.825  1.00  0.00     0.165 HD
HETATM    6  C7  UNL     1       1.279  54.010 -21.725  1.00  0.00     0.113 A 
HETATM    7  C8  UNL     1       0.652  53.088 -22.540  1.00  0.00     0.087 A 
HETATM    8  C9  UNL     1       0.605  53.318 -23.949  1.00  0.00     0.103 C 
HETATM    9  N2  UNL     1       0.572  53.490 -25.097  1.00  0.00    -0.191 NA
HETATM   10  C10 UNL     1       0.075  51.960 -21.940  1.00  0.00     0.067 A 
HETATM   11  C17 UNL     1       0.150  51.816 -20.525  1.00  0.00     0.022 A 
HETATM   12  C18 UNL     1      -0.394  50.712 -19.828  1.00  0.00     0.055 A 
HETATM   13  C19 UNL     1      -0.308  50.611 -18.438  1.00  0.00     0.103 A 
ENDROOT
BRANCH  10  14
HETATM   14  N3  UNL     1      -0.646  51.006 -22.715  1.00  0.00    -0.353 N 
HETATM   15  H10 UNL     1      -0.267  50.907 -23.662  1.00  0.00     0.166 HD
BRANCH  14  16
HETATM   16  C11 UNL     1      -2.066  50.893 -22.785  1.00  0.00     0.054 A 
HETATM   17  C12 UNL     1      -2.886  51.996 -23.068  1.00  0.00     0.033 A 
HETATM   18  C13 UNL     1      -4.279  51.874 -23.058  1.00  0.00     0.026 A 
HETATM   19  C14 UNL     1      -4.869  50.651 -22.746  1.00  0.00     0.035 A 
HETATM   20 CL1  UNL     1      -6.584  50.512 -22.729  1.00  0.00    -0.084 Cl
HETATM   21  C15 UNL     1      -4.083  49.547 -22.437  1.00  0.00     0.050 A 
HETATM   22  C16 UNL     1      -2.693  49.673 -22.448  1.00  0.00     0.062 A 
HETATM   23 CL2  UNL     1      -1.744  48.284 -22.040  1.00  0.00    -0.082 Cl
ENDBRANCH  14  16
ENDBRANCH  10  14
BRANCH  13  24
HETATM   24  O3  UNL     1      -0.828  49.585 -17.694  1.00  0.00    -0.346 OA
BRANCH  24  25
HETATM   25  C20 UNL     1      -1.702  48.642 -18.311  1.00  0.00     0.201 C 
BRANCH  25  26
HETATM   26  C21 UNL     1      -3.166  48.946 -17.991  1.00  0.00     0.193 C 
BRANCH  26  27
HETATM   27  O4  UNL     1      -4.056  48.159 -18.783  1.00  0.00    -0.394 OA
HETATM   28  C22 UNL     1      -5.301  48.802 -19.021  1.00  0.00     0.201 C 
ENDBRANCH  26  27
ENDBRANCH  25  26
ENDBRANCH  24  25
ENDBRANCH  13  24
BRANCH   1  29
HETATM   29  O2  UNL     1       0.387  51.468 -16.360  1.00  0.00    -0.346 OA
BRANCH  29  30
HETATM   30  C3  UNL     1       1.264  52.309 -15.615  1.00  0.00     0.201 C 
BRANCH  30  31
HETATM   31  C2  UNL     1       2.126  51.428 -14.711  1.00  0.00     0.193 C 
BRANCH  31  32
HETATM   32  O1  UNL     1       3.511  51.509 -15.047  1.00  0.00    -0.394 OA
HETATM   33  C1  UNL     1       3.810  52.602 -15.907  1.00  0.00     0.201 C 
ENDBRANCH  31  32
ENDBRANCH  30  31
ENDBRANCH  29  30
ENDBRANCH   1  29
TORSDOF 10
ENDMDL
MODEL 8
REMARK minimizedAffinity -6.33258533
REMARK CNNscore 0.596477032
REMARK CNNaffinity 7.00000143
REMARK  10 active torsions:
REMARK  status: ('A' for Active; 'I' for Inactive)
REMARK    1  A    between atoms: O1_2  and  C2_3 
REMARK    2  A    between atoms: C2_3  and  C3_4 
REMARK    3  A    between atoms: C3_4  and  O2_5 
REMARK    4  A    between atoms: O2_5  and  C4_6 
REMARK    5  A    between atoms: C10_15  and  N3_16 
REMARK    6  A    between atoms: N3_16  and  C11_17 
REMARK    7  A    between atoms: C19_27  and  O3_28 
REMARK    8  A    between atoms: O3_28  and  C20_29 
REMARK    9  A    between atoms: C20_29  and  C21_30 
REMARK   10  A    between atoms: C21_30  and  O4_31 
ROOT
HETATM    1  C4  UNL     1      -3.750  48.850 -25.606  1.00  0.00     0.104 A 
HETATM    2  C5  UNL     1      -2.577  49.601 -25.746  1.00  0.00     0.070 A 
HETATM    3  C6  UNL     1      -2.045  50.333 -24.695  1.00  0.00     0.047 A 
HETATM    4  N1  UNL     1      -0.916  51.026 -24.910  1.00  0.00    -0.364 N 
ATOM      5  H1  UNL     1      -0.464  51.016 -25.824  1.00  0.00     0.165 HD
HETATM    6  C7  UNL     1      -0.391  51.737 -23.887  1.00  0.00     0.113 A 
HETATM    7  C8  UNL     1      -0.944  51.793 -22.622  1.00  0.00     0.087 A 
HETATM    8  C9  UNL     1      -0.294  52.561 -21.608  1.00  0.00     0.103 C 
HETATM    9  N2  UNL     1       0.220  53.191 -20.780  1.00  0.00    -0.191 NA
HETATM   10  C10 UNL     1      -2.126  51.077 -22.386  1.00  0.00     0.067 A 
HETATM   11  C17 UNL     1      -2.699  50.321 -23.448  1.00  0.00     0.022 A 
HETATM   12  C18 UNL     1      -3.893  49.574 -23.311  1.00  0.00     0.055 A 
HETATM   13  C19 UNL     1      -4.419  48.837 -24.373  1.00  0.00     0.103 A 
ENDROOT
BRANCH  10  14
HETATM   14  N3  UNL     1      -2.710  51.037 -21.087  1.00  0.00    -0.353 N 
HETATM   15  H10 UNL     1      -3.262  51.876 -20.881  1.00  0.00     0.166 HD
BRANCH  14  16
HETATM   16  C11 UNL     1      -2.050  50.629 -19.890  1.00  0.00     0.054 A 
HETATM   17  C12 UNL     1      -1.954  51.471 -18.771  1.00  0.00     0.033 A 
HETATM   18  C13 UNL     1      -1.238  51.074 -17.638  1.00  0.00     0.026 A 
HETATM   19  C14 UNL     1      -0.593  49.839 -17.616  1.00  0.00     0.035 A 
HETATM   20 CL1  UNL     1       0.290  49.363 -16.220  1.00  0.00    -0.084 Cl
HETATM   21  C15 UNL     1      -0.651  48.995 -18.719  1.00  0.00     0.050 A 
HETATM   22  C16 UNL     1      -1.367  49.395 -19.849  1.00  0.00     0.062 A 
HETATM   23 CL2  UNL     1      -1.401  48.328 -21.212  1.00  0.00    -0.082 Cl
ENDBRANCH  14  16
ENDBRANCH  10  14
BRANCH  13  24
HETATM   24  O3  UNL     1      -5.555  48.073 -24.311  1.00  0.00    -0.346 OA
BRANCH  24  25
HETATM   25  C20 UNL     1      -6.831  48.704 -24.407  1.00  0.00     0.201 C 
BRANCH  25  26
HETATM   26  C21 UNL     1      -7.804  47.869 -25.241  1.00  0.00     0.193 C 
BRANCH  26  27
HETATM   27  O4  UNL     1      -9.161  48.239 -24.999  1.00  0.00    -0.394 OA
HETATM   28  C22 UNL     1      -9.808  48.758 -26.153  1.00  0.00     0.201 C 
ENDBRANCH  26  27
ENDBRANCH  25  26
ENDBRANCH  24  25
ENDBRANCH  13  24
BRANCH   1  29
HETATM   29  O2  UNL     1      -4.318  48.100 -26.606  1.00  0.00    -0.346 OA
BRANCH  29  30
HETATM   30  C3  UNL     1      -4.197  48.569 -27.947  1.00  0.00     0.201 C 
BRANCH  30  31
HETATM   31  C2  UNL     1      -5.277  47.896 -28.794  1.00  0.00     0.193 C 
BRANCH  31  32
HETATM   32  O1  UNL     1      -4.850  47.689 -30.140  1.00  0.00    -0.394 OA
HETATM   33  C1  UNL     1      -5.449  48.596 -31.057  1.00  0.00     0.201 C 
ENDBRANCH  31  32
ENDBRANCH  30  31
ENDBRANCH  29  30
ENDBRANCH   1  29
TORSDOF 10
ENDMDL
MODEL 9
REMARK minimizedAffinity -6.0351963
REMARK CNNscore 0.459427565
REMARK CNNaffinity 6.98581362
REMARK  10 active torsions:
REMARK  status: ('A' for Active; 'I' for Inactive)
REMARK    1  A    between atoms: O1_2  and  C2_3 
REMARK    2  A    between atoms: C2_3  and  C3_4 
REMARK    3  A    between atoms: C3_4  and  O2_5 
REMARK    4  A    between atoms: O2_5  and  C4_6 
REMARK    5  A    between atoms: C10_15  and  N3_16 
REMARK    6  A    between atoms: N3_16  and  C11_17 
REMARK    7  A    between atoms: C19_27  and  O3_28 
REMARK    8  A    between atoms: O3_28  and  C20_29 
REMARK    9  A    between atoms: C20_29  and  C21_30 
REMARK   10  A    between atoms: C21_30  and  O4_31 
ROOT
HETATM    1  C4  UNL     1       0.113  52.185 -18.852  1.00  0.00     0.104 A 
HETATM    2  C5  UNL     1       0.824  52.647 -19.965  1.00  0.00     0.070 A 
HETATM    3  C6  UNL     1       0.287  52.617 -21.244  1.00  0.00     0.047 A 
HETATM    4  N1  UNL     1       1.033  53.081 -22.258  1.00  0.00    -0.364 N 
ATOM      5  H1  UNL     1       1.972  53.443 -22.092  1.00  0.00     0.165 HD
HETATM    6  C7  UNL     1       0.512  53.057 -23.506  1.00  0.00     0.113 A 
HETATM    7  C8  UNL     1      -0.752  52.587 -23.805  1.00  0.00     0.087 A 
HETATM    8  C9  UNL     1      -1.211  52.627 -25.157  1.00  0.00     0.103 C 
HETATM    9  N2  UNL     1      -1.589  52.645 -26.254  1.00  0.00    -0.191 NA
HETATM   10  C10 UNL     1      -1.540  52.095 -22.754  1.00  0.00     0.067 A 
HETATM   11  C17 UNL     1      -1.013  52.108 -21.431  1.00  0.00     0.022 A 
HETATM   12  C18 UNL     1      -1.726  51.627 -20.309  1.00  0.00     0.055 A 
HETATM   13  C19 UNL     1      -1.179  51.665 -19.025  1.00  0.00     0.103 A 
ENDROOT
BRANCH  10  14
HETATM   14  N3  UNL     1      -2.877  51.659 -22.984  1.00  0.00    -0.353 N 
HETATM   15  H10 UNL     1      -3.570  52.357 -22.698  1.00  0.00     0.166 HD
BRANCH  14  16
HETATM   16  C11 UNL     1      -3.392  50.363 -22.683  1.00  0.00     0.054 A 
HETATM   17  C12 UNL     1      -2.968  49.217 -23.371  1.00  0.00     0.033 A 
HETATM   18  C13 UNL     1      -3.543  47.970 -23.106  1.00  0.00     0.026 A 
HETATM   19  C14 UNL     1      -4.562  47.857 -22.163  1.00  0.00     0.035 A 
HETATM   20 CL1  UNL     1      -5.267  46.321 -21.848  1.00  0.00    -0.084 Cl
HETATM   21  C15 UNL     1      -5.020  48.981 -21.483  1.00  0.00     0.050 A 
HETATM   22  C16 UNL     1      -4.443  50.224 -21.751  1.00  0.00     0.062 A 
HETATM   23 CL2  UNL     1      -5.050  51.604 -20.901  1.00  0.00    -0.082 Cl
ENDBRANCH  14  16
ENDBRANCH  10  14
BRANCH  13  24
HETATM   24  O3  UNL     1      -1.815  51.239 -17.889  1.00  0.00    -0.346 OA
BRANCH  24  25
HETATM   25  C20 UNL     1      -2.732  50.149 -17.964  1.00  0.00     0.201 C 
BRANCH  25  26
HETATM   26  C21 UNL     1      -2.000  48.816 -18.129  1.00  0.00     0.193 C 
BRANCH  26  27
HETATM   27  O4  UNL     1      -2.342  48.173 -19.358  1.00  0.00    -0.394 OA
HETATM   28  C22 UNL     1      -1.229  48.014 -20.227  1.00  0.00     0.201 C 
ENDBRANCH  26  27
ENDBRANCH  25  26
ENDBRANCH  24  25
ENDBRANCH  13  24
BRANCH   1  29
HETATM   29  O2  UNL     1       0.588  52.198 -17.564  1.00  0.00    -0.346 OA
BRANCH  29  30
HETATM   30  C3  UNL     1       1.961  52.523 -17.359  1.00  0.00     0.201 C 
BRANCH  30  31
HETATM   31  C2  UNL     1       2.239  52.519 -15.856  1.00  0.00     0.193 C 
BRANCH  31  32
HETATM   32  O1  UNL     1       3.544  52.026 -15.554  1.00  0.00    -0.394 OA
HETATM   33  C1  UNL     1       3.546  51.074 -14.498  1.00  0.00     0.201 C 
ENDBRANCH  31  32
ENDBRANCH  30  31
ENDBRANCH  29  30
ENDBRANCH   1  29
TORSDOF 10
ENDMDL
