MODEL 1
REMARK minimizedAffinity -7.76376343
REMARK  10 active torsions:
REMARK  status: ('A' for Active; 'I' for Inactive)
REMARK    1  A    between atoms: C2_2  and  N1_3 
REMARK    2  A    between atoms: N1_3  and  C3_4 
REMARK    3  A    between atoms: N1_3  and  C5_6 
REMARK    4  A    between atoms: C5_6  and  C6_7 
REMARK    5  A    between atoms: C6_7  and  C7_8 
REMARK    6  A    between atoms: C7_8  and  C8_9 
REMARK    7  A    between atoms: C8_9  and  N2_10 
REMARK    8  A    between atoms: N2_10  and  C9_11 
REMARK    9  A    between atoms: C12_16  and  O1_17 
REMARK   10  A    between atoms: C13_18  and  C14_19 
ROOT
HETATM    1  C9  UNL     1       0.816  52.720 -18.858  1.00  0.00     0.082 A 
HETATM    2  C10 UNL     1       1.146  53.516 -19.952  1.00  0.00     0.072 A 
HETATM    3  C11 UNL     1       0.752  53.159 -21.229  1.00  0.00     0.049 A 
HETATM    4  N3  UNL     1       1.073  53.948 -22.273  1.00  0.00    -0.336 N 
ATOM      5  H3  UNL     1       1.603  54.811 -22.144  1.00  0.00     0.168 HD
HETATM    6  C12 UNL     1       0.666  53.549 -23.492  1.00  0.00     0.151 A 
HETATM    7  C13 UNL     1      -0.057  52.399 -23.780  1.00  0.00     0.029 A 
HETATM    8  C20 UNL     1      -0.381  51.595 -22.685  1.00  0.00     0.032 A 
HETATM    9  C21 UNL     1       0.025  51.973 -21.392  1.00  0.00     0.007 A 
HETATM   10  C22 UNL     1      -0.256  51.225 -20.253  1.00  0.00     0.103 A 
HETATM   11  N4  UNL     1       0.125  51.575 -19.006  1.00  0.00    -0.356 N 
ATOM     12  H4  UNL     1      -0.103  50.990 -18.203  1.00  0.00     0.166 HD
ENDROOT
BRANCH   1  13
HETATM   13  N2  UNL     1       1.274  53.118 -17.590  1.00  0.00    -0.279 NA
HETATM   14  H19 UNL     1       0.515  53.581 -17.097  1.00  0.00     0.129 HD
BRANCH  13  15
HETATM   15  C8  UNL     1       1.873  52.046 -16.795  1.00  0.00     0.094 C 
BRANCH  15  16
HETATM   16  C7  UNL     1       3.274  52.479 -16.355  1.00  0.00     0.016 C 
BRANCH  16  17
HETATM   17  C6  UNL     1       3.738  51.813 -15.055  1.00  0.00     0.021 C 
BRANCH  17  18
HETATM   18  C5  UNL     1       2.640  50.984 -14.376  1.00  0.00     0.117 C 
BRANCH  18  19
HETATM   19  N1  UNL     1       2.088  51.542 -13.148  1.00  0.00    -0.413 N 
BRANCH  19  20
HETATM   20  C2  UNL     1       2.993  51.753 -12.027  1.00  0.00     0.112 C 
HETATM   21  C1  UNL     1       2.789  53.033 -11.227  1.00  0.00     0.026 C 
ENDBRANCH  19  20
BRANCH  19  22
HETATM   22  C3  UNL     1       0.688  51.279 -12.853  1.00  0.00     0.112 C 
HETATM   23  C4  UNL     1      -0.317  52.291 -13.390  1.00  0.00     0.026 C 
ENDBRANCH  19  22
ENDBRANCH  18  19
ENDBRANCH  17  18
ENDBRANCH  16  17
ENDBRANCH  15  16
ENDBRANCH  13  15
ENDBRANCH   1  13
BRANCH   6  24
HETATM   24  O1  UNL     1       1.038  54.410 -24.476  1.00  0.00    -0.345 OA
HETATM   25  H21 UNL     1       1.517  55.073 -23.946  1.00  0.00     0.219 HD
ENDBRANCH   6  24
BRANCH   7  26
HETATM   26  C14 UNL     1      -0.462  52.039 -25.146  1.00  0.00     0.022 A 
HETATM   27  C15 UNL     1       0.482  51.610 -26.102  1.00  0.00     0.046 A 
HETATM   28 CL1  UNL     1       2.173  51.511 -25.732  1.00  0.00    -0.083 Cl
HETATM   29  C16 UNL     1       0.093  51.254 -27.400  1.00  0.00     0.025 A 
HETATM   30  C17 UNL     1      -1.247  51.316 -27.772  1.00  0.00     0.003 A 
HETATM   31  C18 UNL     1      -2.198  51.737 -26.848  1.00  0.00     0.025 A 
HETATM   32  C19 UNL     1      -1.812  52.094 -25.550  1.00  0.00     0.046 A 
HETATM   33 CL2  UNL     1      -3.063  52.623 -24.473  1.00  0.00    -0.083 Cl
ENDBRANCH   7  26
TORSDOF 10
ENDMDL
MODEL 2
REMARK minimizedAffinity -7.72180891
REMARK  10 active torsions:
REMARK  status: ('A' for Active; 'I' for Inactive)
REMARK    1  A    between atoms: C2_2  and  N1_3 
REMARK    2  A    between atoms: N1_3  and  C3_4 
REMARK    3  A    between atoms: N1_3  and  C5_6 
REMARK    4  A    between atoms: C5_6  and  C6_7 
REMARK    5  A    between atoms: C6_7  and  C7_8 
REMARK    6  A    between atoms: C7_8  and  C8_9 
REMARK    7  A    between atoms: C8_9  and  N2_10 
REMARK    8  A    between atoms: N2_10  and  C9_11 
REMARK    9  A    between atoms: C12_16  and  O1_17 
REMARK   10  A    between atoms: C13_18  and  C14_19 
ROOT
HETATM    1  C9  UNL     1       0.761  52.727 -18.857  1.00  0.00     0.082 A 
HETATM    2  C10 UNL     1       1.115  53.513 -19.950  1.00  0.00     0.072 A 
HETATM    3  C11 UNL     1       0.726  53.159 -21.230  1.00  0.00     0.049 A 
HETATM    4  N3  UNL     1       1.071  53.939 -22.273  1.00  0.00    -0.336 N 
ATOM      5  H3  UNL     1       1.615  54.792 -22.142  1.00  0.00     0.168 HD
HETATM    6  C12 UNL     1       0.668  53.544 -23.495  1.00  0.00     0.151 A 
HETATM    7  C13 UNL     1      -0.074  52.406 -23.786  1.00  0.00     0.029 A 
HETATM    8  C20 UNL     1      -0.423  51.611 -22.691  1.00  0.00     0.032 A 
HETATM    9  C21 UNL     1      -0.022  51.986 -21.396  1.00  0.00     0.007 A 
HETATM   10  C22 UNL     1      -0.327  51.248 -20.257  1.00  0.00     0.103 A 
HETATM   11  N4  UNL     1       0.050  51.595 -19.008  1.00  0.00    -0.356 N 
ATOM     12  H4  UNL     1      -0.197  51.017 -18.204  1.00  0.00     0.166 HD
ENDROOT
BRANCH   1  13
HETATM   13  N2  UNL     1       1.214  53.121 -17.586  1.00  0.00    -0.279 NA
HETATM   14  H19 UNL     1       0.450  53.575 -17.091  1.00  0.00     0.129 HD
BRANCH  13  15
HETATM   15  C8  UNL     1       1.821  52.049 -16.798  1.00  0.00     0.094 C 
BRANCH  15  16
HETATM   16  C7  UNL     1       3.191  52.516 -16.299  1.00  0.00     0.016 C 
BRANCH  16  17
HETATM   17  C6  UNL     1       3.602  51.885 -14.964  1.00  0.00     0.021 C 
BRANCH  17  18
HETATM   18  C5  UNL     1       2.433  51.218 -14.227  1.00  0.00     0.117 C 
BRANCH  18  19
HETATM   19  N1  UNL     1       1.858  51.980 -13.126  1.00  0.00    -0.413 N 
BRANCH  19  20
HETATM   20  C2  UNL     1       2.436  51.807 -11.801  1.00  0.00     0.112 C 
HETATM   21  C1  UNL     1       3.038  53.051 -11.160  1.00  0.00     0.026 C 
ENDBRANCH  19  20
BRANCH  19  22
HETATM   22  C3  UNL     1       0.451  52.341 -13.213  1.00  0.00     0.112 C 
HETATM   23  C4  UNL     1      -0.481  51.670 -12.212  1.00  0.00     0.026 C 
ENDBRANCH  19  22
ENDBRANCH  18  19
ENDBRANCH  17  18
ENDBRANCH  16  17
ENDBRANCH  15  16
ENDBRANCH  13  15
ENDBRANCH   1  13
BRANCH   6  24
HETATM   24  O1  UNL     1       1.065  54.394 -24.478  1.00  0.00    -0.345 OA
HETATM   25  H21 UNL     1       1.551  55.050 -23.945  1.00  0.00     0.219 HD
ENDBRANCH   6  24
BRANCH   7  26
HETATM   26  C14 UNL     1      -0.473  52.049 -25.154  1.00  0.00     0.022 A 
HETATM   27  C15 UNL     1      -1.818  52.128 -25.570  1.00  0.00     0.046 A 
HETATM   28 CL1  UNL     1      -3.079  52.622 -24.487  1.00  0.00    -0.083 Cl
HETATM   29  C16 UNL     1      -2.196  51.800 -26.878  1.00  0.00     0.025 A 
HETATM   30  C17 UNL     1      -1.240  51.388 -27.801  1.00  0.00     0.003 A 
HETATM   31  C18 UNL     1       0.095  51.299 -27.417  1.00  0.00     0.025 A 
HETATM   32  C19 UNL     1       0.475  51.626 -26.108  1.00  0.00     0.046 A 
HETATM   33 CL2  UNL     1       2.156  51.470 -25.714  1.00  0.00    -0.083 Cl
ENDBRANCH   7  26
TORSDOF 10
ENDMDL
MODEL 3
REMARK minimizedAffinity -7.57131624
REMARK  10 active torsions:
REMARK  status: ('A' for Active; 'I' for Inactive)
REMARK    1  A    between atoms: C2_2  and  N1_3 
REMARK    2  A    between atoms: N1_3  and  C3_4 
REMARK    3  A    between atoms: N1_3  and  C5_6 
REMARK    4  A    between atoms: C5_6  and  C6_7 
REMARK    5  A    between atoms: C6_7  and  C7_8 
REMARK    6  A    between atoms: C7_8  and  C8_9 
REMARK    7  A    between atoms: C8_9  and  N2_10 
REMARK    8  A    between atoms: N2_10  and  C9_11 
REMARK    9  A    between atoms: C12_16  and  O1_17 
REMARK   10  A    between atoms: C13_18  and  C14_19 
ROOT
HETATM    1  C9  UNL     1       0.956  52.762 -18.952  1.00  0.00     0.082 A 
HETATM    2  C10 UNL     1       1.250  53.550 -20.061  1.00  0.00     0.072 A 
HETATM    3  C11 UNL     1       0.820  53.182 -21.324  1.00  0.00     0.049 A 
HETATM    4  N3  UNL     1       1.107  53.963 -22.383  1.00  0.00    -0.336 N 
ATOM      5  H3  UNL     1       1.637  54.828 -22.277  1.00  0.00     0.168 HD
HETATM    6  C12 UNL     1       0.665  53.553 -23.586  1.00  0.00     0.151 A 
HETATM    7  C13 UNL     1      -0.064  52.398 -23.842  1.00  0.00     0.029 A 
HETATM    8  C20 UNL     1      -0.353  51.602 -22.731  1.00  0.00     0.032 A 
HETATM    9  C21 UNL     1       0.091  51.992 -21.455  1.00  0.00     0.007 A 
HETATM   10  C22 UNL     1      -0.154  51.254 -20.302  1.00  0.00     0.103 A 
HETATM   11  N4  UNL     1       0.264  51.615 -19.070  1.00  0.00    -0.356 N 
ATOM     12  H4  UNL     1       0.061  51.036 -18.255  1.00  0.00     0.166 HD
ENDROOT
BRANCH   1  13
HETATM   13  N2  UNL     1       1.450  53.172 -17.701  1.00  0.00    -0.279 NA
HETATM   14  H19 UNL     1       0.736  53.720 -17.229  1.00  0.00     0.129 HD
BRANCH  13  15
HETATM   15  C8  UNL     1       1.957  52.087 -16.862  1.00  0.00     0.094 C 
BRANCH  15  16
HETATM   16  C7  UNL     1       3.304  52.507 -16.269  1.00  0.00     0.016 C 
BRANCH  16  17
HETATM   17  C6  UNL     1       3.741  51.646 -15.078  1.00  0.00     0.021 C 
BRANCH  17  18
HETATM   18  C5  UNL     1       2.578  51.250 -14.161  1.00  0.00     0.117 C 
BRANCH  18  19
HETATM   19  N1  UNL     1       2.773  50.041 -13.371  1.00  0.00    -0.413 N 
BRANCH  19  20
HETATM   20  C2  UNL     1       2.155  48.810 -13.841  1.00  0.00     0.112 C 
HETATM   21  C1  UNL     1       1.118  48.955 -14.948  1.00  0.00     0.026 C 
ENDBRANCH  19  20
BRANCH  19  22
HETATM   22  C3  UNL     1       2.984  50.194 -11.939  1.00  0.00     0.112 C 
HETATM   23  C4  UNL     1       4.416  50.028 -11.446  1.00  0.00     0.026 C 
ENDBRANCH  19  22
ENDBRANCH  18  19
ENDBRANCH  17  18
ENDBRANCH  16  17
ENDBRANCH  15  16
ENDBRANCH  13  15
ENDBRANCH   1  13
BRANCH   6  24
HETATM   24  O1  UNL     1       1.005  54.406 -24.587  1.00  0.00    -0.345 OA
HETATM   25  H21 UNL     1       1.497  55.075 -24.077  1.00  0.00     0.219 HD
ENDBRANCH   6  24
BRANCH   7  26
HETATM   26  C14 UNL     1      -0.509  52.026 -25.192  1.00  0.00     0.022 A 
HETATM   27  C15 UNL     1      -1.867  52.103 -25.565  1.00  0.00     0.046 A 
HETATM   28 CL1  UNL     1      -3.091  52.613 -24.447  1.00  0.00    -0.083 Cl
HETATM   29  C16 UNL     1      -2.288  51.760 -26.855  1.00  0.00     0.025 A 
HETATM   30  C17 UNL     1      -1.364  51.335 -27.805  1.00  0.00     0.003 A 
HETATM   31  C18 UNL     1      -0.017  51.248 -27.463  1.00  0.00     0.025 A 
HETATM   32  C19 UNL     1       0.406  51.589 -26.173  1.00  0.00     0.046 A 
HETATM   33 CL2  UNL     1       2.099  51.434 -25.833  1.00  0.00    -0.083 Cl
ENDBRANCH   7  26
TORSDOF 10
ENDMDL
MODEL 4
REMARK minimizedAffinity -7.56994867
REMARK  10 active torsions:
REMARK  status: ('A' for Active; 'I' for Inactive)
REMARK    1  A    between atoms: C2_2  and  N1_3 
REMARK    2  A    between atoms: N1_3  and  C3_4 
REMARK    3  A    between atoms: N1_3  and  C5_6 
REMARK    4  A    between atoms: C5_6  and  C6_7 
REMARK    5  A    between atoms: C6_7  and  C7_8 
REMARK    6  A    between atoms: C7_8  and  C8_9 
REMARK    7  A    between atoms: C8_9  and  N2_10 
REMARK    8  A    between atoms: N2_10  and  C9_11 
REMARK    9  A    between atoms: C12_16  and  O1_17 
REMARK   10  A    between atoms: C13_18  and  C14_19 
ROOT
HETATM    1  C9  UNL     1      -3.540  49.448 -27.136  1.00  0.00     0.082 A 
HETATM    2  C10 UNL     1      -2.190  49.783 -27.206  1.00  0.00     0.072 A 
HETATM    3  C11 UNL     1      -1.577  50.465 -26.170  1.00  0.00     0.049 A 
HETATM    4  N3  UNL     1      -0.268  50.772 -26.254  1.00  0.00    -0.336 N 
ATOM      5  H3  UNL     1       0.288  50.510 -27.068  1.00  0.00     0.168 HD
HETATM    6  C12 UNL     1       0.274  51.438 -25.218  1.00  0.00     0.151 A 
HETATM    7  C13 UNL     1      -0.389  51.841 -24.065  1.00  0.00     0.029 A 
HETATM    8  C20 UNL     1      -1.745  51.513 -23.997  1.00  0.00     0.032 A 
HETATM    9  C21 UNL     1      -2.352  50.818 -25.057  1.00  0.00     0.007 A 
HETATM   10  C22 UNL     1      -3.696  50.457 -25.066  1.00  0.00     0.103 A 
HETATM   11  N4  UNL     1      -4.294  49.789 -26.075  1.00  0.00    -0.356 N 
ATOM     12  H4  UNL     1      -5.284  49.551 -26.035  1.00  0.00     0.166 HD
ENDROOT
BRANCH   1  13
HETATM   13  N2  UNL     1      -4.114  48.785 -28.235  1.00  0.00    -0.279 NA
HETATM   14  H19 UNL     1      -3.395  48.235 -28.699  1.00  0.00     0.129 HD
BRANCH  13  15
HETATM   15  C8  UNL     1      -5.296  47.986 -27.914  1.00  0.00     0.094 C 
BRANCH  15  16
HETATM   16  C7  UNL     1      -6.054  47.679 -29.208  1.00  0.00     0.016 C 
BRANCH  16  17
HETATM   17  C6  UNL     1      -5.374  48.241 -30.461  1.00  0.00     0.021 C 
BRANCH  17  18
HETATM   18  C5  UNL     1      -5.937  47.659 -31.764  1.00  0.00     0.117 C 
BRANCH  18  19
HETATM   19  N1  UNL     1      -4.965  47.035 -32.654  1.00  0.00    -0.413 N 
BRANCH  19  20
HETATM   20  C2  UNL     1      -4.219  45.889 -32.155  1.00  0.00     0.112 C 
HETATM   21  C1  UNL     1      -4.901  44.532 -32.282  1.00  0.00     0.026 C 
ENDBRANCH  19  20
BRANCH  19  22
HETATM   22  C3  UNL     1      -4.333  47.873 -33.662  1.00  0.00     0.112 C 
HETATM   23  C4  UNL     1      -5.202  48.279 -34.845  1.00  0.00     0.026 C 
ENDBRANCH  19  22
ENDBRANCH  18  19
ENDBRANCH  17  18
ENDBRANCH  16  17
ENDBRANCH  15  16
ENDBRANCH  13  15
ENDBRANCH   1  13
BRANCH   6  24
HETATM   24  O1  UNL     1       1.595  51.700 -25.397  1.00  0.00    -0.345 OA
HETATM   25  H21 UNL     1       1.726  51.303 -26.277  1.00  0.00     0.219 HD
ENDBRANCH   6  24
BRANCH   7  26
HETATM   26  C14 UNL     1       0.283  52.567 -22.978  1.00  0.00     0.022 A 
HETATM   27  C15 UNL     1       0.753  53.885 -23.157  1.00  0.00     0.046 A 
HETATM   28 CL1  UNL     1       0.592  54.712 -24.672  1.00  0.00    -0.083 Cl
HETATM   29  C16 UNL     1       1.381  54.581 -22.116  1.00  0.00     0.025 A 
HETATM   30  C17 UNL     1       1.552  53.979 -20.873  1.00  0.00     0.003 A 
HETATM   31  C18 UNL     1       1.099  52.679 -20.671  1.00  0.00     0.025 A 
HETATM   32  C19 UNL     1       0.471  51.980 -21.710  1.00  0.00     0.046 A 
HETATM   33 CL2  UNL     1      -0.045  50.361 -21.371  1.00  0.00    -0.083 Cl
ENDBRANCH   7  26
TORSDOF 10
ENDMDL
MODEL 5
REMARK minimizedAffinity -7.55481243
REMARK  10 active torsions:
REMARK  status: ('A' for Active; 'I' for Inactive)
REMARK    1  A    between atoms: C2_2  and  N1_3 
REMARK    2  A    between atoms: N1_3  and  C3_4 
REMARK    3  A    between atoms: N1_3  and  C5_6 
REMARK    4  A    between atoms: C5_6  and  C6_7 
REMARK    5  A    between atoms: C6_7  and  C7_8 
REMARK    6  A    between atoms: C7_8  and  C8_9 
REMARK    7  A    between atoms: C8_9  and  N2_10 
REMARK    8  A    between atoms: N2_10  and  C9_11 
REMARK    9  A    between atoms: C12_16  and  O1_17 
REMARK   10  A    between atoms: C13_18  and  C14_19 
ROOT
HETATM    1  C9  UNL     1       0.823  52.711 -18.753  1.00  0.00     0.082 A 
HETATM    2  C10 UNL     1       1.180  53.489 -19.852  1.00  0.00     0.072 A 
HETATM    3  C11 UNL     1       0.775  53.136 -21.127  1.00  0.00     0.049 A 
HETATM    4  N3  UNL     1       1.123  53.907 -22.176  1.00  0.00    -0.336 N 
ATOM      5  H3  UNL     1       1.681  54.753 -22.052  1.00  0.00     0.168 HD
HETATM    6  C12 UNL     1       0.703  53.514 -23.393  1.00  0.00     0.151 A 
HETATM    7  C13 UNL     1      -0.058  52.387 -23.673  1.00  0.00     0.029 A 
HETATM    8  C20 UNL     1      -0.409  51.601 -22.573  1.00  0.00     0.032 A 
HETATM    9  C21 UNL     1       0.008  51.974 -21.283  1.00  0.00     0.007 A 
HETATM   10  C22 UNL     1      -0.298  51.244 -20.139  1.00  0.00     0.103 A 
HETATM   11  N4  UNL     1       0.094  51.589 -18.894  1.00  0.00    -0.356 N 
ATOM     12  H4  UNL     1      -0.154  51.018 -18.087  1.00  0.00     0.166 HD
ENDROOT
BRANCH   1  13
HETATM   13  N2  UNL     1       1.293  53.102 -17.487  1.00  0.00    -0.279 NA
HETATM   14  H19 UNL     1       0.575  52.905 -16.795  1.00  0.00     0.129 HD
BRANCH  13  15
HETATM   15  C8  UNL     1       2.588  52.533 -17.116  1.00  0.00     0.094 C 
BRANCH  15  16
HETATM   16  C7  UNL     1       2.547  52.128 -15.641  1.00  0.00     0.016 C 
BRANCH  16  17
HETATM   17  C6  UNL     1       1.126  52.003 -15.080  1.00  0.00     0.021 C 
BRANCH  17  18
HETATM   18  C5  UNL     1       0.993  50.914 -14.009  1.00  0.00     0.117 C 
BRANCH  18  19
HETATM   19  N1  UNL     1       1.680  49.659 -14.289  1.00  0.00    -0.413 N 
BRANCH  19  20
HETATM   20  C2  UNL     1       0.942  48.619 -14.991  1.00  0.00     0.112 C 
HETATM   21  C1  UNL     1       0.241  49.039 -16.277  1.00  0.00     0.026 C 
ENDBRANCH  19  20
BRANCH  19  22
HETATM   22  C3  UNL     1       2.738  49.247 -13.378  1.00  0.00     0.112 C 
HETATM   23  C4  UNL     1       4.141  49.738 -13.709  1.00  0.00     0.026 C 
ENDBRANCH  19  22
ENDBRANCH  18  19
ENDBRANCH  17  18
ENDBRANCH  16  17
ENDBRANCH  15  16
ENDBRANCH  13  15
ENDBRANCH   1  13
BRANCH   6  24
HETATM   24  O1  UNL     1       1.105  54.355 -24.382  1.00  0.00    -0.345 OA
HETATM   25  H21 UNL     1       1.605  55.005 -23.856  1.00  0.00     0.219 HD
ENDBRANCH   6  24
BRANCH   7  26
HETATM   26  C14 UNL     1      -0.474  52.031 -25.037  1.00  0.00     0.022 A 
HETATM   27  C15 UNL     1       0.458  51.577 -25.994  1.00  0.00     0.046 A 
HETATM   28 CL1  UNL     1       2.147  51.441 -25.627  1.00  0.00    -0.083 Cl
HETATM   29  C16 UNL     1       0.058  51.226 -27.289  1.00  0.00     0.025 A 
HETATM   30  C17 UNL     1      -1.281  51.317 -27.659  1.00  0.00     0.003 A 
HETATM   31  C18 UNL     1      -2.221  51.763 -26.734  1.00  0.00     0.025 A 
HETATM   32  C19 UNL     1      -1.823  52.116 -25.438  1.00  0.00     0.046 A 
HETATM   33 CL2  UNL     1      -3.060  52.677 -24.361  1.00  0.00    -0.083 Cl
ENDBRANCH   7  26
TORSDOF 10
ENDMDL
MODEL 6
REMARK minimizedAffinity -7.48101616
REMARK  10 active torsions:
REMARK  status: ('A' for Active; 'I' for Inactive)
REMARK    1  A    between atoms: C2_2  and  N1_3 
REMARK    2  A    between atoms: N1_3  and  C3_4 
REMARK    3  A    between atoms: N1_3  and  C5_6 
REMARK    4  A    between atoms: C5_6  and  C6_7 
REMARK    5  A    between atoms: C6_7  and  C7_8 
REMARK    6  A    between atoms: C7_8  and  C8_9 
REMARK    7  A    between atoms: C8_9  and  N2_10 
REMARK    8  A    between atoms: N2_10  and  C9_11 
REMARK    9  A    between atoms: C12_16  and  O1_17 
REMARK   10  A    between atoms: C13_18  and  C14_19 
ROOT
HETATM    1  C9  UNL     1       0.751  52.521 -18.812  1.00  0.00     0.082 A 
HETATM    2  C10 UNL     1       1.114  53.331 -19.885  1.00  0.00     0.072 A 
HETATM    3  C11 UNL     1       0.720  53.014 -21.173  1.00  0.00     0.049 A 
HETATM    4  N3  UNL     1       1.074  53.816 -22.196  1.00  0.00    -0.336 N 
ATOM      5  H3  UNL     1       1.628  54.659 -22.044  1.00  0.00     0.168 HD
HETATM    6  C12 UNL     1       0.665  53.457 -23.427  1.00  0.00     0.151 A 
HETATM    7  C13 UNL     1      -0.090  52.335 -23.746  1.00  0.00     0.029 A 
HETATM    8  C20 UNL     1      -0.448  51.517 -22.671  1.00  0.00     0.032 A 
HETATM    9  C21 UNL     1      -0.041  51.854 -21.368  1.00  0.00     0.007 A 
HETATM   10  C22 UNL     1      -0.354  51.091 -20.248  1.00  0.00     0.103 A 
HETATM   11  N4  UNL     1       0.027  51.402 -18.990  1.00  0.00    -0.356 N 
ATOM     12  H4  UNL     1      -0.225  50.806 -18.202  1.00  0.00     0.166 HD
ENDROOT
BRANCH   1  13
HETATM   13  N2  UNL     1       1.210  52.877 -17.531  1.00  0.00    -0.279 NA
HETATM   14  H19 UNL     1       0.639  53.640 -17.178  1.00  0.00     0.129 HD
BRANCH  13  15
HETATM   15  C8  UNL     1       1.292  51.767 -16.584  1.00  0.00     0.094 C 
BRANCH  15  16
HETATM   16  C7  UNL     1       1.142  52.314 -15.162  1.00  0.00     0.016 C 
BRANCH  16  17
HETATM   17  C6  UNL     1       0.329  51.401 -14.239  1.00  0.00     0.021 C 
BRANCH  17  18
HETATM   18  C5  UNL     1      -0.802  52.135 -13.507  1.00  0.00     0.117 C 
BRANCH  18  19
HETATM   19  N1  UNL     1      -0.627  52.303 -12.070  1.00  0.00    -0.413 N 
BRANCH  19  20
HETATM   20  C2  UNL     1      -1.813  52.251 -11.227  1.00  0.00     0.112 C 
HETATM   21  C1  UNL     1      -3.126  51.926 -11.928  1.00  0.00     0.026 C 
ENDBRANCH  19  20
BRANCH  19  22
HETATM   22  C3  UNL     1       0.499  53.103 -11.613  1.00  0.00     0.112 C 
HETATM   23  C4  UNL     1       0.157  54.402 -10.894  1.00  0.00     0.026 C 
ENDBRANCH  19  22
ENDBRANCH  18  19
ENDBRANCH  17  18
ENDBRANCH  16  17
ENDBRANCH  15  16
ENDBRANCH  13  15
ENDBRANCH   1  13
BRANCH   6  24
HETATM   24  O1  UNL     1       1.071  54.327 -24.388  1.00  0.00    -0.345 OA
HETATM   25  H21 UNL     1       1.565  54.963 -23.840  1.00  0.00     0.219 HD
ENDBRANCH   6  24
BRANCH   7  26
HETATM   26  C14 UNL     1      -0.494  52.018 -25.123  1.00  0.00     0.022 A 
HETATM   27  C15 UNL     1       0.445  51.586 -26.082  1.00  0.00     0.046 A 
HETATM   28 CL1  UNL     1       2.130  51.435 -25.704  1.00  0.00    -0.083 Cl
HETATM   29  C16 UNL     1       0.057  51.271 -27.390  1.00  0.00     0.025 A 
HETATM   30  C17 UNL     1      -1.278  51.377 -27.770  1.00  0.00     0.003 A 
HETATM   31  C18 UNL     1      -2.226  51.801 -26.843  1.00  0.00     0.025 A 
HETATM   32  C19 UNL     1      -1.839  52.118 -25.534  1.00  0.00     0.046 A 
HETATM   33 CL2  UNL     1      -3.084  52.654 -24.453  1.00  0.00    -0.083 Cl
ENDBRANCH   7  26
TORSDOF 10
ENDMDL
MODEL 7
REMARK minimizedAffinity -7.47403765
REMARK  10 active torsions:
REMARK  status: ('A' for Active; 'I' for Inactive)
REMARK    1  A    between atoms: C2_2  and  N1_3 
REMARK    2  A    between atoms: N1_3  and  C3_4 
REMARK    3  A    between atoms: N1_3  and  C5_6 
REMARK    4  A    between atoms: C5_6  and  C6_7 
REMARK    5  A    between atoms: C6_7  and  C7_8 
REMARK    6  A    between atoms: C7_8  and  C8_9 
REMARK    7  A    between atoms: C8_9  and  N2_10 
REMARK    8  A    between atoms: N2_10  and  C9_11 
REMARK    9  A    between atoms: C12_16  and  O1_17 
REMARK   10  A    between atoms: C13_18  and  C14_19 
ROOT
HETATM    1  C9  UNL     1       0.767  52.753 -18.747  1.00  0.00     0.082 A 
HETATM    2  C10 UNL     1       1.186  53.485 -19.855  1.00  0.00     0.072 A 
HETATM    3  C11 UNL     1       0.756  53.149 -21.126  1.00  0.00     0.049 A 
HETATM    4  N3  UNL     1       1.165  53.875 -22.184  1.00  0.00    -0.336 N 
ATOM      5  H3  UNL     1       1.788  54.675 -22.071  1.00  0.00     0.168 HD
HETATM    6  C12 UNL     1       0.717  53.501 -23.397  1.00  0.00     0.151 A 
HETATM    7  C13 UNL     1      -0.131  52.433 -23.664  1.00  0.00     0.029 A 
HETATM    8  C20 UNL     1      -0.546  51.693 -22.554  1.00  0.00     0.032 A 
HETATM    9  C21 UNL     1      -0.101  52.049 -21.269  1.00  0.00     0.007 A 
HETATM   10  C22 UNL     1      -0.466  51.361 -20.116  1.00  0.00     0.103 A 
HETATM   11  N4  UNL     1      -0.049  51.691 -18.874  1.00  0.00    -0.356 N 
ATOM     12  H4  UNL     1      -0.343  51.152 -18.060  1.00  0.00     0.166 HD
ENDROOT
BRANCH   1  13
HETATM   13  N2  UNL     1       1.265  53.122 -17.485  1.00  0.00    -0.279 NA
HETATM   14  H19 UNL     1       0.646  53.819 -17.078  1.00  0.00     0.129 HD
BRANCH  13  15
HETATM   15  C8  UNL     1       1.508  52.003 -16.576  1.00  0.00     0.094 C 
BRANCH  15  16
HETATM   16  C7  UNL     1       0.699  50.793 -17.051  1.00  0.00     0.016 C 
BRANCH  16  17
HETATM   17  C6  UNL     1       0.028  50.022 -15.910  1.00  0.00     0.021 C 
BRANCH  17  18
HETATM   18  C5  UNL     1      -0.855  50.907 -15.021  1.00  0.00     0.117 C 
BRANCH  18  19
HETATM   19  N1  UNL     1      -2.285  50.631 -15.067  1.00  0.00    -0.413 N 
BRANCH  19  20
HETATM   20  C2  UNL     1      -2.897  50.412 -16.370  1.00  0.00     0.112 C 
HETATM   21  C1  UNL     1      -3.359  48.992 -16.670  1.00  0.00     0.026 C 
ENDBRANCH  19  20
BRANCH  19  22
HETATM   22  C3  UNL     1      -3.117  51.183 -14.008  1.00  0.00     0.112 C 
HETATM   23  C4  UNL     1      -3.225  50.355 -12.734  1.00  0.00     0.026 C 
ENDBRANCH  19  22
ENDBRANCH  18  19
ENDBRANCH  17  18
ENDBRANCH  16  17
ENDBRANCH  15  16
ENDBRANCH  13  15
ENDBRANCH   1  13
BRANCH   6  24
HETATM   24  O1  UNL     1       1.185  54.294 -24.396  1.00  0.00    -0.345 OA
HETATM   25  H21 UNL     1       1.735  54.909 -23.878  1.00  0.00     0.219 HD
ENDBRANCH   6  24
BRANCH   7  26
HETATM   26  C14 UNL     1      -0.573  52.094 -25.024  1.00  0.00     0.022 A 
HETATM   27  C15 UNL     1       0.343  51.662 -26.007  1.00  0.00     0.046 A 
HETATM   28 CL1  UNL     1       2.040  51.535 -25.677  1.00  0.00    -0.083 Cl
HETATM   29  C16 UNL     1      -0.081  51.326 -27.298  1.00  0.00     0.025 A 
HETATM   30  C17 UNL     1      -1.428  51.411 -27.639  1.00  0.00     0.003 A 
HETATM   31  C18 UNL     1      -2.352  51.835 -26.688  1.00  0.00     0.025 A 
HETATM   32  C19 UNL     1      -1.930  52.173 -25.396  1.00  0.00     0.046 A 
HETATM   33 CL2  UNL     1      -3.149  52.707 -24.285  1.00  0.00    -0.083 Cl
ENDBRANCH   7  26
TORSDOF 10
ENDMDL
MODEL 8
REMARK minimizedAffinity -7.46434116
REMARK  10 active torsions:
REMARK  status: ('A' for Active; 'I' for Inactive)
REMARK    1  A    between atoms: C2_2  and  N1_3 
REMARK    2  A    between atoms: N1_3  and  C3_4 
REMARK    3  A    between atoms: N1_3  and  C5_6 
REMARK    4  A    between atoms: C5_6  and  C6_7 
REMARK    5  A    between atoms: C6_7  and  C7_8 
REMARK    6  A    between atoms: C7_8  and  C8_9 
REMARK    7  A    between atoms: C8_9  and  N2_10 
REMARK    8  A    between atoms: N2_10  and  C9_11 
REMARK    9  A    between atoms: C12_16  and  O1_17 
REMARK   10  A    between atoms: C13_18  and  C14_19 
ROOT
HETATM    1  C9  UNL     1      -2.066  52.040 -26.668  1.00  0.00     0.082 A 
HETATM    2  C10 UNL     1      -3.162  52.249 -25.835  1.00  0.00     0.072 A 
HETATM    3  C11 UNL     1      -3.848  51.179 -25.289  1.00  0.00     0.049 A 
HETATM    4  N3  UNL     1      -4.900  51.402 -24.478  1.00  0.00    -0.336 N 
ATOM      5  H3  UNL     1      -5.206  52.349 -24.252  1.00  0.00     0.168 HD
HETATM    6  C12 UNL     1      -5.530  50.323 -23.978  1.00  0.00     0.151 A 
HETATM    7  C13 UNL     1      -5.199  48.995 -24.217  1.00  0.00     0.029 A 
HETATM    8  C20 UNL     1      -4.104  48.784 -25.060  1.00  0.00     0.032 A 
HETATM    9  C21 UNL     1      -3.417  49.883 -25.605  1.00  0.00     0.007 A 
HETATM   10  C22 UNL     1      -2.321  49.756 -26.453  1.00  0.00     0.103 A 
HETATM   11  N4  UNL     1      -1.650  50.801 -26.983  1.00  0.00    -0.356 N 
ATOM     12  H4  UNL     1      -0.854  50.654 -27.603  1.00  0.00     0.166 HD
ENDROOT
BRANCH   1  13
HETATM   13  N2  UNL     1      -1.431  53.168 -27.219  1.00  0.00    -0.279 NA
HETATM   14  H19 UNL     1      -1.960  53.998 -26.967  1.00  0.00     0.129 HD
BRANCH  13  15
HETATM   15  C8  UNL     1      -0.014  53.293 -26.880  1.00  0.00     0.094 C 
BRANCH  15  16
HETATM   16  C7  UNL     1       0.109  53.877 -25.470  1.00  0.00     0.016 C 
BRANCH  16  17
HETATM   17  C6  UNL     1       0.646  52.877 -24.440  1.00  0.00     0.021 C 
BRANCH  17  18
HETATM   18  C5  UNL     1      -0.401  52.464 -23.398  1.00  0.00     0.117 C 
BRANCH  18  19
HETATM   19  N1  UNL     1       0.120  52.072 -22.094  1.00  0.00    -0.413 N 
BRANCH  19  20
HETATM   20  C2  UNL     1      -0.771  51.360 -21.189  1.00  0.00     0.112 C 
HETATM   21  C1  UNL     1      -0.219  50.086 -20.562  1.00  0.00     0.026 C 
ENDBRANCH  19  20
BRANCH  19  22
HETATM   22  C3  UNL     1       1.172  52.890 -21.510  1.00  0.00     0.112 C 
HETATM   23  C4  UNL     1       0.751  53.835 -20.392  1.00  0.00     0.026 C 
ENDBRANCH  19  22
ENDBRANCH  18  19
ENDBRANCH  17  18
ENDBRANCH  16  17
ENDBRANCH  15  16
ENDBRANCH  13  15
ENDBRANCH   1  13
BRANCH   6  24
HETATM   24  O1  UNL     1      -6.575  50.652 -23.174  1.00  0.00    -0.345 OA
HETATM   25  H21 UNL     1      -6.530  51.624 -23.232  1.00  0.00     0.219 HD
ENDBRANCH   6  24
BRANCH   7  26
HETATM   26  C14 UNL     1      -5.943  47.874 -23.628  1.00  0.00     0.022 A 
HETATM   27  C15 UNL     1      -5.579  47.326 -22.381  1.00  0.00     0.046 A 
HETATM   28 CL1  UNL     1      -4.218  47.922 -21.486  1.00  0.00    -0.083 Cl
HETATM   29  C16 UNL     1      -6.297  46.266 -21.814  1.00  0.00     0.025 A 
HETATM   30  C17 UNL     1      -7.397  45.730 -22.477  1.00  0.00     0.003 A 
HETATM   31  C18 UNL     1      -7.778  46.252 -23.710  1.00  0.00     0.025 A 
HETATM   32  C19 UNL     1      -7.060  47.311 -24.280  1.00  0.00     0.046 A 
HETATM   33 CL2  UNL     1      -7.596  47.885 -25.826  1.00  0.00    -0.083 Cl
ENDBRANCH   7  26
TORSDOF 10
ENDMDL
MODEL 9
REMARK minimizedAffinity -7.45689154
REMARK  10 active torsions:
REMARK  status: ('A' for Active; 'I' for Inactive)
REMARK    1  A    between atoms: C2_2  and  N1_3 
REMARK    2  A    between atoms: N1_3  and  C3_4 
REMARK    3  A    between atoms: N1_3  and  C5_6 
REMARK    4  A    between atoms: C5_6  and  C6_7 
REMARK    5  A    between atoms: C6_7  and  C7_8 
REMARK    6  A    between atoms: C7_8  and  C8_9 
REMARK    7  A    between atoms: C8_9  and  N2_10 
REMARK    8  A    between atoms: N2_10  and  C9_11 
REMARK    9  A    between atoms: C12_16  and  O1_17 
REMARK   10  A    between atoms: C13_18  and  C14_19 
ROOT
HETATM    1  C9  UNL     1      -4.722  49.355 -24.742  1.00  0.00     0.082 A 
HETATM    2  C10 UNL     1      -3.716  48.685 -24.051  1.00  0.00     0.072 A 
HETATM    3  C11 UNL     1      -2.982  49.331 -23.072  1.00  0.00     0.049 A 
HETATM    4  N3  UNL     1      -2.019  48.663 -22.408  1.00  0.00    -0.336 N 
ATOM      5  H3  UNL     1      -1.816  47.684 -22.609  1.00  0.00     0.168 HD
HETATM    6  C12 UNL     1      -1.336  49.343 -21.468  1.00  0.00     0.151 A 
HETATM    7  C13 UNL     1      -1.530  50.672 -21.114  1.00  0.00     0.029 A 
HETATM    8  C20 UNL     1      -2.534  51.347 -21.812  1.00  0.00     0.032 A 
HETATM    9  C21 UNL     1      -3.272  50.676 -22.803  1.00  0.00     0.007 A 
HETATM   10  C22 UNL     1      -4.284  51.279 -23.544  1.00  0.00     0.103 A 
HETATM   11  N4  UNL     1      -5.002  50.647 -24.497  1.00  0.00    -0.356 N 
ATOM     12  H4  UNL     1      -5.732  51.135 -25.015  1.00  0.00     0.166 HD
ENDROOT
BRANCH   1  13
HETATM   13  N2  UNL     1      -5.409  48.654 -25.749  1.00  0.00    -0.279 NA
HETATM   14  H19 UNL     1      -6.231  49.189 -26.020  1.00  0.00     0.129 HD
BRANCH  13  15
HETATM   15  C8  UNL     1      -4.589  48.285 -26.902  1.00  0.00     0.094 C 
BRANCH  15  16
HETATM   16  C7  UNL     1      -3.241  49.006 -26.803  1.00  0.00     0.016 C 
BRANCH  16  17
HETATM   17  C6  UNL     1      -3.134  50.229 -27.719  1.00  0.00     0.021 C 
BRANCH  17  18
HETATM   18  C5  UNL     1      -2.640  51.486 -26.993  1.00  0.00     0.117 C 
BRANCH  18  19
HETATM   19  N1  UNL     1      -1.213  51.763 -27.100  1.00  0.00    -0.413 N 
BRANCH  19  20
HETATM   20  C2  UNL     1      -0.283  50.686 -26.796  1.00  0.00     0.112 C 
HETATM   21  C1  UNL     1       1.126  51.104 -26.393  1.00  0.00     0.026 C 
ENDBRANCH  19  20
BRANCH  19  22
HETATM   22  C3  UNL     1      -0.769  53.130 -26.873  1.00  0.00     0.112 C 
HETATM   23  C4  UNL     1      -0.500  53.968 -28.117  1.00  0.00     0.026 C 
ENDBRANCH  19  22
ENDBRANCH  18  19
ENDBRANCH  17  18
ENDBRANCH  16  17
ENDBRANCH  15  16
ENDBRANCH  13  15
ENDBRANCH   1  13
BRANCH   6  24
HETATM   24  O1  UNL     1      -0.389  48.584 -20.857  1.00  0.00    -0.345 OA
HETATM   25  H21 UNL     1      -0.514  47.744 -21.335  1.00  0.00     0.219 HD
ENDBRANCH   6  24
BRANCH   7  26
HETATM   26  C14 UNL     1      -0.737  51.338 -20.071  1.00  0.00     0.022 A 
HETATM   27  C15 UNL     1      -0.952  51.072 -18.703  1.00  0.00     0.046 A 
HETATM   28 CL1  UNL     1      -2.180  49.969 -18.171  1.00  0.00    -0.083 Cl
HETATM   29  C16 UNL     1      -0.187  51.698 -17.711  1.00  0.00     0.025 A 
HETATM   30  C17 UNL     1       0.812  52.601 -18.062  1.00  0.00     0.003 A 
HETATM   31  C18 UNL     1       1.045  52.882 -19.405  1.00  0.00     0.025 A 
HETATM   32  C19 UNL     1       0.279  52.259 -20.399  1.00  0.00     0.046 A 
HETATM   33 CL2  UNL     1       0.628  52.684 -22.043  1.00  0.00    -0.083 Cl
ENDBRANCH   7  26
TORSDOF 10
ENDMDL
