MODEL 1
REMARK minimizedAffinity -11.0369768
REMARK CNNscore 0.253210872
REMARK CNNaffinity 7.25573397
REMARK  15 active torsions:
REMARK  status: ('A' for Active; 'I' for Inactive)
REMARK    1  A    between atoms: C2_2  and  N1_3 
REMARK    2  A    between atoms: C2_2  and  C22_32 
REMARK       I    between atoms: N1_3  and  C3_4 
REMARK    3  A    between atoms: C3_4  and  C4_6 
REMARK    4  A    between atoms: C4_6  and  C5_7 
REMARK    5  A    between atoms: C4_6  and  N2_19 
REMARK    6  A    between atoms: C5_7  and  C6_8 
REMARK    7  A    between atoms: C9_11  and  O2_12 
REMARK    8  A    between atoms: O2_12  and  P1_13 
REMARK    9  A    between atoms: P1_13  and  O4_15 
REMARK   10  A    between atoms: P1_13  and  O5_16 
REMARK       I    between atoms: N2_19  and  C12_20 
REMARK   11  A    between atoms: C12_20  and  C13_22 
REMARK   12  A    between atoms: C13_22  and  C14_23 
REMARK   13  A    between atoms: C23_35  and  C24_36 
REMARK   14  A    between atoms: C24_36  and  C25_37 
REMARK   15  A    between atoms: C28_40  and  C29_41 
ROOT
HETATM    1  C4  UNL     1      -5.221  50.105 -23.560  1.00  0.00     0.180 C 
ENDROOT
BRANCH   1   2
HETATM    2  C3  UNL     1      -5.394  50.080 -22.030  1.00  0.00     0.241 C 
HETATM    3  N1  UNL     1      -5.776  48.864 -21.508  1.00  0.00    -0.348 N 
HETATM    4  H5  UNL     1      -5.853  48.066 -22.125  1.00  0.00     0.163 HD
HETATM    5  O1  UNL     1      -5.149  51.062 -21.331  1.00  0.00    -0.271 OA
BRANCH   3   6
HETATM    6  C2  UNL     1      -5.667  48.587 -20.079  1.00  0.00     0.158 C 
HETATM    7  C1  UNL     1      -6.455  47.331 -19.729  1.00  0.00     0.041 C 
BRANCH   6   8
HETATM    8  C22 UNL     1      -4.213  48.430 -19.763  1.00  0.00     0.170 A 
HETATM    9  N4  UNL     1      -3.420  49.197 -19.046  1.00  0.00    -0.325 N 
HETATM   10  C23 UNL     1      -2.247  48.477 -19.044  1.00  0.00     0.108 A 
ATOM     11  H4  UNL     1      -3.622  50.094 -18.605  1.00  0.00     0.169 HD
HETATM   12  N5  UNL     1      -2.314  47.293 -19.674  1.00  0.00    -0.247 N 
HETATM   13  O7  UNL     1      -3.618  47.269 -20.173  1.00  0.00    -0.221 OA
ATOM     14  H5  UNL     1      -1.587  46.583 -19.767  1.00  0.00     0.196 HD
BRANCH  10  15
HETATM   15  C24 UNL     1      -1.039  48.925 -18.306  1.00  0.00     0.117 C 
BRANCH  15  16
HETATM   16  C25 UNL     1      -0.502  50.129 -19.043  1.00  0.00    -0.051 A 
HETATM   17  C26 UNL     1      -0.173  51.300 -18.346  1.00  0.00     0.008 A 
HETATM   18  C27 UNL     1       0.312  52.420 -19.028  1.00  0.00     0.017 A 
HETATM   19  C28 UNL     1       0.475  52.395 -20.421  1.00  0.00     0.047 A 
HETATM   20  C30 UNL     1       0.163  51.217 -21.115  1.00  0.00     0.017 A 
HETATM   21  C31 UNL     1      -0.325  50.097 -20.435  1.00  0.00     0.008 A 
BRANCH  19  22
HETATM   22  C29 UNL     1       1.011  53.602 -21.151  1.00  0.00     0.417 C 
HETATM   23  F1  UNL     1       0.744  53.563 -22.486  1.00  0.00    -0.166 F 
HETATM   24  F2  UNL     1       2.363  53.735 -21.043  1.00  0.00    -0.166 F 
HETATM   25  F3  UNL     1       0.488  54.777 -20.698  1.00  0.00    -0.166 F 
ENDBRANCH  19  22
ENDBRANCH  15  16
ENDBRANCH  10  15
ENDBRANCH   6   8
ENDBRANCH   3   6
ENDBRANCH   1   2
BRANCH   1  26
HETATM   26  C5  UNL     1      -4.699  48.725 -24.002  1.00  0.00     0.073 C 
BRANCH  26  27
HETATM   27  C6  UNL     1      -4.650  48.467 -25.493  1.00  0.00    -0.056 A 
HETATM   28  C7  UNL     1      -5.817  48.076 -26.166  1.00  0.00     0.010 A 
HETATM   29  C8  UNL     1      -5.801  47.826 -27.541  1.00  0.00     0.038 A 
HETATM   30  C9  UNL     1      -4.621  47.988 -28.258  1.00  0.00     0.081 A 
HETATM   31  C10 UNL     1      -3.454  48.381 -27.609  1.00  0.00     0.038 A 
HETATM   32  C11 UNL     1      -3.474  48.638 -26.236  1.00  0.00     0.010 A 
BRANCH  30  33
HETATM   33  O2  UNL     1      -4.652  47.714 -29.598  1.00  0.00    -0.255 OA
BRANCH  33  34
HETATM   34  P1  UNL     1      -5.168  48.774 -30.685  1.00  0.00     0.396 P 
HETATM   35  O3  UNL     1      -6.646  48.855 -30.872  1.00  0.00    -0.631 OA
BRANCH  34  36
HETATM   36  O4  UNL     1      -4.467  48.396 -32.072  1.00  0.00    -0.307 OA
HETATM   37  H11 UNL     1      -5.167  48.234 -32.733  1.00  0.00     0.222 HD
ENDBRANCH  34  36
BRANCH  34  38
HETATM   38  O5  UNL     1      -4.476  50.178 -30.351  1.00  0.00    -0.307 OA
HETATM   39  H12 UNL     1      -3.507  50.110 -30.387  1.00  0.00     0.222 HD
ENDBRANCH  34  38
ENDBRANCH  33  34
ENDBRANCH  30  33
ENDBRANCH  26  27
ENDBRANCH   1  26
BRANCH   1  40
HETATM   40  N2  UNL     1      -4.280  51.175 -23.871  1.00  0.00    -0.347 N 
HETATM   41  C12 UNL     1      -2.921  51.032 -23.684  1.00  0.00     0.222 C 
HETATM   42  O6  UNL     1      -2.433  50.035 -23.163  1.00  0.00    -0.273 OA
HETATM   43  H15 UNL     1      -4.626  51.917 -24.474  1.00  0.00     0.163 HD
BRANCH  41  44
HETATM   44  C13 UNL     1      -2.110  52.243 -24.128  1.00  0.00     0.143 C 
BRANCH  44  45
HETATM   45  C14 UNL     1      -1.696  52.162 -25.562  1.00  0.00    -0.022 A 
HETATM   46  C15 UNL     1      -2.533  52.237 -26.661  1.00  0.00     0.097 A 
HETATM   47  N3  UNL     1      -1.774  52.110 -27.790  1.00  0.00    -0.365 N 
HETATM   48  C16 UNL     1      -0.451  51.939 -27.458  1.00  0.00     0.042 A 
HETATM   49  H19 UNL     1      -2.129  52.132 -28.735  1.00  0.00     0.165 HD
HETATM   50  C17 UNL     1       0.669  51.765 -28.283  1.00  0.00     0.030 A 
HETATM   51  C21 UNL     1      -0.367  51.972 -26.065  1.00  0.00    -0.001 A 
HETATM   52  C18 UNL     1       1.913  51.617 -27.662  1.00  0.00     0.002 A 
HETATM   53  C19 UNL     1       2.031  51.648 -26.274  1.00  0.00     0.001 A 
HETATM   54  C20 UNL     1       0.901  51.825 -25.464  1.00  0.00     0.014 A 
ENDBRANCH  44  45
ENDBRANCH  41  44
ENDBRANCH   1  40
TORSDOF 15
ENDMDL
MODEL 2
REMARK minimizedAffinity -10.7808886
REMARK CNNscore 0.216500565
REMARK CNNaffinity 7.09586191
REMARK  15 active torsions:
REMARK  status: ('A' for Active; 'I' for Inactive)
REMARK    1  A    between atoms: C2_2  and  N1_3 
REMARK    2  A    between atoms: C2_2  and  C22_32 
REMARK       I    between atoms: N1_3  and  C3_4 
REMARK    3  A    between atoms: C3_4  and  C4_6 
REMARK    4  A    between atoms: C4_6  and  C5_7 
REMARK    5  A    between atoms: C4_6  and  N2_19 
REMARK    6  A    between atoms: C5_7  and  C6_8 
REMARK    7  A    between atoms: C9_11  and  O2_12 
REMARK    8  A    between atoms: O2_12  and  P1_13 
REMARK    9  A    between atoms: P1_13  and  O4_15 
REMARK   10  A    between atoms: P1_13  and  O5_16 
REMARK       I    between atoms: N2_19  and  C12_20 
REMARK   11  A    between atoms: C12_20  and  C13_22 
REMARK   12  A    between atoms: C13_22  and  C14_23 
REMARK   13  A    between atoms: C23_35  and  C24_36 
REMARK   14  A    between atoms: C24_36  and  C25_37 
REMARK   15  A    between atoms: C28_40  and  C29_41 
ROOT
HETATM    1  C4  UNL     1      -5.502  49.497 -24.095  1.00  0.00     0.180 C 
ENDROOT
BRANCH   1   2
HETATM    2  C3  UNL     1      -5.441  49.201 -22.586  1.00  0.00     0.241 C 
HETATM    3  N1  UNL     1      -5.612  50.297 -21.771  1.00  0.00    -0.348 N 
HETATM    4  H5  UNL     1      -5.828  51.193 -22.190  1.00  0.00     0.163 HD
HETATM    5  O1  UNL     1      -5.309  48.058 -22.151  1.00  0.00    -0.271 OA
BRANCH   3   6
HETATM    6  C2  UNL     1      -5.905  50.145 -20.349  1.00  0.00     0.158 C 
HETATM    7  C1  UNL     1      -7.123  49.249 -20.160  1.00  0.00     0.041 C 
BRANCH   6   8
HETATM    8  C22 UNL     1      -4.689  49.565 -19.700  1.00  0.00     0.170 A 
HETATM    9  N4  UNL     1      -3.449  49.508 -20.136  1.00  0.00    -0.325 N 
HETATM   10  C23 UNL     1      -2.790  48.958 -19.060  1.00  0.00     0.108 A 
ATOM     11  H4  UNL     1      -3.072  49.797 -21.038  1.00  0.00     0.169 HD
HETATM   12  N5  UNL     1      -3.561  48.736 -17.983  1.00  0.00    -0.247 N 
HETATM   13  O7  UNL     1      -4.832  49.121 -18.415  1.00  0.00    -0.221 OA
ATOM     14  H5  UNL     1      -3.285  48.374 -17.070  1.00  0.00     0.196 HD
BRANCH  10  15
HETATM   15  C24 UNL     1      -1.322  48.735 -19.055  1.00  0.00     0.117 C 
BRANCH  15  16
HETATM   16  C25 UNL     1      -0.690  49.993 -19.602  1.00  0.00    -0.051 A 
HETATM   17  C26 UNL     1      -0.445  51.089 -18.762  1.00  0.00     0.008 A 
HETATM   18  C27 UNL     1       0.127  52.259 -19.268  1.00  0.00     0.017 A 
HETATM   19  C28 UNL     1       0.463  52.361 -20.626  1.00  0.00     0.047 A 
HETATM   20  C30 UNL     1       0.236  51.259 -21.462  1.00  0.00     0.017 A 
HETATM   21  C31 UNL     1      -0.340  50.089 -20.958  1.00  0.00     0.008 A 
BRANCH  19  22
HETATM   22  C29 UNL     1       1.093  53.622 -21.165  1.00  0.00     0.417 C 
HETATM   23  F1  UNL     1       2.439  53.660 -20.961  1.00  0.00    -0.166 F 
HETATM   24  F2  UNL     1       0.596  54.755 -20.594  1.00  0.00    -0.166 F 
HETATM   25  F3  UNL     1       0.913  53.778 -22.508  1.00  0.00    -0.166 F 
ENDBRANCH  19  22
ENDBRANCH  15  16
ENDBRANCH  10  15
ENDBRANCH   6   8
ENDBRANCH   3   6
ENDBRANCH   1   2
BRANCH   1  26
HETATM   26  C5  UNL     1      -4.977  48.258 -24.845  1.00  0.00     0.073 C 
BRANCH  26  27
HETATM   27  C6  UNL     1      -5.390  48.119 -26.295  1.00  0.00    -0.056 A 
HETATM   28  C7  UNL     1      -4.487  48.477 -27.308  1.00  0.00     0.010 A 
HETATM   29  C8  UNL     1      -4.843  48.365 -28.655  1.00  0.00     0.038 A 
HETATM   30  C9  UNL     1      -6.096  47.872 -28.999  1.00  0.00     0.081 A 
HETATM   31  C10 UNL     1      -7.003  47.507 -28.009  1.00  0.00     0.038 A 
HETATM   32  C11 UNL     1      -6.643  47.613 -26.663  1.00  0.00     0.010 A 
BRANCH  30  33
HETATM   33  O2  UNL     1      -6.403  47.797 -30.330  1.00  0.00    -0.255 OA
BRANCH  33  34
HETATM   34  P1  UNL     1      -5.281  47.707 -31.472  1.00  0.00     0.396 P 
HETATM   35  O3  UNL     1      -4.253  46.638 -31.299  1.00  0.00    -0.631 OA
BRANCH  34  36
HETATM   36  O4  UNL     1      -4.567  49.136 -31.537  1.00  0.00    -0.307 OA
HETATM   37  H11 UNL     1      -3.611  49.009 -31.383  1.00  0.00     0.222 HD
ENDBRANCH  34  36
BRANCH  34  38
HETATM   38  O5  UNL     1      -6.034  47.663 -32.883  1.00  0.00    -0.307 OA
HETATM   39  H12 UNL     1      -6.580  48.456 -33.015  1.00  0.00     0.222 HD
ENDBRANCH  34  38
ENDBRANCH  33  34
ENDBRANCH  30  33
ENDBRANCH  26  27
ENDBRANCH   1  26
BRANCH   1  40
HETATM   40  N2  UNL     1      -4.678  50.677 -24.339  1.00  0.00    -0.347 N 
HETATM   41  C12 UNL     1      -3.348  50.728 -23.978  1.00  0.00     0.222 C 
HETATM   42  O6  UNL     1      -2.804  49.823 -23.354  1.00  0.00    -0.273 OA
HETATM   43  H15 UNL     1      -5.040  51.346 -25.014  1.00  0.00     0.163 HD
BRANCH  41  44
HETATM   44  C13 UNL     1      -2.655  52.025 -24.375  1.00  0.00     0.143 C 
BRANCH  44  45
HETATM   45  C14 UNL     1      -2.060  51.962 -25.744  1.00  0.00    -0.022 A 
HETATM   46  C15 UNL     1      -2.756  51.948 -26.940  1.00  0.00     0.097 A 
HETATM   47  N3  UNL     1      -1.853  51.874 -27.964  1.00  0.00    -0.365 N 
HETATM   48  C16 UNL     1      -0.573  51.824 -27.467  1.00  0.00     0.042 A 
HETATM   49  H19 UNL     1      -2.088  51.852 -28.945  1.00  0.00     0.165 HD
HETATM   50  C17 UNL     1       0.652  51.739 -28.142  1.00  0.00     0.030 A 
HETATM   51  C21 UNL     1      -0.667  51.884 -26.075  1.00  0.00    -0.001 A 
HETATM   52  C18 UNL     1       1.817  51.711 -27.369  1.00  0.00     0.002 A 
HETATM   53  C19 UNL     1       1.757  51.770 -25.978  1.00  0.00     0.001 A 
HETATM   54  C20 UNL     1       0.524  51.858 -25.318  1.00  0.00     0.014 A 
ENDBRANCH  44  45
ENDBRANCH  41  44
ENDBRANCH   1  40
TORSDOF 15
ENDMDL
MODEL 3
REMARK minimizedAffinity -9.69658089
REMARK CNNscore 0.149950936
REMARK CNNaffinity 6.75474787
REMARK  15 active torsions:
REMARK  status: ('A' for Active; 'I' for Inactive)
REMARK    1  A    between atoms: C2_2  and  N1_3 
REMARK    2  A    between atoms: C2_2  and  C22_32 
REMARK       I    between atoms: N1_3  and  C3_4 
REMARK    3  A    between atoms: C3_4  and  C4_6 
REMARK    4  A    between atoms: C4_6  and  C5_7 
REMARK    5  A    between atoms: C4_6  and  N2_19 
REMARK    6  A    between atoms: C5_7  and  C6_8 
REMARK    7  A    between atoms: C9_11  and  O2_12 
REMARK    8  A    between atoms: O2_12  and  P1_13 
REMARK    9  A    between atoms: P1_13  and  O4_15 
REMARK   10  A    between atoms: P1_13  and  O5_16 
REMARK       I    between atoms: N2_19  and  C12_20 
REMARK   11  A    between atoms: C12_20  and  C13_22 
REMARK   12  A    between atoms: C13_22  and  C14_23 
REMARK   13  A    between atoms: C23_35  and  C24_36 
REMARK   14  A    between atoms: C24_36  and  C25_37 
REMARK   15  A    between atoms: C28_40  and  C29_41 
ROOT
HETATM    1  C4  UNL     1      -2.903  50.712 -21.484  1.00  0.00     0.180 C 
ENDROOT
BRANCH   1   2
HETATM    2  C3  UNL     1      -1.665  50.499 -20.595  1.00  0.00     0.241 C 
HETATM    3  N1  UNL     1      -1.744  51.066 -19.343  1.00  0.00    -0.348 N 
HETATM    4  H5  UNL     1      -2.605  51.516 -19.060  1.00  0.00     0.163 HD
HETATM    5  O1  UNL     1      -0.707  49.821 -20.963  1.00  0.00    -0.271 OA
BRANCH   3   6
HETATM    6  C2  UNL     1      -0.816  50.687 -18.281  1.00  0.00     0.158 C 
HETATM    7  C1  UNL     1       0.182  51.812 -18.033  1.00  0.00     0.041 C 
BRANCH   6   8
HETATM    8  C22 UNL     1      -1.629  50.394 -17.060  1.00  0.00     0.170 A 
HETATM    9  N4  UNL     1      -1.319  49.695 -15.990  1.00  0.00    -0.325 N 
HETATM   10  C23 UNL     1      -2.426  49.879 -15.193  1.00  0.00     0.108 A 
ATOM     11  H4  UNL     1      -0.474  49.155 -15.799  1.00  0.00     0.169 HD
HETATM   12  N5  UNL     1      -3.357  50.698 -15.707  1.00  0.00    -0.247 N 
HETATM   13  O7  UNL     1      -2.838  51.026 -16.962  1.00  0.00    -0.221 OA
ATOM     14  H5  UNL     1      -4.233  51.005 -15.285  1.00  0.00     0.196 HD
BRANCH  10  15
HETATM   15  C24 UNL     1      -2.527  49.306 -13.827  1.00  0.00     0.117 C 
BRANCH  15  16
HETATM   16  C25 UNL     1      -2.670  50.472 -12.878  1.00  0.00    -0.051 A 
HETATM   17  C26 UNL     1      -1.685  51.469 -12.824  1.00  0.00     0.008 A 
HETATM   18  C27 UNL     1      -1.808  52.542 -11.936  1.00  0.00     0.017 A 
HETATM   19  C28 UNL     1      -2.916  52.640 -11.083  1.00  0.00     0.047 A 
HETATM   20  C30 UNL     1      -3.911  51.654 -11.150  1.00  0.00     0.017 A 
HETATM   21  C31 UNL     1      -3.787  50.578 -12.035  1.00  0.00     0.008 A 
BRANCH  19  22
HETATM   22  C29 UNL     1      -3.051  53.808 -10.136  1.00  0.00     0.417 C 
HETATM   23  F1  UNL     1      -4.335  54.252 -10.037  1.00  0.00    -0.166 F 
HETATM   24  F2  UNL     1      -2.310  54.888 -10.510  1.00  0.00    -0.166 F 
HETATM   25  F3  UNL     1      -2.658  53.514  -8.864  1.00  0.00    -0.166 F 
ENDBRANCH  19  22
ENDBRANCH  15  16
ENDBRANCH  10  15
ENDBRANCH   6   8
ENDBRANCH   3   6
ENDBRANCH   1   2
BRANCH   1  26
HETATM   26  C5  UNL     1      -3.206  49.385 -22.205  1.00  0.00     0.073 C 
BRANCH  26  27
HETATM   27  C6  UNL     1      -4.645  49.149 -22.611  1.00  0.00    -0.056 A 
HETATM   28  C7  UNL     1      -5.051  47.864 -23.004  1.00  0.00     0.010 A 
HETATM   29  C8  UNL     1      -6.371  47.618 -23.389  1.00  0.00     0.038 A 
HETATM   30  C9  UNL     1      -7.302  48.650 -23.362  1.00  0.00     0.081 A 
HETATM   31  C10 UNL     1      -6.920  49.929 -22.970  1.00  0.00     0.038 A 
HETATM   32  C11 UNL     1      -5.601  50.172 -22.579  1.00  0.00     0.010 A 
BRANCH  30  33
HETATM   33  O2  UNL     1      -8.578  48.362 -23.765  1.00  0.00    -0.255 OA
BRANCH  33  34
HETATM   34  P1  UNL     1      -9.052  48.490 -25.291  1.00  0.00     0.396 P 
HETATM   35  O3  UNL     1      -8.099  47.977 -26.320  1.00  0.00    -0.631 OA
BRANCH  34  36
HETATM   36  O4  UNL     1      -9.350  50.039 -25.557  1.00  0.00    -0.307 OA
HETATM   37  H11 UNL     1      -8.791  50.335 -26.300  1.00  0.00     0.222 HD
ENDBRANCH  34  36
BRANCH  34  38
HETATM   38  O5  UNL     1     -10.520  47.861 -25.392  1.00  0.00    -0.307 OA
HETATM   39  H12 UNL     1     -11.142  48.328 -24.810  1.00  0.00     0.222 HD
ENDBRANCH  34  38
ENDBRANCH  33  34
ENDBRANCH  30  33
ENDBRANCH  26  27
ENDBRANCH   1  26
BRANCH   1  40
HETATM   40  N2  UNL     1      -2.585  51.786 -22.420  1.00  0.00    -0.347 N 
HETATM   41  C12 UNL     1      -2.033  51.537 -23.660  1.00  0.00     0.222 C 
HETATM   42  O6  UNL     1      -1.696  50.412 -24.012  1.00  0.00    -0.273 OA
HETATM   43  H15 UNL     1      -3.025  52.684 -22.240  1.00  0.00     0.163 HD
BRANCH  41  44
HETATM   44  C13 UNL     1      -1.835  52.789 -24.505  1.00  0.00     0.143 C 
BRANCH  44  45
HETATM   45  C14 UNL     1      -1.386  52.477 -25.895  1.00  0.00    -0.022 A 
HETATM   46  C15 UNL     1      -2.191  52.395 -27.017  1.00  0.00     0.097 A 
HETATM   47  N3  UNL     1      -1.405  52.079 -28.090  1.00  0.00    -0.365 N 
HETATM   48  C16 UNL     1      -0.096  51.937 -27.696  1.00  0.00     0.042 A 
HETATM   49  H19 UNL     1      -1.735  51.959 -29.037  1.00  0.00     0.165 HD
HETATM   50  C17 UNL     1       1.041  51.615 -28.449  1.00  0.00     0.030 A 
HETATM   51  C21 UNL     1      -0.048  52.186 -26.323  1.00  0.00    -0.001 A 
HETATM   52  C18 UNL     1       2.264  51.543 -27.776  1.00  0.00     0.002 A 
HETATM   53  C19 UNL     1       2.346  51.789 -26.406  1.00  0.00     0.001 A 
HETATM   54  C20 UNL     1       1.200  52.111 -25.668  1.00  0.00     0.014 A 
ENDBRANCH  44  45
ENDBRANCH  41  44
ENDBRANCH   1  40
TORSDOF 15
ENDMDL
MODEL 4
REMARK minimizedAffinity -9.01172161
REMARK CNNscore 0.111027554
REMARK CNNaffinity 5.6575489
REMARK  15 active torsions:
REMARK  status: ('A' for Active; 'I' for Inactive)
REMARK    1  A    between atoms: C2_2  and  N1_3 
REMARK    2  A    between atoms: C2_2  and  C22_32 
REMARK       I    between atoms: N1_3  and  C3_4 
REMARK    3  A    between atoms: C3_4  and  C4_6 
REMARK    4  A    between atoms: C4_6  and  C5_7 
REMARK    5  A    between atoms: C4_6  and  N2_19 
REMARK    6  A    between atoms: C5_7  and  C6_8 
REMARK    7  A    between atoms: C9_11  and  O2_12 
REMARK    8  A    between atoms: O2_12  and  P1_13 
REMARK    9  A    between atoms: P1_13  and  O4_15 
REMARK   10  A    between atoms: P1_13  and  O5_16 
REMARK       I    between atoms: N2_19  and  C12_20 
REMARK   11  A    between atoms: C12_20  and  C13_22 
REMARK   12  A    between atoms: C13_22  and  C14_23 
REMARK   13  A    between atoms: C23_35  and  C24_36 
REMARK   14  A    between atoms: C24_36  and  C25_37 
REMARK   15  A    between atoms: C28_40  and  C29_41 
ROOT
HETATM    1  C4  UNL     1      -4.549  50.407 -20.368  1.00  0.00     0.180 C 
ENDROOT
BRANCH   1   2
HETATM    2  C3  UNL     1      -5.120  48.988 -20.537  1.00  0.00     0.241 C 
HETATM    3  N1  UNL     1      -6.368  48.928 -21.118  1.00  0.00    -0.348 N 
HETATM    4  H5  UNL     1      -6.796  49.783 -21.452  1.00  0.00     0.163 HD
HETATM    5  O1  UNL     1      -4.478  47.985 -20.229  1.00  0.00    -0.271 OA
BRANCH   3   6
HETATM    6  C2  UNL     1      -6.900  47.674 -21.641  1.00  0.00     0.158 C 
HETATM    7  C1  UNL     1      -8.258  47.380 -21.014  1.00  0.00     0.041 C 
BRANCH   6   8
HETATM    8  C22 UNL     1      -6.999  47.814 -23.127  1.00  0.00     0.170 A 
HETATM    9  N4  UNL     1      -7.307  46.917 -24.038  1.00  0.00    -0.325 N 
HETATM   10  C23 UNL     1      -7.329  47.671 -25.190  1.00  0.00     0.108 A 
ATOM     11  H4  UNL     1      -7.484  45.919 -23.922  1.00  0.00     0.169 HD
HETATM   12  N5  UNL     1      -7.106  48.982 -25.006  1.00  0.00    -0.247 N 
HETATM   13  O7  UNL     1      -6.866  49.077 -23.634  1.00  0.00    -0.221 OA
ATOM     14  H5  UNL     1      -7.111  49.729 -25.701  1.00  0.00     0.196 HD
BRANCH  10  15
HETATM   15  C24 UNL     1      -7.683  47.095 -26.512  1.00  0.00     0.117 C 
BRANCH  15  16
HETATM   16  C25 UNL     1      -9.186  46.952 -26.534  1.00  0.00    -0.051 A 
HETATM   17  C26 UNL     1      -9.779  45.682 -26.522  1.00  0.00     0.008 A 
HETATM   18  C27 UNL     1     -11.170  45.546 -26.557  1.00  0.00     0.017 A 
HETATM   19  C28 UNL     1     -11.997  46.677 -26.607  1.00  0.00     0.047 A 
HETATM   20  C30 UNL     1     -11.405  47.948 -26.599  1.00  0.00     0.017 A 
HETATM   21  C31 UNL     1     -10.014  48.085 -26.568  1.00  0.00     0.008 A 
BRANCH  19  22
HETATM   22  C29 UNL     1     -13.498  46.526 -26.630  1.00  0.00     0.417 C 
HETATM   23  F1  UNL     1     -13.898  45.249 -26.376  1.00  0.00    -0.166 F 
HETATM   24  F2  UNL     1     -14.051  46.858 -27.831  1.00  0.00    -0.166 F 
HETATM   25  F3  UNL     1     -14.130  47.307 -25.707  1.00  0.00    -0.166 F 
ENDBRANCH  19  22
ENDBRANCH  15  16
ENDBRANCH  10  15
ENDBRANCH   6   8
ENDBRANCH   3   6
ENDBRANCH   1   2
BRANCH   1  26
HETATM   26  C5  UNL     1      -4.981  51.243 -21.588  1.00  0.00     0.073 C 
BRANCH  26  27
HETATM   27  C6  UNL     1      -4.007  51.304 -22.745  1.00  0.00    -0.056 A 
HETATM   28  C7  UNL     1      -3.604  50.116 -23.374  1.00  0.00     0.010 A 
HETATM   29  C8  UNL     1      -2.702  50.141 -24.440  1.00  0.00     0.038 A 
HETATM   30  C9  UNL     1      -2.214  51.358 -24.903  1.00  0.00     0.081 A 
HETATM   31  C10 UNL     1      -2.605  52.547 -24.296  1.00  0.00     0.038 A 
HETATM   32  C11 UNL     1      -3.513  52.521 -23.234  1.00  0.00     0.010 A 
BRANCH  30  33
HETATM   33  O2  UNL     1      -1.320  51.329 -25.938  1.00  0.00    -0.255 OA
BRANCH  33  34
HETATM   34  P1  UNL     1      -1.630  51.990 -27.366  1.00  0.00     0.396 P 
HETATM   35  O3  UNL     1      -2.103  53.406 -27.344  1.00  0.00    -0.631 OA
BRANCH  34  36
HETATM   36  O4  UNL     1      -2.723  51.067 -28.079  1.00  0.00    -0.307 OA
HETATM   37  H11 UNL     1      -3.499  51.619 -28.291  1.00  0.00     0.222 HD
ENDBRANCH  34  36
BRANCH  34  38
HETATM   38  O5  UNL     1      -0.350  51.745 -28.295  1.00  0.00    -0.307 OA
HETATM   39  H12 UNL     1      -0.169  50.797 -28.401  1.00  0.00     0.222 HD
ENDBRANCH  34  38
ENDBRANCH  33  34
ENDBRANCH  30  33
ENDBRANCH  26  27
ENDBRANCH   1  26
BRANCH   1  40
HETATM   40  N2  UNL     1      -3.098  50.281 -20.273  1.00  0.00    -0.347 N 
HETATM   41  C12 UNL     1      -2.392  50.749 -19.185  1.00  0.00     0.222 C 
HETATM   42  O6  UNL     1      -2.930  51.377 -18.278  1.00  0.00    -0.273 OA
HETATM   43  H15 UNL     1      -2.663  49.607 -20.899  1.00  0.00     0.163 HD
BRANCH  41  44
HETATM   44  C13 UNL     1      -0.898  50.465 -19.254  1.00  0.00     0.143 C 
BRANCH  44  45
HETATM   45  C14 UNL     1      -0.084  51.708 -19.407  1.00  0.00    -0.022 A 
HETATM   46  C15 UNL     1       0.435  52.478 -18.381  1.00  0.00     0.097 A 
HETATM   47  N3  UNL     1       1.107  53.533 -18.932  1.00  0.00    -0.365 N 
HETATM   48  C16 UNL     1       1.031  53.483 -20.303  1.00  0.00     0.042 A 
HETATM   49  H19 UNL     1       1.587  54.253 -18.411  1.00  0.00     0.165 HD
HETATM   50  C17 UNL     1       1.562  54.351 -21.267  1.00  0.00     0.030 A 
HETATM   51  C21 UNL     1       0.294  52.344 -20.635  1.00  0.00    -0.001 A 
HETATM   52  C18 UNL     1       1.329  54.046 -22.612  1.00  0.00     0.002 A 
HETATM   53  C19 UNL     1       0.599  52.916 -22.976  1.00  0.00     0.001 A 
HETATM   54  C20 UNL     1       0.077  52.057 -21.999  1.00  0.00     0.014 A 
ENDBRANCH  44  45
ENDBRANCH  41  44
ENDBRANCH   1  40
TORSDOF 15
ENDMDL
MODEL 5
REMARK minimizedAffinity -10.1913204
REMARK CNNscore 0.0966046453
REMARK CNNaffinity 6.35418463
REMARK  15 active torsions:
REMARK  status: ('A' for Active; 'I' for Inactive)
REMARK    1  A    between atoms: C2_2  and  N1_3 
REMARK    2  A    between atoms: C2_2  and  C22_32 
REMARK       I    between atoms: N1_3  and  C3_4 
REMARK    3  A    between atoms: C3_4  and  C4_6 
REMARK    4  A    between atoms: C4_6  and  C5_7 
REMARK    5  A    between atoms: C4_6  and  N2_19 
REMARK    6  A    between atoms: C5_7  and  C6_8 
REMARK    7  A    between atoms: C9_11  and  O2_12 
REMARK    8  A    between atoms: O2_12  and  P1_13 
REMARK    9  A    between atoms: P1_13  and  O4_15 
REMARK   10  A    between atoms: P1_13  and  O5_16 
REMARK       I    between atoms: N2_19  and  C12_20 
REMARK   11  A    between atoms: C12_20  and  C13_22 
REMARK   12  A    between atoms: C13_22  and  C14_23 
REMARK   13  A    between atoms: C23_35  and  C24_36 
REMARK   14  A    between atoms: C24_36  and  C25_37 
REMARK   15  A    between atoms: C28_40  and  C29_41 
ROOT
HETATM    1  C4  UNL     1      -5.139  49.969 -22.803  1.00  0.00     0.180 C 
ENDROOT
BRANCH   1   2
HETATM    2  C3  UNL     1      -5.262  50.022 -21.270  1.00  0.00     0.241 C 
HETATM    3  N1  UNL     1      -5.716  48.862 -20.682  1.00  0.00    -0.348 N 
HETATM    4  H5  UNL     1      -5.872  48.046 -21.260  1.00  0.00     0.163 HD
HETATM    5  O1  UNL     1      -4.922  51.011 -20.623  1.00  0.00    -0.271 OA
BRANCH   3   6
HETATM    6  C2  UNL     1      -5.579  48.638 -19.246  1.00  0.00     0.158 C 
HETATM    7  C1  UNL     1      -6.384  47.413 -18.829  1.00  0.00     0.041 C 
BRANCH   6   8
HETATM    8  C22 UNL     1      -4.122  48.464 -18.956  1.00  0.00     0.170 A 
HETATM    9  N4  UNL     1      -3.266  49.302 -18.413  1.00  0.00    -0.325 N 
HETATM   10  C23 UNL     1      -2.127  48.534 -18.323  1.00  0.00     0.108 A 
ATOM     11  H4  UNL     1      -3.409  50.272 -18.132  1.00  0.00     0.169 HD
HETATM   12  N5  UNL     1      -2.274  47.263 -18.730  1.00  0.00    -0.247 N 
HETATM   13  O7  UNL     1      -3.598  47.220 -19.173  1.00  0.00    -0.221 OA
ATOM     14  H5  UNL     1      -1.585  46.511 -18.720  1.00  0.00     0.196 HD
BRANCH  10  15
HETATM   15  C24 UNL     1      -0.871  49.042 -17.716  1.00  0.00     0.117 C 
BRANCH  15  16
HETATM   16  C25 UNL     1      -0.403  50.186 -18.584  1.00  0.00    -0.051 A 
HETATM   17  C26 UNL     1       0.028  51.388 -18.002  1.00  0.00     0.008 A 
HETATM   18  C27 UNL     1       0.449  52.454 -18.803  1.00  0.00     0.017 A 
HETATM   19  C28 UNL     1       0.445  52.343 -20.201  1.00  0.00     0.047 A 
HETATM   20  C30 UNL     1       0.033  51.135 -20.782  1.00  0.00     0.017 A 
HETATM   21  C31 UNL     1      -0.392  50.070 -19.982  1.00  0.00     0.008 A 
BRANCH  19  22
HETATM   22  C29 UNL     1       0.913  53.491 -21.060  1.00  0.00     0.417 C 
HETATM   23  F1  UNL     1       0.488  54.699 -20.593  1.00  0.00    -0.166 F 
HETATM   24  F2  UNL     1       0.471  53.412 -22.347  1.00  0.00    -0.166 F 
HETATM   25  F3  UNL     1       2.272  53.580 -21.143  1.00  0.00    -0.166 F 
ENDBRANCH  19  22
ENDBRANCH  15  16
ENDBRANCH  10  15
ENDBRANCH   6   8
ENDBRANCH   3   6
ENDBRANCH   1   2
BRANCH   1  26
HETATM   26  C5  UNL     1      -5.253  48.496 -23.239  1.00  0.00     0.073 C 
BRANCH  26  27
HETATM   27  C6  UNL     1      -6.477  48.123 -24.049  1.00  0.00    -0.056 A 
HETATM   28  C7  UNL     1      -6.361  47.951 -25.437  1.00  0.00     0.010 A 
HETATM   29  C8  UNL     1      -7.474  47.612 -26.211  1.00  0.00     0.038 A 
HETATM   30  C9  UNL     1      -8.707  47.420 -25.599  1.00  0.00     0.081 A 
HETATM   31  C10 UNL     1      -8.841  47.580 -24.224  1.00  0.00     0.038 A 
HETATM   32  C11 UNL     1      -7.726  47.912 -23.450  1.00  0.00     0.010 A 
BRANCH  30  33
HETATM   33  O2  UNL     1      -9.770  47.106 -26.402  1.00  0.00    -0.255 OA
BRANCH  33  34
HETATM   34  P1  UNL     1     -11.053  48.056 -26.548  1.00  0.00     0.396 P 
HETATM   35  O3  UNL     1     -12.274  47.629 -25.802  1.00  0.00    -0.631 OA
BRANCH  34  36
HETATM   36  O4  UNL     1     -11.382  48.157 -28.109  1.00  0.00    -0.307 OA
HETATM   37  H11 UNL     1     -12.299  47.852 -28.249  1.00  0.00     0.222 HD
ENDBRANCH  34  36
BRANCH  34  38
HETATM   38  O5  UNL     1     -10.582  49.551 -26.225  1.00  0.00    -0.307 OA
HETATM   39  H12 UNL     1      -9.884  49.839 -26.836  1.00  0.00     0.222 HD
ENDBRANCH  34  38
ENDBRANCH  33  34
ENDBRANCH  30  33
ENDBRANCH  26  27
ENDBRANCH   1  26
BRANCH   1  40
HETATM   40  N2  UNL     1      -3.847  50.548 -23.154  1.00  0.00    -0.347 N 
HETATM   41  C12 UNL     1      -3.739  51.674 -23.944  1.00  0.00     0.222 C 
HETATM   42  O6  UNL     1      -4.715  52.200 -24.469  1.00  0.00    -0.273 OA
HETATM   43  H15 UNL     1      -3.055  50.259 -22.585  1.00  0.00     0.163 HD
BRANCH  41  44
HETATM   44  C13 UNL     1      -2.306  52.151 -24.140  1.00  0.00     0.143 C 
BRANCH  44  45
HETATM   45  C14 UNL     1      -1.860  52.056 -25.563  1.00  0.00    -0.022 A 
HETATM   46  C15 UNL     1      -2.678  52.047 -26.679  1.00  0.00     0.097 A 
HETATM   47  N3  UNL     1      -1.889  51.938 -27.790  1.00  0.00    -0.365 N 
HETATM   48  C16 UNL     1      -0.565  51.858 -27.429  1.00  0.00     0.042 A 
HETATM   49  H19 UNL     1      -2.226  51.910 -28.741  1.00  0.00     0.165 HD
HETATM   50  C17 UNL     1       0.579  51.732 -28.227  1.00  0.00     0.030 A 
HETATM   51  C21 UNL     1      -0.512  51.936 -26.036  1.00  0.00    -0.001 A 
HETATM   52  C18 UNL     1       1.817  51.680 -27.580  1.00  0.00     0.002 A 
HETATM   53  C19 UNL     1       1.906  51.757 -26.191  1.00  0.00     0.001 A 
HETATM   54  C20 UNL     1       0.751  51.886 -25.407  1.00  0.00     0.014 A 
ENDBRANCH  44  45
ENDBRANCH  41  44
ENDBRANCH   1  40
TORSDOF 15
ENDMDL
MODEL 6
REMARK minimizedAffinity -10.5229654
REMARK CNNscore 0.0937478393
REMARK CNNaffinity 6.88899755
REMARK  15 active torsions:
REMARK  status: ('A' for Active; 'I' for Inactive)
REMARK    1  A    between atoms: C2_2  and  N1_3 
REMARK    2  A    between atoms: C2_2  and  C22_32 
REMARK       I    between atoms: N1_3  and  C3_4 
REMARK    3  A    between atoms: C3_4  and  C4_6 
REMARK    4  A    between atoms: C4_6  and  C5_7 
REMARK    5  A    between atoms: C4_6  and  N2_19 
REMARK    6  A    between atoms: C5_7  and  C6_8 
REMARK    7  A    between atoms: C9_11  and  O2_12 
REMARK    8  A    between atoms: O2_12  and  P1_13 
REMARK    9  A    between atoms: P1_13  and  O4_15 
REMARK   10  A    between atoms: P1_13  and  O5_16 
REMARK       I    between atoms: N2_19  and  C12_20 
REMARK   11  A    between atoms: C12_20  and  C13_22 
REMARK   12  A    between atoms: C13_22  and  C14_23 
REMARK   13  A    between atoms: C23_35  and  C24_36 
REMARK   14  A    between atoms: C24_36  and  C25_37 
REMARK   15  A    between atoms: C28_40  and  C29_41 
ROOT
HETATM    1  C4  UNL     1      -3.486  49.814 -23.673  1.00  0.00     0.180 C 
ENDROOT
BRANCH   1   2
HETATM    2  C3  UNL     1      -2.565  49.731 -22.443  1.00  0.00     0.241 C 
HETATM    3  N1  UNL     1      -3.095  49.058 -21.364  1.00  0.00    -0.348 N 
HETATM    4  H5  UNL     1      -3.998  48.612 -21.458  1.00  0.00     0.163 HD
HETATM    5  O1  UNL     1      -1.421  50.184 -22.453  1.00  0.00    -0.271 OA
BRANCH   3   6
HETATM    6  C2  UNL     1      -2.249  48.612 -20.261  1.00  0.00     0.158 C 
HETATM    7  C1  UNL     1      -1.094  47.772 -20.795  1.00  0.00     0.041 C 
BRANCH   6   8
HETATM    8  C22 UNL     1      -1.758  49.834 -19.551  1.00  0.00     0.170 A 
HETATM    9  N4  UNL     1      -0.565  50.387 -19.554  1.00  0.00    -0.325 N 
HETATM   10  C23 UNL     1      -0.771  51.523 -18.805  1.00  0.00     0.108 A 
ATOM     11  H4  UNL     1       0.293  50.059 -19.998  1.00  0.00     0.169 HD
HETATM   12  N5  UNL     1      -2.039  51.707 -18.402  1.00  0.00    -0.247 N 
HETATM   13  O7  UNL     1      -2.695  50.571 -18.881  1.00  0.00    -0.221 OA
ATOM     14  H5  UNL     1      -2.428  52.488 -17.873  1.00  0.00     0.196 HD
BRANCH  10  15
HETATM   15  C24 UNL     1       0.301  52.520 -18.560  1.00  0.00     0.117 C 
BRANCH  15  16
HETATM   16  C25 UNL     1       1.052  52.058 -17.334  1.00  0.00    -0.051 A 
HETATM   17  C26 UNL     1       2.285  52.634 -16.996  1.00  0.00     0.008 A 
HETATM   18  C27 UNL     1       2.988  52.199 -15.869  1.00  0.00     0.017 A 
HETATM   19  C28 UNL     1       2.476  51.177 -15.058  1.00  0.00     0.047 A 
HETATM   20  C30 UNL     1       1.234  50.613 -15.384  1.00  0.00     0.017 A 
HETATM   21  C31 UNL     1       0.531  51.046 -16.513  1.00  0.00     0.008 A 
BRANCH  19  22
HETATM   22  C29 UNL     1       3.232  50.719 -13.835  1.00  0.00     0.417 C 
HETATM   23  F1  UNL     1       2.709  49.584 -13.293  1.00  0.00    -0.166 F 
HETATM   24  F2  UNL     1       3.238  51.643 -12.833  1.00  0.00    -0.166 F 
HETATM   25  F3  UNL     1       4.543  50.444 -14.088  1.00  0.00    -0.166 F 
ENDBRANCH  19  22
ENDBRANCH  15  16
ENDBRANCH  10  15
ENDBRANCH   6   8
ENDBRANCH   3   6
ENDBRANCH   1   2
BRANCH   1  26
HETATM   26  C5  UNL     1      -3.642  48.394 -24.248  1.00  0.00     0.073 C 
BRANCH  26  27
HETATM   27  C6  UNL     1      -4.378  48.274 -25.565  1.00  0.00    -0.056 A 
HETATM   28  C7  UNL     1      -3.673  48.433 -26.768  1.00  0.00     0.010 A 
HETATM   29  C8  UNL     1      -4.327  48.333 -27.999  1.00  0.00     0.038 A 
HETATM   30  C9  UNL     1      -5.688  48.051 -28.037  1.00  0.00     0.081 A 
HETATM   31  C10 UNL     1      -6.403  47.885 -26.855  1.00  0.00     0.038 A 
HETATM   32  C11 UNL     1      -5.746  47.978 -25.625  1.00  0.00     0.010 A 
BRANCH  30  33
HETATM   33  O2  UNL     1      -6.286  47.980 -29.265  1.00  0.00    -0.255 OA
BRANCH  33  34
HETATM   34  P1  UNL     1      -5.459  48.076 -30.636  1.00  0.00     0.396 P 
HETATM   35  O3  UNL     1      -4.422  47.024 -30.851  1.00  0.00    -0.631 OA
BRANCH  34  36
HETATM   36  O4  UNL     1      -4.775  49.522 -30.665  1.00  0.00    -0.307 OA
HETATM   37  H11 UNL     1      -3.810  49.402 -30.754  1.00  0.00     0.222 HD
ENDBRANCH  34  36
BRANCH  34  38
HETATM   38  O5  UNL     1      -6.519  48.201 -31.828  1.00  0.00    -0.307 OA
HETATM   39  H12 UNL     1      -7.077  48.989 -31.721  1.00  0.00     0.222 HD
ENDBRANCH  34  38
ENDBRANCH  33  34
ENDBRANCH  30  33
ENDBRANCH  26  27
ENDBRANCH   1  26
BRANCH   1  40
HETATM   40  N2  UNL     1      -2.858  50.727 -24.624  1.00  0.00    -0.347 N 
HETATM   41  C12 UNL     1      -3.479  51.883 -25.047  1.00  0.00     0.222 C 
HETATM   42  O6  UNL     1      -4.627  52.167 -24.721  1.00  0.00    -0.273 OA
HETATM   43  H15 UNL     1      -1.855  50.622 -24.752  1.00  0.00     0.163 HD
BRANCH  41  44
HETATM   44  C13 UNL     1      -2.630  52.725 -25.990  1.00  0.00     0.143 C 
BRANCH  44  45
HETATM   45  C14 UNL     1      -1.172  52.647 -25.674  1.00  0.00    -0.022 A 
HETATM   46  C15 UNL     1      -0.578  52.965 -24.465  1.00  0.00     0.097 A 
HETATM   47  N3  UNL     1       0.770  52.772 -24.583  1.00  0.00    -0.365 N 
HETATM   48  C16 UNL     1       1.081  52.346 -25.852  1.00  0.00     0.042 A 
HETATM   49  H19 UNL     1       1.446  52.926 -23.849  1.00  0.00     0.165 HD
HETATM   50  C17 UNL     1       2.324  52.034 -26.418  1.00  0.00     0.030 A 
HETATM   51  C21 UNL     1      -0.118  52.252 -26.562  1.00  0.00    -0.001 A 
HETATM   52  C18 UNL     1       2.342  51.614 -27.751  1.00  0.00     0.002 A 
HETATM   53  C19 UNL     1       1.163  51.507 -28.487  1.00  0.00     0.001 A 
HETATM   54  C20 UNL     1      -0.072  51.822 -27.905  1.00  0.00     0.014 A 
ENDBRANCH  44  45
ENDBRANCH  41  44
ENDBRANCH   1  40
TORSDOF 15
ENDMDL
MODEL 7
REMARK minimizedAffinity -9.28592491
REMARK CNNscore 0.0890969411
REMARK CNNaffinity 6.30203104
REMARK  15 active torsions:
REMARK  status: ('A' for Active; 'I' for Inactive)
REMARK    1  A    between atoms: C2_2  and  N1_3 
REMARK    2  A    between atoms: C2_2  and  C22_32 
REMARK       I    between atoms: N1_3  and  C3_4 
REMARK    3  A    between atoms: C3_4  and  C4_6 
REMARK    4  A    between atoms: C4_6  and  C5_7 
REMARK    5  A    between atoms: C4_6  and  N2_19 
REMARK    6  A    between atoms: C5_7  and  C6_8 
REMARK    7  A    between atoms: C9_11  and  O2_12 
REMARK    8  A    between atoms: O2_12  and  P1_13 
REMARK    9  A    between atoms: P1_13  and  O4_15 
REMARK   10  A    between atoms: P1_13  and  O5_16 
REMARK       I    between atoms: N2_19  and  C12_20 
REMARK   11  A    between atoms: C12_20  and  C13_22 
REMARK   12  A    between atoms: C13_22  and  C14_23 
REMARK   13  A    between atoms: C23_35  and  C24_36 
REMARK   14  A    between atoms: C24_36  and  C25_37 
REMARK   15  A    between atoms: C28_40  and  C29_41 
ROOT
HETATM    1  C4  UNL     1      -5.099  49.733 -24.015  1.00  0.00     0.180 C 
ENDROOT
BRANCH   1   2
HETATM    2  C3  UNL     1      -5.059  49.460 -22.501  1.00  0.00     0.241 C 
HETATM    3  N1  UNL     1      -5.396  50.534 -21.707  1.00  0.00    -0.348 N 
HETATM    4  H5  UNL     1      -5.706  51.392 -22.146  1.00  0.00     0.163 HD
HETATM    5  O1  UNL     1      -4.803  48.346 -22.046  1.00  0.00    -0.271 OA
BRANCH   3   6
HETATM    6  C2  UNL     1      -5.722  50.359 -20.295  1.00  0.00     0.158 C 
HETATM    7  C1  UNL     1      -7.047  49.619 -20.152  1.00  0.00     0.041 C 
BRANCH   6   8
HETATM    8  C22 UNL     1      -4.597  49.598 -19.667  1.00  0.00     0.170 A 
HETATM    9  N4  UNL     1      -3.303  49.834 -19.696  1.00  0.00    -0.325 N 
HETATM   10  C23 UNL     1      -2.813  48.857 -18.859  1.00  0.00     0.108 A 
ATOM     11  H4  UNL     1      -2.793  50.555 -20.206  1.00  0.00     0.169 HD
HETATM   12  N5  UNL     1      -3.752  48.085 -18.287  1.00  0.00    -0.247 N 
HETATM   13  O7  UNL     1      -4.941  48.565 -18.840  1.00  0.00    -0.221 OA
ATOM     14  H5  UNL     1      -3.627  47.331 -17.612  1.00  0.00     0.196 HD
BRANCH  10  15
HETATM   15  C24 UNL     1      -1.370  48.741 -18.530  1.00  0.00     0.117 C 
BRANCH  15  16
HETATM   16  C25 UNL     1      -1.150  49.529 -17.261  1.00  0.00    -0.051 A 
HETATM   17  C26 UNL     1      -2.242  50.019 -16.531  1.00  0.00     0.008 A 
HETATM   18  C27 UNL     1      -2.041  50.761 -15.363  1.00  0.00     0.017 A 
HETATM   19  C28 UNL     1      -0.745  51.031 -14.902  1.00  0.00     0.047 A 
HETATM   20  C30 UNL     1       0.347  50.526 -15.622  1.00  0.00     0.017 A 
HETATM   21  C31 UNL     1       0.148  49.787 -16.792  1.00  0.00     0.008 A 
BRANCH  19  22
HETATM   22  C29 UNL     1      -0.533  51.821 -13.634  1.00  0.00     0.417 C 
HETATM   23  F1  UNL     1      -1.676  52.421 -13.197  1.00  0.00    -0.166 F 
HETATM   24  F2  UNL     1       0.383  52.820 -13.772  1.00  0.00    -0.166 F 
HETATM   25  F3  UNL     1      -0.090  51.057 -12.595  1.00  0.00    -0.166 F 
ENDBRANCH  19  22
ENDBRANCH  15  16
ENDBRANCH  10  15
ENDBRANCH   6   8
ENDBRANCH   3   6
ENDBRANCH   1   2
BRANCH   1  26
HETATM   26  C5  UNL     1      -4.572  48.481 -24.739  1.00  0.00     0.073 C 
BRANCH  26  27
HETATM   27  C6  UNL     1      -5.042  48.275 -26.164  1.00  0.00    -0.056 A 
HETATM   28  C7  UNL     1      -4.205  48.644 -27.228  1.00  0.00     0.010 A 
HETATM   29  C8  UNL     1      -4.613  48.471 -28.553  1.00  0.00     0.038 A 
HETATM   30  C9  UNL     1      -5.854  47.905 -28.824  1.00  0.00     0.081 A 
HETATM   31  C10 UNL     1      -6.695  47.528 -27.783  1.00  0.00     0.038 A 
HETATM   32  C11 UNL     1      -6.283  47.694 -26.458  1.00  0.00     0.010 A 
BRANCH  30  33
HETATM   33  O2  UNL     1      -6.215  47.773 -30.137  1.00  0.00    -0.255 OA
BRANCH  33  34
HETATM   34  P1  UNL     1      -7.716  48.012 -30.649  1.00  0.00     0.396 P 
HETATM   35  O3  UNL     1      -8.475  49.103 -29.969  1.00  0.00    -0.631 OA
BRANCH  34  36
HETATM   36  O4  UNL     1      -8.493  46.625 -30.476  1.00  0.00    -0.307 OA
HETATM   37  H11 UNL     1      -9.269  46.779 -29.903  1.00  0.00     0.222 HD
ENDBRANCH  34  36
BRANCH  34  38
HETATM   38  O5  UNL     1      -7.663  48.150 -32.242  1.00  0.00    -0.307 OA
HETATM   39  H12 UNL     1      -7.295  47.350 -32.652  1.00  0.00     0.222 HD
ENDBRANCH  34  38
ENDBRANCH  33  34
ENDBRANCH  30  33
ENDBRANCH  26  27
ENDBRANCH   1  26
BRANCH   1  40
HETATM   40  N2  UNL     1      -4.267  50.905 -24.266  1.00  0.00    -0.347 N 
HETATM   41  C12 UNL     1      -2.894  50.869 -24.135  1.00  0.00     0.222 C 
HETATM   42  O6  UNL     1      -2.303  49.880 -23.715  1.00  0.00    -0.273 OA
HETATM   43  H15 UNL     1      -4.699  51.660 -24.794  1.00  0.00     0.163 HD
BRANCH  41  44
HETATM   44  C13 UNL     1      -2.208  52.179 -24.502  1.00  0.00     0.143 C 
BRANCH  44  45
HETATM   45  C14 UNL     1      -1.637  52.161 -25.882  1.00  0.00    -0.022 A 
HETATM   46  C15 UNL     1      -2.342  52.317 -27.062  1.00  0.00     0.097 A 
HETATM   47  N3  UNL     1      -1.463  52.227 -28.105  1.00  0.00    -0.365 N 
HETATM   48  C16 UNL     1      -0.191  52.000 -27.637  1.00  0.00     0.042 A 
HETATM   49  H19 UNL     1      -1.708  52.308 -29.081  1.00  0.00     0.165 HD
HETATM   50  C17 UNL     1       1.011  51.837 -28.339  1.00  0.00     0.030 A 
HETATM   51  C21 UNL     1      -0.264  51.959 -26.244  1.00  0.00    -0.001 A 
HETATM   52  C18 UNL     1       2.173  51.621 -27.592  1.00  0.00     0.002 A 
HETATM   53  C19 UNL     1       2.134  51.576 -26.199  1.00  0.00     0.001 A 
HETATM   54  C20 UNL     1       0.924  51.744 -25.513  1.00  0.00     0.014 A 
ENDBRANCH  44  45
ENDBRANCH  41  44
ENDBRANCH   1  40
TORSDOF 15
ENDMDL
MODEL 8
REMARK minimizedAffinity -9.26342773
REMARK CNNscore 0.0871058404
REMARK CNNaffinity 5.22254229
REMARK  15 active torsions:
REMARK  status: ('A' for Active; 'I' for Inactive)
REMARK    1  A    between atoms: C2_2  and  N1_3 
REMARK    2  A    between atoms: C2_2  and  C22_32 
REMARK       I    between atoms: N1_3  and  C3_4 
REMARK    3  A    between atoms: C3_4  and  C4_6 
REMARK    4  A    between atoms: C4_6  and  C5_7 
REMARK    5  A    between atoms: C4_6  and  N2_19 
REMARK    6  A    between atoms: C5_7  and  C6_8 
REMARK    7  A    between atoms: C9_11  and  O2_12 
REMARK    8  A    between atoms: O2_12  and  P1_13 
REMARK    9  A    between atoms: P1_13  and  O4_15 
REMARK   10  A    between atoms: P1_13  and  O5_16 
REMARK       I    between atoms: N2_19  and  C12_20 
REMARK   11  A    between atoms: C12_20  and  C13_22 
REMARK   12  A    between atoms: C13_22  and  C14_23 
REMARK   13  A    between atoms: C23_35  and  C24_36 
REMARK   14  A    between atoms: C24_36  and  C25_37 
REMARK   15  A    between atoms: C28_40  and  C29_41 
ROOT
HETATM    1  C4  UNL     1      -4.238  48.662 -22.156  1.00  0.00     0.180 C 
ENDROOT
BRANCH   1   2
HETATM    2  C3  UNL     1      -5.009  47.531 -21.451  1.00  0.00     0.241 C 
HETATM    3  N1  UNL     1      -6.065  47.013 -22.167  1.00  0.00    -0.348 N 
HETATM    4  H5  UNL     1      -6.229  47.343 -23.110  1.00  0.00     0.163 HD
HETATM    5  O1  UNL     1      -4.663  47.091 -20.356  1.00  0.00    -0.271 OA
BRANCH   3   6
HETATM    6  C2  UNL     1      -6.681  45.743 -21.795  1.00  0.00     0.158 C 
HETATM    7  C1  UNL     1      -5.608  44.741 -21.389  1.00  0.00     0.041 C 
BRANCH   6   8
HETATM    8  C22 UNL     1      -7.630  46.019 -20.672  1.00  0.00     0.170 A 
HETATM    9  N4  UNL     1      -7.707  47.059 -19.870  1.00  0.00    -0.325 N 
HETATM   10  C23 UNL     1      -8.831  46.772 -19.131  1.00  0.00     0.108 A 
ATOM     11  H4  UNL     1      -7.091  47.870 -19.812  1.00  0.00     0.169 HD
HETATM   12  N5  UNL     1      -9.464  45.642 -19.487  1.00  0.00    -0.247 N 
HETATM   13  O7  UNL     1      -8.653  45.127 -20.501  1.00  0.00    -0.221 OA
ATOM     14  H5  UNL     1     -10.327  45.253 -19.108  1.00  0.00     0.196 HD
BRANCH  10  15
HETATM   15  C24 UNL     1      -9.363  47.698 -18.099  1.00  0.00     0.117 C 
BRANCH  15  16
HETATM   16  C25 UNL     1     -10.863  47.726 -18.273  1.00  0.00    -0.051 A 
HETATM   17  C26 UNL     1     -11.706  47.308 -17.233  1.00  0.00     0.008 A 
HETATM   18  C27 UNL     1     -13.095  47.321 -17.396  1.00  0.00     0.017 A 
HETATM   19  C28 UNL     1     -13.669  47.748 -18.602  1.00  0.00     0.047 A 
HETATM   20  C30 UNL     1     -12.827  48.184 -19.635  1.00  0.00     0.017 A 
HETATM   21  C31 UNL     1     -11.438  48.169 -19.474  1.00  0.00     0.008 A 
BRANCH  19  22
HETATM   22  C29 UNL     1     -15.169  47.773 -18.769  1.00  0.00     0.417 C 
HETATM   23  F1  UNL     1     -15.771  46.677 -18.227  1.00  0.00    -0.166 F 
HETATM   24  F2  UNL     1     -15.562  47.808 -20.073  1.00  0.00    -0.166 F 
HETATM   25  F3  UNL     1     -15.756  48.853 -18.178  1.00  0.00    -0.166 F 
ENDBRANCH  19  22
ENDBRANCH  15  16
ENDBRANCH  10  15
ENDBRANCH   6   8
ENDBRANCH   3   6
ENDBRANCH   1   2
BRANCH   1  26
HETATM   26  C5  UNL     1      -4.268  48.386 -23.671  1.00  0.00     0.073 C 
BRANCH  26  27
HETATM   27  C6  UNL     1      -3.268  49.146 -24.517  1.00  0.00    -0.056 A 
HETATM   28  C7  UNL     1      -2.530  50.192 -23.942  1.00  0.00     0.010 A 
HETATM   29  C8  UNL     1      -1.605  50.914 -24.699  1.00  0.00     0.038 A 
HETATM   30  C9  UNL     1      -1.392  50.580 -26.032  1.00  0.00     0.081 A 
HETATM   31  C10 UNL     1      -2.110  49.542 -26.618  1.00  0.00     0.038 A 
HETATM   32  C11 UNL     1      -3.030  48.816 -25.857  1.00  0.00     0.010 A 
BRANCH  30  33
HETATM   33  O2  UNL     1      -0.488  51.328 -26.736  1.00  0.00    -0.255 OA
BRANCH  33  34
HETATM   34  P1  UNL     1      -0.787  52.832 -27.202  1.00  0.00     0.396 P 
HETATM   35  O3  UNL     1      -0.060  53.299 -28.419  1.00  0.00    -0.631 OA
BRANCH  34  36
HETATM   36  O4  UNL     1      -0.434  53.781 -25.964  1.00  0.00    -0.307 OA
HETATM   37  H11 UNL     1       0.237  54.428 -26.256  1.00  0.00     0.222 HD
ENDBRANCH  34  36
BRANCH  34  38
HETATM   38  O5  UNL     1      -2.377  53.001 -27.288  1.00  0.00    -0.307 OA
HETATM   39  H12 UNL     1      -2.795  52.829 -26.428  1.00  0.00     0.222 HD
ENDBRANCH  34  38
ENDBRANCH  33  34
ENDBRANCH  30  33
ENDBRANCH  26  27
ENDBRANCH   1  26
BRANCH   1  40
HETATM   40  N2  UNL     1      -2.880  48.658 -21.623  1.00  0.00    -0.347 N 
HETATM   41  C12 UNL     1      -2.482  49.525 -20.627  1.00  0.00     0.222 C 
HETATM   42  O6  UNL     1      -3.217  50.408 -20.196  1.00  0.00    -0.273 OA
HETATM   43  H15 UNL     1      -2.323  47.829 -21.815  1.00  0.00     0.163 HD
BRANCH  41  44
HETATM   44  C13 UNL     1      -1.044  49.317 -20.170  1.00  0.00     0.143 C 
BRANCH  44  45
HETATM   45  C14 UNL     1      -0.416  50.572 -19.658  1.00  0.00    -0.022 A 
HETATM   46  C15 UNL     1      -0.253  50.923 -18.330  1.00  0.00     0.097 A 
HETATM   47  N3  UNL     1       0.351  52.148 -18.279  1.00  0.00    -0.365 N 
HETATM   48  C16 UNL     1       0.578  52.621 -19.550  1.00  0.00     0.042 A 
HETATM   49  H19 UNL     1       0.592  52.643 -17.433  1.00  0.00     0.165 HD
HETATM   50  C17 UNL     1       1.162  53.822 -19.973  1.00  0.00     0.030 A 
HETATM   51  C21 UNL     1       0.112  51.651 -20.440  1.00  0.00    -0.001 A 
HETATM   52  C18 UNL     1       1.271  54.040 -21.350  1.00  0.00     0.002 A 
HETATM   53  C19 UNL     1       0.818  53.091 -22.265  1.00  0.00     0.001 A 
HETATM   54  C20 UNL     1       0.238  51.894 -21.825  1.00  0.00     0.014 A 
ENDBRANCH  44  45
ENDBRANCH  41  44
ENDBRANCH   1  40
TORSDOF 15
ENDMDL
MODEL 9
REMARK minimizedAffinity -10.7048798
REMARK CNNscore 0.0827367529
REMARK CNNaffinity 6.40273905
REMARK  15 active torsions:
REMARK  status: ('A' for Active; 'I' for Inactive)
REMARK    1  A    between atoms: C2_2  and  N1_3 
REMARK    2  A    between atoms: C2_2  and  C22_32 
REMARK       I    between atoms: N1_3  and  C3_4 
REMARK    3  A    between atoms: C3_4  and  C4_6 
REMARK    4  A    between atoms: C4_6  and  C5_7 
REMARK    5  A    between atoms: C4_6  and  N2_19 
REMARK    6  A    between atoms: C5_7  and  C6_8 
REMARK    7  A    between atoms: C9_11  and  O2_12 
REMARK    8  A    between atoms: O2_12  and  P1_13 
REMARK    9  A    between atoms: P1_13  and  O4_15 
REMARK   10  A    between atoms: P1_13  and  O5_16 
REMARK       I    between atoms: N2_19  and  C12_20 
REMARK   11  A    between atoms: C12_20  and  C13_22 
REMARK   12  A    between atoms: C13_22  and  C14_23 
REMARK   13  A    between atoms: C23_35  and  C24_36 
REMARK   14  A    between atoms: C24_36  and  C25_37 
REMARK   15  A    between atoms: C28_40  and  C29_41 
ROOT
HETATM    1  C4  UNL     1      -4.968  49.870 -23.389  1.00  0.00     0.180 C 
ENDROOT
BRANCH   1   2
HETATM    2  C3  UNL     1      -5.193  49.894 -21.866  1.00  0.00     0.241 C 
HETATM    3  N1  UNL     1      -5.611  48.700 -21.322  1.00  0.00    -0.348 N 
HETATM    4  H5  UNL     1      -5.678  47.884 -21.917  1.00  0.00     0.163 HD
HETATM    5  O1  UNL     1      -4.957  50.893 -21.188  1.00  0.00    -0.271 OA
BRANCH   3   6
HETATM    6  C2  UNL     1      -5.554  48.464 -19.882  1.00  0.00     0.158 C 
HETATM    7  C1  UNL     1      -6.337  47.206 -19.527  1.00  0.00     0.041 C 
BRANCH   6   8
HETATM    8  C22 UNL     1      -4.112  48.339 -19.505  1.00  0.00     0.170 A 
HETATM    9  N4  UNL     1      -3.331  49.187 -18.872  1.00  0.00    -0.325 N 
HETATM   10  C23 UNL     1      -2.166  48.465 -18.740  1.00  0.00     0.108 A 
ATOM     11  H4  UNL     1      -3.535  50.136 -18.558  1.00  0.00     0.169 HD
HETATM   12  N5  UNL     1      -2.229  47.209 -19.211  1.00  0.00    -0.247 N 
HETATM   13  O7  UNL     1      -3.519  47.129 -19.741  1.00  0.00    -0.221 OA
ATOM     14  H5  UNL     1      -1.508  46.488 -19.188  1.00  0.00     0.196 HD
BRANCH  10  15
HETATM   15  C24 UNL     1      -0.975  48.998 -18.031  1.00  0.00     0.117 C 
BRANCH  15  16
HETATM   16  C25 UNL     1      -0.472  50.165 -18.846  1.00  0.00    -0.051 A 
HETATM   17  C26 UNL     1      -0.096  51.361 -18.218  1.00  0.00     0.008 A 
HETATM   18  C27 UNL     1       0.357  52.448 -18.971  1.00  0.00     0.017 A 
HETATM   19  C28 UNL     1       0.442  52.364 -20.368  1.00  0.00     0.047 A 
HETATM   20  C30 UNL     1       0.084  51.162 -20.995  1.00  0.00     0.017 A 
HETATM   21  C31 UNL     1      -0.373  50.075 -20.244  1.00  0.00     0.008 A 
BRANCH  19  22
HETATM   22  C29 UNL     1       0.945  53.535 -21.175  1.00  0.00     0.417 C 
HETATM   23  F1  UNL     1       2.302  53.645 -21.144  1.00  0.00    -0.166 F 
HETATM   24  F2  UNL     1       0.463  54.733 -20.739  1.00  0.00    -0.166 F 
HETATM   25  F3  UNL     1       0.606  53.461 -22.494  1.00  0.00    -0.166 F 
ENDBRANCH  19  22
ENDBRANCH  15  16
ENDBRANCH  10  15
ENDBRANCH   6   8
ENDBRANCH   3   6
ENDBRANCH   1   2
BRANCH   1  26
HETATM   26  C5  UNL     1      -4.922  48.398 -23.841  1.00  0.00     0.073 C 
BRANCH  26  27
HETATM   27  C6  UNL     1      -5.487  48.094 -25.212  1.00  0.00    -0.056 A 
HETATM   28  C7  UNL     1      -6.802  47.618 -25.328  1.00  0.00     0.010 A 
HETATM   29  C8  UNL     1      -7.348  47.324 -26.580  1.00  0.00     0.038 A 
HETATM   30  C9  UNL     1      -6.590  47.525 -27.729  1.00  0.00     0.081 A 
HETATM   31  C10 UNL     1      -5.286  48.001 -27.634  1.00  0.00     0.038 A 
HETATM   32  C11 UNL     1      -4.744  48.302 -26.382  1.00  0.00     0.010 A 
BRANCH  30  33
HETATM   33  O2  UNL     1      -7.163  47.206 -28.929  1.00  0.00    -0.255 OA
BRANCH  33  34
HETATM   34  P1  UNL     1      -7.952  48.278 -29.822  1.00  0.00     0.396 P 
HETATM   35  O3  UNL     1      -8.918  47.721 -30.815  1.00  0.00    -0.631 OA
BRANCH  34  36
HETATM   36  O4  UNL     1      -6.849  49.156 -30.577  1.00  0.00    -0.307 OA
HETATM   37  H11 UNL     1      -7.007  49.086 -31.538  1.00  0.00     0.222 HD
ENDBRANCH  34  36
BRANCH  34  38
HETATM   38  O5  UNL     1      -8.590  49.356 -28.826  1.00  0.00    -0.307 OA
HETATM   39  H12 UNL     1      -7.903  49.801 -28.303  1.00  0.00     0.222 HD
ENDBRANCH  34  38
ENDBRANCH  33  34
ENDBRANCH  30  33
ENDBRANCH  26  27
ENDBRANCH   1  26
BRANCH   1  40
HETATM   40  N2  UNL     1      -3.712  50.565 -23.652  1.00  0.00    -0.347 N 
HETATM   41  C12 UNL     1      -3.673  51.794 -24.278  1.00  0.00     0.222 C 
HETATM   42  O6  UNL     1      -4.679  52.330 -24.730  1.00  0.00    -0.273 OA
HETATM   43  H15 UNL     1      -2.903  50.247 -23.125  1.00  0.00     0.163 HD
BRANCH  41  44
HETATM   44  C13 UNL     1      -2.271  52.375 -24.402  1.00  0.00     0.143 C 
BRANCH  44  45
HETATM   45  C14 UNL     1      -1.708  52.227 -25.778  1.00  0.00    -0.022 A 
HETATM   46  C15 UNL     1      -2.424  52.235 -26.961  1.00  0.00     0.097 A 
HETATM   47  N3  UNL     1      -1.549  52.063 -27.997  1.00  0.00    -0.365 N 
HETATM   48  C16 UNL     1      -0.267  51.926 -27.519  1.00  0.00     0.042 A 
HETATM   49  H19 UNL     1      -1.803  52.032 -28.973  1.00  0.00     0.165 HD
HETATM   50  C17 UNL     1       0.935  51.726 -28.211  1.00  0.00     0.030 A 
HETATM   51  C21 UNL     1      -0.331  52.031 -26.129  1.00  0.00    -0.001 A 
HETATM   52  C18 UNL     1       2.108  51.627 -27.457  1.00  0.00     0.002 A 
HETATM   53  C19 UNL     1       2.078  51.730 -26.067  1.00  0.00     0.001 A 
HETATM   54  C20 UNL     1       0.868  51.932 -25.390  1.00  0.00     0.014 A 
ENDBRANCH  44  45
ENDBRANCH  41  44
ENDBRANCH   1  40
TORSDOF 15
ENDMDL
