MODEL 1
REMARK minimizedAffinity -8.83941364
REMARK  8 active torsions:
REMARK  status: ('A' for Active; 'I' for Inactive)
REMARK    1  A    between atoms: N1_2  and  O1_3 
REMARK    2  A    between atoms: O1_3  and  C2_4 
REMARK    3  A    between atoms: C2_4  and  C3_6 
REMARK    4  A    between atoms: C10_13  and  C11_14 
REMARK    5  A    between atoms: C14_18  and  C15_19 
REMARK    6  A    between atoms: C15_19  and  C16_20 
REMARK    7  A    between atoms: C16_20  and  C17_21 
REMARK    8  A    between atoms: C17_21  and  N3_22 
ROOT
HETATM    1  C3  UNL     1      -3.122   3.006  11.786  1.00  0.00     0.042 A 
HETATM    2  C4  UNL     1      -3.502   1.688  11.434  1.00  0.00     0.020 A 
HETATM    3  C5  UNL     1      -4.830   1.269  11.542  1.00  0.00     0.031 A 
HETATM    4  C6  UNL     1      -5.748   2.188  12.009  1.00  0.00     0.046 A 
HETATM    5  C7  UNL     1      -5.397   3.492  12.371  1.00  0.00     0.007 A 
HETATM    6  C8  UNL     1      -4.081   3.918  12.265  1.00  0.00     0.032 A 
HETATM    7  C9  UNL     1      -6.644   4.150  12.820  1.00  0.00     0.047 A 
HETATM    8  C10 UNL     1      -6.679   5.416  13.271  1.00  0.00     0.048 C 
HETATM    9  C24 UNL     1      -7.737   3.117  12.666  1.00  0.00     0.257 A 
HETATM   10  O3  UNL     1      -8.926   3.230  12.898  1.00  0.00    -0.267 OA
HETATM   11  N4  UNL     1      -7.108   1.981  12.186  1.00  0.00    -0.322 N 
HETATM   12  H30 UNL     1      -7.608   1.124  11.994  1.00  0.00     0.169 HD
ENDROOT
BRANCH   8  13
HETATM   13  C11 UNL     1      -7.780   6.183  13.750  1.00  0.00     0.040 A 
HETATM   14  N2  UNL     1      -9.024   6.124  13.163  1.00  0.00    -0.359 N 
HETATM   15  C12 UNL     1      -9.884   6.964  13.808  1.00  0.00     0.016 A 
HETATM   16  H9  UNL     1      -9.280   5.538  12.373  1.00  0.00     0.166 HD
HETATM   17  C13 UNL     1      -9.206   7.586  14.830  1.00  0.00    -0.027 A 
HETATM   18  C23 UNL     1     -11.308   7.175  13.431  1.00  0.00     0.057 C 
HETATM   19  C14 UNL     1      -7.868   7.092  14.809  1.00  0.00    -0.023 A 
HETATM   20  C20 UNL     1      -9.871   8.556  15.750  1.00  0.00     0.041 C 
HETATM   21  C21 UNL     1     -11.213   9.045  15.171  1.00  0.00     0.005 C 
HETATM   22  C22 UNL     1     -12.045   7.892  14.577  1.00  0.00     0.006 C 
BRANCH  19  23
HETATM   23  C15 UNL     1      -6.782   7.491  15.766  1.00  0.00     0.043 C 
BRANCH  23  24
HETATM   24  C16 UNL     1      -5.994   8.729  15.320  1.00  0.00     0.035 C 
BRANCH  24  25
HETATM   25  C17 UNL     1      -4.748   8.376  14.494  1.00  0.00     0.271 C 
BRANCH  25  26
HETATM   26  N3  UNL     1      -3.489   8.725  15.178  1.00  0.00     0.080 N 
HETATM   27  C18 UNL     1      -3.703   9.707  16.244  1.00  0.00     0.309 C 
HETATM   28  C19 UNL     1      -2.879   7.517  15.743  1.00  0.00     0.309 C 
ENDBRANCH  25  26
ENDBRANCH  24  25
ENDBRANCH  23  24
ENDBRANCH  19  23
ENDBRANCH   8  13
BRANCH   1  29
HETATM   29  C2  UNL     1      -1.687   3.371  11.636  1.00  0.00     0.310 C 
HETATM   30  O2  UNL     1      -1.089   4.117  12.400  1.00  0.00    -0.258 OA
BRANCH  29  31
HETATM   31  O1  UNL     1      -1.136   2.737  10.553  1.00  0.00    -0.223 OA
BRANCH  31  32
HETATM   32  N1  UNL     1      -0.046   1.831  10.946  1.00  0.00    -0.201 NA
HETATM   33  C1  UNL     1      -0.484   0.508  10.516  1.00  0.00     0.141 C 
HETATM   34  H4  UNL     1      -0.071   1.873  11.974  1.00  0.00     0.153 HD
ENDBRANCH  31  32
ENDBRANCH  29  31
ENDBRANCH   1  29
TORSDOF 8
ENDMDL
MODEL 2
REMARK minimizedAffinity -8.60956478
REMARK  8 active torsions:
REMARK  status: ('A' for Active; 'I' for Inactive)
REMARK    1  A    between atoms: N1_2  and  O1_3 
REMARK    2  A    between atoms: O1_3  and  C2_4 
REMARK    3  A    between atoms: C2_4  and  C3_6 
REMARK    4  A    between atoms: C10_13  and  C11_14 
REMARK    5  A    between atoms: C14_18  and  C15_19 
REMARK    6  A    between atoms: C15_19  and  C16_20 
REMARK    7  A    between atoms: C16_20  and  C17_21 
REMARK    8  A    between atoms: C17_21  and  N3_22 
ROOT
HETATM    1  C3  UNL     1      -6.408   3.207  12.388  1.00  0.00     0.042 A 
HETATM    2  C4  UNL     1      -6.421   1.875  11.910  1.00  0.00     0.020 A 
HETATM    3  C5  UNL     1      -5.248   1.257  11.467  1.00  0.00     0.031 A 
HETATM    4  C6  UNL     1      -4.086   2.000  11.509  1.00  0.00     0.046 A 
HETATM    5  C7  UNL     1      -4.048   3.321  11.968  1.00  0.00     0.007 A 
HETATM    6  C8  UNL     1      -5.206   3.941  12.413  1.00  0.00     0.032 A 
HETATM    7  C9  UNL     1      -2.641   3.763  11.850  1.00  0.00     0.047 A 
HETATM    8  C10 UNL     1      -2.235   5.001  12.180  1.00  0.00     0.048 C 
HETATM    9  C24 UNL     1      -1.878   2.578  11.303  1.00  0.00     0.257 A 
HETATM   10  O3  UNL     1      -0.688   2.485  11.067  1.00  0.00    -0.267 OA
HETATM   11  N4  UNL     1      -2.822   1.581  11.124  1.00  0.00    -0.322 N 
HETATM   12  H30 UNL     1      -2.585   0.668  10.761  1.00  0.00     0.169 HD
ENDROOT
BRANCH   8  13
HETATM   13  C11 UNL     1      -0.937   5.585  12.112  1.00  0.00     0.040 A 
HETATM   14  N2  UNL     1      -0.212   5.620  10.942  1.00  0.00    -0.359 N 
HETATM   15  C12 UNL     1       0.994   6.220  11.159  1.00  0.00     0.016 A 
HETATM   16  H9  UNL     1      -0.521   5.266  10.041  1.00  0.00     0.166 HD
HETATM   17  C13 UNL     1       1.070   6.585  12.483  1.00  0.00    -0.027 A 
HETATM   18  C23 UNL     1       2.047   6.410  10.125  1.00  0.00     0.057 C 
HETATM   19  C14 UNL     1      -0.156   6.194  13.099  1.00  0.00    -0.023 A 
HETATM   20  C20 UNL     1       2.260   7.290  13.046  1.00  0.00     0.041 C 
HETATM   21  C21 UNL     1       3.473   7.180  12.102  1.00  0.00     0.005 C 
HETATM   22  C22 UNL     1       3.089   7.425  10.630  1.00  0.00     0.006 C 
BRANCH  19  23
HETATM   23  C15 UNL     1      -0.511   6.415  14.541  1.00  0.00     0.043 C 
BRANCH  23  24
HETATM   24  C16 UNL     1      -2.021   6.438  14.805  1.00  0.00     0.035 C 
BRANCH  24  25
HETATM   25  C17 UNL     1      -2.473   7.694  15.565  1.00  0.00     0.271 C 
BRANCH  25  26
HETATM   26  N3  UNL     1      -3.927   7.925  15.474  1.00  0.00     0.080 N 
HETATM   27  C18 UNL     1      -4.253   8.973  14.503  1.00  0.00     0.309 C 
HETATM   28  C19 UNL     1      -4.605   6.681  15.097  1.00  0.00     0.309 C 
ENDBRANCH  25  26
ENDBRANCH  24  25
ENDBRANCH  23  24
ENDBRANCH  19  23
ENDBRANCH   8  13
BRANCH   1  29
HETATM   29  C2  UNL     1      -7.700   3.787  12.845  1.00  0.00     0.310 C 
HETATM   30  O2  UNL     1      -8.762   3.180  12.834  1.00  0.00    -0.258 OA
BRANCH  29  31
HETATM   31  O1  UNL     1      -7.522   5.067  13.299  1.00  0.00    -0.223 OA
BRANCH  31  32
HETATM   32  N1  UNL     1      -8.290   5.324  14.527  1.00  0.00    -0.201 NA
HETATM   33  C1  UNL     1      -8.540   6.760  14.519  1.00  0.00     0.141 C 
HETATM   34  H4  UNL     1      -7.612   5.107  15.271  1.00  0.00     0.153 HD
ENDBRANCH  31  32
ENDBRANCH  29  31
ENDBRANCH   1  29
TORSDOF 8
ENDMDL
MODEL 3
REMARK minimizedAffinity -8.59801292
REMARK  8 active torsions:
REMARK  status: ('A' for Active; 'I' for Inactive)
REMARK    1  A    between atoms: N1_2  and  O1_3 
REMARK    2  A    between atoms: O1_3  and  C2_4 
REMARK    3  A    between atoms: C2_4  and  C3_6 
REMARK    4  A    between atoms: C10_13  and  C11_14 
REMARK    5  A    between atoms: C14_18  and  C15_19 
REMARK    6  A    between atoms: C15_19  and  C16_20 
REMARK    7  A    between atoms: C16_20  and  C17_21 
REMARK    8  A    between atoms: C17_21  and  N3_22 
ROOT
HETATM    1  C3  UNL     1       2.018   6.486  10.656  1.00  0.00     0.042 A 
HETATM    2  C4  UNL     1       2.760   6.850  11.805  1.00  0.00     0.020 A 
HETATM    3  C5  UNL     1       2.222   6.706  13.086  1.00  0.00     0.031 A 
HETATM    4  C6  UNL     1       0.941   6.203  13.181  1.00  0.00     0.046 A 
HETATM    5  C7  UNL     1       0.183   5.843  12.062  1.00  0.00     0.007 A 
HETATM    6  C8  UNL     1       0.710   5.980  10.787  1.00  0.00     0.032 A 
HETATM    7  C9  UNL     1      -1.117   5.361  12.577  1.00  0.00     0.047 A 
HETATM    8  C10 UNL     1      -2.115   4.954  11.773  1.00  0.00     0.048 C 
HETATM    9  C24 UNL     1      -1.030   5.459  14.083  1.00  0.00     0.257 A 
HETATM   10  O3  UNL     1      -1.864   5.149  14.913  1.00  0.00    -0.267 OA
HETATM   11  N4  UNL     1       0.226   5.977  14.348  1.00  0.00    -0.322 N 
HETATM   12  H30 UNL     1       0.553   6.152  15.288  1.00  0.00     0.169 HD
ENDROOT
BRANCH   8  13
HETATM   13  C11 UNL     1      -3.418   4.483  12.102  1.00  0.00     0.040 A 
HETATM   14  N2  UNL     1      -3.964   3.366  11.508  1.00  0.00    -0.359 N 
HETATM   15  C12 UNL     1      -5.220   3.146  11.994  1.00  0.00     0.016 A 
HETATM   16  H9  UNL     1      -3.505   2.778  10.818  1.00  0.00     0.166 HD
HETATM   17  C13 UNL     1      -5.510   4.124  12.916  1.00  0.00    -0.027 A 
HETATM   18  C23 UNL     1      -6.116   2.041  11.560  1.00  0.00     0.057 C 
HETATM   19  C14 UNL     1      -4.370   4.976  13.000  1.00  0.00    -0.023 A 
HETATM   20  C20 UNL     1      -6.807   4.158  13.656  1.00  0.00     0.041 C 
HETATM   21  C21 UNL     1      -7.860   3.257  12.980  1.00  0.00     0.005 C 
HETATM   22  C22 UNL     1      -7.276   1.894  12.562  1.00  0.00     0.006 C 
BRANCH  19  23
HETATM   23  C15 UNL     1      -4.244   6.171  13.901  1.00  0.00     0.043 C 
BRANCH  23  24
HETATM   24  C16 UNL     1      -4.677   7.486  13.243  1.00  0.00     0.035 C 
BRANCH  24  25
HETATM   25  C17 UNL     1      -6.144   7.839  13.527  1.00  0.00     0.271 C 
BRANCH  25  26
HETATM   26  N3  UNL     1      -6.319   8.591  14.784  1.00  0.00     0.080 N 
HETATM   27  C18 UNL     1      -6.832   7.740  15.861  1.00  0.00     0.309 C 
HETATM   28  C19 UNL     1      -5.039   9.179  15.193  1.00  0.00     0.309 C 
ENDBRANCH  25  26
ENDBRANCH  24  25
ENDBRANCH  23  24
ENDBRANCH  19  23
ENDBRANCH   8  13
BRANCH   1  29
HETATM   29  C2  UNL     1       2.668   6.668   9.330  1.00  0.00     0.310 C 
HETATM   30  O2  UNL     1       3.423   7.592   9.061  1.00  0.00    -0.258 OA
BRANCH  29  31
HETATM   31  O1  UNL     1       2.326   5.649   8.480  1.00  0.00    -0.223 OA
BRANCH  31  32
HETATM   32  N1  UNL     1       3.507   4.906   8.013  1.00  0.00    -0.201 NA
HETATM   33  C1  UNL     1       3.825   3.986   9.098  1.00  0.00     0.141 C 
HETATM   34  H4  UNL     1       4.233   5.635   7.968  1.00  0.00     0.153 HD
ENDBRANCH  31  32
ENDBRANCH  29  31
ENDBRANCH   1  29
TORSDOF 8
ENDMDL
MODEL 4
REMARK minimizedAffinity -8.52111053
REMARK  8 active torsions:
REMARK  status: ('A' for Active; 'I' for Inactive)
REMARK    1  A    between atoms: N1_2  and  O1_3 
REMARK    2  A    between atoms: O1_3  and  C2_4 
REMARK    3  A    between atoms: C2_4  and  C3_6 
REMARK    4  A    between atoms: C10_13  and  C11_14 
REMARK    5  A    between atoms: C14_18  and  C15_19 
REMARK    6  A    between atoms: C15_19  and  C16_20 
REMARK    7  A    between atoms: C16_20  and  C17_21 
REMARK    8  A    between atoms: C17_21  and  N3_22 
ROOT
HETATM    1  C3  UNL     1      -6.193   3.831  12.605  1.00  0.00     0.042 A 
HETATM    2  C4  UNL     1      -6.374   2.516  12.114  1.00  0.00     0.020 A 
HETATM    3  C5  UNL     1      -5.304   1.792  11.583  1.00  0.00     0.031 A 
HETATM    4  C6  UNL     1      -4.072   2.413  11.552  1.00  0.00     0.046 A 
HETATM    5  C7  UNL     1      -3.868   3.714  12.023  1.00  0.00     0.007 A 
HETATM    6  C8  UNL     1      -4.924   4.439  12.555  1.00  0.00     0.032 A 
HETATM    7  C9  UNL     1      -2.435   4.014  11.812  1.00  0.00     0.047 A 
HETATM    8  C10 UNL     1      -1.883   5.199  12.126  1.00  0.00     0.048 C 
HETATM    9  C24 UNL     1      -1.836   2.769  11.198  1.00  0.00     0.257 A 
HETATM   10  O3  UNL     1      -0.681   2.561  10.878  1.00  0.00    -0.267 OA
HETATM   11  N4  UNL     1      -2.886   1.875  11.075  1.00  0.00    -0.322 N 
HETATM   12  H30 UNL     1      -2.769   0.951  10.685  1.00  0.00     0.169 HD
ENDROOT
BRANCH   8  13
HETATM   13  C11 UNL     1      -0.540   5.650  11.974  1.00  0.00     0.040 A 
HETATM   14  N2  UNL     1       0.325   5.077  11.069  1.00  0.00    -0.359 N 
HETATM   15  C12 UNL     1       1.543   5.688  11.138  1.00  0.00     0.016 A 
HETATM   16  H9  UNL     1       0.100   4.320  10.430  1.00  0.00     0.166 HD
HETATM   17  C13 UNL     1       1.486   6.672  12.097  1.00  0.00    -0.027 A 
HETATM   18  C23 UNL     1       2.729   5.314  10.321  1.00  0.00     0.057 C 
HETATM   19  C14 UNL     1       0.164   6.664  12.631  1.00  0.00    -0.023 A 
HETATM   20  C20 UNL     1       2.654   7.550  12.405  1.00  0.00     0.041 C 
HETATM   21  C21 UNL     1       3.961   6.959  11.840  1.00  0.00     0.005 C 
HETATM   22  C22 UNL     1       3.786   6.430  10.403  1.00  0.00     0.006 C 
BRANCH  19  23
HETATM   23  C15 UNL     1      -0.347   7.590  13.697  1.00  0.00     0.043 C 
BRANCH  23  24
HETATM   24  C16 UNL     1      -0.633   6.893  15.032  1.00  0.00     0.035 C 
BRANCH  24  25
HETATM   25  C17 UNL     1      -1.731   7.593  15.846  1.00  0.00     0.271 C 
BRANCH  25  26
HETATM   26  N3  UNL     1      -3.058   7.511  15.205  1.00  0.00     0.080 N 
HETATM   27  C18 UNL     1      -3.758   6.273  15.559  1.00  0.00     0.309 C 
HETATM   28  C19 UNL     1      -3.873   8.664  15.601  1.00  0.00     0.309 C 
ENDBRANCH  25  26
ENDBRANCH  24  25
ENDBRANCH  23  24
ENDBRANCH  19  23
ENDBRANCH   8  13
BRANCH   1  29
HETATM   29  C2  UNL     1      -7.385   4.530  13.159  1.00  0.00     0.310 C 
HETATM   30  O2  UNL     1      -8.516   4.411  12.708  1.00  0.00    -0.258 OA
BRANCH  29  31
HETATM   31  O1  UNL     1      -7.039   5.288  14.247  1.00  0.00    -0.223 OA
BRANCH  31  32
HETATM   32  N1  UNL     1      -7.812   4.916  15.441  1.00  0.00    -0.201 NA
HETATM   33  C1  UNL     1      -8.320   6.177  15.967  1.00  0.00     0.141 C 
HETATM   34  H4  UNL     1      -7.089   4.555  16.079  1.00  0.00     0.153 HD
ENDBRANCH  31  32
ENDBRANCH  29  31
ENDBRANCH   1  29
TORSDOF 8
ENDMDL
MODEL 5
REMARK minimizedAffinity -8.50622272
REMARK  8 active torsions:
REMARK  status: ('A' for Active; 'I' for Inactive)
REMARK    1  A    between atoms: N1_2  and  O1_3 
REMARK    2  A    between atoms: O1_3  and  C2_4 
REMARK    3  A    between atoms: C2_4  and  C3_6 
REMARK    4  A    between atoms: C10_13  and  C11_14 
REMARK    5  A    between atoms: C14_18  and  C15_19 
REMARK    6  A    between atoms: C15_19  and  C16_20 
REMARK    7  A    between atoms: C16_20  and  C17_21 
REMARK    8  A    between atoms: C17_21  and  N3_22 
ROOT
HETATM    1  C3  UNL     1      -6.239   3.887  12.726  1.00  0.00     0.042 A 
HETATM    2  C4  UNL     1      -6.436   2.588  12.198  1.00  0.00     0.020 A 
HETATM    3  C5  UNL     1      -5.382   1.883  11.610  1.00  0.00     0.031 A 
HETATM    4  C6  UNL     1      -4.153   2.506  11.561  1.00  0.00     0.046 A 
HETATM    5  C7  UNL     1      -3.934   3.791  12.067  1.00  0.00     0.007 A 
HETATM    6  C8  UNL     1      -4.973   4.498  12.655  1.00  0.00     0.032 A 
HETATM    7  C9  UNL     1      -2.508   4.099  11.821  1.00  0.00     0.047 A 
HETATM    8  C10 UNL     1      -1.947   5.274  12.157  1.00  0.00     0.048 C 
HETATM    9  C24 UNL     1      -1.928   2.875  11.149  1.00  0.00     0.257 A 
HETATM   10  O3  UNL     1      -0.784   2.679  10.786  1.00  0.00    -0.267 OA
HETATM   11  N4  UNL     1      -2.982   1.985  11.030  1.00  0.00    -0.322 N 
HETATM   12  H30 UNL     1      -2.877   1.074  10.606  1.00  0.00     0.169 HD
ENDROOT
BRANCH   8  13
HETATM   13  C11 UNL     1      -0.609   5.731  11.978  1.00  0.00     0.040 A 
HETATM   14  N2  UNL     1       0.277   5.089  11.142  1.00  0.00    -0.359 N 
HETATM   15  C12 UNL     1       1.484   5.724  11.166  1.00  0.00     0.016 A 
HETATM   16  H9  UNL     1       0.072   4.269  10.577  1.00  0.00     0.166 HD
HETATM   17  C13 UNL     1       1.399   6.795  12.024  1.00  0.00    -0.027 A 
HETATM   18  C23 UNL     1       2.687   5.293  10.403  1.00  0.00     0.057 C 
HETATM   19  C14 UNL     1       0.070   6.816  12.541  1.00  0.00    -0.023 A 
HETATM   20  C20 UNL     1       2.549   7.718  12.260  1.00  0.00     0.041 C 
HETATM   21  C21 UNL     1       3.872   7.098  11.770  1.00  0.00     0.005 C 
HETATM   22  C22 UNL     1       3.725   6.430  10.389  1.00  0.00     0.006 C 
BRANCH  19  23
HETATM   23  C15 UNL     1      -0.470   7.831  13.506  1.00  0.00     0.043 C 
BRANCH  23  24
HETATM   24  C16 UNL     1      -1.536   8.751  12.899  1.00  0.00     0.035 C 
BRANCH  24  25
HETATM   25  C17 UNL     1      -2.252   9.610  13.952  1.00  0.00     0.271 C 
BRANCH  25  26
HETATM   26  N3  UNL     1      -3.661   9.220  14.145  1.00  0.00     0.080 N 
HETATM   27  C18 UNL     1      -4.144   8.363  13.059  1.00  0.00     0.309 C 
HETATM   28  C19 UNL     1      -3.812   8.518  15.424  1.00  0.00     0.309 C 
ENDBRANCH  25  26
ENDBRANCH  24  25
ENDBRANCH  23  24
ENDBRANCH  19  23
ENDBRANCH   8  13
BRANCH   1  29
HETATM   29  C2  UNL     1      -7.413   4.565  13.339  1.00  0.00     0.310 C 
HETATM   30  O2  UNL     1      -8.542   4.531  12.870  1.00  0.00    -0.258 OA
BRANCH  29  31
HETATM   31  O1  UNL     1      -7.055   5.197  14.501  1.00  0.00    -0.223 OA
BRANCH  31  32
HETATM   32  N1  UNL     1      -8.051   4.996  15.563  1.00  0.00    -0.201 NA
HETATM   33  C1  UNL     1      -8.418   6.340  15.993  1.00  0.00     0.141 C 
HETATM   34  H4  UNL     1      -7.503   4.544  16.309  1.00  0.00     0.153 HD
ENDBRANCH  31  32
ENDBRANCH  29  31
ENDBRANCH   1  29
TORSDOF 8
ENDMDL
MODEL 6
REMARK minimizedAffinity -8.50144672
REMARK  8 active torsions:
REMARK  status: ('A' for Active; 'I' for Inactive)
REMARK    1  A    between atoms: N1_2  and  O1_3 
REMARK    2  A    between atoms: O1_3  and  C2_4 
REMARK    3  A    between atoms: C2_4  and  C3_6 
REMARK    4  A    between atoms: C10_13  and  C11_14 
REMARK    5  A    between atoms: C14_18  and  C15_19 
REMARK    6  A    between atoms: C15_19  and  C16_20 
REMARK    7  A    between atoms: C16_20  and  C17_21 
REMARK    8  A    between atoms: C17_21  and  N3_22 
ROOT
HETATM    1  C3  UNL     1       1.940   6.557  10.438  1.00  0.00     0.042 A 
HETATM    2  C4  UNL     1       2.776   6.816  11.551  1.00  0.00     0.020 A 
HETATM    3  C5  UNL     1       2.317   6.626  12.857  1.00  0.00     0.031 A 
HETATM    4  C6  UNL     1       1.019   6.184  13.013  1.00  0.00     0.046 A 
HETATM    5  C7  UNL     1       0.170   5.929  11.932  1.00  0.00     0.007 A 
HETATM    6  C8  UNL     1       0.618   6.112  10.632  1.00  0.00     0.032 A 
HETATM    7  C9  UNL     1      -1.118   5.486  12.509  1.00  0.00     0.047 A 
HETATM    8  C10 UNL     1      -2.188   5.178  11.755  1.00  0.00     0.048 C 
HETATM    9  C24 UNL     1      -0.926   5.492  14.008  1.00  0.00     0.257 A 
HETATM   10  O3  UNL     1      -1.719   5.179  14.876  1.00  0.00    -0.267 OA
HETATM   11  N4  UNL     1       0.372   5.929  14.213  1.00  0.00    -0.322 N 
HETATM   12  H30 UNL     1       0.770   6.033  15.136  1.00  0.00     0.169 HD
ENDROOT
BRANCH   8  13
HETATM   13  C11 UNL     1      -3.490   4.755  12.148  1.00  0.00     0.040 A 
HETATM   14  N2  UNL     1      -4.080   3.625  11.628  1.00  0.00    -0.359 N 
HETATM   15  C12 UNL     1      -5.325   3.460  12.163  1.00  0.00     0.016 A 
HETATM   16  H9  UNL     1      -3.658   2.992  10.954  1.00  0.00     0.166 HD
HETATM   17  C13 UNL     1      -5.563   4.490  13.043  1.00  0.00    -0.027 A 
HETATM   18  C23 UNL     1      -6.261   2.357  11.814  1.00  0.00     0.057 C 
HETATM   19  C14 UNL     1      -4.401   5.317  13.049  1.00  0.00    -0.023 A 
HETATM   20  C20 UNL     1      -6.834   4.593  13.820  1.00  0.00     0.041 C 
HETATM   21  C21 UNL     1      -7.928   3.686  13.224  1.00  0.00     0.005 C 
HETATM   22  C22 UNL     1      -7.390   2.289  12.857  1.00  0.00     0.006 C 
BRANCH  19  23
HETATM   23  C15 UNL     1      -4.219   6.551  13.884  1.00  0.00     0.043 C 
BRANCH  23  24
HETATM   24  C16 UNL     1      -5.049   7.747  13.403  1.00  0.00     0.035 C 
BRANCH  24  25
HETATM   25  C17 UNL     1      -5.247   8.811  14.493  1.00  0.00     0.271 C 
BRANCH  25  26
HETATM   26  N3  UNL     1      -3.984   9.459  14.895  1.00  0.00     0.080 N 
HETATM   27  C18 UNL     1      -4.205  10.818  15.396  1.00  0.00     0.309 C 
HETATM   28  C19 UNL     1      -3.323   8.658  15.931  1.00  0.00     0.309 C 
ENDBRANCH  25  26
ENDBRANCH  24  25
ENDBRANCH  23  24
ENDBRANCH  19  23
ENDBRANCH   8  13
BRANCH   1  29
HETATM   29  C2  UNL     1       2.510   6.780   9.082  1.00  0.00     0.310 C 
HETATM   30  O2  UNL     1       2.025   7.540   8.254  1.00  0.00    -0.258 OA
BRANCH  29  31
HETATM   31  O1  UNL     1       3.654   6.046   8.911  1.00  0.00    -0.223 OA
BRANCH  31  32
HETATM   32  N1  UNL     1       3.381   4.744   8.285  1.00  0.00    -0.201 NA
HETATM   33  C1  UNL     1       4.160   3.785   9.059  1.00  0.00     0.141 C 
HETATM   34  H4  UNL     1       3.806   4.844   7.352  1.00  0.00     0.153 HD
ENDBRANCH  31  32
ENDBRANCH  29  31
ENDBRANCH   1  29
TORSDOF 8
ENDMDL
MODEL 7
REMARK minimizedAffinity -8.45183468
REMARK  8 active torsions:
REMARK  status: ('A' for Active; 'I' for Inactive)
REMARK    1  A    between atoms: N1_2  and  O1_3 
REMARK    2  A    between atoms: O1_3  and  C2_4 
REMARK    3  A    between atoms: C2_4  and  C3_6 
REMARK    4  A    between atoms: C10_13  and  C11_14 
REMARK    5  A    between atoms: C14_18  and  C15_19 
REMARK    6  A    between atoms: C15_19  and  C16_20 
REMARK    7  A    between atoms: C16_20  and  C17_21 
REMARK    8  A    between atoms: C17_21  and  N3_22 
ROOT
HETATM    1  C3  UNL     1      -6.136   3.397  12.565  1.00  0.00     0.042 A 
HETATM    2  C4  UNL     1      -6.036   2.241  11.754  1.00  0.00     0.020 A 
HETATM    3  C5  UNL     1      -4.805   1.826  11.240  1.00  0.00     0.031 A 
HETATM    4  C6  UNL     1      -3.700   2.591  11.549  1.00  0.00     0.046 A 
HETATM    5  C7  UNL     1      -3.772   3.742  12.341  1.00  0.00     0.007 A 
HETATM    6  C8  UNL     1      -4.990   4.159  12.858  1.00  0.00     0.032 A 
HETATM    7  C9  UNL     1      -2.394   4.272  12.433  1.00  0.00     0.047 A 
HETATM    8  C10 UNL     1      -2.089   5.398  13.102  1.00  0.00     0.048 C 
HETATM    9  C24 UNL     1      -1.528   3.318  11.643  1.00  0.00     0.257 A 
HETATM   10  O3  UNL     1      -0.325   3.354  11.467  1.00  0.00    -0.267 OA
HETATM   11  N4  UNL     1      -2.392   2.356  11.149  1.00  0.00    -0.322 N 
HETATM   12  H30 UNL     1      -2.077   1.587  10.574  1.00  0.00     0.169 HD
ENDROOT
BRANCH   8  13
HETATM   13  C11 UNL     1      -0.832   6.047  13.272  1.00  0.00     0.040 A 
HETATM   14  N2  UNL     1      -0.203   6.113  14.495  1.00  0.00    -0.359 N 
HETATM   15  C12 UNL     1       0.972   6.797  14.379  1.00  0.00     0.016 A 
HETATM   16  H9  UNL     1      -0.547   5.707  15.361  1.00  0.00     0.166 HD
HETATM   17  C13 UNL     1       1.123   7.188  13.069  1.00  0.00    -0.027 A 
HETATM   18  C23 UNL     1       1.903   7.082  15.503  1.00  0.00     0.057 C 
HETATM   19  C14 UNL     1      -0.014   6.710  12.353  1.00  0.00    -0.023 A 
HETATM   20  C20 UNL     1       2.324   7.941  12.599  1.00  0.00     0.041 C 
HETATM   21  C21 UNL     1       3.106   8.541  13.784  1.00  0.00     0.005 C 
HETATM   22  C22 UNL     1       3.263   7.540  14.944  1.00  0.00     0.006 C 
BRANCH  19  23
HETATM   23  C15 UNL     1      -0.254   6.898  10.882  1.00  0.00     0.043 C 
BRANCH  23  24
HETATM   24  C16 UNL     1       1.004   6.711  10.025  1.00  0.00     0.035 C 
BRANCH  24  25
HETATM   25  C17 UNL     1       1.013   7.608   8.779  1.00  0.00     0.271 C 
BRANCH  25  26
HETATM   26  N3  UNL     1       2.192   7.382   7.921  1.00  0.00     0.080 N 
HETATM   27  C18 UNL     1       1.817   7.204   6.515  1.00  0.00     0.309 C 
HETATM   28  C19 UNL     1       3.116   8.515   8.039  1.00  0.00     0.309 C 
ENDBRANCH  25  26
ENDBRANCH  24  25
ENDBRANCH  23  24
ENDBRANCH  19  23
ENDBRANCH   8  13
BRANCH   1  29
HETATM   29  C2  UNL     1      -7.485   3.765  13.075  1.00  0.00     0.310 C 
HETATM   30  O2  UNL     1      -8.506   3.145  12.811  1.00  0.00    -0.258 OA
BRANCH  29  31
HETATM   31  O1  UNL     1      -7.410   4.862  13.893  1.00  0.00    -0.223 OA
BRANCH  31  32
HETATM   32  N1  UNL     1      -7.824   4.548  15.269  1.00  0.00    -0.201 NA
HETATM   33  C1  UNL     1      -7.190   5.570  16.093  1.00  0.00     0.141 C 
HETATM   34  H4  UNL     1      -7.365   3.643  15.446  1.00  0.00     0.153 HD
ENDBRANCH  31  32
ENDBRANCH  29  31
ENDBRANCH   1  29
TORSDOF 8
ENDMDL
MODEL 8
REMARK minimizedAffinity -8.1262579
REMARK  8 active torsions:
REMARK  status: ('A' for Active; 'I' for Inactive)
REMARK    1  A    between atoms: N1_2  and  O1_3 
REMARK    2  A    between atoms: O1_3  and  C2_4 
REMARK    3  A    between atoms: C2_4  and  C3_6 
REMARK    4  A    between atoms: C10_13  and  C11_14 
REMARK    5  A    between atoms: C14_18  and  C15_19 
REMARK    6  A    between atoms: C15_19  and  C16_20 
REMARK    7  A    between atoms: C16_20  and  C17_21 
REMARK    8  A    between atoms: C17_21  and  N3_22 
ROOT
HETATM    1  C3  UNL     1      -5.844   3.067  12.210  1.00  0.00     0.042 A 
HETATM    2  C4  UNL     1      -7.211   2.920  12.549  1.00  0.00     0.020 A 
HETATM    3  C5  UNL     1      -7.894   3.925  13.239  1.00  0.00     0.031 A 
HETATM    4  C6  UNL     1      -7.182   5.057  13.577  1.00  0.00     0.046 A 
HETATM    5  C7  UNL     1      -5.829   5.224  13.262  1.00  0.00     0.007 A 
HETATM    6  C8  UNL     1      -5.144   4.232  12.576  1.00  0.00     0.032 A 
HETATM    7  C9  UNL     1      -5.437   6.547  13.795  1.00  0.00     0.047 A 
HETATM    8  C10 UNL     1      -4.187   7.031  13.696  1.00  0.00     0.048 C 
HETATM    9  C24 UNL     1      -6.683   7.127  14.424  1.00  0.00     0.257 A 
HETATM   10  O3  UNL     1      -6.827   8.207  14.965  1.00  0.00    -0.267 OA
HETATM   11  N4  UNL     1      -7.666   6.167  14.253  1.00  0.00    -0.322 N 
HETATM   12  H30 UNL     1      -8.611   6.293  14.587  1.00  0.00     0.169 HD
ENDROOT
BRANCH   8  13
HETATM   13  C11 UNL     1      -3.646   8.263  14.164  1.00  0.00     0.040 A 
HETATM   14  N2  UNL     1      -4.044   8.832  15.354  1.00  0.00    -0.359 N 
HETATM   15  C12 UNL     1      -3.381  10.008  15.553  1.00  0.00     0.016 A 
HETATM   16  H9  UNL     1      -4.721   8.439  16.002  1.00  0.00     0.166 HD
HETATM   17  C13 UNL     1      -2.538  10.222  14.488  1.00  0.00    -0.027 A 
HETATM   18  C23 UNL     1      -3.577  10.906  16.723  1.00  0.00     0.057 C 
HETATM   19  C14 UNL     1      -2.691   9.115  13.601  1.00  0.00    -0.023 A 
HETATM   20  C20 UNL     1      -1.647  11.417  14.408  1.00  0.00     0.041 C 
HETATM   21  C21 UNL     1      -2.083  12.507  15.406  1.00  0.00     0.005 C 
HETATM   22  C22 UNL     1      -2.425  11.925  16.791  1.00  0.00     0.006 C 
BRANCH  19  23
HETATM   23  C15 UNL     1      -1.945   8.928  12.311  1.00  0.00     0.043 C 
BRANCH  23  24
HETATM   24  C16 UNL     1      -0.564   8.285  12.488  1.00  0.00     0.035 C 
BRANCH  24  25
HETATM   25  C17 UNL     1       0.368   8.539  11.294  1.00  0.00     0.271 C 
BRANCH  25  26
HETATM   26  N3  UNL     1       0.086   7.655  10.148  1.00  0.00     0.080 N 
HETATM   27  C18 UNL     1       0.045   8.396   8.885  1.00  0.00     0.309 C 
HETATM   28  C19 UNL     1       1.107   6.606  10.067  1.00  0.00     0.309 C 
ENDBRANCH  25  26
ENDBRANCH  24  25
ENDBRANCH  23  24
ENDBRANCH  19  23
ENDBRANCH   8  13
BRANCH   1  29
HETATM   29  C2  UNL     1      -5.194   1.950  11.472  1.00  0.00     0.310 C 
HETATM   30  O2  UNL     1      -5.787   0.953  11.083  1.00  0.00    -0.258 OA
BRANCH  29  31
HETATM   31  O1  UNL     1      -3.865   2.213  11.270  1.00  0.00    -0.223 OA
BRANCH  31  32
HETATM   32  N1  UNL     1      -3.045   0.996  11.369  1.00  0.00    -0.201 NA
HETATM   33  C1  UNL     1      -1.703   1.415  10.985  1.00  0.00     0.141 C 
HETATM   34  H4  UNL     1      -3.434   0.396  10.627  1.00  0.00     0.153 HD
ENDBRANCH  31  32
ENDBRANCH  29  31
ENDBRANCH   1  29
TORSDOF 8
ENDMDL
MODEL 9
REMARK minimizedAffinity -8.05516911
REMARK  8 active torsions:
REMARK  status: ('A' for Active; 'I' for Inactive)
REMARK    1  A    between atoms: N1_2  and  O1_3 
REMARK    2  A    between atoms: O1_3  and  C2_4 
REMARK    3  A    between atoms: C2_4  and  C3_6 
REMARK    4  A    between atoms: C10_13  and  C11_14 
REMARK    5  A    between atoms: C14_18  and  C15_19 
REMARK    6  A    between atoms: C15_19  and  C16_20 
REMARK    7  A    between atoms: C16_20  and  C17_21 
REMARK    8  A    between atoms: C17_21  and  N3_22 
ROOT
HETATM    1  C3  UNL     1       2.320   6.871  11.656  1.00  0.00     0.042 A 
HETATM    2  C4  UNL     1       3.039   7.448  12.730  1.00  0.00     0.020 A 
HETATM    3  C5  UNL     1       2.411   7.734  13.945  1.00  0.00     0.031 A 
HETATM    4  C6  UNL     1       1.068   7.437  14.049  1.00  0.00     0.046 A 
HETATM    5  C7  UNL     1       0.332   6.876  13.000  1.00  0.00     0.007 A 
HETATM    6  C8  UNL     1       0.948   6.586  11.791  1.00  0.00     0.032 A 
HETATM    7  C9  UNL     1      -1.052   6.719  13.498  1.00  0.00     0.047 A 
HETATM    8  C10 UNL     1      -2.048   6.229  12.740  1.00  0.00     0.048 C 
HETATM    9  C24 UNL     1      -1.040   7.222  14.924  1.00  0.00     0.257 A 
HETATM   10  O3  UNL     1      -1.957   7.260  15.722  1.00  0.00    -0.267 OA
HETATM   11  N4  UNL     1       0.260   7.635  15.159  1.00  0.00    -0.322 N 
HETATM   12  H30 UNL     1       0.554   8.025  16.044  1.00  0.00     0.169 HD
ENDROOT
BRANCH   8  13
HETATM   13  C11 UNL     1      -3.423   6.031  13.057  1.00  0.00     0.040 A 
HETATM   14  N2  UNL     1      -4.217   7.049  13.538  1.00  0.00    -0.359 N 
HETATM   15  C12 UNL     1      -5.479   6.586  13.769  1.00  0.00     0.016 A 
HETATM   16  H9  UNL     1      -3.922   8.009  13.692  1.00  0.00     0.166 HD
HETATM   17  C13 UNL     1      -5.524   5.251  13.440  1.00  0.00    -0.027 A 
HETATM   18  C23 UNL     1      -6.598   7.402  14.314  1.00  0.00     0.057 C 
HETATM   19  C14 UNL     1      -4.224   4.887  12.978  1.00  0.00    -0.023 A 
HETATM   20  C20 UNL     1      -6.776   4.446  13.555  1.00  0.00     0.041 C 
HETATM   21  C21 UNL     1      -7.823   5.162  14.431  1.00  0.00     0.005 C 
HETATM   22  C22 UNL     1      -7.930   6.663  14.098  1.00  0.00     0.006 C 
BRANCH  19  23
HETATM   23  C15 UNL     1      -3.825   3.522  12.498  1.00  0.00     0.043 C 
BRANCH  23  24
HETATM   24  C16 UNL     1      -3.719   3.414  10.972  1.00  0.00     0.035 C 
BRANCH  24  25
HETATM   25  C17 UNL     1      -2.269   3.286  10.484  1.00  0.00     0.271 C 
BRANCH  25  26
HETATM   26  N3  UNL     1      -1.438   2.451  11.371  1.00  0.00     0.080 N 
HETATM   27  C18 UNL     1      -1.137   1.149  10.770  1.00  0.00     0.309 C 
HETATM   28  C19 UNL     1      -0.185   3.148  11.679  1.00  0.00     0.309 C 
ENDBRANCH  25  26
ENDBRANCH  24  25
ENDBRANCH  23  24
ENDBRANCH  19  23
ENDBRANCH   8  13
BRANCH   1  29
HETATM   29  C2  UNL     1       3.066   6.594  10.398  1.00  0.00     0.310 C 
HETATM   30  O2  UNL     1       3.580   7.461   9.705  1.00  0.00    -0.258 OA
BRANCH  29  31
HETATM   31  O1  UNL     1       3.118   5.247  10.153  1.00  0.00    -0.223 OA
BRANCH  31  32
HETATM   32  N1  UNL     1       4.476   4.807   9.799  1.00  0.00    -0.201 NA
HETATM   33  C1  UNL     1       4.285   3.592   9.016  1.00  0.00     0.141 C 
HETATM   34  H4  UNL     1       4.882   4.556  10.712  1.00  0.00     0.153 HD
ENDBRANCH  31  32
ENDBRANCH  29  31
ENDBRANCH   1  29
TORSDOF 8
ENDMDL
