MODEL 1
REMARK minimizedAffinity -8.70098877
REMARK  8 active torsions:
REMARK  status: ('A' for Active; 'I' for Inactive)
REMARK    1  A    between atoms: O1_2  and  C2_3 
REMARK    2  A    between atoms: C5_6  and  N1_7 
REMARK    3  A    between atoms: N1_7  and  C6_8 
REMARK    4  A    between atoms: C17_24  and  O2_25 
REMARK    5  A    between atoms: O2_25  and  C18_26 
REMARK    6  A    between atoms: C18_26  and  C19_27 
REMARK    7  A    between atoms: C19_27  and  C20_28 
REMARK    8  A    between atoms: C20_28  and  N5_29 
ROOT
HETATM    1  C2  UNL     1      -1.922  50.563 -21.326  1.00  0.00     0.102 A 
HETATM    2  C3  UNL     1      -1.322  51.355 -20.344  1.00  0.00     0.057 A 
HETATM    3  C4  UNL     1      -0.313  52.300 -20.676  1.00  0.00     0.038 A 
HETATM    4  C5  UNL     1       0.350  53.145 -19.755  1.00  0.00     0.119 A 
HETATM    5  N3  UNL     1       1.254  54.057 -20.157  1.00  0.00    -0.338 N 
ATOM      6  H3  UNL     1       1.700  54.694 -19.497  1.00  0.00     0.168 HD
HETATM    7  C14 UNL     1       1.540  54.090 -21.464  1.00  0.00     0.182 A 
HETATM    8  N4  UNL     1       0.994  53.323 -22.410  1.00  0.00    -0.351 N 
ATOM      9  H4  UNL     1       1.269  53.405 -23.389  1.00  0.00     0.166 HD
HETATM   10  C15 UNL     1       0.072  52.444 -22.014  1.00  0.00     0.050 A 
HETATM   11  C16 UNL     1      -0.528  51.647 -22.980  1.00  0.00     0.070 A 
HETATM   12  C17 UNL     1      -1.515  50.706 -22.661  1.00  0.00     0.104 A 
ENDROOT
BRANCH   4  13
HETATM   13  N1  UNL     1       0.051  52.987 -18.372  1.00  0.00    -0.340 N 
HETATM   14  H5  UNL     1      -0.963  52.953 -18.287  1.00  0.00     0.167 HD
BRANCH  13  15
HETATM   15  C6  UNL     1       0.621  52.162 -17.364  1.00  0.00     0.061 A 
HETATM   16  C7  UNL     1      -0.190  51.122 -16.848  1.00  0.00     0.032 A 
HETATM   17  C8  UNL     1       0.225  50.277 -15.819  1.00  0.00     0.003 A 
HETATM   18  C9  UNL     1       1.473  50.452 -15.226  1.00  0.00     0.014 A 
HETATM   19  C10 UNL     1       2.300  51.498 -15.670  1.00  0.00    -0.006 A 
HETATM   20  C11 UNL     1       3.587  51.960 -15.270  1.00  0.00     0.030 A 
HETATM   21  C13 UNL     1       1.858  52.321 -16.713  1.00  0.00     0.069 A 
HETATM   22  C12 UNL     1       3.906  53.040 -16.058  1.00  0.00     0.089 A 
HETATM   23  N2  UNL     1       2.860  53.243 -16.915  1.00  0.00    -0.363 N 
HETATM   24  H11 UNL     1       2.811  53.943 -17.645  1.00  0.00     0.165 HD
ENDBRANCH  13  15
ENDBRANCH   4  13
BRANCH   1  25
HETATM   25  O1  UNL     1      -2.900  49.631 -21.088  1.00  0.00    -0.353 OA
HETATM   26  C1  UNL     1      -4.228  50.095 -20.888  1.00  0.00     0.210 C 
ENDBRANCH   1  25
BRANCH  12  27
HETATM   27  O2  UNL     1      -2.160  49.916 -23.579  1.00  0.00    -0.348 OA
BRANCH  27  28
HETATM   28  C18 UNL     1      -2.745  50.523 -24.733  1.00  0.00     0.177 C 
BRANCH  28  29
HETATM   29  C19 UNL     1      -2.371  49.750 -25.994  1.00  0.00     0.046 C 
BRANCH  29  30
HETATM   30  C20 UNL     1      -2.090  50.636 -27.214  1.00  0.00     0.119 C 
BRANCH  30  31
HETATM   31  N5  UNL     1      -0.831  51.367 -27.275  1.00  0.00    -0.408 N 
HETATM   32  C21 UNL     1      -0.889  52.830 -27.193  1.00  0.00     0.143 C 
HETATM   33  C22 UNL     1       0.046  53.418 -26.118  1.00  0.00     0.187 C 
HETATM   34  O3  UNL     1       1.409  53.001 -26.256  1.00  0.00    -0.388 OA
HETATM   35  C23 UNL     1       1.549  51.649 -26.720  1.00  0.00     0.187 C 
HETATM   36  C24 UNL     1       0.287  50.789 -26.525  1.00  0.00     0.143 C 
ENDBRANCH  30  31
ENDBRANCH  29  30
ENDBRANCH  28  29
ENDBRANCH  27  28
ENDBRANCH  12  27
TORSDOF 8
ENDMDL
MODEL 2
REMARK minimizedAffinity -8.64769459
REMARK  8 active torsions:
REMARK  status: ('A' for Active; 'I' for Inactive)
REMARK    1  A    between atoms: O1_2  and  C2_3 
REMARK    2  A    between atoms: C5_6  and  N1_7 
REMARK    3  A    between atoms: N1_7  and  C6_8 
REMARK    4  A    between atoms: C17_24  and  O2_25 
REMARK    5  A    between atoms: O2_25  and  C18_26 
REMARK    6  A    between atoms: C18_26  and  C19_27 
REMARK    7  A    between atoms: C19_27  and  C20_28 
REMARK    8  A    between atoms: C20_28  and  N5_29 
ROOT
HETATM    1  C2  UNL     1      -1.472  50.088 -21.005  1.00  0.00     0.102 A 
HETATM    2  C3  UNL     1      -0.886  50.824 -19.972  1.00  0.00     0.057 A 
HETATM    3  C4  UNL     1      -0.063  51.949 -20.245  1.00  0.00     0.038 A 
HETATM    4  C5  UNL     1       0.571  52.755 -19.269  1.00  0.00     0.119 A 
HETATM    5  N3  UNL     1       1.288  53.843 -19.607  1.00  0.00    -0.338 N 
ATOM      6  H3  UNL     1       1.709  54.446 -18.900  1.00  0.00     0.168 HD
HETATM    7  C14 UNL     1       1.422  54.096 -20.915  1.00  0.00     0.182 A 
HETATM    8  N4  UNL     1       0.891  53.389 -21.914  1.00  0.00    -0.351 N 
ATOM      9  H4  UNL     1       1.043  53.644 -22.889  1.00  0.00     0.166 HD
HETATM   10  C15 UNL     1       0.150  52.332 -21.575  1.00  0.00     0.050 A 
HETATM   11  C16 UNL     1      -0.433  51.589 -22.593  1.00  0.00     0.070 A 
HETATM   12  C17 UNL     1      -1.236  50.473 -22.334  1.00  0.00     0.104 A 
ENDROOT
BRANCH   4  13
HETATM   13  N1  UNL     1       0.449  52.367 -17.905  1.00  0.00    -0.340 N 
HETATM   14  H5  UNL     1      -0.223  51.604 -17.869  1.00  0.00     0.167 HD
BRANCH  13  15
HETATM   15  C6  UNL     1       1.418  52.169 -16.883  1.00  0.00     0.061 A 
HETATM   16  C7  UNL     1       2.673  52.803 -17.052  1.00  0.00     0.032 A 
HETATM   17  C8  UNL     1       3.729  52.646 -16.155  1.00  0.00     0.003 A 
HETATM   18  C9  UNL     1       3.592  51.813 -15.047  1.00  0.00     0.014 A 
HETATM   19  C10 UNL     1       2.382  51.124 -14.855  1.00  0.00    -0.006 A 
HETATM   20  C11 UNL     1       1.934  50.197 -13.872  1.00  0.00     0.030 A 
HETATM   21  C13 UNL     1       1.338  51.313 -15.769  1.00  0.00     0.069 A 
HETATM   22  C12 UNL     1       0.646  49.837 -14.193  1.00  0.00     0.089 A 
HETATM   23  N2  UNL     1       0.306  50.513 -15.331  1.00  0.00    -0.363 N 
HETATM   24  H11 UNL     1      -0.592  50.487 -15.797  1.00  0.00     0.165 HD
ENDBRANCH  13  15
ENDBRANCH   4  13
BRANCH   1  25
HETATM   25  O1  UNL     1      -2.276  48.993 -20.825  1.00  0.00    -0.353 OA
HETATM   26  C1  UNL     1      -1.701  47.832 -20.241  1.00  0.00     0.210 C 
ENDBRANCH   1  25
BRANCH  12  27
HETATM   27  O2  UNL     1      -1.860  49.723 -23.300  1.00  0.00    -0.348 OA
BRANCH  27  28
HETATM   28  C18 UNL     1      -2.520  50.388 -24.380  1.00  0.00     0.177 C 
BRANCH  28  29
HETATM   29  C19 UNL     1      -2.257  49.663 -25.696  1.00  0.00     0.046 C 
BRANCH  29  30
HETATM   30  C20 UNL     1      -2.073  50.595 -26.901  1.00  0.00     0.119 C 
BRANCH  30  31
HETATM   31  N5  UNL     1      -0.834  51.352 -27.019  1.00  0.00    -0.408 N 
HETATM   32  C21 UNL     1      -0.899  52.802 -26.814  1.00  0.00     0.143 C 
HETATM   33  C22 UNL     1       0.126  53.320 -25.787  1.00  0.00     0.187 C 
HETATM   34  O3  UNL     1       1.475  52.941 -26.084  1.00  0.00    -0.388 OA
HETATM   35  C23 UNL     1       1.585  51.632 -26.666  1.00  0.00     0.187 C 
HETATM   36  C24 UNL     1       0.357  50.737 -26.425  1.00  0.00     0.143 C 
ENDBRANCH  30  31
ENDBRANCH  29  30
ENDBRANCH  28  29
ENDBRANCH  27  28
ENDBRANCH  12  27
TORSDOF 8
ENDMDL
MODEL 3
REMARK minimizedAffinity -8.30368519
REMARK  8 active torsions:
REMARK  status: ('A' for Active; 'I' for Inactive)
REMARK    1  A    between atoms: O1_2  and  C2_3 
REMARK    2  A    between atoms: C5_6  and  N1_7 
REMARK    3  A    between atoms: N1_7  and  C6_8 
REMARK    4  A    between atoms: C17_24  and  O2_25 
REMARK    5  A    between atoms: O2_25  and  C18_26 
REMARK    6  A    between atoms: C18_26  and  C19_27 
REMARK    7  A    between atoms: C19_27  and  C20_28 
REMARK    8  A    between atoms: C20_28  and  N5_29 
ROOT
HETATM    1  C2  UNL     1      -2.026  49.980 -26.137  1.00  0.00     0.102 A 
HETATM    2  C3  UNL     1      -1.184  50.723 -25.306  1.00  0.00     0.057 A 
HETATM    3  C4  UNL     1      -0.720  52.010 -25.690  1.00  0.00     0.038 A 
HETATM    4  C5  UNL     1       0.132  52.836 -24.919  1.00  0.00     0.119 A 
HETATM    5  N3  UNL     1       0.479  54.070 -25.327  1.00  0.00    -0.338 N 
ATOM      6  H3  UNL     1       1.059  54.680 -24.751  1.00  0.00     0.168 HD
HETATM    7  C14 UNL     1       0.027  54.461 -26.524  1.00  0.00     0.182 A 
HETATM    8  N4  UNL     1      -0.758  53.754 -27.340  1.00  0.00    -0.351 N 
ATOM      9  H4  UNL     1      -1.059  54.120 -28.243  1.00  0.00     0.166 HD
HETATM   10  C15 UNL     1      -1.130  52.544 -26.917  1.00  0.00     0.050 A 
HETATM   11  C16 UNL     1      -1.963  51.794 -27.736  1.00  0.00     0.070 A 
HETATM   12  C17 UNL     1      -2.416  50.521 -27.372  1.00  0.00     0.104 A 
ENDROOT
BRANCH   4  13
HETATM   13  N1  UNL     1       0.640  52.311 -23.697  1.00  0.00    -0.340 N 
HETATM   14  H5  UNL     1       1.647  52.215 -23.808  1.00  0.00     0.167 HD
BRANCH  13  15
HETATM   15  C6  UNL     1       0.359  52.624 -22.338  1.00  0.00     0.061 A 
HETATM   16  C7  UNL     1       1.191  53.584 -21.713  1.00  0.00     0.032 A 
HETATM   17  C8  UNL     1       1.061  53.942 -20.371  1.00  0.00     0.003 A 
HETATM   18  C9  UNL     1       0.103  53.326 -19.569  1.00  0.00     0.014 A 
HETATM   19  C10 UNL     1      -0.720  52.333 -20.129  1.00  0.00    -0.006 A 
HETATM   20  C11 UNL     1      -1.751  51.508 -19.596  1.00  0.00     0.030 A 
HETATM   21  C13 UNL     1      -0.571  52.007 -21.482  1.00  0.00     0.069 A 
HETATM   22  C12 UNL     1      -2.208  50.701 -20.611  1.00  0.00     0.089 A 
HETATM   23  N2  UNL     1      -1.490  51.012 -21.732  1.00  0.00    -0.363 N 
HETATM   24  H11 UNL     1      -1.619  50.616 -22.655  1.00  0.00     0.165 HD
ENDBRANCH  13  15
ENDBRANCH   4  13
BRANCH   1  25
HETATM   25  O1  UNL     1      -2.516  48.734 -25.840  1.00  0.00    -0.353 OA
HETATM   26  C1  UNL     1      -2.962  48.492 -24.513  1.00  0.00     0.210 C 
ENDBRANCH   1  25
BRANCH  12  27
HETATM   27  O2  UNL     1      -3.264  49.751 -28.129  1.00  0.00    -0.348 OA
BRANCH  27  28
HETATM   28  C18 UNL     1      -4.333  49.054 -27.486  1.00  0.00     0.177 C 
BRANCH  28  29
HETATM   29  C19 UNL     1      -5.017  48.103 -28.464  1.00  0.00     0.046 C 
BRANCH  29  30
HETATM   30  C20 UNL     1      -6.413  47.645 -28.022  1.00  0.00     0.119 C 
BRANCH  30  31
HETATM   31  N5  UNL     1      -7.456  47.502 -29.029  1.00  0.00    -0.408 N 
HETATM   32  C21 UNL     1      -8.493  48.538 -29.087  1.00  0.00     0.143 C 
HETATM   33  C22 UNL     1      -8.689  49.127 -30.498  1.00  0.00     0.187 C 
HETATM   34  O3  UNL     1      -8.947  48.137 -31.500  1.00  0.00    -0.388 OA
HETATM   35  C23 UNL     1      -8.232  46.909 -31.287  1.00  0.00     0.187 C 
HETATM   36  C24 UNL     1      -7.017  47.049 -30.352  1.00  0.00     0.143 C 
ENDBRANCH  30  31
ENDBRANCH  29  30
ENDBRANCH  28  29
ENDBRANCH  27  28
ENDBRANCH  12  27
TORSDOF 8
ENDMDL
MODEL 4
REMARK minimizedAffinity -8.28473282
REMARK  8 active torsions:
REMARK  status: ('A' for Active; 'I' for Inactive)
REMARK    1  A    between atoms: O1_2  and  C2_3 
REMARK    2  A    between atoms: C5_6  and  N1_7 
REMARK    3  A    between atoms: N1_7  and  C6_8 
REMARK    4  A    between atoms: C17_24  and  O2_25 
REMARK    5  A    between atoms: O2_25  and  C18_26 
REMARK    6  A    between atoms: C18_26  and  C19_27 
REMARK    7  A    between atoms: C19_27  and  C20_28 
REMARK    8  A    between atoms: C20_28  and  N5_29 
ROOT
HETATM    1  C2  UNL     1      -1.233  49.755 -19.447  1.00  0.00     0.102 A 
HETATM    2  C3  UNL     1      -0.599  50.812 -18.790  1.00  0.00     0.057 A 
HETATM    3  C4  UNL     1       0.122  51.801 -19.512  1.00  0.00     0.038 A 
HETATM    4  C5  UNL     1       0.793  52.906 -18.938  1.00  0.00     0.119 A 
HETATM    5  N3  UNL     1       1.404  53.835 -19.697  1.00  0.00    -0.338 N 
ATOM      6  H3  UNL     1       1.852  54.652 -19.283  1.00  0.00     0.168 HD
HETATM    7  C14 UNL     1       1.397  53.634 -21.020  1.00  0.00     0.182 A 
HETATM    8  N4  UNL     1       0.818  52.617 -21.661  1.00  0.00    -0.351 N 
ATOM      9  H4  UNL     1       0.860  52.531 -22.676  1.00  0.00     0.166 HD
HETATM   10  C15 UNL     1       0.181  51.717 -20.909  1.00  0.00     0.050 A 
HETATM   11  C16 UNL     1      -0.448  50.658 -21.550  1.00  0.00     0.070 A 
HETATM   12  C17 UNL     1      -1.151  49.673 -20.846  1.00  0.00     0.104 A 
ENDROOT
BRANCH   4  13
HETATM   13  N1  UNL     1       0.827  53.000 -17.518  1.00  0.00    -0.340 N 
HETATM   14  H5  UNL     1      -0.120  52.835 -17.184  1.00  0.00     0.167 HD
BRANCH  13  15
HETATM   15  C6  UNL     1       1.743  52.496 -16.554  1.00  0.00     0.061 A 
HETATM   16  C7  UNL     1       3.091  52.914 -16.666  1.00  0.00     0.032 A 
HETATM   17  C8  UNL     1       4.101  52.453 -15.821  1.00  0.00     0.003 A 
HETATM   18  C9  UNL     1       3.816  51.515 -14.832  1.00  0.00     0.014 A 
HETATM   19  C10 UNL     1       2.501  51.032 -14.707  1.00  0.00    -0.006 A 
HETATM   20  C11 UNL     1       1.894  50.075 -13.845  1.00  0.00     0.030 A 
HETATM   21  C13 UNL     1       1.510  51.525 -15.563  1.00  0.00     0.069 A 
HETATM   22  C12 UNL     1       0.563  49.995 -14.182  1.00  0.00     0.089 A 
HETATM   23  N2  UNL     1       0.351  50.869 -15.213  1.00  0.00    -0.363 N 
HETATM   24  H11 UNL     1      -0.537  51.066 -15.657  1.00  0.00     0.165 HD
ENDBRANCH  13  15
ENDBRANCH   4  13
BRANCH   1  25
HETATM   25  O1  UNL     1      -1.946  48.763 -18.824  1.00  0.00    -0.353 OA
HETATM   26  C1  UNL     1      -2.705  49.109 -17.674  1.00  0.00     0.210 C 
ENDBRANCH   1  25
BRANCH  12  27
HETATM   27  O2  UNL     1      -1.815  48.624 -21.431  1.00  0.00    -0.348 OA
BRANCH  27  28
HETATM   28  C18 UNL     1      -3.137  48.830 -21.933  1.00  0.00     0.177 C 
BRANCH  28  29
HETATM   29  C19 UNL     1      -3.175  48.621 -23.444  1.00  0.00     0.046 C 
BRANCH  29  30
HETATM   30  C20 UNL     1      -2.756  49.850 -24.259  1.00  0.00     0.119 C 
BRANCH  30  31
HETATM   31  N5  UNL     1      -2.705  49.745 -25.711  1.00  0.00    -0.408 N 
HETATM   32  C21 UNL     1      -3.111  48.472 -26.316  1.00  0.00     0.143 C 
HETATM   33  C22 UNL     1      -4.168  48.633 -27.426  1.00  0.00     0.187 C 
HETATM   34  O3  UNL     1      -3.780  49.548 -28.457  1.00  0.00    -0.388 OA
HETATM   35  C23 UNL     1      -3.020  50.666 -27.971  1.00  0.00     0.187 C 
HETATM   36  C24 UNL     1      -3.172  50.915 -26.460  1.00  0.00     0.143 C 
ENDBRANCH  30  31
ENDBRANCH  29  30
ENDBRANCH  28  29
ENDBRANCH  27  28
ENDBRANCH  12  27
TORSDOF 8
ENDMDL
MODEL 5
REMARK minimizedAffinity -8.25239086
REMARK  8 active torsions:
REMARK  status: ('A' for Active; 'I' for Inactive)
REMARK    1  A    between atoms: O1_2  and  C2_3 
REMARK    2  A    between atoms: C5_6  and  N1_7 
REMARK    3  A    between atoms: N1_7  and  C6_8 
REMARK    4  A    between atoms: C17_24  and  O2_25 
REMARK    5  A    between atoms: O2_25  and  C18_26 
REMARK    6  A    between atoms: C18_26  and  C19_27 
REMARK    7  A    between atoms: C19_27  and  C20_28 
REMARK    8  A    between atoms: C20_28  and  N5_29 
ROOT
HETATM    1  C2  UNL     1      -3.868  48.844 -24.864  1.00  0.00     0.102 A 
HETATM    2  C3  UNL     1      -2.892  49.571 -24.179  1.00  0.00     0.057 A 
HETATM    3  C4  UNL     1      -1.869  50.268 -24.877  1.00  0.00     0.038 A 
HETATM    4  C5  UNL     1      -0.841  51.030 -24.273  1.00  0.00     0.119 A 
HETATM    5  N3  UNL     1       0.058  51.712 -25.007  1.00  0.00    -0.338 N 
ATOM      6  H3  UNL     1       0.773  52.294 -24.571  1.00  0.00     0.168 HD
HETATM    7  C14 UNL     1      -0.030  51.590 -26.338  1.00  0.00     0.182 A 
HETATM    8  N4  UNL     1      -0.941  50.879 -27.006  1.00  0.00    -0.351 N 
ATOM      9  H4  UNL     1      -0.940  50.832 -28.025  1.00  0.00     0.166 HD
HETATM   10  C15 UNL     1      -1.853  50.234 -26.276  1.00  0.00     0.050 A 
HETATM   11  C16 UNL     1      -2.826  49.503 -26.945  1.00  0.00     0.070 A 
HETATM   12  C17 UNL     1      -3.831  48.804 -26.266  1.00  0.00     0.104 A 
ENDROOT
BRANCH   4  13
HETATM   13  N1  UNL     1      -0.765  51.038 -22.852  1.00  0.00    -0.340 N 
HETATM   14  H5  UNL     1      -0.551  50.087 -22.559  1.00  0.00     0.167 HD
BRANCH  13  15
HETATM   15  C6  UNL     1      -0.161  51.944 -21.937  1.00  0.00     0.061 A 
HETATM   16  C7  UNL     1       0.592  53.009 -22.486  1.00  0.00     0.032 A 
HETATM   17  C8  UNL     1       1.282  53.934 -21.703  1.00  0.00     0.003 A 
HETATM   18  C9  UNL     1       1.279  53.820 -20.314  1.00  0.00     0.014 A 
HETATM   19  C10 UNL     1       0.583  52.753 -19.718  1.00  0.00    -0.006 A 
HETATM   20  C11 UNL     1       0.408  52.339 -18.367  1.00  0.00     0.030 A 
HETATM   21  C13 UNL     1      -0.107  51.850 -20.534  1.00  0.00     0.069 A 
HETATM   22  C12 UNL     1      -0.371  51.206 -18.375  1.00  0.00     0.089 A 
HETATM   23  N2  UNL     1      -0.670  50.927 -19.680  1.00  0.00    -0.363 N 
HETATM   24  H11 UNL     1      -1.260  50.174 -20.011  1.00  0.00     0.165 HD
ENDBRANCH  13  15
ENDBRANCH   4  13
BRANCH   1  25
HETATM   25  O1  UNL     1      -4.886  48.146 -24.265  1.00  0.00    -0.353 OA
HETATM   26  C1  UNL     1      -6.046  48.865 -23.872  1.00  0.00     0.210 C 
ENDBRANCH   1  25
BRANCH  12  27
HETATM   27  O2  UNL     1      -4.832  48.092 -26.878  1.00  0.00    -0.348 OA
BRANCH  27  28
HETATM   28  C18 UNL     1      -4.958  48.149 -28.301  1.00  0.00     0.177 C 
BRANCH  28  29
HETATM   29  C19 UNL     1      -6.386  47.824 -28.726  1.00  0.00     0.046 C 
BRANCH  29  30
HETATM   30  C20 UNL     1      -6.676  48.089 -30.209  1.00  0.00     0.119 C 
BRANCH  30  31
HETATM   31  N5  UNL     1      -6.373  47.046 -31.180  1.00  0.00    -0.408 N 
HETATM   32  C21 UNL     1      -5.216  47.248 -32.058  1.00  0.00     0.143 C 
HETATM   33  C22 UNL     1      -4.237  46.058 -32.061  1.00  0.00     0.187 C 
HETATM   34  O3  UNL     1      -4.860  44.807 -32.374  1.00  0.00    -0.388 OA
HETATM   35  C23 UNL     1      -6.192  44.686 -31.852  1.00  0.00     0.187 C 
HETATM   36  C24 UNL     1      -6.505  45.665 -30.707  1.00  0.00     0.143 C 
ENDBRANCH  30  31
ENDBRANCH  29  30
ENDBRANCH  28  29
ENDBRANCH  27  28
ENDBRANCH  12  27
TORSDOF 8
ENDMDL
MODEL 6
REMARK minimizedAffinity -8.17550278
REMARK  8 active torsions:
REMARK  status: ('A' for Active; 'I' for Inactive)
REMARK    1  A    between atoms: O1_2  and  C2_3 
REMARK    2  A    between atoms: C5_6  and  N1_7 
REMARK    3  A    between atoms: N1_7  and  C6_8 
REMARK    4  A    between atoms: C17_24  and  O2_25 
REMARK    5  A    between atoms: O2_25  and  C18_26 
REMARK    6  A    between atoms: C18_26  and  C19_27 
REMARK    7  A    between atoms: C19_27  and  C20_28 
REMARK    8  A    between atoms: C20_28  and  N5_29 
ROOT
HETATM    1  C2  UNL     1      -0.510  50.506 -19.189  1.00  0.00     0.102 A 
HETATM    2  C3  UNL     1      -0.362  50.821 -20.541  1.00  0.00     0.057 A 
HETATM    3  C4  UNL     1       0.236  52.044 -20.951  1.00  0.00     0.038 A 
HETATM    4  C5  UNL     1       0.430  52.450 -22.292  1.00  0.00     0.119 A 
HETATM    5  N3  UNL     1       1.060  53.599 -22.598  1.00  0.00    -0.338 N 
ATOM      6  H3  UNL     1       1.236  53.871 -23.566  1.00  0.00     0.168 HD
HETATM    7  C14 UNL     1       1.446  54.369 -21.574  1.00  0.00     0.182 A 
HETATM    8  N4  UNL     1       1.290  54.094 -20.277  1.00  0.00    -0.351 N 
ATOM      9  H4  UNL     1       1.609  54.736 -19.552  1.00  0.00     0.166 HD
HETATM   10  C15 UNL     1       0.697  52.937 -19.976  1.00  0.00     0.050 A 
HETATM   11  C16 UNL     1       0.540  52.614 -18.635  1.00  0.00     0.070 A 
HETATM   12  C17 UNL     1      -0.058  51.417 -18.222  1.00  0.00     0.104 A 
ENDROOT
BRANCH   4  13
HETATM   13  N1  UNL     1      -0.087  51.615 -23.322  1.00  0.00    -0.340 N 
HETATM   14  H5  UNL     1      -0.883  51.116 -22.931  1.00  0.00     0.167 HD
BRANCH  13  15
HETATM   15  C6  UNL     1      -0.331  51.849 -24.703  1.00  0.00     0.061 A 
HETATM   16  C7  UNL     1      -1.677  52.037 -25.098  1.00  0.00     0.032 A 
HETATM   17  C8  UNL     1      -2.060  52.218 -26.427  1.00  0.00     0.003 A 
HETATM   18  C9  UNL     1      -1.108  52.189 -27.443  1.00  0.00     0.014 A 
HETATM   19  C10 UNL     1       0.239  51.961 -27.110  1.00  0.00    -0.006 A 
HETATM   20  C11 UNL     1       1.427  51.843 -27.886  1.00  0.00     0.030 A 
HETATM   21  C13 UNL     1       0.591  51.794 -25.766  1.00  0.00     0.069 A 
HETATM   22  C12 UNL     1       2.470  51.608 -27.021  1.00  0.00     0.089 A 
HETATM   23  N2  UNL     1       1.951  51.581 -25.756  1.00  0.00    -0.363 N 
HETATM   24  H11 UNL     1       2.473  51.464 -24.897  1.00  0.00     0.165 HD
ENDBRANCH  13  15
ENDBRANCH   4  13
BRANCH   1  25
HETATM   25  O1  UNL     1      -1.075  49.350 -18.713  1.00  0.00    -0.353 OA
HETATM   26  C1  UNL     1      -2.484  49.206 -18.816  1.00  0.00     0.210 C 
ENDBRANCH   1  25
BRANCH  12  27
HETATM   27  O2  UNL     1      -0.211  51.036 -16.912  1.00  0.00    -0.348 OA
BRANCH  27  28
HETATM   28  C18 UNL     1       0.929  51.035 -16.049  1.00  0.00     0.177 C 
BRANCH  28  29
HETATM   29  C19 UNL     1       0.656  51.867 -14.800  1.00  0.00     0.046 C 
BRANCH  29  30
HETATM   30  C20 UNL     1      -0.440  51.295 -13.892  1.00  0.00     0.119 C 
BRANCH  30  31
HETATM   31  N5  UNL     1      -1.213  52.211 -13.063  1.00  0.00    -0.408 N 
HETATM   32  C21 UNL     1      -2.669  52.218 -13.232  1.00  0.00     0.143 C 
HETATM   33  C22 UNL     1      -3.439  52.054 -11.907  1.00  0.00     0.187 C 
HETATM   34  O3  UNL     1      -3.070  53.012 -10.909  1.00  0.00    -0.388 OA
HETATM   35  C23 UNL     1      -1.675  53.355 -10.934  1.00  0.00     0.187 C 
HETATM   36  C24 UNL     1      -0.793  52.326 -11.664  1.00  0.00     0.143 C 
ENDBRANCH  30  31
ENDBRANCH  29  30
ENDBRANCH  28  29
ENDBRANCH  27  28
ENDBRANCH  12  27
TORSDOF 8
ENDMDL
MODEL 7
REMARK minimizedAffinity -8.15531921
REMARK  8 active torsions:
REMARK  status: ('A' for Active; 'I' for Inactive)
REMARK    1  A    between atoms: O1_2  and  C2_3 
REMARK    2  A    between atoms: C5_6  and  N1_7 
REMARK    3  A    between atoms: N1_7  and  C6_8 
REMARK    4  A    between atoms: C17_24  and  O2_25 
REMARK    5  A    between atoms: O2_25  and  C18_26 
REMARK    6  A    between atoms: C18_26  and  C19_27 
REMARK    7  A    between atoms: C19_27  and  C20_28 
REMARK    8  A    between atoms: C20_28  and  N5_29 
ROOT
HETATM    1  C2  UNL     1      -1.445  50.488 -22.999  1.00  0.00     0.102 A 
HETATM    2  C3  UNL     1      -1.878  49.986 -24.228  1.00  0.00     0.057 A 
HETATM    3  C4  UNL     1      -1.989  50.826 -25.369  1.00  0.00     0.038 A 
HETATM    4  C5  UNL     1      -2.415  50.410 -26.652  1.00  0.00     0.119 A 
HETATM    5  N3  UNL     1      -2.436  51.256 -27.699  1.00  0.00    -0.338 N 
ATOM      6  H3  UNL     1      -2.704  50.944 -28.632  1.00  0.00     0.168 HD
HETATM    7  C14 UNL     1      -2.087  52.525 -27.458  1.00  0.00     0.182 A 
HETATM    8  N4  UNL     1      -1.695  53.026 -26.284  1.00  0.00    -0.351 N 
ATOM      9  H4  UNL     1      -1.448  54.010 -26.179  1.00  0.00     0.166 HD
HETATM   10  C15 UNL     1      -1.640  52.177 -25.256  1.00  0.00     0.050 A 
HETATM   11  C16 UNL     1      -1.216  52.666 -24.028  1.00  0.00     0.070 A 
HETATM   12  C17 UNL     1      -1.115  51.849 -22.896  1.00  0.00     0.104 A 
ENDROOT
BRANCH   4  13
HETATM   13  N1  UNL     1      -2.852  49.064 -26.805  1.00  0.00    -0.340 N 
HETATM   14  H5  UNL     1      -2.309  48.498 -26.156  1.00  0.00     0.167 HD
BRANCH  13  15
HETATM   15  C6  UNL     1      -4.149  48.493 -26.932  1.00  0.00     0.061 A 
HETATM   16  C7  UNL     1      -4.622  48.256 -28.245  1.00  0.00     0.032 A 
HETATM   17  C8  UNL     1      -5.895  47.754 -28.513  1.00  0.00     0.003 A 
HETATM   18  C9  UNL     1      -6.781  47.491 -27.470  1.00  0.00     0.014 A 
HETATM   19  C10 UNL     1      -6.377  47.752 -26.149  1.00  0.00    -0.006 A 
HETATM   20  C11 UNL     1      -7.029  47.628 -24.889  1.00  0.00     0.030 A 
HETATM   21  C13 UNL     1      -5.088  48.245 -25.914  1.00  0.00     0.069 A 
HETATM   22  C12 UNL     1      -6.146  48.042 -23.919  1.00  0.00     0.089 A 
HETATM   23  N2  UNL     1      -4.990  48.409 -24.551  1.00  0.00    -0.363 N 
HETATM   24  H11 UNL     1      -4.138  48.723 -24.105  1.00  0.00     0.165 HD
ENDBRANCH  13  15
ENDBRANCH   4  13
BRANCH   1  25
HETATM   25  O1  UNL     1      -1.312  49.745 -21.854  1.00  0.00    -0.353 OA
HETATM   26  C1  UNL     1      -2.484  49.468 -21.100  1.00  0.00     0.210 C 
ENDBRANCH   1  25
BRANCH  12  27
HETATM   27  O2  UNL     1      -0.674  52.273 -21.667  1.00  0.00    -0.348 OA
BRANCH  27  28
HETATM   28  C18 UNL     1       0.683  52.697 -21.523  1.00  0.00     0.177 C 
BRANCH  28  29
HETATM   29  C19 UNL     1       0.795  53.786 -20.461  1.00  0.00     0.046 C 
BRANCH  29  30
HETATM   30  C20 UNL     1       0.078  53.457 -19.145  1.00  0.00     0.119 C 
BRANCH  30  31
HETATM   31  N5  UNL     1       0.478  52.266 -18.408  1.00  0.00    -0.408 N 
HETATM   32  C21 UNL     1       1.414  52.437 -17.292  1.00  0.00     0.143 C 
HETATM   33  C22 UNL     1       0.925  51.792 -15.981  1.00  0.00     0.187 C 
HETATM   34  O3  UNL     1       0.593  50.405 -16.116  1.00  0.00    -0.388 OA
HETATM   35  C23 UNL     1       0.000  50.080 -17.383  1.00  0.00     0.187 C 
HETATM   36  C24 UNL     1      -0.583  51.294 -18.128  1.00  0.00     0.143 C 
ENDBRANCH  30  31
ENDBRANCH  29  30
ENDBRANCH  28  29
ENDBRANCH  27  28
ENDBRANCH  12  27
TORSDOF 8
ENDMDL
MODEL 8
REMARK minimizedAffinity -8.11430836
REMARK  8 active torsions:
REMARK  status: ('A' for Active; 'I' for Inactive)
REMARK    1  A    between atoms: O1_2  and  C2_3 
REMARK    2  A    between atoms: C5_6  and  N1_7 
REMARK    3  A    between atoms: N1_7  and  C6_8 
REMARK    4  A    between atoms: C17_24  and  O2_25 
REMARK    5  A    between atoms: O2_25  and  C18_26 
REMARK    6  A    between atoms: C18_26  and  C19_27 
REMARK    7  A    between atoms: C19_27  and  C20_28 
REMARK    8  A    between atoms: C20_28  and  N5_29 
ROOT
HETATM    1  C2  UNL     1      -3.853  48.938 -24.963  1.00  0.00     0.102 A 
HETATM    2  C3  UNL     1      -2.918  49.673 -24.231  1.00  0.00     0.057 A 
HETATM    3  C4  UNL     1      -1.842  50.343 -24.874  1.00  0.00     0.038 A 
HETATM    4  C5  UNL     1      -0.849  51.110 -24.220  1.00  0.00     0.119 A 
HETATM    5  N3  UNL     1       0.105  51.765 -24.907  1.00  0.00    -0.338 N 
ATOM      6  H3  UNL     1       0.795  52.351 -24.437  1.00  0.00     0.168 HD
HETATM    7  C14 UNL     1       0.105  51.612 -26.237  1.00  0.00     0.182 A 
HETATM    8  N4  UNL     1      -0.766  50.895 -26.948  1.00  0.00    -0.351 N 
ATOM      9  H4  UNL     1      -0.697  50.823 -27.964  1.00  0.00     0.166 HD
HETATM   10  C15 UNL     1      -1.733  50.275 -26.268  1.00  0.00     0.050 A 
HETATM   11  C16 UNL     1      -2.666  49.538 -26.984  1.00  0.00     0.070 A 
HETATM   12  C17 UNL     1      -3.722  48.864 -26.359  1.00  0.00     0.104 A 
ENDROOT
BRANCH   4  13
HETATM   13  N1  UNL     1      -0.869  51.151 -22.797  1.00  0.00    -0.340 N 
HETATM   14  H5  UNL     1      -0.799  50.190 -22.469  1.00  0.00     0.167 HD
BRANCH  13  15
HETATM   15  C6  UNL     1      -0.218  52.001 -21.861  1.00  0.00     0.061 A 
HETATM   16  C7  UNL     1       0.576  53.048 -22.385  1.00  0.00     0.032 A 
HETATM   17  C8  UNL     1       1.312  53.918 -21.581  1.00  0.00     0.003 A 
HETATM   18  C9  UNL     1       1.316  53.761 -20.196  1.00  0.00     0.014 A 
HETATM   19  C10 UNL     1       0.579  52.708 -19.626  1.00  0.00    -0.006 A 
HETATM   20  C11 UNL     1       0.397  52.261 -18.287  1.00  0.00     0.030 A 
HETATM   21  C13 UNL     1      -0.158  51.861 -20.462  1.00  0.00     0.069 A 
HETATM   22  C12 UNL     1      -0.432  51.164 -18.322  1.00  0.00     0.089 A 
HETATM   23  N2  UNL     1      -0.753  50.938 -19.631  1.00  0.00    -0.363 N 
HETATM   24  H11 UNL     1      -1.378  50.223 -19.979  1.00  0.00     0.165 HD
ENDBRANCH  13  15
ENDBRANCH   4  13
BRANCH   1  25
HETATM   25  O1  UNL     1      -4.916  48.264 -24.419  1.00  0.00    -0.353 OA
HETATM   26  C1  UNL     1      -5.923  49.024 -23.766  1.00  0.00     0.210 C 
ENDBRANCH   1  25
BRANCH  12  27
HETATM   27  O2  UNL     1      -4.687  48.148 -27.021  1.00  0.00    -0.348 OA
BRANCH  27  28
HETATM   28  C18 UNL     1      -4.694  48.142 -28.450  1.00  0.00     0.177 C 
BRANCH  28  29
HETATM   29  C19 UNL     1      -6.057  47.708 -28.979  1.00  0.00     0.046 C 
BRANCH  29  30
HETATM   30  C20 UNL     1      -7.147  47.613 -27.903  1.00  0.00     0.119 C 
BRANCH  30  31
HETATM   31  N5  UNL     1      -8.501  48.035 -28.237  1.00  0.00    -0.408 N 
HETATM   32  C21 UNL     1      -8.697  48.755 -29.499  1.00  0.00     0.143 C 
HETATM   33  C22 UNL     1      -9.808  48.150 -30.380  1.00  0.00     0.187 C 
HETATM   34  O3  UNL     1     -11.064  48.017 -29.706  1.00  0.00    -0.388 OA
HETATM   35  C23 UNL     1     -10.933  47.676 -28.317  1.00  0.00     0.187 C 
HETATM   36  C24 UNL     1      -9.566  47.071 -27.948  1.00  0.00     0.143 C 
ENDBRANCH  30  31
ENDBRANCH  29  30
ENDBRANCH  28  29
ENDBRANCH  27  28
ENDBRANCH  12  27
TORSDOF 8
ENDMDL
MODEL 9
REMARK minimizedAffinity -8.04580975
REMARK  8 active torsions:
REMARK  status: ('A' for Active; 'I' for Inactive)
REMARK    1  A    between atoms: O1_2  and  C2_3 
REMARK    2  A    between atoms: C5_6  and  N1_7 
REMARK    3  A    between atoms: N1_7  and  C6_8 
REMARK    4  A    between atoms: C17_24  and  O2_25 
REMARK    5  A    between atoms: O2_25  and  C18_26 
REMARK    6  A    between atoms: C18_26  and  C19_27 
REMARK    7  A    between atoms: C19_27  and  C20_28 
REMARK    8  A    between atoms: C20_28  and  N5_29 
ROOT
HETATM    1  C2  UNL     1      -2.341  49.554 -26.026  1.00  0.00     0.102 A 
HETATM    2  C3  UNL     1      -3.166  49.095 -27.055  1.00  0.00     0.057 A 
HETATM    3  C4  UNL     1      -4.446  48.541 -26.781  1.00  0.00     0.038 A 
HETATM    4  C5  UNL     1      -5.351  48.052 -27.752  1.00  0.00     0.119 A 
HETATM    5  N3  UNL     1      -6.572  47.598 -27.416  1.00  0.00    -0.338 N 
ATOM      6  H3  UNL     1      -7.238  47.284 -28.121  1.00  0.00     0.168 HD
HETATM    7  C14 UNL     1      -6.871  47.577 -26.111  1.00  0.00     0.182 A 
HETATM    8  N4  UNL     1      -6.085  47.989 -25.115  1.00  0.00    -0.351 N 
ATOM      9  H4  UNL     1      -6.384  47.937 -24.141  1.00  0.00     0.166 HD
HETATM   10  C15 UNL     1      -4.888  48.473 -25.454  1.00  0.00     0.050 A 
HETATM   11  C16 UNL     1      -4.057  48.928 -24.440  1.00  0.00     0.070 A 
HETATM   12  C17 UNL     1      -2.790  49.464 -24.699  1.00  0.00     0.104 A 
ENDROOT
BRANCH   4  13
HETATM   13  N1  UNL     1      -4.922  48.029 -29.109  1.00  0.00    -0.340 N 
HETATM   14  H5  UNL     1      -3.968  47.674 -29.115  1.00  0.00     0.167 HD
BRANCH  13  15
HETATM   15  C6  UNL     1      -5.571  47.614 -30.305  1.00  0.00     0.061 A 
HETATM   16  C7  UNL     1      -4.878  46.694 -31.128  1.00  0.00     0.032 A 
HETATM   17  C8  UNL     1      -5.375  46.249 -32.353  1.00  0.00     0.003 A 
HETATM   18  C9  UNL     1      -6.588  46.732 -32.837  1.00  0.00     0.014 A 
HETATM   19  C10 UNL     1      -7.296  47.682 -32.079  1.00  0.00    -0.006 A 
HETATM   20  C11 UNL     1      -8.517  48.383 -32.292  1.00  0.00     0.030 A 
HETATM   21  C13 UNL     1      -6.775  48.098 -30.849  1.00  0.00     0.069 A 
HETATM   22  C12 UNL     1      -8.720  49.206 -31.209  1.00  0.00     0.089 A 
HETATM   23  N2  UNL     1      -7.668  49.024 -30.356  1.00  0.00    -0.363 N 
HETATM   24  H11 UNL     1      -7.547  49.461 -29.451  1.00  0.00     0.165 HD
ENDBRANCH  13  15
ENDBRANCH   4  13
BRANCH   1  25
HETATM   25  O1  UNL     1      -1.096  50.099 -26.208  1.00  0.00    -0.353 OA
HETATM   26  C1  UNL     1      -0.967  51.177 -27.125  1.00  0.00     0.210 C 
ENDBRANCH   1  25
BRANCH  12  27
HETATM   27  O2  UNL     1      -1.942  49.955 -23.738  1.00  0.00    -0.348 OA
BRANCH  27  28
HETATM   28  C18 UNL     1      -2.493  50.556 -22.564  1.00  0.00     0.177 C 
BRANCH  28  29
HETATM   29  C19 UNL     1      -1.821  50.001 -21.312  1.00  0.00     0.046 C 
BRANCH  29  30
HETATM   30  C20 UNL     1      -0.359  50.433 -21.139  1.00  0.00     0.119 C 
BRANCH  30  31
HETATM   31  N5  UNL     1      -0.053  51.855 -21.062  1.00  0.00    -0.408 N 
HETATM   32  C21 UNL     1      -0.079  52.486 -19.739  1.00  0.00     0.143 C 
HETATM   33  C22 UNL     1       1.205  53.276 -19.414  1.00  0.00     0.187 C 
HETATM   34  O3  UNL     1       1.538  54.256 -20.403  1.00  0.00    -0.388 OA
HETATM   35  C23 UNL     1       1.224  53.845 -21.743  1.00  0.00     0.187 C 
HETATM   36  C24 UNL     1       1.051  52.324 -21.905  1.00  0.00     0.143 C 
ENDBRANCH  30  31
ENDBRANCH  29  30
ENDBRANCH  28  29
ENDBRANCH  27  28
ENDBRANCH  12  27
TORSDOF 8
ENDMDL
