MODEL 1
REMARK minimizedAffinity -7.67066622
REMARK  10 active torsions:
REMARK  status: ('A' for Active; 'I' for Inactive)
REMARK    1  A    between atoms: C2_2  and  C3_3 
REMARK    2  A    between atoms: C3_3  and  C4_4 
REMARK    3  A    between atoms: C6_6  and  N1_7 
REMARK    4  A    between atoms: N1_7  and  C7_8 
REMARK    5  A    between atoms: C7_8  and  C8_9 
REMARK    6  A    between atoms: C8_9  and  N2_10 
REMARK    7  A    between atoms: C12_17  and  C13_18 
REMARK       I    between atoms: C13_18  and  N4_20 
REMARK    8  A    between atoms: N4_20  and  N5_21 
REMARK    9  A    between atoms: C14_23  and  C15_24 
REMARK   10  A    between atoms: C20_30  and  N7_31 
ROOT
HETATM    1  C4  UNL     1      -0.401  52.067 -22.622  1.00  0.00    -0.040 A 
HETATM    2  C5  UNL     1       0.237  52.889 -23.578  1.00  0.00     0.050 A 
HETATM    3  C6  UNL     1      -0.433  53.356 -24.703  1.00  0.00     0.081 A 
HETATM    4  N3  UNL     1      -1.717  53.076 -24.935  1.00  0.00    -0.341 N 
ATOM      5  H3  UNL     1      -2.209  53.431 -25.755  1.00  0.00     0.167 HD
HETATM    6  C11 UNL     1      -2.323  52.298 -24.021  1.00  0.00     0.089 A 
HETATM    7  S1  UNL     1      -3.953  51.891 -24.259  1.00  0.00    -0.064 SA
HETATM    8  C12 UNL     1      -4.013  50.972 -22.819  1.00  0.00     0.103 A 
HETATM    9  C20 UNL     1      -2.785  50.985 -22.174  1.00  0.00     0.062 A 
HETATM   10  C21 UNL     1      -1.770  51.755 -22.862  1.00  0.00     0.032 A 
ENDROOT
BRANCH   8  11
HETATM   11  C13 UNL     1      -5.245  50.301 -22.397  1.00  0.00     0.279 C 
HETATM   12  O1  UNL     1      -5.648  49.273 -22.943  1.00  0.00    -0.265 OA
HETATM   13  N4  UNL     1      -5.913  50.907 -21.331  1.00  0.00    -0.266 N 
HETATM   14  H20 UNL     1      -5.399  51.617 -20.816  1.00  0.00     0.190 HD
BRANCH  13  15
HETATM   15  N5  UNL     1      -6.981  50.392 -20.637  1.00  0.00    -0.307 N 
HETATM   16  C14 UNL     1      -6.825  49.282 -19.988  1.00  0.00     0.136 C 
ATOM     17  H5  UNL     1      -7.880  50.874 -20.633  1.00  0.00     0.186 HD
BRANCH  16  18
HETATM   18  C15 UNL     1      -7.912  48.737 -19.206  1.00  0.00     0.050 A 
HETATM   19  C16 UNL     1      -8.169  48.915 -17.857  1.00  0.00     0.032 A 
HETATM   20  C17 UNL     1      -9.346  48.207 -17.527  1.00  0.00     0.019 A 
HETATM   21  C18 UNL     1      -9.785  47.596 -18.680  1.00  0.00     0.091 A 
HETATM   22  N6  UNL     1      -8.910  47.912 -19.685  1.00  0.00    -0.360 N 
HETATM   23  C19 UNL     1      -9.025  47.424 -21.044  1.00  0.00     0.155 C 
ENDBRANCH  16  18
ENDBRANCH  13  15
ENDBRANCH   8  11
BRANCH   9  24
HETATM   24  N7  UNL     1      -2.601  50.321 -21.010  1.00  0.00    -0.397 N 
HETATM   25  H28 UNL     1      -3.398  49.888 -20.532  1.00  0.00     0.156 HD
HETATM   26  H29 UNL     1      -1.784  50.402 -20.420  1.00  0.00     0.156 HD
ENDBRANCH   9  24
BRANCH   1  27
HETATM   27  C3  UNL     1       0.432  51.620 -21.440  1.00  0.00     0.039 C 
BRANCH  27  28
HETATM   28  C2  UNL     1       0.146  52.403 -20.154  1.00  0.00     0.000 C 
HETATM   29  C1  UNL     1       0.656  53.836 -20.175  1.00  0.00     0.005 C 
ENDBRANCH  27  28
ENDBRANCH   1  27
BRANCH   3  30
HETATM   30  N1  UNL     1       0.285  54.187 -25.588  1.00  0.00    -0.277 NA
HETATM   31  H9  UNL     1       1.279  54.012 -25.465  1.00  0.00     0.129 HD
BRANCH  30  32
HETATM   32  C7  UNL     1      -0.123  54.063 -26.995  1.00  0.00     0.124 C 
BRANCH  32  33
HETATM   33  C8  UNL     1       0.649  52.902 -27.666  1.00  0.00     0.286 C 
BRANCH  33  34
HETATM   34  N2  UNL     1       1.327  51.927 -26.792  1.00  0.00     0.081 N 
HETATM   35  C9  UNL     1       0.568  50.690 -26.634  1.00  0.00     0.309 C 
HETATM   36  C10 UNL     1       2.691  51.647 -27.230  1.00  0.00     0.309 C 
ENDBRANCH  33  34
ENDBRANCH  32  33
ENDBRANCH  30  32
ENDBRANCH   3  30
TORSDOF 10
ENDMDL
MODEL 2
REMARK minimizedAffinity -7.66078186
REMARK  10 active torsions:
REMARK  status: ('A' for Active; 'I' for Inactive)
REMARK    1  A    between atoms: C2_2  and  C3_3 
REMARK    2  A    between atoms: C3_3  and  C4_4 
REMARK    3  A    between atoms: C6_6  and  N1_7 
REMARK    4  A    between atoms: N1_7  and  C7_8 
REMARK    5  A    between atoms: C7_8  and  C8_9 
REMARK    6  A    between atoms: C8_9  and  N2_10 
REMARK    7  A    between atoms: C12_17  and  C13_18 
REMARK       I    between atoms: C13_18  and  N4_20 
REMARK    8  A    between atoms: N4_20  and  N5_21 
REMARK    9  A    between atoms: C14_23  and  C15_24 
REMARK   10  A    between atoms: C20_30  and  N7_31 
ROOT
HETATM    1  C4  UNL     1      -1.414  51.906 -22.919  1.00  0.00    -0.040 A 
HETATM    2  C5  UNL     1      -0.945  52.525 -24.099  1.00  0.00     0.050 A 
HETATM    3  C6  UNL     1       0.167  53.360 -24.095  1.00  0.00     0.081 A 
HETATM    4  N3  UNL     1       0.868  53.605 -22.987  1.00  0.00    -0.341 N 
ATOM      5  H3  UNL     1       1.692  54.207 -22.989  1.00  0.00     0.167 HD
HETATM    6  C11 UNL     1       0.423  53.010 -21.866  1.00  0.00     0.089 A 
HETATM    7  S1  UNL     1       1.261  53.288 -20.416  1.00  0.00    -0.064 SA
HETATM    8  C12 UNL     1       0.201  52.288 -19.524  1.00  0.00     0.103 A 
HETATM    9  C20 UNL     1      -0.783  51.754 -20.343  1.00  0.00     0.062 A 
HETATM   10  C21 UNL     1      -0.677  52.166 -21.727  1.00  0.00     0.032 A 
ENDROOT
BRANCH   8  11
HETATM   11  C13 UNL     1       0.389  52.073 -18.086  1.00  0.00     0.279 C 
HETATM   12  O1  UNL     1      -0.169  51.154 -17.485  1.00  0.00    -0.265 OA
HETATM   13  N4  UNL     1       1.251  52.977 -17.461  1.00  0.00    -0.266 N 
HETATM   14  H20 UNL     1       1.821  53.557 -18.069  1.00  0.00     0.190 HD
BRANCH  13  15
HETATM   15  N5  UNL     1       1.729  52.893 -16.175  1.00  0.00    -0.307 N 
HETATM   16  C14 UNL     1       1.357  51.897 -15.436  1.00  0.00     0.136 C 
ATOM     17  H5  UNL     1       2.365  53.602 -15.810  1.00  0.00     0.186 HD
BRANCH  16  18
HETATM   18  C15 UNL     1       1.880  51.749 -14.097  1.00  0.00     0.050 A 
HETATM   19  C16 UNL     1       3.120  51.269 -13.710  1.00  0.00     0.032 A 
HETATM   20  C17 UNL     1       3.201  51.319 -12.300  1.00  0.00     0.019 A 
HETATM   21  C18 UNL     1       2.002  51.819 -11.846  1.00  0.00     0.091 A 
HETATM   22  N6  UNL     1       1.207  52.067 -12.933  1.00  0.00    -0.360 N 
HETATM   23  C19 UNL     1      -0.147  52.572 -12.850  1.00  0.00     0.155 C 
ENDBRANCH  16  18
ENDBRANCH  13  15
ENDBRANCH   8  11
BRANCH   9  24
HETATM   24  N7  UNL     1      -1.733  50.930 -19.847  1.00  0.00    -0.397 N 
HETATM   25  H28 UNL     1      -1.676  50.600 -18.879  1.00  0.00     0.156 HD
HETATM   26  H29 UNL     1      -2.387  50.399 -20.407  1.00  0.00     0.156 HD
ENDBRANCH   9  24
BRANCH   1  27
HETATM   27  C3  UNL     1      -2.635  51.022 -23.049  1.00  0.00     0.039 C 
BRANCH  27  28
HETATM   28  C2  UNL     1      -2.306  49.527 -23.144  1.00  0.00     0.000 C 
HETATM   29  C1  UNL     1      -3.132  48.775 -24.176  1.00  0.00     0.005 C 
ENDBRANCH  27  28
ENDBRANCH   1  27
BRANCH   3  30
HETATM   30  N1  UNL     1       0.567  53.915 -25.328  1.00  0.00    -0.277 NA
HETATM   31  H9  UNL     1       1.554  53.715 -25.470  1.00  0.00     0.129 HD
BRANCH  30  32
HETATM   32  C7  UNL     1      -0.248  53.486 -26.474  1.00  0.00     0.124 C 
BRANCH  32  33
HETATM   33  C8  UNL     1       0.667  52.930 -27.591  1.00  0.00     0.286 C 
BRANCH  33  34
HETATM   34  N2  UNL     1       1.226  51.577 -27.417  1.00  0.00     0.081 N 
HETATM   35  C9  UNL     1       2.535  51.587 -26.773  1.00  0.00     0.309 C 
HETATM   36  C10 UNL     1       0.308  50.686 -26.713  1.00  0.00     0.309 C 
ENDBRANCH  33  34
ENDBRANCH  32  33
ENDBRANCH  30  32
ENDBRANCH   3  30
TORSDOF 10
ENDMDL
MODEL 3
REMARK minimizedAffinity -7.62558794
REMARK  10 active torsions:
REMARK  status: ('A' for Active; 'I' for Inactive)
REMARK    1  A    between atoms: C2_2  and  C3_3 
REMARK    2  A    between atoms: C3_3  and  C4_4 
REMARK    3  A    between atoms: C6_6  and  N1_7 
REMARK    4  A    between atoms: N1_7  and  C7_8 
REMARK    5  A    between atoms: C7_8  and  C8_9 
REMARK    6  A    between atoms: C8_9  and  N2_10 
REMARK    7  A    between atoms: C12_17  and  C13_18 
REMARK       I    between atoms: C13_18  and  N4_20 
REMARK    8  A    between atoms: N4_20  and  N5_21 
REMARK    9  A    between atoms: C14_23  and  C15_24 
REMARK   10  A    between atoms: C20_30  and  N7_31 
ROOT
HETATM    1  C4  UNL     1      -1.781  51.675 -26.169  1.00  0.00    -0.040 A 
HETATM    2  C5  UNL     1      -1.253  51.693 -24.858  1.00  0.00     0.050 A 
HETATM    3  C6  UNL     1      -1.579  50.715 -23.925  1.00  0.00     0.081 A 
HETATM    4  N3  UNL     1      -2.386  49.693 -24.217  1.00  0.00    -0.341 N 
ATOM      5  H3  UNL     1      -2.613  48.970 -23.534  1.00  0.00     0.167 HD
HETATM    6  C11 UNL     1      -2.883  49.676 -25.467  1.00  0.00     0.089 A 
HETATM    7  S1  UNL     1      -3.928  48.412 -25.903  1.00  0.00    -0.064 SA
HETATM    8  C12 UNL     1      -4.121  49.017 -27.489  1.00  0.00     0.103 A 
HETATM    9  C20 UNL     1      -3.386  50.180 -27.667  1.00  0.00     0.062 A 
HETATM   10  C21 UNL     1      -2.651  50.593 -26.490  1.00  0.00     0.032 A 
ENDROOT
BRANCH   8  11
HETATM   11  C13 UNL     1      -4.965  48.327 -28.468  1.00  0.00     0.279 C 
HETATM   12  O1  UNL     1      -4.487  47.705 -29.418  1.00  0.00    -0.265 OA
HETATM   13  N4  UNL     1      -6.339  48.419 -28.235  1.00  0.00    -0.266 N 
HETATM   14  H20 UNL     1      -6.623  48.765 -27.323  1.00  0.00     0.190 HD
BRANCH  13  15
HETATM   15  N5  UNL     1      -7.327  47.727 -28.892  1.00  0.00    -0.307 N 
HETATM   16  C14 UNL     1      -8.328  48.387 -29.382  1.00  0.00     0.136 C 
ATOM     17  H5  UNL     1      -7.274  46.713 -28.992  1.00  0.00     0.186 HD
BRANCH  16  18
HETATM   18  C15 UNL     1      -9.360  47.698 -30.124  1.00  0.00     0.050 A 
HETATM   19  C16 UNL     1     -10.459  47.017 -29.630  1.00  0.00     0.032 A 
HETATM   20  C17 UNL     1     -11.205  46.515 -30.720  1.00  0.00     0.019 A 
HETATM   21  C18 UNL     1     -10.542  46.889 -31.867  1.00  0.00     0.091 A 
HETATM   22  N6  UNL     1      -9.426  47.593 -31.500  1.00  0.00    -0.360 N 
HETATM   23  C19 UNL     1      -8.458  48.126 -32.435  1.00  0.00     0.155 C 
ENDBRANCH  16  18
ENDBRANCH  13  15
ENDBRANCH   8  11
BRANCH   9  24
HETATM   24  N7  UNL     1      -3.391  50.834 -28.850  1.00  0.00    -0.397 N 
HETATM   25  H28 UNL     1      -3.851  50.420 -29.667  1.00  0.00     0.156 HD
HETATM   26  H29 UNL     1      -2.775  51.600 -29.091  1.00  0.00     0.156 HD
ENDBRANCH   9  24
BRANCH   1  27
HETATM   27  C3  UNL     1      -1.355  52.795 -27.093  1.00  0.00     0.039 C 
BRANCH  27  28
HETATM   28  C2  UNL     1       0.154  52.833 -27.359  1.00  0.00     0.000 C 
HETATM   29  C1  UNL     1       0.686  51.608 -28.086  1.00  0.00     0.005 C 
ENDBRANCH  27  28
ENDBRANCH   1  27
BRANCH   3  30
HETATM   30  N1  UNL     1      -0.984  50.810 -22.650  1.00  0.00    -0.277 NA
HETATM   31  H9  UNL     1      -0.303  50.061 -22.552  1.00  0.00     0.129 HD
BRANCH  30  32
HETATM   32  C7  UNL     1      -0.395  52.125 -22.356  1.00  0.00     0.124 C 
BRANCH  32  33
HETATM   33  C8  UNL     1       0.848  51.955 -21.453  1.00  0.00     0.286 C 
BRANCH  33  34
HETATM   34  N2  UNL     1       1.264  53.103 -20.626  1.00  0.00     0.081 N 
HETATM   35  C9  UNL     1       1.559  54.291 -21.421  1.00  0.00     0.309 C 
HETATM   36  C10 UNL     1       0.298  53.406 -19.575  1.00  0.00     0.309 C 
ENDBRANCH  33  34
ENDBRANCH  32  33
ENDBRANCH  30  32
ENDBRANCH   3  30
TORSDOF 10
ENDMDL
MODEL 4
REMARK minimizedAffinity -7.56806087
REMARK  10 active torsions:
REMARK  status: ('A' for Active; 'I' for Inactive)
REMARK    1  A    between atoms: C2_2  and  C3_3 
REMARK    2  A    between atoms: C3_3  and  C4_4 
REMARK    3  A    between atoms: C6_6  and  N1_7 
REMARK    4  A    between atoms: N1_7  and  C7_8 
REMARK    5  A    between atoms: C7_8  and  C8_9 
REMARK    6  A    between atoms: C8_9  and  N2_10 
REMARK    7  A    between atoms: C12_17  and  C13_18 
REMARK       I    between atoms: C13_18  and  N4_20 
REMARK    8  A    between atoms: N4_20  and  N5_21 
REMARK    9  A    between atoms: C14_23  and  C15_24 
REMARK   10  A    between atoms: C20_30  and  N7_31 
ROOT
HETATM    1  C4  UNL     1      -0.530  52.325 -26.000  1.00  0.00    -0.040 A 
HETATM    2  C5  UNL     1       0.168  52.652 -24.815  1.00  0.00     0.050 A 
HETATM    3  C6  UNL     1      -0.117  52.032 -23.604  1.00  0.00     0.081 A 
HETATM    4  N3  UNL     1      -1.044  51.079 -23.493  1.00  0.00    -0.341 N 
ATOM      5  H3  UNL     1      -1.242  50.616 -22.606  1.00  0.00     0.167 HD
HETATM    6  C11 UNL     1      -1.703  50.766 -24.623  1.00  0.00     0.089 A 
HETATM    7  S1  UNL     1      -2.905  49.570 -24.552  1.00  0.00    -0.064 SA
HETATM    8  C12 UNL     1      -3.254  49.714 -26.219  1.00  0.00     0.103 A 
HETATM    9  C20 UNL     1      -2.448  50.677 -26.811  1.00  0.00     0.062 A 
HETATM   10  C21 UNL     1      -1.528  51.314 -25.892  1.00  0.00     0.032 A 
ENDROOT
BRANCH   8  11
HETATM   11  C13 UNL     1      -4.279  48.883 -26.856  1.00  0.00     0.279 C 
HETATM   12  O1  UNL     1      -4.924  48.045 -26.224  1.00  0.00    -0.265 OA
HETATM   13  N4  UNL     1      -4.472  49.122 -28.218  1.00  0.00    -0.266 N 
HETATM   14  H20 UNL     1      -4.052  49.966 -28.596  1.00  0.00     0.190 HD
BRANCH  13  15
HETATM   15  N5  UNL     1      -5.478  48.611 -29.002  1.00  0.00    -0.307 N 
HETATM   16  C14 UNL     1      -5.408  48.769 -30.286  1.00  0.00     0.136 C 
ATOM     17  H5  UNL     1      -6.265  48.117 -28.582  1.00  0.00     0.186 HD
BRANCH  16  18
HETATM   18  C15 UNL     1      -6.421  48.201 -31.146  1.00  0.00     0.050 A 
HETATM   19  C16 UNL     1      -7.721  48.636 -31.340  1.00  0.00     0.032 A 
HETATM   20  C17 UNL     1      -8.344  47.785 -32.281  1.00  0.00     0.019 A 
HETATM   21  C18 UNL     1      -7.416  46.833 -32.638  1.00  0.00     0.091 A 
HETATM   22  N6  UNL     1      -6.263  47.084 -31.943  1.00  0.00    -0.360 N 
HETATM   23  C19 UNL     1      -5.068  46.271 -32.032  1.00  0.00     0.155 C 
ENDBRANCH  16  18
ENDBRANCH  13  15
ENDBRANCH   8  11
BRANCH   9  24
HETATM   24  N7  UNL     1      -2.552  50.959 -28.129  1.00  0.00    -0.397 N 
HETATM   25  H28 UNL     1      -3.152  50.389 -28.733  1.00  0.00     0.156 HD
HETATM   26  H29 UNL     1      -1.907  51.540 -28.649  1.00  0.00     0.156 HD
ENDBRANCH   9  24
BRANCH   1  27
HETATM   27  C3  UNL     1      -0.133  53.071 -27.256  1.00  0.00     0.039 C 
BRANCH  27  28
HETATM   28  C2  UNL     1       0.701  52.232 -28.231  1.00  0.00     0.000 C 
HETATM   29  C1  UNL     1       2.026  51.752 -27.659  1.00  0.00     0.005 C 
ENDBRANCH  27  28
ENDBRANCH   1  27
BRANCH   3  30
HETATM   30  N1  UNL     1       0.649  52.414 -22.483  1.00  0.00    -0.277 NA
HETATM   31  H9  UNL     1       0.535  53.413 -22.336  1.00  0.00     0.129 HD
BRANCH  30  32
HETATM   32  C7  UNL     1       0.356  51.645 -21.264  1.00  0.00     0.124 C 
BRANCH  32  33
HETATM   33  C8  UNL     1       0.570  52.535 -20.017  1.00  0.00     0.286 C 
BRANCH  33  34
HETATM   34  N2  UNL     1      -0.005  52.083 -18.738  1.00  0.00     0.081 N 
HETATM   35  C9  UNL     1      -0.387  50.674 -18.759  1.00  0.00     0.309 C 
HETATM   36  C10 UNL     1       0.874  52.365 -17.606  1.00  0.00     0.309 C 
ENDBRANCH  33  34
ENDBRANCH  32  33
ENDBRANCH  30  32
ENDBRANCH   3  30
TORSDOF 10
ENDMDL
MODEL 5
REMARK minimizedAffinity -7.48288918
REMARK  10 active torsions:
REMARK  status: ('A' for Active; 'I' for Inactive)
REMARK    1  A    between atoms: C2_2  and  C3_3 
REMARK    2  A    between atoms: C3_3  and  C4_4 
REMARK    3  A    between atoms: C6_6  and  N1_7 
REMARK    4  A    between atoms: N1_7  and  C7_8 
REMARK    5  A    between atoms: C7_8  and  C8_9 
REMARK    6  A    between atoms: C8_9  and  N2_10 
REMARK    7  A    between atoms: C12_17  and  C13_18 
REMARK       I    between atoms: C13_18  and  N4_20 
REMARK    8  A    between atoms: N4_20  and  N5_21 
REMARK    9  A    between atoms: C14_23  and  C15_24 
REMARK   10  A    between atoms: C20_30  and  N7_31 
ROOT
HETATM    1  C4  UNL     1      -0.142  52.091 -25.141  1.00  0.00    -0.040 A 
HETATM    2  C5  UNL     1       0.518  52.447 -23.944  1.00  0.00     0.050 A 
HETATM    3  C6  UNL     1       0.116  51.946 -22.711  1.00  0.00     0.081 A 
HETATM    4  N3  UNL     1      -0.895  51.084 -22.588  1.00  0.00    -0.341 N 
ATOM      5  H3  UNL     1      -1.180  50.708 -21.683  1.00  0.00     0.167 HD
HETATM    6  C11 UNL     1      -1.518  50.743 -23.730  1.00  0.00     0.089 A 
HETATM    7  S1  UNL     1      -2.822  49.660 -23.646  1.00  0.00    -0.064 SA
HETATM    8  C12 UNL     1      -3.067  49.706 -25.337  1.00  0.00     0.103 A 
HETATM    9  C20 UNL     1      -2.151  50.551 -25.946  1.00  0.00     0.062 A 
HETATM   10  C21 UNL     1      -1.229  51.177 -25.022  1.00  0.00     0.032 A 
ENDROOT
BRANCH   8  11
HETATM   11  C13 UNL     1      -4.126  48.918 -25.973  1.00  0.00     0.279 C 
HETATM   12  O1  UNL     1      -4.823  48.127 -25.335  1.00  0.00    -0.265 OA
HETATM   13  N4  UNL     1      -4.288  49.139 -27.342  1.00  0.00    -0.266 N 
HETATM   14  H20 UNL     1      -3.818  49.953 -27.730  1.00  0.00     0.190 HD
BRANCH  13  15
HETATM   15  N5  UNL     1      -5.308  48.666 -28.132  1.00  0.00    -0.307 N 
HETATM   16  C14 UNL     1      -5.015  47.898 -29.133  1.00  0.00     0.136 C 
ATOM     17  H5  UNL     1      -6.277  48.915 -27.933  1.00  0.00     0.186 HD
BRANCH  16  18
HETATM   18  C15 UNL     1      -6.066  47.341 -29.954  1.00  0.00     0.050 A 
HETATM   19  C16 UNL     1      -5.945  46.655 -31.151  1.00  0.00     0.032 A 
HETATM   20  C17 UNL     1      -7.236  46.284 -31.589  1.00  0.00     0.019 A 
HETATM   21  C18 UNL     1      -8.130  46.761 -30.656  1.00  0.00     0.091 A 
HETATM   22  N6  UNL     1      -7.418  47.405 -29.679  1.00  0.00    -0.360 N 
HETATM   23  C19 UNL     1      -8.019  48.067 -28.540  1.00  0.00     0.155 C 
ENDBRANCH  16  18
ENDBRANCH  13  15
ENDBRANCH   8  11
BRANCH   9  24
HETATM   24  N7  UNL     1      -2.159  50.740 -27.285  1.00  0.00    -0.397 N 
HETATM   25  H28 UNL     1      -2.774  50.178 -27.882  1.00  0.00     0.156 HD
HETATM   26  H29 UNL     1      -1.440  51.225 -27.805  1.00  0.00     0.156 HD
ENDBRANCH   9  24
BRANCH   1  27
HETATM   27  C3  UNL     1       0.385  52.704 -26.421  1.00  0.00     0.039 C 
BRANCH  27  28
HETATM   28  C2  UNL     1       1.205  51.731 -27.277  1.00  0.00     0.000 C 
HETATM   29  C1  UNL     1       2.614  51.487 -26.759  1.00  0.00     0.005 C 
ENDBRANCH  27  28
ENDBRANCH   1  27
BRANCH   3  30
HETATM   30  N1  UNL     1       0.852  52.347 -21.576  1.00  0.00    -0.277 NA
HETATM   31  H9  UNL     1       1.477  53.102 -21.843  1.00  0.00     0.129 HD
BRANCH  30  32
HETATM   32  C7  UNL     1       0.021  52.708 -20.417  1.00  0.00     0.124 C 
BRANCH  32  33
HETATM   33  C8  UNL     1       0.923  53.001 -19.195  1.00  0.00     0.286 C 
BRANCH  33  34
HETATM   34  N2  UNL     1       0.552  52.398 -17.902  1.00  0.00     0.081 N 
HETATM   35  C9  UNL     1       0.010  51.050 -18.045  1.00  0.00     0.309 C 
HETATM   36  C10 UNL     1       1.657  52.415 -16.947  1.00  0.00     0.309 C 
ENDBRANCH  33  34
ENDBRANCH  32  33
ENDBRANCH  30  32
ENDBRANCH   3  30
TORSDOF 10
ENDMDL
MODEL 6
REMARK minimizedAffinity -7.44842005
REMARK  10 active torsions:
REMARK  status: ('A' for Active; 'I' for Inactive)
REMARK    1  A    between atoms: C2_2  and  C3_3 
REMARK    2  A    between atoms: C3_3  and  C4_4 
REMARK    3  A    between atoms: C6_6  and  N1_7 
REMARK    4  A    between atoms: N1_7  and  C7_8 
REMARK    5  A    between atoms: C7_8  and  C8_9 
REMARK    6  A    between atoms: C8_9  and  N2_10 
REMARK    7  A    between atoms: C12_17  and  C13_18 
REMARK       I    between atoms: C13_18  and  N4_20 
REMARK    8  A    between atoms: N4_20  and  N5_21 
REMARK    9  A    between atoms: C14_23  and  C15_24 
REMARK   10  A    between atoms: C20_30  and  N7_31 
ROOT
HETATM    1  C4  UNL     1      -0.398  52.064 -25.162  1.00  0.00    -0.040 A 
HETATM    2  C5  UNL     1       0.037  52.298 -23.839  1.00  0.00     0.050 A 
HETATM    3  C6  UNL     1      -0.479  51.585 -22.763  1.00  0.00     0.081 A 
HETATM    4  N3  UNL     1      -1.395  50.626 -22.917  1.00  0.00    -0.341 N 
ATOM      5  H3  UNL     1      -1.762  50.096 -22.127  1.00  0.00     0.167 HD
HETATM    6  C11 UNL     1      -1.803  50.403 -24.179  1.00  0.00     0.089 A 
HETATM    7  S1  UNL     1      -2.976  49.206 -24.448  1.00  0.00    -0.064 SA
HETATM    8  C12 UNL     1      -2.978  49.479 -26.135  1.00  0.00     0.103 A 
HETATM    9  C20 UNL     1      -2.083  50.485 -26.473  1.00  0.00     0.062 A 
HETATM   10  C21 UNL     1      -1.381  51.048 -25.339  1.00  0.00     0.032 A 
ENDROOT
BRANCH   8  11
HETATM   11  C13 UNL     1      -3.838  48.701 -27.030  1.00  0.00     0.279 C 
HETATM   12  O1  UNL     1      -3.400  48.157 -28.045  1.00  0.00    -0.265 OA
HETATM   13  N4  UNL     1      -5.176  48.615 -26.639  1.00  0.00    -0.266 N 
HETATM   14  H20 UNL     1      -5.392  48.910 -25.691  1.00  0.00     0.190 HD
BRANCH  13  15
HETATM   15  N5  UNL     1      -6.141  47.812 -27.198  1.00  0.00    -0.307 N 
HETATM   16  C14 UNL     1      -6.312  47.846 -28.481  1.00  0.00     0.136 C 
ATOM     17  H5  UNL     1      -6.711  47.201 -26.613  1.00  0.00     0.186 HD
BRANCH  16  18
HETATM   18  C15 UNL     1      -7.282  46.978 -29.109  1.00  0.00     0.050 A 
HETATM   19  C16 UNL     1      -7.287  45.595 -29.159  1.00  0.00     0.032 A 
HETATM   20  C17 UNL     1      -8.437  45.174 -29.865  1.00  0.00     0.019 A 
HETATM   21  C18 UNL     1      -9.112  46.311 -30.246  1.00  0.00     0.091 A 
HETATM   22  N6  UNL     1      -8.406  47.395 -29.796  1.00  0.00    -0.360 N 
HETATM   23  C19 UNL     1      -8.790  48.771 -30.033  1.00  0.00     0.155 C 
ENDBRANCH  16  18
ENDBRANCH  13  15
ENDBRANCH   8  11
BRANCH   9  24
HETATM   24  N7  UNL     1      -1.920  50.869 -27.759  1.00  0.00    -0.397 N 
HETATM   25  H28 UNL     1      -2.374  50.348 -28.515  1.00  0.00     0.156 HD
HETATM   26  H29 UNL     1      -1.191  51.488 -28.090  1.00  0.00     0.156 HD
ENDBRANCH   9  24
BRANCH   1  27
HETATM   27  C3  UNL     1       0.236  52.905 -26.249  1.00  0.00     0.039 C 
BRANCH  27  28
HETATM   28  C2  UNL     1       1.205  52.124 -27.145  1.00  0.00     0.000 C 
HETATM   29  C1  UNL     1       2.352  51.468 -26.392  1.00  0.00     0.005 C 
ENDBRANCH  27  28
ENDBRANCH   1  27
BRANCH   3  30
HETATM   30  N1  UNL     1       0.035  51.878 -21.482  1.00  0.00    -0.277 NA
HETATM   31  H9  UNL     1      -0.162  52.852 -21.268  1.00  0.00     0.129 HD
BRANCH  30  32
HETATM   32  C7  UNL     1      -0.442  50.977 -20.422  1.00  0.00     0.124 C 
BRANCH  32  33
HETATM   33  C8  UNL     1      -0.841  51.799 -19.174  1.00  0.00     0.286 C 
BRANCH  33  34
HETATM   34  N2  UNL     1      -2.246  51.743 -18.730  1.00  0.00     0.081 N 
HETATM   35  C9  UNL     1      -3.142  51.226 -19.760  1.00  0.00     0.309 C 
HETATM   36  C10 UNL     1      -2.402  50.999 -17.484  1.00  0.00     0.309 C 
ENDBRANCH  33  34
ENDBRANCH  32  33
ENDBRANCH  30  32
ENDBRANCH   3  30
TORSDOF 10
ENDMDL
MODEL 7
REMARK minimizedAffinity -7.43936777
REMARK  10 active torsions:
REMARK  status: ('A' for Active; 'I' for Inactive)
REMARK    1  A    between atoms: C2_2  and  C3_3 
REMARK    2  A    between atoms: C3_3  and  C4_4 
REMARK    3  A    between atoms: C6_6  and  N1_7 
REMARK    4  A    between atoms: N1_7  and  C7_8 
REMARK    5  A    between atoms: C7_8  and  C8_9 
REMARK    6  A    between atoms: C8_9  and  N2_10 
REMARK    7  A    between atoms: C12_17  and  C13_18 
REMARK       I    between atoms: C13_18  and  N4_20 
REMARK    8  A    between atoms: N4_20  and  N5_21 
REMARK    9  A    between atoms: C14_23  and  C15_24 
REMARK   10  A    between atoms: C20_30  and  N7_31 
ROOT
HETATM    1  C4  UNL     1      -2.649  50.012 -25.841  1.00  0.00    -0.040 A 
HETATM    2  C5  UNL     1      -2.600  50.981 -26.868  1.00  0.00     0.050 A 
HETATM    3  C6  UNL     1      -2.304  52.313 -26.603  1.00  0.00     0.081 A 
HETATM    4  N3  UNL     1      -2.028  52.750 -25.373  1.00  0.00    -0.341 N 
ATOM      5  H3  UNL     1      -1.799  53.726 -25.183  1.00  0.00     0.167 HD
HETATM    6  C11 UNL     1      -2.071  51.825 -24.397  1.00  0.00     0.089 A 
HETATM    7  S1  UNL     1      -1.743  52.313 -22.806  1.00  0.00    -0.064 SA
HETATM    8  C12 UNL     1      -1.967  50.733 -22.194  1.00  0.00     0.103 A 
HETATM    9  C20 UNL     1      -2.292  49.850 -23.214  1.00  0.00     0.062 A 
HETATM   10  C21 UNL     1      -2.364  50.468 -24.521  1.00  0.00     0.032 A 
ENDROOT
BRANCH   8  11
HETATM   11  C13 UNL     1      -1.807  50.441 -20.767  1.00  0.00     0.279 C 
HETATM   12  O1  UNL     1      -1.982  49.310 -20.309  1.00  0.00    -0.265 OA
HETATM   13  N4  UNL     1      -1.433  51.530 -19.978  1.00  0.00    -0.266 N 
HETATM   14  H20 UNL     1      -1.108  52.358 -20.470  1.00  0.00     0.190 HD
BRANCH  13  15
HETATM   15  N5  UNL     1      -1.051  51.491 -18.659  1.00  0.00    -0.307 N 
HETATM   16  C14 UNL     1       0.197  51.292 -18.378  1.00  0.00     0.136 C 
ATOM     17  H5  UNL     1      -1.738  51.616 -17.915  1.00  0.00     0.186 HD
BRANCH  16  18
HETATM   18  C15 UNL     1       0.643  51.295 -17.003  1.00  0.00     0.050 A 
HETATM   19  C16 UNL     1       1.268  52.317 -16.308  1.00  0.00     0.032 A 
HETATM   20  C17 UNL     1       1.507  51.880 -14.986  1.00  0.00     0.019 A 
HETATM   21  C18 UNL     1       1.034  50.591 -14.896  1.00  0.00     0.091 A 
HETATM   22  N6  UNL     1       0.523  50.241 -16.118  1.00  0.00    -0.360 N 
HETATM   23  C19 UNL     1      -0.040  48.942 -16.421  1.00  0.00     0.155 C 
ENDBRANCH  16  18
ENDBRANCH  13  15
ENDBRANCH   8  11
BRANCH   9  24
HETATM   24  N7  UNL     1      -2.515  48.541 -22.959  1.00  0.00    -0.397 N 
HETATM   25  H28 UNL     1      -2.339  48.160 -22.024  1.00  0.00     0.156 HD
HETATM   26  H29 UNL     1      -2.615  47.823 -23.664  1.00  0.00     0.156 HD
ENDBRANCH   9  24
BRANCH   1  27
HETATM   27  C3  UNL     1      -2.984  48.594 -26.253  1.00  0.00     0.039 C 
BRANCH  27  28
HETATM   28  C2  UNL     1      -3.695  48.499 -27.608  1.00  0.00     0.000 C 
HETATM   29  C1  UNL     1      -5.152  48.071 -27.514  1.00  0.00     0.005 C 
ENDBRANCH  27  28
ENDBRANCH   1  27
BRANCH   3  30
HETATM   30  N1  UNL     1      -2.259  53.199 -27.700  1.00  0.00    -0.277 NA
HETATM   31  H9  UNL     1      -2.797  54.031 -27.468  1.00  0.00     0.129 HD
BRANCH  30  32
HETATM   32  C7  UNL     1      -0.899  53.534 -28.147  1.00  0.00     0.124 C 
BRANCH  32  33
HETATM   33  C8  UNL     1       0.079  53.466 -26.951  1.00  0.00     0.286 C 
BRANCH  33  34
HETATM   34  N2  UNL     1       1.213  52.529 -27.038  1.00  0.00     0.081 N 
HETATM   35  C9  UNL     1       1.450  51.814 -25.788  1.00  0.00     0.309 C 
HETATM   36  C10 UNL     1       1.075  51.595 -28.152  1.00  0.00     0.309 C 
ENDBRANCH  33  34
ENDBRANCH  32  33
ENDBRANCH  30  32
ENDBRANCH   3  30
TORSDOF 10
ENDMDL
MODEL 8
REMARK minimizedAffinity -7.38134527
REMARK  10 active torsions:
REMARK  status: ('A' for Active; 'I' for Inactive)
REMARK    1  A    between atoms: C2_2  and  C3_3 
REMARK    2  A    between atoms: C3_3  and  C4_4 
REMARK    3  A    between atoms: C6_6  and  N1_7 
REMARK    4  A    between atoms: N1_7  and  C7_8 
REMARK    5  A    between atoms: C7_8  and  C8_9 
REMARK    6  A    between atoms: C8_9  and  N2_10 
REMARK    7  A    between atoms: C12_17  and  C13_18 
REMARK       I    between atoms: C13_18  and  N4_20 
REMARK    8  A    between atoms: N4_20  and  N5_21 
REMARK    9  A    between atoms: C14_23  and  C15_24 
REMARK   10  A    between atoms: C20_30  and  N7_31 
ROOT
HETATM    1  C4  UNL     1      -3.296  49.945 -26.552  1.00  0.00    -0.040 A 
HETATM    2  C5  UNL     1      -2.741  50.927 -27.403  1.00  0.00     0.050 A 
HETATM    3  C6  UNL     1      -2.572  52.243 -26.987  1.00  0.00     0.081 A 
HETATM    4  N3  UNL     1      -2.898  52.649 -25.759  1.00  0.00    -0.341 N 
ATOM      5  H3  UNL     1      -2.760  53.612 -25.452  1.00  0.00     0.167 HD
HETATM    6  C11 UNL     1      -3.421  51.711 -24.949  1.00  0.00     0.089 A 
HETATM    7  S1  UNL     1      -3.870  52.161 -23.376  1.00  0.00    -0.064 SA
HETATM    8  C12 UNL     1      -4.397  50.581 -22.993  1.00  0.00     0.103 A 
HETATM    9  C20 UNL     1      -4.226  49.727 -24.073  1.00  0.00     0.062 A 
HETATM   10  C21 UNL     1      -3.655  50.368 -25.240  1.00  0.00     0.032 A 
ENDROOT
BRANCH   8  11
HETATM   11  C13 UNL     1      -4.938  50.260 -21.669  1.00  0.00     0.279 C 
HETATM   12  O1  UNL     1      -4.699  50.956 -20.681  1.00  0.00    -0.265 OA
HETATM   13  N4  UNL     1      -5.745  49.122 -21.620  1.00  0.00    -0.266 N 
HETATM   14  H20 UNL     1      -6.053  48.744 -22.511  1.00  0.00     0.190 HD
BRANCH  13  15
HETATM   15  N5  UNL     1      -6.507  48.706 -20.554  1.00  0.00    -0.307 N 
HETATM   16  C14 UNL     1      -7.759  49.035 -20.519  1.00  0.00     0.136 C 
ATOM     17  H5  UNL     1      -6.094  48.150 -19.805  1.00  0.00     0.186 HD
BRANCH  16  18
HETATM   18  C15 UNL     1      -8.602  48.572 -19.440  1.00  0.00     0.050 A 
HETATM   19  C16 UNL     1      -8.541  48.913 -18.099  1.00  0.00     0.032 A 
HETATM   20  C17 UNL     1      -9.572  48.231 -17.414  1.00  0.00     0.019 A 
HETATM   21  C18 UNL     1     -10.241  47.473 -18.348  1.00  0.00     0.091 A 
HETATM   22  N6  UNL     1      -9.646  47.676 -19.564  1.00  0.00    -0.360 N 
HETATM   23  C19 UNL     1     -10.056  47.020 -20.788  1.00  0.00     0.155 C 
ENDBRANCH  16  18
ENDBRANCH  13  15
ENDBRANCH   8  11
BRANCH   9  24
HETATM   24  N7  UNL     1      -4.576  48.424 -23.995  1.00  0.00    -0.397 N 
HETATM   25  H28 UNL     1      -4.872  48.022 -23.101  1.00  0.00     0.156 HD
HETATM   26  H29 UNL     1      -4.350  47.722 -24.687  1.00  0.00     0.156 HD
ENDBRANCH   9  24
BRANCH   1  27
HETATM   27  C3  UNL     1      -3.433  48.548 -27.118  1.00  0.00     0.039 C 
BRANCH  27  28
HETATM   28  C2  UNL     1      -4.511  48.427 -28.202  1.00  0.00     0.000 C 
HETATM   29  C1  UNL     1      -5.800  47.776 -27.723  1.00  0.00     0.005 C 
ENDBRANCH  27  28
ENDBRANCH   1  27
BRANCH   3  30
HETATM   30  N1  UNL     1      -1.991  53.144 -27.904  1.00  0.00    -0.277 NA
HETATM   31  H9  UNL     1      -2.597  53.956 -27.990  1.00  0.00     0.129 HD
BRANCH  30  32
HETATM   32  C7  UNL     1      -0.608  53.525 -27.580  1.00  0.00     0.124 C 
BRANCH  32  33
HETATM   33  C8  UNL     1       0.356  52.378 -27.965  1.00  0.00     0.286 C 
BRANCH  33  34
HETATM   34  N2  UNL     1       1.133  51.738 -26.888  1.00  0.00     0.081 N 
HETATM   35  C9  UNL     1       2.562  51.685 -27.181  1.00  0.00     0.309 C 
HETATM   36  C10 UNL     1       0.892  52.357 -25.588  1.00  0.00     0.309 C 
ENDBRANCH  33  34
ENDBRANCH  32  33
ENDBRANCH  30  32
ENDBRANCH   3  30
TORSDOF 10
ENDMDL
MODEL 9
REMARK minimizedAffinity -7.26992941
REMARK  10 active torsions:
REMARK  status: ('A' for Active; 'I' for Inactive)
REMARK    1  A    between atoms: C2_2  and  C3_3 
REMARK    2  A    between atoms: C3_3  and  C4_4 
REMARK    3  A    between atoms: C6_6  and  N1_7 
REMARK    4  A    between atoms: N1_7  and  C7_8 
REMARK    5  A    between atoms: C7_8  and  C8_9 
REMARK    6  A    between atoms: C8_9  and  N2_10 
REMARK    7  A    between atoms: C12_17  and  C13_18 
REMARK       I    between atoms: C13_18  and  N4_20 
REMARK    8  A    between atoms: N4_20  and  N5_21 
REMARK    9  A    between atoms: C14_23  and  C15_24 
REMARK   10  A    between atoms: C20_30  and  N7_31 
ROOT
HETATM    1  C4  UNL     1      -0.683  51.191 -22.472  1.00  0.00    -0.040 A 
HETATM    2  C5  UNL     1      -0.605  50.460 -21.265  1.00  0.00     0.050 A 
HETATM    3  C6  UNL     1      -1.323  49.285 -21.075  1.00  0.00     0.081 A 
HETATM    4  N3  UNL     1      -2.106  48.768 -22.024  1.00  0.00    -0.341 N 
ATOM      5  H3  UNL     1      -2.622  47.898 -21.887  1.00  0.00     0.167 HD
HETATM    6  C11 UNL     1      -2.174  49.463 -23.173  1.00  0.00     0.089 A 
HETATM    7  S1  UNL     1      -3.161  48.870 -24.419  1.00  0.00    -0.064 SA
HETATM    8  C12 UNL     1      -2.763  50.169 -25.456  1.00  0.00     0.103 A 
HETATM    9  C20 UNL     1      -1.881  51.043 -24.837  1.00  0.00     0.062 A 
HETATM   10  C21 UNL     1      -1.521  50.653 -23.490  1.00  0.00     0.032 A 
ENDROOT
BRANCH   8  11
HETATM   11  C13 UNL     1      -3.320  50.260 -26.808  1.00  0.00     0.279 C 
HETATM   12  O1  UNL     1      -3.036  51.186 -27.570  1.00  0.00    -0.265 OA
HETATM   13  N4  UNL     1      -4.181  49.220 -27.165  1.00  0.00    -0.266 N 
HETATM   14  H20 UNL     1      -4.184  48.404 -26.559  1.00  0.00     0.190 HD
BRANCH  13  15
HETATM   15  N5  UNL     1      -4.693  48.976 -28.417  1.00  0.00    -0.307 N 
HETATM   16  C14 UNL     1      -5.408  47.912 -28.600  1.00  0.00     0.136 C 
ATOM     17  H5  UNL     1      -4.513  49.620 -29.187  1.00  0.00     0.186 HD
BRANCH  16  18
HETATM   18  C15 UNL     1      -6.005  47.650 -29.890  1.00  0.00     0.050 A 
HETATM   19  C16 UNL     1      -5.414  47.087 -31.008  1.00  0.00     0.032 A 
HETATM   20  C17 UNL     1      -6.380  47.010 -32.037  1.00  0.00     0.019 A 
HETATM   21  C18 UNL     1      -7.547  47.538 -31.533  1.00  0.00     0.091 A 
HETATM   22  N6  UNL     1      -7.311  47.931 -30.242  1.00  0.00    -0.360 N 
HETATM   23  C19 UNL     1      -8.298  48.565 -29.393  1.00  0.00     0.155 C 
ENDBRANCH  16  18
ENDBRANCH  13  15
ENDBRANCH   8  11
BRANCH   9  24
HETATM   24  N7  UNL     1      -1.430  52.147 -25.474  1.00  0.00    -0.397 N 
HETATM   25  H28 UNL     1      -1.647  52.296 -26.464  1.00  0.00     0.156 HD
HETATM   26  H29 UNL     1      -0.685  52.744 -25.140  1.00  0.00     0.156 HD
ENDBRANCH   9  24
BRANCH   1  27
HETATM   27  C3  UNL     1       0.144  52.456 -22.559  1.00  0.00     0.039 C 
BRANCH  27  28
HETATM   28  C2  UNL     1       1.058  52.678 -21.348  1.00  0.00     0.000 C 
HETATM   29  C1  UNL     1       1.404  54.137 -21.092  1.00  0.00     0.005 C 
ENDBRANCH  27  28
ENDBRANCH   1  27
BRANCH   3  30
HETATM   30  N1  UNL     1      -1.164  48.617 -19.843  1.00  0.00    -0.277 NA
HETATM   31  H9  UNL     1      -0.205  48.284 -19.775  1.00  0.00     0.129 HD
BRANCH  30  32
HETATM   32  C7  UNL     1      -1.548  49.417 -18.671  1.00  0.00     0.124 C 
BRANCH  32  33
HETATM   33  C8  UNL     1      -0.542  49.182 -17.520  1.00  0.00     0.286 C 
BRANCH  33  34
HETATM   34  N2  UNL     1       0.405  50.265 -17.197  1.00  0.00     0.081 N 
HETATM   35  C9  UNL     1       0.030  51.539 -17.803  1.00  0.00     0.309 C 
HETATM   36  C10 UNL     1       0.606  50.413 -15.759  1.00  0.00     0.309 C 
ENDBRANCH  33  34
ENDBRANCH  32  33
ENDBRANCH  30  32
ENDBRANCH   3  30
TORSDOF 10
ENDMDL
