MODEL 1
REMARK minimizedAffinity -10.1791067
REMARK CNNscore 0.25151217
REMARK CNNaffinity 7.90479326
REMARK  6 active torsions:
REMARK  status: ('A' for Active; 'I' for Inactive)
REMARK    1  A    between atoms: C2_2  and  C3_3 
REMARK       I    between atoms: C3_3  and  N1_5 
REMARK    2  A    between atoms: C7_9  and  C8_10 
REMARK    3  A    between atoms: C13_17  and  C14_18 
REMARK       I    between atoms: C14_18  and  N3_20 
REMARK    4  A    between atoms: N3_20  and  C15_21 
REMARK    5  A    between atoms: C17_23  and  C18_24 
REMARK    6  A    between atoms: C24_36  and  N5_37 
ROOT
HETATM    1  C8  UNL     1      -0.129  52.211 -19.818  1.00  0.00     0.094 A 
HETATM    2  N2  UNL     1      -0.998  51.357 -20.328  1.00  0.00    -0.342 N 
ATOM      3  H2  UNL     1      -1.520  50.640 -19.824  1.00  0.00     0.167 HD
HETATM    4  C9  UNL     1      -1.057  51.628 -21.672  1.00  0.00     0.077 A 
HETATM    5  C10 UNL     1      -1.949  50.910 -22.547  1.00  0.00     0.032 A 
HETATM    6  C11 UNL     1      -1.682  49.573 -22.861  1.00  0.00     0.018 A 
HETATM    7  C12 UNL     1      -2.572  48.844 -23.657  1.00  0.00     0.018 A 
HETATM    8  C13 UNL     1      -3.756  49.440 -24.123  1.00  0.00     0.035 A 
HETATM    9  C21 UNL     1      -4.010  50.785 -23.823  1.00  0.00     0.060 A 
HETATM   10  C22 UNL     1      -3.111  51.506 -23.040  1.00  0.00     0.130 A 
HETATM   11  F4  UNL     1      -3.395  52.785 -22.758  1.00  0.00    -0.205 F 
HETATM   12  C23 UNL     1      -0.150  52.604 -22.013  1.00  0.00     0.106 A 
HETATM   13  C24 UNL     1       0.264  53.249 -23.235  1.00  0.00     0.107 A 
HETATM   14  N6  UNL     1       1.200  54.170 -23.205  1.00  0.00    -0.354 N 
ATOM     15  H6  UNL     1       1.505  54.627 -24.065  1.00  0.00     0.166 HD
HETATM   16  C25 UNL     1       1.766  54.511 -21.995  1.00  0.00     0.107 A 
HETATM   17  C26 UNL     1       1.427  53.949 -20.825  1.00  0.00     0.116 A 
HETATM   18  N7  UNL     1       0.444  52.975 -20.823  1.00  0.00    -0.305 N 
ENDROOT
BRANCH   1  19
HETATM   19  C7  UNL     1       0.168  52.297 -18.348  1.00  0.00     0.072 C 
HETATM   20  C6  UNL     1       1.664  52.362 -18.022  1.00  0.00     0.015 C 
HETATM   21  C5  UNL     1       1.934  52.467 -16.516  1.00  0.00     0.021 C 
HETATM   22  C4  UNL     1       0.699  52.218 -15.653  1.00  0.00     0.126 C 
HETATM   23  N1  UNL     1      -0.074  51.087 -16.161  1.00  0.00    -0.351 N 
HETATM   24  C3  UNL     1      -0.396  50.038 -15.289  1.00  0.00     0.232 C 
HETATM   25  C27 UNL     1      -0.558  51.208 -17.540  1.00  0.00     0.138 C 
HETATM   26  O1  UNL     1       0.071  50.022 -14.140  1.00  0.00    -0.272 OA
BRANCH  24  27
HETATM   27  C2  UNL     1      -1.309  48.879 -15.784  1.00  0.00     0.080 C 
HETATM   28  C1  UNL     1      -1.048  48.507 -17.248  1.00  0.00     0.030 C 
HETATM   29  C28 UNL     1      -1.254  47.604 -14.899  1.00  0.00     0.188 C 
HETATM   30  O3  UNL     1      -2.701  47.490 -14.920  1.00  0.00    -0.389 OA
HETATM   31  C29 UNL     1      -2.793  48.866 -15.361  1.00  0.00     0.188 C 
ENDBRANCH  24  27
ENDBRANCH   1  19
BRANCH  13  32
HETATM   32  N5  UNL     1      -0.239  52.954 -24.468  1.00  0.00    -0.287 NA
HETATM   33  H18 UNL     1      -0.524  51.997 -24.626  1.00  0.00     0.125 HD
HETATM   34  H19 UNL     1       0.338  53.334 -25.210  1.00  0.00     0.125 HD
ENDBRANCH  13  32
BRANCH   8  35
HETATM   35  C14 UNL     1      -4.764  48.704 -24.945  1.00  0.00     0.257 C 
HETATM   36  O2  UNL     1      -5.668  48.111 -24.364  1.00  0.00    -0.267 OA
HETATM   37  N3  UNL     1      -4.561  48.726 -26.303  1.00  0.00    -0.309 N 
HETATM   38  H13 UNL     1      -3.732  49.145 -26.696  1.00  0.00     0.170 HD
BRANCH  37  39
HETATM   39  C15 UNL     1      -5.360  48.172 -27.305  1.00  0.00     0.108 A 
HETATM   40  C16 UNL     1      -4.985  48.049 -28.634  1.00  0.00     0.064 A 
HETATM   41  C17 UNL     1      -5.876  47.463 -29.545  1.00  0.00     0.052 A 
HETATM   42  C19 UNL     1      -7.117  47.027 -29.079  1.00  0.00     0.033 A 
HETATM   43  C20 UNL     1      -7.407  47.190 -27.737  1.00  0.00     0.090 A 
HETATM   44  N4  UNL     1      -6.558  47.749 -26.848  1.00  0.00    -0.352 N 
ATOM     45  H4  UNL     1      -6.813  47.848 -25.865  1.00  0.00     0.166 HD
BRANCH  41  46
HETATM   46  C18 UNL     1      -5.499  47.344 -30.998  1.00  0.00     0.417 C 
HETATM   47  F1  UNL     1      -4.561  46.382 -31.211  1.00  0.00    -0.166 F 
HETATM   48  F2  UNL     1      -4.979  48.494 -31.512  1.00  0.00    -0.166 F 
HETATM   49  F3  UNL     1      -6.555  47.028 -31.797  1.00  0.00    -0.166 F 
ENDBRANCH  41  46
ENDBRANCH  37  39
ENDBRANCH   8  35
TORSDOF 6
ENDMDL
MODEL 2
REMARK minimizedAffinity -8.90383434
REMARK CNNscore 0.246073321
REMARK CNNaffinity 6.45321608
REMARK  6 active torsions:
REMARK  status: ('A' for Active; 'I' for Inactive)
REMARK    1  A    between atoms: C2_2  and  C3_3 
REMARK       I    between atoms: C3_3  and  N1_5 
REMARK    2  A    between atoms: C7_9  and  C8_10 
REMARK    3  A    between atoms: C13_17  and  C14_18 
REMARK       I    between atoms: C14_18  and  N3_20 
REMARK    4  A    between atoms: N3_20  and  C15_21 
REMARK    5  A    between atoms: C17_23  and  C18_24 
REMARK    6  A    between atoms: C24_36  and  N5_37 
ROOT
HETATM    1  C8  UNL     1      -6.921  49.624 -10.112  1.00  0.00     0.094 A 
HETATM    2  N2  UNL     1      -6.251  50.737  -9.870  1.00  0.00    -0.342 N 
ATOM      3  H2  UNL     1      -6.562  51.530  -9.310  1.00  0.00     0.167 HD
HETATM    4  C9  UNL     1      -5.051  50.612 -10.525  1.00  0.00     0.077 A 
HETATM    5  C10 UNL     1      -4.038  51.633 -10.444  1.00  0.00     0.032 A 
HETATM    6  C11 UNL     1      -4.232  52.853 -11.099  1.00  0.00     0.018 A 
HETATM    7  C12 UNL     1      -3.286  53.877 -10.978  1.00  0.00     0.018 A 
HETATM    8  C13 UNL     1      -2.149  53.698 -10.172  1.00  0.00     0.035 A 
HETATM    9  C21 UNL     1      -1.949  52.467  -9.533  1.00  0.00     0.060 A 
HETATM   10  C22 UNL     1      -2.890  51.450  -9.670  1.00  0.00     0.130 A 
HETATM   11  F4  UNL     1      -2.675  50.292  -9.031  1.00  0.00    -0.205 F 
HETATM   12  C23 UNL     1      -5.013  49.444 -11.251  1.00  0.00     0.106 A 
HETATM   13  C24 UNL     1      -4.071  48.812 -12.143  1.00  0.00     0.107 A 
HETATM   14  N6  UNL     1      -4.366  47.657 -12.695  1.00  0.00    -0.354 N 
ATOM     15  H6  UNL     1      -3.709  47.206 -13.333  1.00  0.00     0.166 HD
HETATM   16  C25 UNL     1      -5.574  47.063 -12.401  1.00  0.00     0.107 A 
HETATM   17  C26 UNL     1      -6.493  47.598 -11.583  1.00  0.00     0.116 A 
HETATM   18  N7  UNL     1      -6.213  48.815 -10.985  1.00  0.00    -0.305 N 
ENDROOT
BRANCH   1  19
HETATM   19  C7  UNL     1      -8.263  49.330  -9.505  1.00  0.00     0.072 C 
HETATM   20  C6  UNL     1      -8.208  49.020  -8.004  1.00  0.00     0.015 C 
HETATM   21  C5  UNL     1      -9.595  48.742  -7.411  1.00  0.00     0.021 C 
HETATM   22  C4  UNL     1     -10.688  48.567  -8.463  1.00  0.00     0.126 C 
HETATM   23  N1  UNL     1     -10.214  47.750  -9.579  1.00  0.00    -0.351 N 
HETATM   24  C3  UNL     1     -10.957  46.625  -9.960  1.00  0.00     0.232 C 
HETATM   25  C27 UNL     1      -9.040  48.261 -10.292  1.00  0.00     0.138 C 
HETATM   26  O1  UNL     1     -11.934  46.268  -9.283  1.00  0.00    -0.272 OA
BRANCH  24  27
HETATM   27  C2  UNL     1     -10.525  45.808 -11.213  1.00  0.00     0.080 C 
HETATM   28  C1  UNL     1      -9.580  44.652 -10.866  1.00  0.00     0.030 C 
HETATM   29  C28 UNL     1     -11.711  45.280 -12.067  1.00  0.00     0.188 C 
HETATM   30  O3  UNL     1     -11.059  45.710 -13.291  1.00  0.00    -0.389 OA
HETATM   31  C29 UNL     1     -10.184  46.563 -12.515  1.00  0.00     0.188 C 
ENDBRANCH  24  27
ENDBRANCH   1  19
BRANCH  13  32
HETATM   32  N5  UNL     1      -2.866  49.347 -12.492  1.00  0.00    -0.287 NA
HETATM   33  H18 UNL     1      -2.813  50.355 -12.542  1.00  0.00     0.125 HD
HETATM   34  H19 UNL     1      -2.466  48.878 -13.297  1.00  0.00     0.125 HD
ENDBRANCH  13  32
BRANCH   8  35
HETATM   35  C14 UNL     1      -1.124  54.767  -9.971  1.00  0.00     0.257 C 
HETATM   36  O2  UNL     1      -1.509  55.917  -9.786  1.00  0.00    -0.267 OA
HETATM   37  N3  UNL     1       0.186  54.363 -10.051  1.00  0.00    -0.309 N 
HETATM   38  H13 UNL     1       0.421  53.417 -10.315  1.00  0.00     0.170 HD
BRANCH  37  39
HETATM   39  C15 UNL     1       1.339  55.126  -9.859  1.00  0.00     0.108 A 
HETATM   40  C16 UNL     1       1.700  55.720  -8.659  1.00  0.00     0.064 A 
HETATM   41  C17 UNL     1       2.892  56.456  -8.591  1.00  0.00     0.052 A 
HETATM   42  C19 UNL     1       3.675  56.567  -9.742  1.00  0.00     0.033 A 
HETATM   43  C20 UNL     1       3.237  55.942 -10.894  1.00  0.00     0.090 A 
HETATM   44  N4  UNL     1       2.094  55.228 -10.974  1.00  0.00    -0.352 N 
ATOM     45  H4  UNL     1       1.810  54.781 -11.846  1.00  0.00     0.166 HD
BRANCH  41  46
HETATM   46  C18 UNL     1       3.289  57.131  -7.305  1.00  0.00     0.417 C 
HETATM   47  F1  UNL     1       2.686  58.341  -7.150  1.00  0.00    -0.166 F 
HETATM   48  F2  UNL     1       4.628  57.367  -7.217  1.00  0.00    -0.166 F 
HETATM   49  F3  UNL     1       2.969  56.402  -6.201  1.00  0.00    -0.166 F 
ENDBRANCH  41  46
ENDBRANCH  37  39
ENDBRANCH   8  35
TORSDOF 6
ENDMDL
MODEL 3
REMARK minimizedAffinity -9.38325882
REMARK CNNscore 0.173356354
REMARK CNNaffinity 6.06279516
REMARK  6 active torsions:
REMARK  status: ('A' for Active; 'I' for Inactive)
REMARK    1  A    between atoms: C2_2  and  C3_3 
REMARK       I    between atoms: C3_3  and  N1_5 
REMARK    2  A    between atoms: C7_9  and  C8_10 
REMARK    3  A    between atoms: C13_17  and  C14_18 
REMARK       I    between atoms: C14_18  and  N3_20 
REMARK    4  A    between atoms: N3_20  and  C15_21 
REMARK    5  A    between atoms: C17_23  and  C18_24 
REMARK    6  A    between atoms: C24_36  and  N5_37 
ROOT
HETATM    1  C8  UNL     1     -10.556  45.846 -33.589  1.00  0.00     0.094 A 
HETATM    2  N2  UNL     1     -11.315  45.904 -32.509  1.00  0.00    -0.342 N 
ATOM      3  H2  UNL     1     -12.257  45.529 -32.401  1.00  0.00     0.167 HD
HETATM    4  C9  UNL     1     -10.579  46.569 -31.560  1.00  0.00     0.077 A 
HETATM    5  C10 UNL     1     -11.082  46.778 -30.226  1.00  0.00     0.032 A 
HETATM    6  C11 UNL     1     -12.121  47.690 -30.014  1.00  0.00     0.018 A 
HETATM    7  C12 UNL     1     -12.663  47.857 -28.735  1.00  0.00     0.018 A 
HETATM    8  C13 UNL     1     -12.187  47.088 -27.659  1.00  0.00     0.035 A 
HETATM    9  C21 UNL     1     -11.133  46.190 -27.872  1.00  0.00     0.060 A 
HETATM   10  C22 UNL     1     -10.592  46.040 -29.147  1.00  0.00     0.130 A 
HETATM   11  F4  UNL     1      -9.596  45.160 -29.317  1.00  0.00    -0.205 F 
HETATM   12  C23 UNL     1      -9.385  47.004 -32.087  1.00  0.00     0.106 A 
HETATM   13  C24 UNL     1      -8.260  47.769 -31.605  1.00  0.00     0.107 A 
HETATM   14  N6  UNL     1      -7.249  48.021 -32.405  1.00  0.00    -0.354 N 
ATOM     15  H6  UNL     1      -6.453  48.568 -32.076  1.00  0.00     0.166 HD
HETATM   16  C25 UNL     1      -7.279  47.538 -33.695  1.00  0.00     0.107 A 
HETATM   17  C26 UNL     1      -8.294  46.822 -34.204  1.00  0.00     0.116 A 
HETATM   18  N7  UNL     1      -9.374  46.540 -33.387  1.00  0.00    -0.305 N 
ENDROOT
BRANCH   1  19
HETATM   19  C7  UNL     1     -10.969  45.122 -34.840  1.00  0.00     0.072 C 
HETATM   20  C6  UNL     1      -9.816  44.391 -35.538  1.00  0.00     0.015 C 
HETATM   21  C5  UNL     1     -10.271  43.647 -36.800  1.00  0.00     0.021 C 
HETATM   22  C4  UNL     1     -11.689  44.002 -37.243  1.00  0.00     0.126 C 
HETATM   23  N1  UNL     1     -11.925  45.441 -37.139  1.00  0.00    -0.351 N 
HETATM   24  C3  UNL     1     -12.396  46.134 -38.263  1.00  0.00     0.232 C 
HETATM   25  C27 UNL     1     -11.757  46.023 -35.805  1.00  0.00     0.138 C 
HETATM   26  O1  UNL     1     -12.496  45.551 -39.354  1.00  0.00    -0.272 OA
BRANCH  24  27
HETATM   27  C2  UNL     1     -12.754  47.643 -38.140  1.00  0.00     0.080 C 
HETATM   28  C1  UNL     1     -11.513  48.539 -38.057  1.00  0.00     0.030 C 
HETATM   29  C28 UNL     1     -13.705  48.163 -39.252  1.00  0.00     0.188 C 
HETATM   30  O3  UNL     1     -14.520  48.860 -38.272  1.00  0.00    -0.389 OA
HETATM   31  C29 UNL     1     -13.924  48.060 -37.223  1.00  0.00     0.188 C 
ENDBRANCH  24  27
ENDBRANCH   1  19
BRANCH  13  32
HETATM   32  N5  UNL     1      -8.168  48.292 -30.349  1.00  0.00    -0.287 NA
HETATM   33  H18 UNL     1      -9.033  48.578 -29.910  1.00  0.00     0.125 HD
HETATM   34  H19 UNL     1      -7.431  48.984 -30.283  1.00  0.00     0.125 HD
ENDBRANCH  13  32
BRANCH   8  35
HETATM   35  C14 UNL     1     -12.750  47.193 -26.279  1.00  0.00     0.257 C 
HETATM   36  O2  UNL     1     -12.062  47.715 -25.407  1.00  0.00    -0.267 OA
HETATM   37  N3  UNL     1     -13.999  46.650 -26.098  1.00  0.00    -0.309 N 
HETATM   38  H13 UNL     1     -14.454  46.141 -26.841  1.00  0.00     0.170 HD
BRANCH  37  39
HETATM   39  C15 UNL     1     -14.780  46.647 -24.941  1.00  0.00     0.108 A 
HETATM   40  C16 UNL     1     -16.166  46.600 -24.927  1.00  0.00     0.064 A 
HETATM   41  C17 UNL     1     -16.838  46.592 -23.695  1.00  0.00     0.052 A 
HETATM   42  C19 UNL     1     -16.082  46.635 -22.522  1.00  0.00     0.033 A 
HETATM   43  C20 UNL     1     -14.705  46.681 -22.632  1.00  0.00     0.090 A 
HETATM   44  N4  UNL     1     -14.044  46.686 -23.810  1.00  0.00    -0.352 N 
ATOM     45  H4  UNL     1     -13.025  46.719 -23.844  1.00  0.00     0.166 HD
BRANCH  41  46
HETATM   46  C18 UNL     1     -18.343  46.567 -23.657  1.00  0.00     0.417 C 
HETATM   47  F1  UNL     1     -18.831  46.777 -22.405  1.00  0.00    -0.166 F 
HETATM   48  F2  UNL     1     -18.869  45.379 -24.068  1.00  0.00    -0.166 F 
HETATM   49  F3  UNL     1     -18.910  47.516 -24.451  1.00  0.00    -0.166 F 
ENDBRANCH  41  46
ENDBRANCH  37  39
ENDBRANCH   8  35
TORSDOF 6
ENDMDL
MODEL 4
REMARK minimizedAffinity -10.3323116
REMARK CNNscore 0.156196102
REMARK CNNaffinity 7.330235
REMARK  6 active torsions:
REMARK  status: ('A' for Active; 'I' for Inactive)
REMARK    1  A    between atoms: C2_2  and  C3_3 
REMARK       I    between atoms: C3_3  and  N1_5 
REMARK    2  A    between atoms: C7_9  and  C8_10 
REMARK    3  A    between atoms: C13_17  and  C14_18 
REMARK       I    between atoms: C14_18  and  N3_20 
REMARK    4  A    between atoms: N3_20  and  C15_21 
REMARK    5  A    between atoms: C17_23  and  C18_24 
REMARK    6  A    between atoms: C24_36  and  N5_37 
ROOT
HETATM    1  C8  UNL     1      -1.669  51.067 -21.141  1.00  0.00     0.094 A 
HETATM    2  N2  UNL     1      -2.170  50.550 -20.033  1.00  0.00    -0.342 N 
ATOM      3  H2  UNL     1      -2.976  49.929 -19.957  1.00  0.00     0.167 HD
HETATM    4  C9  UNL     1      -1.388  51.016 -19.006  1.00  0.00     0.077 A 
HETATM    5  C10 UNL     1      -1.619  50.615 -17.641  1.00  0.00     0.032 A 
HETATM    6  C11 UNL     1      -2.744  51.094 -16.961  1.00  0.00     0.018 A 
HETATM    7  C12 UNL     1      -3.016  50.663 -15.657  1.00  0.00     0.018 A 
HETATM    8  C13 UNL     1      -2.178  49.724 -15.033  1.00  0.00     0.035 A 
HETATM    9  C21 UNL     1      -1.042  49.262 -15.711  1.00  0.00     0.060 A 
HETATM   10  C22 UNL     1      -0.773  49.706 -17.003  1.00  0.00     0.130 A 
HETATM   11  F4  UNL     1       0.313  49.230 -17.628  1.00  0.00    -0.205 F 
HETATM   12  C23 UNL     1      -0.445  51.900 -19.474  1.00  0.00     0.106 A 
HETATM   13  C24 UNL     1       0.588  52.719 -18.885  1.00  0.00     0.107 A 
HETATM   14  N6  UNL     1       1.332  53.485 -19.650  1.00  0.00    -0.354 N 
ATOM     15  H6  UNL     1       2.060  54.072 -19.242  1.00  0.00     0.166 HD
HETATM   16  C25 UNL     1       1.116  53.484 -21.011  1.00  0.00     0.107 A 
HETATM   17  C26 UNL     1       0.173  52.749 -21.620  1.00  0.00     0.116 A 
HETATM   18  N7  UNL     1      -0.628  51.932 -20.843  1.00  0.00    -0.305 N 
ENDROOT
BRANCH   1  19
HETATM   19  C7  UNL     1      -2.195  50.736 -22.509  1.00  0.00     0.072 C 
HETATM   20  C6  UNL     1      -2.219  49.234 -22.815  1.00  0.00     0.015 C 
HETATM   21  C5  UNL     1      -2.779  48.928 -24.210  1.00  0.00     0.021 C 
HETATM   22  C4  UNL     1      -2.939  50.165 -25.091  1.00  0.00     0.126 C 
HETATM   23  N1  UNL     1      -1.782  51.049 -24.965  1.00  0.00    -0.351 N 
HETATM   24  C3  UNL     1      -1.106  51.451 -26.125  1.00  0.00     0.232 C 
HETATM   25  C27 UNL     1      -1.499  51.545 -23.615  1.00  0.00     0.138 C 
HETATM   26  O1  UNL     1      -1.417  50.966 -27.224  1.00  0.00    -0.272 OA
BRANCH  24  27
HETATM   27  C2  UNL     1       0.059  52.478 -26.019  1.00  0.00     0.080 C 
HETATM   28  C1  UNL     1       1.429  51.804 -25.892  1.00  0.00     0.030 C 
HETATM   29  C28 UNL     1       0.091  53.524 -27.167  1.00  0.00     0.188 C 
HETATM   30  O3  UNL     1       0.311  54.602 -26.219  1.00  0.00    -0.389 OA
HETATM   31  C29 UNL     1      -0.134  53.737 -25.146  1.00  0.00     0.188 C 
ENDBRANCH  24  27
ENDBRANCH   1  19
BRANCH  13  32
HETATM   32  N5  UNL     1       0.848  52.782 -17.548  1.00  0.00    -0.287 NA
HETATM   33  H18 UNL     1       0.061  52.664 -16.925  1.00  0.00     0.125 HD
HETATM   34  H19 UNL     1       1.434  53.576 -17.317  1.00  0.00     0.125 HD
ENDBRANCH  13  32
BRANCH   8  35
HETATM   35  C14 UNL     1      -2.436  49.197 -13.659  1.00  0.00     0.257 C 
HETATM   36  O2  UNL     1      -1.752  48.262 -13.255  1.00  0.00    -0.267 OA
HETATM   37  N3  UNL     1      -3.463  49.795 -12.971  1.00  0.00    -0.309 N 
HETATM   38  H13 UNL     1      -4.050  50.486 -13.414  1.00  0.00     0.170 HD
BRANCH  37  39
HETATM   39  C15 UNL     1      -3.891  49.544 -11.666  1.00  0.00     0.108 A 
HETATM   40  C16 UNL     1      -5.217  49.413 -11.283  1.00  0.00     0.064 A 
HETATM   41  C17 UNL     1      -5.518  49.150  -9.938  1.00  0.00     0.052 A 
HETATM   42  C19 UNL     1      -4.466  49.033  -9.029  1.00  0.00     0.033 A 
HETATM   43  C20 UNL     1      -3.174  49.180  -9.499  1.00  0.00     0.090 A 
HETATM   44  N4  UNL     1      -2.869  49.430 -10.791  1.00  0.00    -0.352 N 
ATOM     45  H4  UNL     1      -1.900  49.529 -11.095  1.00  0.00     0.166 HD
BRANCH  41  46
HETATM   46  C18 UNL     1      -6.953  49.029  -9.497  1.00  0.00     0.417 C 
HETATM   47  F1  UNL     1      -7.070  48.433  -8.279  1.00  0.00    -0.166 F 
HETATM   48  F2  UNL     1      -7.714  48.288 -10.350  1.00  0.00    -0.166 F 
HETATM   49  F3  UNL     1      -7.580  50.232  -9.393  1.00  0.00    -0.166 F 
ENDBRANCH  41  46
ENDBRANCH  37  39
ENDBRANCH   8  35
TORSDOF 6
ENDMDL
MODEL 5
REMARK minimizedAffinity -10.3646374
REMARK CNNscore 0.143418714
REMARK CNNaffinity 7.57287455
REMARK  6 active torsions:
REMARK  status: ('A' for Active; 'I' for Inactive)
REMARK    1  A    between atoms: C2_2  and  C3_3 
REMARK       I    between atoms: C3_3  and  N1_5 
REMARK    2  A    between atoms: C7_9  and  C8_10 
REMARK    3  A    between atoms: C13_17  and  C14_18 
REMARK       I    between atoms: C14_18  and  N3_20 
REMARK    4  A    between atoms: N3_20  and  C15_21 
REMARK    5  A    between atoms: C17_23  and  C18_24 
REMARK    6  A    between atoms: C24_36  and  N5_37 
ROOT
HETATM    1  C8  UNL     1      -0.708  51.931 -20.953  1.00  0.00     0.094 A 
HETATM    2  N2  UNL     1      -1.388  51.247 -21.858  1.00  0.00    -0.342 N 
ATOM      3  H2  UNL     1      -2.025  50.469 -21.686  1.00  0.00     0.167 HD
HETATM    4  C9  UNL     1      -1.064  51.795 -23.074  1.00  0.00     0.077 A 
HETATM    5  C10 UNL     1      -1.663  51.321 -24.296  1.00  0.00     0.032 A 
HETATM    6  C11 UNL     1      -1.304  50.067 -24.801  1.00  0.00     0.018 A 
HETATM    7  C12 UNL     1      -1.924  49.567 -25.952  1.00  0.00     0.018 A 
HETATM    8  C13 UNL     1      -2.931  50.308 -26.592  1.00  0.00     0.035 A 
HETATM    9  C21 UNL     1      -3.273  51.572 -26.094  1.00  0.00     0.060 A 
HETATM   10  C22 UNL     1      -2.642  52.066 -24.955  1.00  0.00     0.130 A 
HETATM   11  F4  UNL     1      -3.007  53.272 -24.497  1.00  0.00    -0.205 F 
HETATM   12  C23 UNL     1      -0.108  52.772 -22.929  1.00  0.00     0.106 A 
HETATM   13  C24 UNL     1       0.631  53.635 -23.818  1.00  0.00     0.107 A 
HETATM   14  N6  UNL     1       1.511  54.480 -23.330  1.00  0.00    -0.354 N 
ATOM     15  H6  UNL     1       2.043  55.089 -23.952  1.00  0.00     0.166 HD
HETATM   16  C25 UNL     1       1.705  54.531 -21.967  1.00  0.00     0.107 A 
HETATM   17  C26 UNL     1       1.053  53.756 -21.087  1.00  0.00     0.116 A 
HETATM   18  N7  UNL     1       0.119  52.856 -21.569  1.00  0.00    -0.305 N 
ENDROOT
BRANCH   1  19
HETATM   19  C7  UNL     1      -0.844  51.693 -19.476  1.00  0.00     0.072 C 
HETATM   20  C6  UNL     1       0.492  51.447 -18.765  1.00  0.00     0.015 C 
HETATM   21  C5  UNL     1       0.322  51.226 -17.257  1.00  0.00     0.021 C 
HETATM   22  C4  UNL     1      -1.130  51.031 -16.825  1.00  0.00     0.126 C 
HETATM   23  N1  UNL     1      -1.839  50.157 -17.757  1.00  0.00    -0.351 N 
HETATM   24  C3  UNL     1      -2.512  49.034 -17.257  1.00  0.00     0.232 C 
HETATM   25  C27 UNL     1      -1.886  50.610 -19.151  1.00  0.00     0.138 C 
HETATM   26  O1  UNL     1      -2.403  48.729 -16.059  1.00  0.00    -0.272 OA
BRANCH  24  27
HETATM   27  C2  UNL     1      -3.361  48.155 -18.220  1.00  0.00     0.080 C 
HETATM   28  C1  UNL     1      -4.599  48.887 -18.750  1.00  0.00     0.030 C 
HETATM   29  C28 UNL     1      -2.558  47.552 -19.405  1.00  0.00     0.188 C 
HETATM   30  O3  UNL     1      -3.171  46.251 -19.197  1.00  0.00    -0.389 OA
HETATM   31  C29 UNL     1      -3.581  46.667 -17.872  1.00  0.00     0.188 C 
ENDBRANCH  24  27
ENDBRANCH   1  19
BRANCH  13  32
HETATM   32  N5  UNL     1       0.504  53.629 -25.176  1.00  0.00    -0.287 NA
HETATM   33  H18 UNL     1       0.285  52.742 -25.609  1.00  0.00     0.125 HD
HETATM   34  H19 UNL     1       1.264  54.125 -25.627  1.00  0.00     0.125 HD
ENDBRANCH  13  32
BRANCH   8  35
HETATM   35  C14 UNL     1      -3.656  49.811 -27.801  1.00  0.00     0.257 C 
HETATM   36  O2  UNL     1      -3.407  50.332 -28.884  1.00  0.00    -0.267 OA
HETATM   37  N3  UNL     1      -4.582  48.821 -27.581  1.00  0.00    -0.309 N 
HETATM   38  H13 UNL     1      -4.806  48.522 -26.643  1.00  0.00     0.170 HD
BRANCH  37  39
HETATM   39  C15 UNL     1      -5.362  48.143 -28.519  1.00  0.00     0.108 A 
HETATM   40  C16 UNL     1      -4.882  47.613 -29.707  1.00  0.00     0.064 A 
HETATM   41  C17 UNL     1      -5.767  46.943 -30.565  1.00  0.00     0.052 A 
HETATM   42  C19 UNL     1      -7.107  46.837 -30.190  1.00  0.00     0.033 A 
HETATM   43  C20 UNL     1      -7.498  47.396 -28.988  1.00  0.00     0.090 A 
HETATM   44  N4  UNL     1      -6.656  48.041 -28.151  1.00  0.00    -0.352 N 
ATOM     45  H4  UNL     1      -6.987  48.438 -27.271  1.00  0.00     0.166 HD
BRANCH  41  46
HETATM   46  C18 UNL     1      -5.272  46.383 -31.872  1.00  0.00     0.417 C 
HETATM   47  F1  UNL     1      -4.104  45.700 -31.731  1.00  0.00    -0.166 F 
HETATM   48  F2  UNL     1      -5.032  47.343 -32.808  1.00  0.00    -0.166 F 
HETATM   49  F3  UNL     1      -6.152  45.518 -32.446  1.00  0.00    -0.166 F 
ENDBRANCH  41  46
ENDBRANCH  37  39
ENDBRANCH   8  35
TORSDOF 6
ENDMDL
MODEL 6
REMARK minimizedAffinity -8.62338066
REMARK CNNscore 0.141786635
REMARK CNNaffinity 7.26090097
REMARK  6 active torsions:
REMARK  status: ('A' for Active; 'I' for Inactive)
REMARK    1  A    between atoms: C2_2  and  C3_3 
REMARK       I    between atoms: C3_3  and  N1_5 
REMARK    2  A    between atoms: C7_9  and  C8_10 
REMARK    3  A    between atoms: C13_17  and  C14_18 
REMARK       I    between atoms: C14_18  and  N3_20 
REMARK    4  A    between atoms: N3_20  and  C15_21 
REMARK    5  A    between atoms: C17_23  and  C18_24 
REMARK    6  A    between atoms: C24_36  and  N5_37 
ROOT
HETATM    1  C8  UNL     1      -2.430  49.835 -13.198  1.00  0.00     0.094 A 
HETATM    2  N2  UNL     1      -2.336  50.491 -14.341  1.00  0.00    -0.342 N 
ATOM      3  H2  UNL     1      -2.936  51.251 -14.662  1.00  0.00     0.167 HD
HETATM    4  C9  UNL     1      -1.270  49.944 -15.010  1.00  0.00     0.077 A 
HETATM    5  C10 UNL     1      -0.843  50.450 -16.290  1.00  0.00     0.032 A 
HETATM    6  C11 UNL     1      -1.630  50.219 -17.422  1.00  0.00     0.018 A 
HETATM    7  C12 UNL     1      -1.262  50.759 -18.660  1.00  0.00     0.018 A 
HETATM    8  C13 UNL     1      -0.113  51.561 -18.768  1.00  0.00     0.035 A 
HETATM    9  C21 UNL     1       0.684  51.773 -17.635  1.00  0.00     0.060 A 
HETATM   10  C22 UNL     1       0.314  51.222 -16.410  1.00  0.00     0.130 A 
HETATM   11  F4  UNL     1       1.091  51.459 -15.344  1.00  0.00    -0.205 F 
HETATM   12  C23 UNL     1      -0.750  48.880 -14.310  1.00  0.00     0.106 A 
HETATM   13  C24 UNL     1       0.305  47.919 -14.523  1.00  0.00     0.107 A 
HETATM   14  N6  UNL     1       0.538  46.992 -13.622  1.00  0.00    -0.354 N 
ATOM     15  H6  UNL     1       1.278  46.304 -13.767  1.00  0.00     0.166 HD
HETATM   16  C25 UNL     1      -0.230  46.961 -12.478  1.00  0.00     0.107 A 
HETATM   17  C26 UNL     1      -1.225  47.823 -12.221  1.00  0.00     0.116 A 
HETATM   18  N7  UNL     1      -1.496  48.812 -13.150  1.00  0.00    -0.305 N 
ENDROOT
BRANCH   1  19
HETATM   19  C7  UNL     1      -3.431  50.185 -12.134  1.00  0.00     0.072 C 
HETATM   20  C6  UNL     1      -2.797  50.652 -10.818  1.00  0.00     0.015 C 
HETATM   21  C5  UNL     1      -3.844  51.018  -9.759  1.00  0.00     0.021 C 
HETATM   22  C4  UNL     1      -5.264  50.596 -10.128  1.00  0.00     0.126 C 
HETATM   23  N1  UNL     1      -5.275  49.253 -10.707  1.00  0.00    -0.351 N 
HETATM   24  C3  UNL     1      -6.124  48.284 -10.156  1.00  0.00     0.232 C 
HETATM   25  C27 UNL     1      -4.468  49.070 -11.917  1.00  0.00     0.138 C 
HETATM   26  O1  UNL     1      -6.762  48.535  -9.121  1.00  0.00    -0.272 OA
BRANCH  24  27
HETATM   27  C2  UNL     1      -6.229  46.883 -10.826  1.00  0.00     0.080 C 
HETATM   28  C1  UNL     1      -4.964  46.040 -10.632  1.00  0.00     0.030 C 
HETATM   29  C28 UNL     1      -7.478  46.065 -10.397  1.00  0.00     0.188 C 
HETATM   30  O3  UNL     1      -7.750  45.701 -11.777  1.00  0.00    -0.389 OA
HETATM   31  C29 UNL     1      -6.882  46.771 -12.221  1.00  0.00     0.188 C 
ENDBRANCH  24  27
ENDBRANCH   1  19
BRANCH  13  32
HETATM   32  N5  UNL     1       1.094  47.878 -15.635  1.00  0.00    -0.287 NA
HETATM   33  H18 UNL     1       0.669  48.169 -16.505  1.00  0.00     0.125 HD
HETATM   34  H19 UNL     1       1.602  47.004 -15.703  1.00  0.00     0.125 HD
ENDBRANCH  13  32
BRANCH   8  35
HETATM   35  C14 UNL     1       0.311  52.196 -20.052  1.00  0.00     0.257 C 
HETATM   36  O2  UNL     1       1.137  53.103 -20.008  1.00  0.00    -0.267 OA
HETATM   37  N3  UNL     1      -0.301  51.722 -21.186  1.00  0.00    -0.309 N 
HETATM   38  H13 UNL     1      -1.050  51.048 -21.127  1.00  0.00     0.170 HD
BRANCH  37  39
HETATM   39  C15 UNL     1      -0.068  52.091 -22.512  1.00  0.00     0.108 A 
HETATM   40  C16 UNL     1      -0.443  51.341 -23.616  1.00  0.00     0.064 A 
HETATM   41  C17 UNL     1      -0.160  51.826 -24.902  1.00  0.00     0.052 A 
HETATM   42  C19 UNL     1       0.496  53.052 -25.023  1.00  0.00     0.033 A 
HETATM   43  C20 UNL     1       0.833  53.732 -23.868  1.00  0.00     0.090 A 
HETATM   44  N4  UNL     1       0.565  53.279 -22.624  1.00  0.00    -0.352 N 
ATOM     45  H4  UNL     1       0.830  53.815 -21.798  1.00  0.00     0.166 HD
BRANCH  41  46
HETATM   46  C18 UNL     1      -0.535  51.015 -26.114  1.00  0.00     0.417 C 
HETATM   47  F1  UNL     1       0.506  50.274 -26.581  1.00  0.00    -0.166 F 
HETATM   48  F2  UNL     1      -0.949  51.781 -27.162  1.00  0.00    -0.166 F 
HETATM   49  F3  UNL     1      -1.548  50.139 -25.874  1.00  0.00    -0.166 F 
ENDBRANCH  41  46
ENDBRANCH  37  39
ENDBRANCH   8  35
TORSDOF 6
ENDMDL
MODEL 7
REMARK minimizedAffinity -9.59869957
REMARK CNNscore 0.108085662
REMARK CNNaffinity 7.44952154
REMARK  6 active torsions:
REMARK  status: ('A' for Active; 'I' for Inactive)
REMARK    1  A    between atoms: C2_2  and  C3_3 
REMARK       I    between atoms: C3_3  and  N1_5 
REMARK    2  A    between atoms: C7_9  and  C8_10 
REMARK    3  A    between atoms: C13_17  and  C14_18 
REMARK       I    between atoms: C14_18  and  N3_20 
REMARK    4  A    between atoms: N3_20  and  C15_21 
REMARK    5  A    between atoms: C17_23  and  C18_24 
REMARK    6  A    between atoms: C24_36  and  N5_37 
ROOT
HETATM    1  C8  UNL     1      -1.233  51.430 -20.590  1.00  0.00     0.094 A 
HETATM    2  N2  UNL     1      -1.907  50.758 -21.507  1.00  0.00    -0.342 N 
ATOM      3  H2  UNL     1      -2.583  50.011 -21.345  1.00  0.00     0.167 HD
HETATM    4  C9  UNL     1      -1.516  51.268 -22.720  1.00  0.00     0.077 A 
HETATM    5  C10 UNL     1      -2.088  50.796 -23.955  1.00  0.00     0.032 A 
HETATM    6  C11 UNL     1      -1.765  49.518 -24.423  1.00  0.00     0.018 A 
HETATM    7  C12 UNL     1      -2.361  49.022 -25.588  1.00  0.00     0.018 A 
HETATM    8  C13 UNL     1      -3.312  49.791 -26.279  1.00  0.00     0.035 A 
HETATM    9  C21 UNL     1      -3.618  51.079 -25.817  1.00  0.00     0.060 A 
HETATM   10  C22 UNL     1      -3.010  51.568 -24.664  1.00  0.00     0.130 A 
HETATM   11  F4  UNL     1      -3.340  52.797 -24.242  1.00  0.00    -0.205 F 
HETATM   12  C23 UNL     1      -0.525  52.207 -22.556  1.00  0.00     0.106 A 
HETATM   13  C24 UNL     1       0.283  53.021 -23.433  1.00  0.00     0.107 A 
HETATM   14  N6  UNL     1       1.179  53.837 -22.927  1.00  0.00    -0.354 N 
ATOM     15  H6  UNL     1       1.760  54.412 -23.539  1.00  0.00     0.166 HD
HETATM   16  C25 UNL     1       1.324  53.908 -21.558  1.00  0.00     0.107 A 
HETATM   17  C26 UNL     1       0.607  53.178 -20.690  1.00  0.00     0.116 A 
HETATM   18  N7  UNL     1      -0.345  52.308 -21.191  1.00  0.00    -0.305 N 
ENDROOT
BRANCH   1  19
HETATM   19  C7  UNL     1      -1.434  51.228 -19.115  1.00  0.00     0.072 C 
HETATM   20  C6  UNL     1      -0.137  50.942 -18.349  1.00  0.00     0.015 C 
HETATM   21  C5  UNL     1      -0.372  50.758 -16.844  1.00  0.00     0.021 C 
HETATM   22  C4  UNL     1      -1.846  50.631 -16.465  1.00  0.00     0.126 C 
HETATM   23  N1  UNL     1      -2.555  49.768 -17.408  1.00  0.00    -0.351 N 
HETATM   24  C3  UNL     1      -3.291  48.683 -16.913  1.00  0.00     0.232 C 
HETATM   25  C27 UNL     1      -2.531  50.195 -18.810  1.00  0.00     0.138 C 
HETATM   26  O1  UNL     1      -3.240  48.398 -15.706  1.00  0.00    -0.272 OA
BRANCH  24  27
HETATM   27  C2  UNL     1      -4.139  47.819 -17.891  1.00  0.00     0.080 C 
HETATM   28  C1  UNL     1      -4.499  46.449 -17.307  1.00  0.00     0.030 C 
HETATM   29  C28 UNL     1      -5.423  48.524 -18.411  1.00  0.00     0.188 C 
HETATM   30  O3  UNL     1      -5.144  48.095 -19.770  1.00  0.00    -0.389 OA
HETATM   31  C29 UNL     1      -3.775  47.816 -19.391  1.00  0.00     0.188 C 
ENDBRANCH  24  27
ENDBRANCH   1  19
BRANCH  13  32
HETATM   32  N5  UNL     1       0.206  52.994 -24.794  1.00  0.00    -0.287 NA
HETATM   33  H18 UNL     1      -0.035  52.108 -25.218  1.00  0.00     0.125 HD
HETATM   34  H19 UNL     1       1.003  53.448 -25.225  1.00  0.00     0.125 HD
ENDBRANCH  13  32
BRANCH   8  35
HETATM   35  C14 UNL     1      -4.012  49.302 -27.505  1.00  0.00     0.257 C 
HETATM   36  O2  UNL     1      -3.562  49.624 -28.601  1.00  0.00    -0.267 OA
HETATM   37  N3  UNL     1      -5.141  48.550 -27.292  1.00  0.00    -0.309 N 
HETATM   38  H13 UNL     1      -5.507  48.420 -26.360  1.00  0.00     0.170 HD
BRANCH  37  39
HETATM   39  C15 UNL     1      -5.957  47.928 -28.239  1.00  0.00     0.108 A 
HETATM   40  C16 UNL     1      -6.597  46.713 -28.051  1.00  0.00     0.064 A 
HETATM   41  C17 UNL     1      -7.401  46.196 -29.077  1.00  0.00     0.052 A 
HETATM   42  C19 UNL     1      -7.525  46.928 -30.260  1.00  0.00     0.033 A 
HETATM   43  C20 UNL     1      -6.850  48.130 -30.360  1.00  0.00     0.090 A 
HETATM   44  N4  UNL     1      -6.076  48.641 -29.379  1.00  0.00    -0.352 N 
ATOM     45  H4  UNL     1      -5.597  49.535 -29.495  1.00  0.00     0.166 HD
BRANCH  41  46
HETATM   46  C18 UNL     1      -8.083  44.866 -28.904  1.00  0.00     0.417 C 
HETATM   47  F1  UNL     1      -8.462  44.321 -30.092  1.00  0.00    -0.166 F 
HETATM   48  F2  UNL     1      -9.216  44.940 -28.150  1.00  0.00    -0.166 F 
HETATM   49  F3  UNL     1      -7.295  43.939 -28.295  1.00  0.00    -0.166 F 
ENDBRANCH  41  46
ENDBRANCH  37  39
ENDBRANCH   8  35
TORSDOF 6
ENDMDL
MODEL 8
REMARK minimizedAffinity -8.88965225
REMARK CNNscore 0.0909180865
REMARK CNNaffinity 6.14462328
REMARK  6 active torsions:
REMARK  status: ('A' for Active; 'I' for Inactive)
REMARK    1  A    between atoms: C2_2  and  C3_3 
REMARK       I    between atoms: C3_3  and  N1_5 
REMARK    2  A    between atoms: C7_9  and  C8_10 
REMARK    3  A    between atoms: C13_17  and  C14_18 
REMARK       I    between atoms: C14_18  and  N3_20 
REMARK    4  A    between atoms: N3_20  and  C15_21 
REMARK    5  A    between atoms: C17_23  and  C18_24 
REMARK    6  A    between atoms: C24_36  and  N5_37 
ROOT
HETATM    1  C8  UNL     1      -6.029  48.283 -22.048  1.00  0.00     0.094 A 
HETATM    2  N2  UNL     1      -7.289  48.585 -21.787  1.00  0.00    -0.342 N 
ATOM      3  H2  UNL     1      -7.792  49.422 -22.083  1.00  0.00     0.167 HD
HETATM    4  C9  UNL     1      -7.785  47.546 -21.041  1.00  0.00     0.077 A 
HETATM    5  C10 UNL     1      -9.161  47.516 -20.612  1.00  0.00     0.032 A 
HETATM    6  C11 UNL     1      -9.593  48.397 -19.615  1.00  0.00     0.018 A 
HETATM    7  C12 UNL     1     -10.939  48.423 -19.233  1.00  0.00     0.018 A 
HETATM    8  C13 UNL     1     -11.872  47.586 -19.868  1.00  0.00     0.035 A 
HETATM    9  C21 UNL     1     -11.431  46.691 -20.852  1.00  0.00     0.060 A 
HETATM   10  C22 UNL     1     -10.087  46.664 -21.216  1.00  0.00     0.130 A 
HETATM   11  F4  UNL     1      -9.703  45.807 -22.174  1.00  0.00    -0.205 F 
HETATM   12  C23 UNL     1      -6.797  46.631 -20.763  1.00  0.00     0.106 A 
HETATM   13  C24 UNL     1      -6.707  45.404 -20.008  1.00  0.00     0.107 A 
HETATM   14  N6  UNL     1      -5.564  44.761 -19.938  1.00  0.00    -0.354 N 
ATOM     15  H6  UNL     1      -5.489  43.896 -19.401  1.00  0.00     0.166 HD
HETATM   16  C25 UNL     1      -4.467  45.271 -20.598  1.00  0.00     0.107 A 
HETATM   17  C26 UNL     1      -4.483  46.406 -21.314  1.00  0.00     0.116 A 
HETATM   18  N7  UNL     1      -5.673  47.107 -21.408  1.00  0.00    -0.305 N 
ENDROOT
BRANCH   1  19
HETATM   19  C7  UNL     1      -5.147  49.134 -22.915  1.00  0.00     0.072 C 
HETATM   20  C6  UNL     1      -4.771  48.476 -24.248  1.00  0.00     0.015 C 
HETATM   21  C5  UNL     1      -3.885  49.376 -25.119  1.00  0.00     0.021 C 
HETATM   22  C4  UNL     1      -3.348  50.602 -24.385  1.00  0.00     0.126 C 
HETATM   23  N1  UNL     1      -2.901  50.251 -23.038  1.00  0.00    -0.351 N 
HETATM   24  C3  UNL     1      -1.601  50.595 -22.642  1.00  0.00     0.232 C 
HETATM   25  C27 UNL     1      -3.916  49.662 -22.159  1.00  0.00     0.138 C 
HETATM   26  O1  UNL     1      -0.812  51.083 -23.466  1.00  0.00    -0.272 OA
BRANCH  24  27
HETATM   27  C2  UNL     1      -1.147  50.326 -21.179  1.00  0.00     0.080 C 
HETATM   28  C1  UNL     1      -0.815  48.851 -20.926  1.00  0.00     0.030 C 
HETATM   29  C28 UNL     1       0.033  51.219 -20.705  1.00  0.00     0.188 C 
HETATM   30  O3  UNL     1      -0.639  51.491 -19.447  1.00  0.00    -0.389 OA
HETATM   31  C29 UNL     1      -1.886  51.036 -20.025  1.00  0.00     0.188 C 
ENDBRANCH  24  27
ENDBRANCH   1  19
BRANCH  13  32
HETATM   32  N5  UNL     1      -7.744  44.848 -19.318  1.00  0.00    -0.287 NA
HETATM   33  H18 UNL     1      -8.418  45.487 -18.918  1.00  0.00     0.125 HD
HETATM   34  H19 UNL     1      -7.426  44.135 -18.672  1.00  0.00     0.125 HD
ENDBRANCH  13  32
BRANCH   8  35
HETATM   35  C14 UNL     1     -13.328  47.595 -19.531  1.00  0.00     0.257 C 
HETATM   36  O2  UNL     1     -13.672  48.051 -18.445  1.00  0.00    -0.267 OA
HETATM   37  N3  UNL     1     -14.164  47.047 -20.473  1.00  0.00    -0.309 N 
HETATM   38  H13 UNL     1     -13.792  46.594 -21.294  1.00  0.00     0.170 HD
BRANCH  37  39
HETATM   39  C15 UNL     1     -15.558  46.966 -20.448  1.00  0.00     0.108 A 
HETATM   40  C16 UNL     1     -16.339  46.512 -21.499  1.00  0.00     0.064 A 
HETATM   41  C17 UNL     1     -17.733  46.468 -21.347  1.00  0.00     0.052 A 
HETATM   42  C19 UNL     1     -18.286  46.889 -20.137  1.00  0.00     0.033 A 
HETATM   43  C20 UNL     1     -17.430  47.327 -19.143  1.00  0.00     0.090 A 
HETATM   44  N4  UNL     1     -16.087  47.372 -19.274  1.00  0.00    -0.352 N 
ATOM     45  H4  UNL     1     -15.492  47.700 -18.513  1.00  0.00     0.166 HD
BRANCH  41  46
HETATM   46  C18 UNL     1     -18.602  46.003 -22.486  1.00  0.00     0.417 C 
HETATM   47  F1  UNL     1     -19.134  47.041 -23.186  1.00  0.00    -0.166 F 
HETATM   48  F2  UNL     1     -19.659  45.247 -22.077  1.00  0.00    -0.166 F 
HETATM   49  F3  UNL     1     -17.929  45.240 -23.390  1.00  0.00    -0.166 F 
ENDBRANCH  41  46
ENDBRANCH  37  39
ENDBRANCH   8  35
TORSDOF 6
ENDMDL
MODEL 9
REMARK minimizedAffinity -10.9085207
REMARK CNNscore 0.0880818516
REMARK CNNaffinity 7.1267333
REMARK  6 active torsions:
REMARK  status: ('A' for Active; 'I' for Inactive)
REMARK    1  A    between atoms: C2_2  and  C3_3 
REMARK       I    between atoms: C3_3  and  N1_5 
REMARK    2  A    between atoms: C7_9  and  C8_10 
REMARK    3  A    between atoms: C13_17  and  C14_18 
REMARK       I    between atoms: C14_18  and  N3_20 
REMARK    4  A    between atoms: N3_20  and  C15_21 
REMARK    5  A    between atoms: C17_23  and  C18_24 
REMARK    6  A    between atoms: C24_36  and  N5_37 
ROOT
HETATM    1  C8  UNL     1      -2.203  50.181 -24.276  1.00  0.00     0.094 A 
HETATM    2  N2  UNL     1      -2.466  50.001 -22.993  1.00  0.00    -0.342 N 
ATOM      3  H2  UNL     1      -3.184  49.396 -22.595  1.00  0.00     0.167 HD
HETATM    4  C9  UNL     1      -1.578  50.790 -22.306  1.00  0.00     0.077 A 
HETATM    5  C10 UNL     1      -1.546  50.809 -20.865  1.00  0.00     0.032 A 
HETATM    6  C11 UNL     1      -2.587  51.419 -20.158  1.00  0.00     0.018 A 
HETATM    7  C12 UNL     1      -2.601  51.390 -18.759  1.00  0.00     0.018 A 
HETATM    8  C13 UNL     1      -1.586  50.722 -18.055  1.00  0.00     0.035 A 
HETATM    9  C21 UNL     1      -0.534  50.129 -18.767  1.00  0.00     0.060 A 
HETATM   10  C22 UNL     1      -0.523  50.174 -20.159  1.00  0.00     0.130 A 
HETATM   11  F4  UNL     1       0.490  49.582 -20.807  1.00  0.00    -0.205 F 
HETATM   12  C23 UNL     1      -0.814  51.534 -23.175  1.00  0.00     0.106 A 
HETATM   13  C24 UNL     1       0.215  52.537 -23.047  1.00  0.00     0.107 A 
HETATM   14  N6  UNL     1       0.747  53.070 -24.123  1.00  0.00    -0.354 N 
ATOM     15  H6  UNL     1       1.470  53.786 -24.043  1.00  0.00     0.166 HD
HETATM   16  C25 UNL     1       0.315  52.649 -25.363  1.00  0.00     0.107 A 
HETATM   17  C26 UNL     1      -0.637  51.723 -25.550  1.00  0.00     0.116 A 
HETATM   18  N7  UNL     1      -1.218  51.142 -24.436  1.00  0.00    -0.305 N 
ENDROOT
BRANCH   1  19
HETATM   19  C7  UNL     1      -2.909  49.430 -25.369  1.00  0.00     0.072 C 
HETATM   20  C6  UNL     1      -3.073  50.234 -26.664  1.00  0.00     0.015 C 
HETATM   21  C5  UNL     1      -3.780  49.435 -27.766  1.00  0.00     0.021 C 
HETATM   22  C4  UNL     1      -4.402  48.130 -27.274  1.00  0.00     0.126 C 
HETATM   23  N1  UNL     1      -5.075  48.324 -25.991  1.00  0.00    -0.351 N 
HETATM   24  C3  UNL     1      -6.414  47.931 -25.860  1.00  0.00     0.232 C 
HETATM   25  C27 UNL     1      -4.235  48.813 -24.894  1.00  0.00     0.138 C 
HETATM   26  O1  UNL     1      -7.044  47.536 -26.854  1.00  0.00    -0.272 OA
BRANCH  24  27
HETATM   27  C2  UNL     1      -7.112  48.029 -24.473  1.00  0.00     0.080 C 
HETATM   28  C1  UNL     1      -7.194  46.676 -23.757  1.00  0.00     0.030 C 
HETATM   29  C28 UNL     1      -6.493  49.091 -23.524  1.00  0.00     0.188 C 
HETATM   30  O3  UNL     1      -7.811  49.585 -23.167  1.00  0.00    -0.389 OA
HETATM   31  C29 UNL     1      -8.364  48.921 -24.329  1.00  0.00     0.188 C 
ENDBRANCH  24  27
ENDBRANCH   1  19
BRANCH  13  32
HETATM   32  N5  UNL     1       0.680  53.013 -21.856  1.00  0.00    -0.287 NA
HETATM   33  H18 UNL     1       0.019  53.053 -21.093  1.00  0.00     0.125 HD
HETATM   34  H19 UNL     1       1.215  53.866 -21.976  1.00  0.00     0.125 HD
ENDBRANCH  13  32
BRANCH   8  35
HETATM   35  C14 UNL     1      -1.566  50.623 -16.564  1.00  0.00     0.257 C 
HETATM   36  O2  UNL     1      -0.511  50.320 -16.014  1.00  0.00    -0.267 OA
HETATM   37  N3  UNL     1      -2.764  50.849 -15.932  1.00  0.00    -0.309 N 
HETATM   38  H13 UNL     1      -3.611  50.986 -16.464  1.00  0.00     0.170 HD
BRANCH  37  39
HETATM   39  C15 UNL     1      -3.028  50.870 -14.562  1.00  0.00     0.108 A 
HETATM   40  C16 UNL     1      -3.224  52.022 -13.815  1.00  0.00     0.064 A 
HETATM   41  C17 UNL     1      -3.492  51.912 -12.443  1.00  0.00     0.052 A 
HETATM   42  C19 UNL     1      -3.548  50.638 -11.875  1.00  0.00     0.033 A 
HETATM   43  C20 UNL     1      -3.339  49.545 -12.695  1.00  0.00     0.090 A 
HETATM   44  N4  UNL     1      -3.083  49.636 -14.018  1.00  0.00    -0.352 N 
ATOM     45  H4  UNL     1      -2.937  48.802 -14.586  1.00  0.00     0.166 HD
BRANCH  41  46
HETATM   46  C18 UNL     1      -3.683  53.151 -11.609  1.00  0.00     0.417 C 
HETATM   47  F1  UNL     1      -4.163  54.194 -12.338  1.00  0.00    -0.166 F 
HETATM   48  F2  UNL     1      -2.527  53.594 -11.039  1.00  0.00    -0.166 F 
HETATM   49  F3  UNL     1      -4.556  52.970 -10.581  1.00  0.00    -0.166 F 
ENDBRANCH  41  46
ENDBRANCH  37  39
ENDBRANCH   8  35
TORSDOF 6
ENDMDL
