MODEL 1
REMARK minimizedAffinity -9.21073627
REMARK CNNscore 0.832227826
REMARK CNNaffinity 7.55202818
REMARK  8 active torsions:
REMARK  status: ('A' for Active; 'I' for Inactive)
REMARK    1  A    between atoms: C8_8  and  C9_9 
REMARK    2  A    between atoms: C14_16  and  N2_17 
REMARK    3  A    between atoms: N2_17  and  C15_18 
REMARK    4  A    between atoms: C19_22  and  C20_23 
REMARK       I    between atoms: C20_23  and  N3_25 
REMARK    5  A    between atoms: N3_25  and  C21_26 
REMARK    6  A    between atoms: C21_26  and  C22_27 
REMARK    7  A    between atoms: C22_27  and  C23_28 
REMARK    8  A    between atoms: C23_28  and  N4_29 
ROOT
HETATM    1  C9  UNL     1      -0.323  51.850 -23.862  1.00  0.00    -0.022 A 
HETATM    2  C10 UNL     1      -0.822  50.780 -23.115  1.00  0.00     0.021 A 
HETATM    3  C11 UNL     1      -0.705  50.762 -21.716  1.00  0.00    -0.032 A 
HETATM    4  C12 UNL     1      -1.253  49.593 -20.942  1.00  0.00     0.050 C 
HETATM    5  C13 UNL     1      -0.084  51.820 -21.039  1.00  0.00     0.083 A 
HETATM    6  N1  UNL     1       0.027  51.799 -19.697  1.00  0.00    -0.188 N 
ATOM      7  H1  UNL     1      -0.341  51.018 -19.152  1.00  0.00     0.184 HD
HETATM    8  C14 UNL     1       0.635  52.831 -19.097  1.00  0.00     0.697 A 
HETATM    9  N5  UNL     1       1.122  53.876 -19.796  1.00  0.00    -0.131 N 
ATOM     10  H5  UNL     1       1.577  54.647 -19.307  1.00  0.00     0.205 HD
HETATM   11  N6  UNL     1       1.011  53.908 -21.157  1.00  0.00    -0.284 N 
ATOM     12  H6  UNL     1       1.379  54.700 -21.685  1.00  0.00     0.187 HD
HETATM   13  C27 UNL     1       0.416  52.894 -21.791  1.00  0.00     0.077 A 
HETATM   14  C28 UNL     1       0.294  52.901 -23.176  1.00  0.00     0.045 A 
ENDROOT
BRANCH   8  15
HETATM   15  N2  UNL     1       0.807  52.886 -17.714  1.00  0.00    -0.190 N 
HETATM   16  H14 UNL     1      -0.019  53.286 -17.290  1.00  0.00     0.184 HD
BRANCH  15  17
HETATM   17  C15 UNL     1       1.862  52.570 -16.851  1.00  0.00     0.050 A 
HETATM   18  C16 UNL     1       3.210  52.585 -17.225  1.00  0.00     0.030 A 
HETATM   19  C17 UNL     1       4.223  52.270 -16.312  1.00  0.00     0.003 A 
HETATM   20  C18 UNL     1       3.904  51.922 -15.001  1.00  0.00     0.017 A 
HETATM   21  C19 UNL     1       2.565  51.881 -14.607  1.00  0.00     0.034 A 
HETATM   22  C26 UNL     1       1.559  52.213 -15.527  1.00  0.00     0.047 A 
BRANCH  21  23
HETATM   23  C20 UNL     1       2.160  51.522 -13.220  1.00  0.00     0.251 C 
HETATM   24  O1  UNL     1       1.711  50.407 -12.982  1.00  0.00    -0.268 OA
HETATM   25  N3  UNL     1       2.355  52.493 -12.256  1.00  0.00    -0.357 N 
HETATM   26  H18 UNL     1       3.002  53.238 -12.473  1.00  0.00     0.162 HD
BRANCH  25  27
HETATM   27  C21 UNL     1       2.156  52.186 -10.849  1.00  0.00     0.124 C 
BRANCH  27  28
HETATM   28  C22 UNL     1       3.399  52.533 -10.036  1.00  0.00     0.050 C 
BRANCH  28  29
HETATM   29  C23 UNL     1       3.420  54.000  -9.590  1.00  0.00     0.273 C 
BRANCH  29  30
HETATM   30  N4  UNL     1       4.207  54.882 -10.467  1.00  0.00     0.080 N 
HETATM   31  C24 UNL     1       3.513  56.139 -10.751  1.00  0.00     0.309 C 
HETATM   32  C25 UNL     1       5.509  55.166  -9.856  1.00  0.00     0.309 C 
ENDBRANCH  29  30
ENDBRANCH  28  29
ENDBRANCH  27  28
ENDBRANCH  25  27
ENDBRANCH  21  23
ENDBRANCH  15  17
ENDBRANCH   8  15
BRANCH   1  33
HETATM   33  C8  UNL     1      -0.440  51.872 -25.329  1.00  0.00    -0.014 A 
HETATM   34  C2  UNL     1       0.696  51.644 -26.146  1.00  0.00    -0.050 A 
HETATM   35  C1  UNL     1       2.055  51.376 -25.552  1.00  0.00     0.049 C 
HETATM   36  C3  UNL     1       0.566  51.671 -27.544  1.00  0.00     0.007 A 
HETATM   37  C4  UNL     1      -0.666  51.916 -28.139  1.00  0.00     0.001 A 
HETATM   38  C5  UNL     1      -1.788  52.139 -27.347  1.00  0.00     0.007 A 
HETATM   39  C6  UNL     1      -1.693  52.120 -25.947  1.00  0.00    -0.050 A 
HETATM   40  C7  UNL     1      -2.939  52.367 -25.135  1.00  0.00     0.049 C 
ENDBRANCH   1  33
TORSDOF 8
ENDMDL
MODEL 2
REMARK minimizedAffinity -8.82504559
REMARK CNNscore 0.773648143
REMARK CNNaffinity 7.49352026
REMARK  8 active torsions:
REMARK  status: ('A' for Active; 'I' for Inactive)
REMARK    1  A    between atoms: C8_8  and  C9_9 
REMARK    2  A    between atoms: C14_16  and  N2_17 
REMARK    3  A    between atoms: N2_17  and  C15_18 
REMARK    4  A    between atoms: C19_22  and  C20_23 
REMARK       I    between atoms: C20_23  and  N3_25 
REMARK    5  A    between atoms: N3_25  and  C21_26 
REMARK    6  A    between atoms: C21_26  and  C22_27 
REMARK    7  A    between atoms: C22_27  and  C23_28 
REMARK    8  A    between atoms: C23_28  and  N4_29 
ROOT
HETATM    1  C9  UNL     1      -0.254  51.872 -23.866  1.00  0.00    -0.022 A 
HETATM    2  C10 UNL     1      -0.743  50.809 -23.103  1.00  0.00     0.021 A 
HETATM    3  C11 UNL     1      -0.622  50.811 -21.704  1.00  0.00    -0.032 A 
HETATM    4  C12 UNL     1      -1.158  49.649 -20.913  1.00  0.00     0.050 C 
HETATM    5  C13 UNL     1      -0.006  51.882 -21.044  1.00  0.00     0.083 A 
HETATM    6  N1  UNL     1       0.110  51.880 -19.702  1.00  0.00    -0.188 N 
ATOM      7  H1  UNL     1      -0.251  51.104 -19.146  1.00  0.00     0.184 HD
HETATM    8  C14 UNL     1       0.712  52.925 -19.118  1.00  0.00     0.697 A 
HETATM    9  N5  UNL     1       1.190  53.963 -19.833  1.00  0.00    -0.131 N 
ATOM     10  H5  UNL     1       1.641  54.744 -19.356  1.00  0.00     0.205 HD
HETATM   11  N6  UNL     1       1.074  53.976 -21.194  1.00  0.00    -0.284 N 
ATOM     12  H6  UNL     1       1.435  54.763 -21.733  1.00  0.00     0.187 HD
HETATM   13  C27 UNL     1       0.484  52.949 -21.812  1.00  0.00     0.077 A 
HETATM   14  C28 UNL     1       0.358  52.937 -23.196  1.00  0.00     0.045 A 
ENDROOT
BRANCH   8  15
HETATM   15  N2  UNL     1       0.889  53.000 -17.736  1.00  0.00    -0.190 N 
HETATM   16  H14 UNL     1       0.160  53.576 -17.337  1.00  0.00     0.184 HD
BRANCH  15  17
HETATM   17  C15 UNL     1       1.856  52.512 -16.851  1.00  0.00     0.050 A 
HETATM   18  C16 UNL     1       3.156  53.018 -16.756  1.00  0.00     0.030 A 
HETATM   19  C17 UNL     1       4.077  52.494 -15.840  1.00  0.00     0.003 A 
HETATM   20  C18 UNL     1       3.714  51.441 -15.004  1.00  0.00     0.017 A 
HETATM   21  C19 UNL     1       2.428  50.904 -15.092  1.00  0.00     0.034 A 
HETATM   22  C26 UNL     1       1.509  51.447 -16.003  1.00  0.00     0.047 A 
BRANCH  21  23
HETATM   23  C20 UNL     1       1.978  49.782 -14.222  1.00  0.00     0.251 C 
HETATM   24  O1  UNL     1       0.786  49.508 -14.144  1.00  0.00    -0.268 OA
HETATM   25  N3  UNL     1       2.972  49.082 -13.565  1.00  0.00    -0.357 N 
HETATM   26  H18 UNL     1       3.913  49.168 -13.923  1.00  0.00     0.162 HD
BRANCH  25  27
HETATM   27  C21 UNL     1       2.657  47.868 -12.832  1.00  0.00     0.124 C 
BRANCH  27  28
HETATM   28  C22 UNL     1       2.825  46.638 -13.719  1.00  0.00     0.050 C 
BRANCH  28  29
HETATM   29  C23 UNL     1       2.381  45.345 -13.022  1.00  0.00     0.273 C 
BRANCH  29  30
HETATM   30  N4  UNL     1       1.971  44.277 -13.947  1.00  0.00     0.080 N 
HETATM   31  C24 UNL     1       2.810  43.084 -13.818  1.00  0.00     0.309 C 
HETATM   32  C25 UNL     1       0.569  43.919 -13.713  1.00  0.00     0.309 C 
ENDBRANCH  29  30
ENDBRANCH  28  29
ENDBRANCH  27  28
ENDBRANCH  25  27
ENDBRANCH  21  23
ENDBRANCH  15  17
ENDBRANCH   8  15
BRANCH   1  33
HETATM   33  C8  UNL     1      -0.377  51.873 -25.333  1.00  0.00    -0.014 A 
HETATM   34  C2  UNL     1      -1.624  52.140 -25.951  1.00  0.00    -0.050 A 
HETATM   35  C1  UNL     1      -2.862  52.429 -25.141  1.00  0.00     0.049 C 
HETATM   36  C3  UNL     1      -1.724  52.135 -27.352  1.00  0.00     0.007 A 
HETATM   37  C4  UNL     1      -0.611  51.872 -28.142  1.00  0.00     0.001 A 
HETATM   38  C5  UNL     1       0.618  51.609 -27.547  1.00  0.00     0.007 A 
HETATM   39  C6  UNL     1       0.752  51.607 -26.150  1.00  0.00    -0.050 A 
HETATM   40  C7  UNL     1       2.107  51.317 -25.554  1.00  0.00     0.049 C 
ENDBRANCH   1  33
TORSDOF 8
ENDMDL
MODEL 3
REMARK minimizedAffinity -9.06832314
REMARK CNNscore 0.693066835
REMARK CNNaffinity 7.27518702
REMARK  8 active torsions:
REMARK  status: ('A' for Active; 'I' for Inactive)
REMARK    1  A    between atoms: C8_8  and  C9_9 
REMARK    2  A    between atoms: C14_16  and  N2_17 
REMARK    3  A    between atoms: N2_17  and  C15_18 
REMARK    4  A    between atoms: C19_22  and  C20_23 
REMARK       I    between atoms: C20_23  and  N3_25 
REMARK    5  A    between atoms: N3_25  and  C21_26 
REMARK    6  A    between atoms: C21_26  and  C22_27 
REMARK    7  A    between atoms: C22_27  and  C23_28 
REMARK    8  A    between atoms: C23_28  and  N4_29 
ROOT
HETATM    1  C9  UNL     1      -0.237  51.959 -23.964  1.00  0.00    -0.022 A 
HETATM    2  C10 UNL     1      -0.684  50.857 -23.232  1.00  0.00     0.021 A 
HETATM    3  C11 UNL     1      -0.510  50.799 -21.840  1.00  0.00    -0.032 A 
HETATM    4  C12 UNL     1      -1.002  49.595 -21.081  1.00  0.00     0.050 C 
HETATM    5  C13 UNL     1       0.116  51.848 -21.155  1.00  0.00     0.083 A 
HETATM    6  N1  UNL     1       0.282  51.788 -19.820  1.00  0.00    -0.188 N 
ATOM      7  H1  UNL     1      -0.047  50.984 -19.286  1.00  0.00     0.184 HD
HETATM    8  C14 UNL     1       0.893  52.815 -19.213  1.00  0.00     0.697 A 
HETATM    9  N5  UNL     1       1.330  53.891 -19.898  1.00  0.00    -0.131 N 
ATOM     10  H5  UNL     1       1.788  54.656 -19.403  1.00  0.00     0.205 HD
HETATM   11  N6  UNL     1       1.163  53.962 -21.251  1.00  0.00    -0.284 N 
ATOM     12  H6  UNL     1       1.493  54.778 -21.768  1.00  0.00     0.187 HD
HETATM   13  C27 UNL     1       0.563  52.955 -21.893  1.00  0.00     0.077 A 
HETATM   14  C28 UNL     1       0.385  53.002 -23.270  1.00  0.00     0.045 A 
ENDROOT
BRANCH   8  15
HETATM   15  N2  UNL     1       1.120  52.832 -17.836  1.00  0.00    -0.190 N 
HETATM   16  H14 UNL     1       1.425  53.755 -17.559  1.00  0.00     0.184 HD
BRANCH  15  17
HETATM   17  C15 UNL     1       1.069  51.861 -16.830  1.00  0.00     0.050 A 
HETATM   18  C16 UNL     1       0.360  50.661 -16.936  1.00  0.00     0.030 A 
HETATM   19  C17 UNL     1       0.357  49.722 -15.897  1.00  0.00     0.003 A 
HETATM   20  C18 UNL     1       1.060  49.973 -14.721  1.00  0.00     0.017 A 
HETATM   21  C19 UNL     1       1.761  51.173 -14.583  1.00  0.00     0.034 A 
HETATM   22  C26 UNL     1       1.769  52.099 -15.636  1.00  0.00     0.047 A 
BRANCH  21  23
HETATM   23  C20 UNL     1       2.537  51.497 -13.353  1.00  0.00     0.251 C 
HETATM   24  O1  UNL     1       3.544  50.855 -13.078  1.00  0.00    -0.268 OA
HETATM   25  N3  UNL     1       2.072  52.557 -12.599  1.00  0.00    -0.357 N 
HETATM   26  H18 UNL     1       1.446  53.210 -13.052  1.00  0.00     0.162 HD
BRANCH  25  27
HETATM   27  C21 UNL     1       2.850  53.064 -11.480  1.00  0.00     0.124 C 
BRANCH  27  28
HETATM   28  C22 UNL     1       1.936  53.590 -10.377  1.00  0.00     0.050 C 
BRANCH  28  29
HETATM   29  C23 UNL     1       1.169  54.849 -10.799  1.00  0.00     0.273 C 
BRANCH  29  30
HETATM   30  N4  UNL     1      -0.265  54.816 -10.471  1.00  0.00     0.080 N 
HETATM   31  C24 UNL     1      -0.894  53.557 -10.876  1.00  0.00     0.309 C 
HETATM   32  C25 UNL     1      -0.457  55.021  -9.033  1.00  0.00     0.309 C 
ENDBRANCH  29  30
ENDBRANCH  28  29
ENDBRANCH  27  28
ENDBRANCH  25  27
ENDBRANCH  21  23
ENDBRANCH  15  17
ENDBRANCH   8  15
BRANCH   1  33
HETATM   33  C8  UNL     1      -0.415  52.023 -25.424  1.00  0.00    -0.014 A 
HETATM   34  C2  UNL     1      -1.688  52.299 -25.983  1.00  0.00    -0.050 A 
HETATM   35  C1  UNL     1      -2.898  52.534 -25.116  1.00  0.00     0.049 C 
HETATM   36  C3  UNL     1      -1.840  52.354 -27.378  1.00  0.00     0.007 A 
HETATM   37  C4  UNL     1      -0.754  52.142 -28.220  1.00  0.00     0.001 A 
HETATM   38  C5  UNL     1       0.500  51.872 -27.682  1.00  0.00     0.007 A 
HETATM   39  C6  UNL     1       0.686  51.810 -26.293  1.00  0.00    -0.050 A 
HETATM   40  C7  UNL     1       2.066  51.514 -25.761  1.00  0.00     0.049 C 
ENDBRANCH   1  33
TORSDOF 8
ENDMDL
MODEL 4
REMARK minimizedAffinity -9.32821655
REMARK CNNscore 0.660336494
REMARK CNNaffinity 7.36900091
REMARK  8 active torsions:
REMARK  status: ('A' for Active; 'I' for Inactive)
REMARK    1  A    between atoms: C8_8  and  C9_9 
REMARK    2  A    between atoms: C14_16  and  N2_17 
REMARK    3  A    between atoms: N2_17  and  C15_18 
REMARK    4  A    between atoms: C19_22  and  C20_23 
REMARK       I    between atoms: C20_23  and  N3_25 
REMARK    5  A    between atoms: N3_25  and  C21_26 
REMARK    6  A    between atoms: C21_26  and  C22_27 
REMARK    7  A    between atoms: C22_27  and  C23_28 
REMARK    8  A    between atoms: C23_28  and  N4_29 
ROOT
HETATM    1  C9  UNL     1      -0.230  51.886 -23.893  1.00  0.00    -0.022 A 
HETATM    2  C10 UNL     1      -0.733  50.832 -23.127  1.00  0.00     0.021 A 
HETATM    3  C11 UNL     1      -0.622  50.842 -21.727  1.00  0.00    -0.032 A 
HETATM    4  C12 UNL     1      -1.173  49.689 -20.932  1.00  0.00     0.050 C 
HETATM    5  C13 UNL     1      -0.003  51.913 -21.069  1.00  0.00     0.083 A 
HETATM    6  N1  UNL     1       0.103  51.919 -19.726  1.00  0.00    -0.188 N 
ATOM      7  H1  UNL     1      -0.267  51.150 -19.168  1.00  0.00     0.184 HD
HETATM    8  C14 UNL     1       0.709  52.963 -19.145  1.00  0.00     0.697 A 
HETATM    9  N5  UNL     1       1.200  53.993 -19.864  1.00  0.00    -0.131 N 
ATOM     10  H5  UNL     1       1.653  54.773 -19.388  1.00  0.00     0.205 HD
HETATM   11  N6  UNL     1       1.094  53.998 -21.225  1.00  0.00    -0.284 N 
ATOM     12  H6  UNL     1       1.465  54.779 -21.767  1.00  0.00     0.187 HD
HETATM   13  C27 UNL     1       0.501  52.971 -21.841  1.00  0.00     0.077 A 
HETATM   14  C28 UNL     1       0.385  52.951 -23.226  1.00  0.00     0.045 A 
ENDROOT
BRANCH   8  15
HETATM   15  N2  UNL     1       0.876  53.046 -17.763  1.00  0.00    -0.190 N 
HETATM   16  H14 UNL     1       0.141  53.619 -17.371  1.00  0.00     0.184 HD
BRANCH  15  17
HETATM   17  C15 UNL     1       1.840  52.569 -16.869  1.00  0.00     0.050 A 
HETATM   18  C16 UNL     1       3.205  52.859 -16.961  1.00  0.00     0.030 A 
HETATM   19  C17 UNL     1       4.122  52.361 -16.027  1.00  0.00     0.003 A 
HETATM   20  C18 UNL     1       3.688  51.548 -14.982  1.00  0.00     0.017 A 
HETATM   21  C19 UNL     1       2.333  51.228 -14.878  1.00  0.00     0.034 A 
HETATM   22  C26 UNL     1       1.422  51.745 -15.811  1.00  0.00     0.047 A 
BRANCH  21  23
HETATM   23  C20 UNL     1       1.806  50.369 -13.781  1.00  0.00     0.251 C 
HETATM   24  O1  UNL     1       2.419  49.363 -13.443  1.00  0.00    -0.268 OA
HETATM   25  N3  UNL     1       0.641  50.798 -13.174  1.00  0.00    -0.357 N 
HETATM   26  H18 UNL     1       0.386  51.769 -13.295  1.00  0.00     0.162 HD
BRANCH  25  27
HETATM   27  C21 UNL     1       0.139  50.131 -11.985  1.00  0.00     0.124 C 
BRANCH  27  28
HETATM   28  C22 UNL     1      -1.386  50.093 -11.985  1.00  0.00     0.050 C 
BRANCH  28  29
HETATM   29  C23 UNL     1      -2.007  51.413 -11.512  1.00  0.00     0.273 C 
BRANCH  29  30
HETATM   30  N4  UNL     1      -3.275  51.752 -12.178  1.00  0.00     0.080 N 
HETATM   31  C24 UNL     1      -3.890  52.956 -11.616  1.00  0.00     0.309 C 
HETATM   32  C25 UNL     1      -3.054  51.938 -13.616  1.00  0.00     0.309 C 
ENDBRANCH  29  30
ENDBRANCH  28  29
ENDBRANCH  27  28
ENDBRANCH  25  27
ENDBRANCH  21  23
ENDBRANCH  15  17
ENDBRANCH   8  15
BRANCH   1  33
HETATM   33  C8  UNL     1      -0.342  51.878 -25.361  1.00  0.00    -0.014 A 
HETATM   34  C2  UNL     1       0.793  51.613 -26.168  1.00  0.00    -0.050 A 
HETATM   35  C1  UNL     1       2.145  51.333 -25.563  1.00  0.00     0.049 C 
HETATM   36  C3  UNL     1       0.669  51.611 -27.567  1.00  0.00     0.007 A 
HETATM   37  C4  UNL     1      -0.557  51.865 -28.172  1.00  0.00     0.001 A 
HETATM   38  C5  UNL     1      -1.677  52.126 -27.390  1.00  0.00     0.007 A 
HETATM   39  C6  UNL     1      -1.587  52.135 -25.989  1.00  0.00    -0.050 A 
HETATM   40  C7  UNL     1      -2.832  52.422 -25.187  1.00  0.00     0.049 C 
ENDBRANCH   1  33
TORSDOF 8
ENDMDL
MODEL 5
REMARK minimizedAffinity -8.73432064
REMARK CNNscore 0.654057443
REMARK CNNaffinity 7.52150869
REMARK  8 active torsions:
REMARK  status: ('A' for Active; 'I' for Inactive)
REMARK    1  A    between atoms: C8_8  and  C9_9 
REMARK    2  A    between atoms: C14_16  and  N2_17 
REMARK    3  A    between atoms: N2_17  and  C15_18 
REMARK    4  A    between atoms: C19_22  and  C20_23 
REMARK       I    between atoms: C20_23  and  N3_25 
REMARK    5  A    between atoms: N3_25  and  C21_26 
REMARK    6  A    between atoms: C21_26  and  C22_27 
REMARK    7  A    between atoms: C22_27  and  C23_28 
REMARK    8  A    between atoms: C23_28  and  N4_29 
ROOT
HETATM    1  C9  UNL     1      -0.387  51.857 -23.921  1.00  0.00    -0.022 A 
HETATM    2  C10 UNL     1      -0.786  50.778 -23.128  1.00  0.00     0.021 A 
HETATM    3  C11 UNL     1      -0.559  50.780 -21.742  1.00  0.00    -0.032 A 
HETATM    4  C12 UNL     1      -1.001  49.600 -20.918  1.00  0.00     0.050 C 
HETATM    5  C13 UNL     1       0.074  51.867 -21.126  1.00  0.00     0.083 A 
HETATM    6  N1  UNL     1       0.292  51.864 -19.796  1.00  0.00    -0.188 N 
ATOM      7  H1  UNL     1      -0.003  51.077 -19.218  1.00  0.00     0.184 HD
HETATM    8  C14 UNL     1       0.906  52.925 -19.255  1.00  0.00     0.697 A 
HETATM    9  N5  UNL     1       1.298  53.978 -19.999  1.00  0.00    -0.131 N 
ATOM     10  H5  UNL     1       1.761  54.770 -19.553  1.00  0.00     0.205 HD
HETATM   11  N6  UNL     1       1.079  53.991 -21.347  1.00  0.00    -0.284 N 
ATOM     12  H6  UNL     1       1.375  54.790 -21.909  1.00  0.00     0.187 HD
HETATM   13  C27 UNL     1       0.473  52.949 -21.924  1.00  0.00     0.077 A 
HETATM   14  C28 UNL     1       0.243  52.937 -23.294  1.00  0.00     0.045 A 
ENDROOT
BRANCH   8  15
HETATM   15  N2  UNL     1       1.185  53.001 -17.890  1.00  0.00    -0.190 N 
HETATM   16  H14 UNL     1       1.393  53.959 -17.645  1.00  0.00     0.184 HD
BRANCH  15  17
HETATM   17  C15 UNL     1       1.286  52.057 -16.863  1.00  0.00     0.050 A 
HETATM   18  C16 UNL     1       2.196  52.145 -15.805  1.00  0.00     0.030 A 
HETATM   19  C17 UNL     1       2.242  51.172 -14.799  1.00  0.00     0.003 A 
HETATM   20  C18 UNL     1       1.378  50.080 -14.839  1.00  0.00     0.017 A 
HETATM   21  C19 UNL     1       0.472  49.958 -15.895  1.00  0.00     0.034 A 
HETATM   22  C26 UNL     1       0.426  50.947 -16.889  1.00  0.00     0.047 A 
BRANCH  21  23
HETATM   23  C20 UNL     1      -0.481  48.817 -15.990  1.00  0.00     0.251 C 
HETATM   24  O1  UNL     1      -0.435  47.911 -15.167  1.00  0.00    -0.268 OA
HETATM   25  N3  UNL     1      -1.405  48.877 -17.016  1.00  0.00    -0.357 N 
HETATM   26  H18 UNL     1      -1.572  49.781 -17.437  1.00  0.00     0.162 HD
BRANCH  25  27
HETATM   27  C21 UNL     1      -2.485  47.907 -17.094  1.00  0.00     0.124 C 
BRANCH  27  28
HETATM   28  C22 UNL     1      -2.611  47.346 -18.506  1.00  0.00     0.050 C 
BRANCH  28  29
HETATM   29  C23 UNL     1      -4.069  47.243 -18.970  1.00  0.00     0.273 C 
BRANCH  29  30
HETATM   30  N4  UNL     1      -4.694  48.541 -19.273  1.00  0.00     0.080 N 
HETATM   31  C24 UNL     1      -4.758  48.800 -20.713  1.00  0.00     0.309 C 
HETATM   32  C25 UNL     1      -6.044  48.593 -18.704  1.00  0.00     0.309 C 
ENDBRANCH  29  30
ENDBRANCH  28  29
ENDBRANCH  27  28
ENDBRANCH  25  27
ENDBRANCH  21  23
ENDBRANCH  15  17
ENDBRANCH   8  15
BRANCH   1  33
HETATM   33  C8  UNL     1      -0.621  51.858 -25.374  1.00  0.00    -0.014 A 
HETATM   34  C2  UNL     1       0.443  51.599 -26.274  1.00  0.00    -0.050 A 
HETATM   35  C1  UNL     1       1.841  51.317 -25.786  1.00  0.00     0.049 C 
HETATM   36  C3  UNL     1       0.203  51.606 -27.658  1.00  0.00     0.007 A 
HETATM   37  C4  UNL     1      -1.069  51.863 -28.157  1.00  0.00     0.001 A 
HETATM   38  C5  UNL     1      -2.121  52.117 -27.283  1.00  0.00     0.007 A 
HETATM   39  C6  UNL     1      -1.914  52.118 -25.895  1.00  0.00    -0.050 A 
HETATM   40  C7  UNL     1      -3.088  52.399 -24.990  1.00  0.00     0.049 C 
ENDBRANCH   1  33
TORSDOF 8
ENDMDL
MODEL 6
REMARK minimizedAffinity -9.43793392
REMARK CNNscore 0.334566385
REMARK CNNaffinity 7.0379653
REMARK  8 active torsions:
REMARK  status: ('A' for Active; 'I' for Inactive)
REMARK    1  A    between atoms: C8_8  and  C9_9 
REMARK    2  A    between atoms: C14_16  and  N2_17 
REMARK    3  A    between atoms: N2_17  and  C15_18 
REMARK    4  A    between atoms: C19_22  and  C20_23 
REMARK       I    between atoms: C20_23  and  N3_25 
REMARK    5  A    between atoms: N3_25  and  C21_26 
REMARK    6  A    between atoms: C21_26  and  C22_27 
REMARK    7  A    between atoms: C22_27  and  C23_28 
REMARK    8  A    between atoms: C23_28  and  N4_29 
ROOT
HETATM    1  C9  UNL     1      -1.493  50.221 -22.898  1.00  0.00    -0.022 A 
HETATM    2  C10 UNL     1      -1.441  49.339 -21.816  1.00  0.00     0.021 A 
HETATM    3  C11 UNL     1      -0.911  49.745 -20.581  1.00  0.00    -0.032 A 
HETATM    4  C12 UNL     1      -0.868  48.767 -19.437  1.00  0.00     0.050 C 
HETATM    5  C13 UNL     1      -0.422  51.046 -20.408  1.00  0.00     0.083 A 
HETATM    6  N1  UNL     1       0.088  51.431 -19.222  1.00  0.00    -0.188 N 
ATOM      7  H1  UNL     1       0.122  50.787 -18.432  1.00  0.00     0.184 HD
HETATM    8  C14 UNL     1       0.548  52.684 -19.109  1.00  0.00     0.697 A 
HETATM    9  N5  UNL     1       0.506  53.555 -20.139  1.00  0.00    -0.131 N 
ATOM     10  H5  UNL     1       0.862  54.502 -20.017  1.00  0.00     0.205 HD
HETATM   11  N6  UNL     1      -0.012  53.174 -21.343  1.00  0.00    -0.284 N 
ATOM     12  H6  UNL     1      -0.045  53.835 -22.121  1.00  0.00     0.187 HD
HETATM   13  C27 UNL     1      -0.476  51.931 -21.496  1.00  0.00     0.077 A 
HETATM   14  C28 UNL     1      -1.004  51.518 -22.714  1.00  0.00     0.045 A 
ENDROOT
BRANCH   8  15
HETATM   15  N2  UNL     1       1.105  53.164 -17.924  1.00  0.00    -0.190 N 
HETATM   16  H14 UNL     1       1.050  54.174 -17.913  1.00  0.00     0.184 HD
BRANCH  15  17
HETATM   17  C15 UNL     1       1.743  52.561 -16.835  1.00  0.00     0.050 A 
HETATM   18  C16 UNL     1       3.124  52.606 -16.614  1.00  0.00     0.030 A 
HETATM   19  C17 UNL     1       3.704  51.992 -15.497  1.00  0.00     0.003 A 
HETATM   20  C18 UNL     1       2.909  51.308 -14.581  1.00  0.00     0.017 A 
HETATM   21  C19 UNL     1       1.530  51.232 -14.788  1.00  0.00     0.034 A 
HETATM   22  C26 UNL     1       0.959  51.864 -15.903  1.00  0.00     0.047 A 
BRANCH  21  23
HETATM   23  C20 UNL     1       0.627  50.521 -13.841  1.00  0.00     0.251 C 
HETATM   24  O1  UNL     1       1.100  49.828 -12.947  1.00  0.00    -0.268 OA
HETATM   25  N3  UNL     1      -0.728  50.723 -14.020  1.00  0.00    -0.357 N 
HETATM   26  H18 UNL     1      -1.009  51.531 -14.559  1.00  0.00     0.162 HD
BRANCH  25  27
HETATM   27  C21 UNL     1      -1.685  50.217 -13.049  1.00  0.00     0.124 C 
BRANCH  27  28
HETATM   28  C22 UNL     1      -2.998  50.990 -13.126  1.00  0.00     0.050 C 
BRANCH  28  29
HETATM   29  C23 UNL     1      -2.930  52.339 -12.398  1.00  0.00     0.273 C 
BRANCH  29  30
HETATM   30  N4  UNL     1      -4.073  52.598 -11.509  1.00  0.00     0.080 N 
HETATM   31  C24 UNL     1      -4.349  51.467 -10.622  1.00  0.00     0.309 C 
HETATM   32  C25 UNL     1      -3.825  53.802 -10.709  1.00  0.00     0.309 C 
ENDBRANCH  29  30
ENDBRANCH  28  29
ENDBRANCH  27  28
ENDBRANCH  25  27
ENDBRANCH  21  23
ENDBRANCH  15  17
ENDBRANCH   8  15
BRANCH   1  33
HETATM   33  C8  UNL     1      -2.046  49.799 -24.195  1.00  0.00    -0.014 A 
HETATM   34  C2  UNL     1      -3.176  48.945 -24.253  1.00  0.00    -0.050 A 
HETATM   35  C1  UNL     1      -3.849  48.439 -23.003  1.00  0.00     0.049 C 
HETATM   36  C3  UNL     1      -3.689  48.551 -25.499  1.00  0.00     0.007 A 
HETATM   37  C4  UNL     1      -3.102  48.990 -26.681  1.00  0.00     0.001 A 
HETATM   38  C5  UNL     1      -1.993  49.829 -26.636  1.00  0.00     0.007 A 
HETATM   39  C6  UNL     1      -1.456  50.242 -25.407  1.00  0.00    -0.050 A 
HETATM   40  C7  UNL     1      -0.253  51.152 -25.414  1.00  0.00     0.049 C 
ENDBRANCH   1  33
TORSDOF 8
ENDMDL
MODEL 7
REMARK minimizedAffinity -8.41213417
REMARK CNNscore 0.308524191
REMARK CNNaffinity 6.96227646
REMARK  8 active torsions:
REMARK  status: ('A' for Active; 'I' for Inactive)
REMARK    1  A    between atoms: C8_8  and  C9_9 
REMARK    2  A    between atoms: C14_16  and  N2_17 
REMARK    3  A    between atoms: N2_17  and  C15_18 
REMARK    4  A    between atoms: C19_22  and  C20_23 
REMARK       I    between atoms: C20_23  and  N3_25 
REMARK    5  A    between atoms: N3_25  and  C21_26 
REMARK    6  A    between atoms: C21_26  and  C22_27 
REMARK    7  A    between atoms: C22_27  and  C23_28 
REMARK    8  A    between atoms: C23_28  and  N4_29 
ROOT
HETATM    1  C9  UNL     1      -0.184  52.023 -23.885  1.00  0.00    -0.022 A 
HETATM    2  C10 UNL     1       0.538  53.115 -23.399  1.00  0.00     0.021 A 
HETATM    3  C11 UNL     1       0.779  53.265 -22.024  1.00  0.00    -0.032 A 
HETATM    4  C12 UNL     1       1.559  54.456 -21.535  1.00  0.00     0.050 C 
HETATM    5  C13 UNL     1       0.299  52.320 -21.109  1.00  0.00     0.083 A 
HETATM    6  N1  UNL     1       0.530  52.468 -19.791  1.00  0.00    -0.188 N 
ATOM      7  H1  UNL     1       1.060  53.265 -19.437  1.00  0.00     0.184 HD
HETATM    8  C14 UNL     1       0.044  51.539 -18.956  1.00  0.00     0.697 A 
HETATM    9  N5  UNL     1      -0.653  50.475 -19.401  1.00  0.00    -0.131 N 
ATOM     10  H5  UNL     1      -1.006  49.785 -18.738  1.00  0.00     0.205 HD
HETATM   11  N6  UNL     1      -0.890  50.314 -20.737  1.00  0.00    -0.284 N 
ATOM     12  H6  UNL     1      -1.417  49.508 -21.072  1.00  0.00     0.187 HD
HETATM   13  C27 UNL     1      -0.426  51.223 -21.600  1.00  0.00     0.077 A 
HETATM   14  C28 UNL     1      -0.658  51.084 -22.963  1.00  0.00     0.045 A 
ENDROOT
BRANCH   8  15
HETATM   15  N2  UNL     1       0.224  51.620 -17.575  1.00  0.00    -0.190 N 
HETATM   16  H14 UNL     1      -0.679  51.601 -17.119  1.00  0.00     0.184 HD
BRANCH  15  17
HETATM   17  C15 UNL     1       1.340  51.773 -16.746  1.00  0.00     0.050 A 
HETATM   18  C16 UNL     1       2.469  52.525 -17.085  1.00  0.00     0.030 A 
HETATM   19  C17 UNL     1       3.553  52.650 -16.207  1.00  0.00     0.003 A 
HETATM   20  C18 UNL     1       3.530  52.013 -14.969  1.00  0.00     0.017 A 
HETATM   21  C19 UNL     1       2.422  51.240 -14.613  1.00  0.00     0.034 A 
HETATM   22  C26 UNL     1       1.336  51.134 -15.495  1.00  0.00     0.047 A 
BRANCH  21  23
HETATM   23  C20 UNL     1       2.335  50.540 -13.301  1.00  0.00     0.251 C 
HETATM   24  O1  UNL     1       2.674  51.118 -12.275  1.00  0.00    -0.268 OA
HETATM   25  N3  UNL     1       1.831  49.254 -13.327  1.00  0.00    -0.357 N 
HETATM   26  H18 UNL     1       1.297  48.982 -14.141  1.00  0.00     0.162 HD
BRANCH  25  27
HETATM   27  C21 UNL     1       1.544  48.549 -12.089  1.00  0.00     0.124 C 
BRANCH  27  28
HETATM   28  C22 UNL     1       0.429  47.528 -12.291  1.00  0.00     0.050 C 
BRANCH  28  29
HETATM   29  C23 UNL     1       0.166  47.229 -13.772  1.00  0.00     0.273 C 
BRANCH  29  30
HETATM   30  N4  UNL     1       0.543  45.867 -14.185  1.00  0.00     0.080 N 
HETATM   31  C24 UNL     1       1.941  45.788 -14.612  1.00  0.00     0.309 C 
HETATM   32  C25 UNL     1       0.310  44.926 -13.085  1.00  0.00     0.309 C 
ENDBRANCH  29  30
ENDBRANCH  28  29
ENDBRANCH  27  28
ENDBRANCH  25  27
ENDBRANCH  21  23
ENDBRANCH  15  17
ENDBRANCH   8  15
BRANCH   1  33
HETATM   33  C8  UNL     1      -0.441  51.863 -25.326  1.00  0.00    -0.014 A 
HETATM   34  C2  UNL     1      -1.746  52.046 -25.849  1.00  0.00    -0.050 A 
HETATM   35  C1  UNL     1      -2.910  52.405 -24.962  1.00  0.00     0.049 C 
HETATM   36  C3  UNL     1      -1.974  51.887 -27.226  1.00  0.00     0.007 A 
HETATM   37  C4  UNL     1      -0.932  51.554 -28.085  1.00  0.00     0.001 A 
HETATM   38  C5  UNL     1       0.352  51.373 -27.582  1.00  0.00     0.007 A 
HETATM   39  C6  UNL     1       0.614  51.524 -26.212  1.00  0.00    -0.050 A 
HETATM   40  C7  UNL     1       2.024  51.318 -25.719  1.00  0.00     0.049 C 
ENDBRANCH   1  33
TORSDOF 8
ENDMDL
MODEL 8
REMARK minimizedAffinity -9.07836628
REMARK CNNscore 0.281869888
REMARK CNNaffinity 6.83258247
REMARK  8 active torsions:
REMARK  status: ('A' for Active; 'I' for Inactive)
REMARK    1  A    between atoms: C8_8  and  C9_9 
REMARK    2  A    between atoms: C14_16  and  N2_17 
REMARK    3  A    between atoms: N2_17  and  C15_18 
REMARK    4  A    between atoms: C19_22  and  C20_23 
REMARK       I    between atoms: C20_23  and  N3_25 
REMARK    5  A    between atoms: N3_25  and  C21_26 
REMARK    6  A    between atoms: C21_26  and  C22_27 
REMARK    7  A    between atoms: C22_27  and  C23_28 
REMARK    8  A    between atoms: C23_28  and  N4_29 
ROOT
HETATM    1  C9  UNL     1      -0.415  52.188 -23.551  1.00  0.00    -0.022 A 
HETATM    2  C10 UNL     1       0.450  53.280 -23.454  1.00  0.00     0.021 A 
HETATM    3  C11 UNL     1       0.956  53.690 -22.210  1.00  0.00    -0.032 A 
HETATM    4  C12 UNL     1       1.886  54.872 -22.142  1.00  0.00     0.050 C 
HETATM    5  C13 UNL     1       0.603  53.009 -21.038  1.00  0.00     0.083 A 
HETATM    6  N1  UNL     1       1.089  53.406 -19.846  1.00  0.00    -0.188 N 
ATOM      7  H1  UNL     1       1.724  54.202 -19.777  1.00  0.00     0.184 HD
HETATM    8  C14 UNL     1       0.716  52.726 -18.753  1.00  0.00     0.697 A 
HETATM    9  N5  UNL     1      -0.116  51.667 -18.822  1.00  0.00    -0.131 N 
ATOM     10  H5  UNL     1      -0.377  51.171 -17.971  1.00  0.00     0.205 HD
HETATM   11  N6  UNL     1      -0.611  51.255 -20.027  1.00  0.00    -0.284 N 
ATOM     12  H6  UNL     1      -1.240  50.453 -20.077  1.00  0.00     0.187 HD
HETATM   13  C27 UNL     1      -0.266  51.912 -21.138  1.00  0.00     0.077 A 
HETATM   14  C28 UNL     1      -0.760  51.515 -22.374  1.00  0.00     0.045 A 
ENDROOT
BRANCH   8  15
HETATM   15  N2  UNL     1       1.159  53.075 -17.478  1.00  0.00    -0.190 N 
HETATM   16  H14 UNL     1       0.779  53.978 -17.227  1.00  0.00     0.184 HD
BRANCH  15  17
HETATM   17  C15 UNL     1       2.026  52.483 -16.553  1.00  0.00     0.050 A 
HETATM   18  C16 UNL     1       3.419  52.602 -16.598  1.00  0.00     0.030 A 
HETATM   19  C17 UNL     1       4.234  51.994 -15.636  1.00  0.00     0.003 A 
HETATM   20  C18 UNL     1       3.667  51.243 -14.609  1.00  0.00     0.017 A 
HETATM   21  C19 UNL     1       2.280  51.093 -14.551  1.00  0.00     0.034 A 
HETATM   22  C26 UNL     1       1.473  51.719 -15.513  1.00  0.00     0.047 A 
BRANCH  21  23
HETATM   23  C20 UNL     1       1.614  50.308 -13.475  1.00  0.00     0.251 C 
HETATM   24  O1  UNL     1       2.066  49.218 -13.144  1.00  0.00    -0.268 OA
HETATM   25  N3  UNL     1       0.515  50.896 -12.880  1.00  0.00    -0.357 N 
HETATM   26  H18 UNL     1       0.408  51.896 -12.989  1.00  0.00     0.162 HD
BRANCH  25  27
HETATM   27  C21 UNL     1      -0.100  50.295 -11.708  1.00  0.00     0.124 C 
BRANCH  27  28
HETATM   28  C22 UNL     1      -0.808  51.350 -10.864  1.00  0.00     0.050 C 
BRANCH  28  29
HETATM   29  C23 UNL     1      -2.063  51.905 -11.548  1.00  0.00     0.273 C 
BRANCH  29  30
HETATM   30  N4  UNL     1      -3.114  52.338 -10.613  1.00  0.00     0.080 N 
HETATM   31  C24 UNL     1      -2.599  52.533  -9.256  1.00  0.00     0.309 C 
HETATM   32  C25 UNL     1      -3.731  53.580 -11.088  1.00  0.00     0.309 C 
ENDBRANCH  29  30
ENDBRANCH  28  29
ENDBRANCH  27  28
ENDBRANCH  25  27
ENDBRANCH  21  23
ENDBRANCH  15  17
ENDBRANCH   8  15
BRANCH   1  33
HETATM   33  C8  UNL     1      -0.950  51.757 -24.853  1.00  0.00    -0.014 A 
HETATM   34  C2  UNL     1      -2.347  51.761 -25.094  1.00  0.00    -0.050 A 
HETATM   35  C1  UNL     1      -3.330  52.199 -24.039  1.00  0.00     0.049 C 
HETATM   36  C3  UNL     1      -2.841  51.344 -26.341  1.00  0.00     0.007 A 
HETATM   37  C4  UNL     1      -1.974  50.928 -27.345  1.00  0.00     0.001 A 
HETATM   38  C5  UNL     1      -0.601  50.922 -27.120  1.00  0.00     0.007 A 
HETATM   39  C6  UNL     1      -0.076  51.332 -25.885  1.00  0.00    -0.050 A 
HETATM   40  C7  UNL     1       1.420  51.306 -25.693  1.00  0.00     0.049 C 
ENDBRANCH   1  33
TORSDOF 8
ENDMDL
MODEL 9
REMARK minimizedAffinity -8.44898701
REMARK CNNscore 0.270134658
REMARK CNNaffinity 6.73889685
REMARK  8 active torsions:
REMARK  status: ('A' for Active; 'I' for Inactive)
REMARK    1  A    between atoms: C8_8  and  C9_9 
REMARK    2  A    between atoms: C14_16  and  N2_17 
REMARK    3  A    between atoms: N2_17  and  C15_18 
REMARK    4  A    between atoms: C19_22  and  C20_23 
REMARK       I    between atoms: C20_23  and  N3_25 
REMARK    5  A    between atoms: N3_25  and  C21_26 
REMARK    6  A    between atoms: C21_26  and  C22_27 
REMARK    7  A    between atoms: C22_27  and  C23_28 
REMARK    8  A    between atoms: C23_28  and  N4_29 
ROOT
HETATM    1  C9  UNL     1      -0.929  51.621 -23.391  1.00  0.00    -0.022 A 
HETATM    2  C10 UNL     1      -1.079  50.452 -22.642  1.00  0.00     0.021 A 
HETATM    3  C11 UNL     1      -0.704  50.410 -21.289  1.00  0.00    -0.032 A 
HETATM    4  C12 UNL     1      -0.877  49.133 -20.511  1.00  0.00     0.050 C 
HETATM    5  C13 UNL     1      -0.170  51.544 -20.663  1.00  0.00     0.083 A 
HETATM    6  N1  UNL     1       0.190  51.500 -19.366  1.00  0.00    -0.188 N 
ATOM      7  H1  UNL     1       0.077  50.646 -18.818  1.00  0.00     0.184 HD
HETATM    8  C14 UNL     1       0.701  52.609 -18.814  1.00  0.00     0.697 A 
HETATM    9  N5  UNL     1       0.853  53.750 -19.517  1.00  0.00    -0.131 N 
ATOM     10  H5  UNL     1       1.243  54.577 -19.064  1.00  0.00     0.205 HD
HETATM   11  N6  UNL     1       0.487  53.805 -20.831  1.00  0.00    -0.284 N 
ATOM     12  H6  UNL     1       0.601  54.670 -21.361  1.00  0.00     0.187 HD
HETATM   13  C27 UNL     1      -0.021  52.717 -21.417  1.00  0.00     0.077 A 
HETATM   14  C28 UNL     1      -0.397  52.747 -22.755  1.00  0.00     0.045 A 
ENDROOT
BRANCH   8  15
HETATM   15  N2  UNL     1       1.114  52.650 -17.482  1.00  0.00    -0.190 N 
HETATM   16  H14 UNL     1       1.646  53.495 -17.323  1.00  0.00     0.184 HD
BRANCH  15  17
HETATM   17  C15 UNL     1       0.994  51.774 -16.399  1.00  0.00     0.050 A 
HETATM   18  C16 UNL     1       0.672  50.418 -16.521  1.00  0.00     0.030 A 
HETATM   19  C17 UNL     1       0.579  49.587 -15.398  1.00  0.00     0.003 A 
HETATM   20  C18 UNL     1       0.796  50.103 -14.123  1.00  0.00     0.017 A 
HETATM   21  C19 UNL     1       1.100  51.457 -13.971  1.00  0.00     0.034 A 
HETATM   22  C26 UNL     1       1.206  52.277 -15.105  1.00  0.00     0.047 A 
BRANCH  21  23
HETATM   23  C20 UNL     1       1.349  52.067 -12.635  1.00  0.00     0.251 C 
HETATM   24  O1  UNL     1       2.492  52.352 -12.297  1.00  0.00    -0.268 OA
HETATM   25  N3  UNL     1       0.235  52.307 -11.856  1.00  0.00    -0.357 N 
HETATM   26  H18 UNL     1      -0.661  52.336 -12.324  1.00  0.00     0.162 HD
BRANCH  25  27
HETATM   27  C21 UNL     1       0.350  53.053 -10.614  1.00  0.00     0.124 C 
BRANCH  27  28
HETATM   28  C22 UNL     1      -0.105  54.497 -10.802  1.00  0.00     0.050 C 
BRANCH  28  29
HETATM   29  C23 UNL     1      -0.503  55.166  -9.481  1.00  0.00     0.273 C 
BRANCH  29  30
HETATM   30  N4  UNL     1       0.406  54.870  -8.361  1.00  0.00     0.080 N 
HETATM   31  C24 UNL     1       1.212  56.032  -7.984  1.00  0.00     0.309 C 
HETATM   32  C25 UNL     1      -0.360  54.405  -7.201  1.00  0.00     0.309 C 
ENDBRANCH  29  30
ENDBRANCH  28  29
ENDBRANCH  27  28
ENDBRANCH  25  27
ENDBRANCH  21  23
ENDBRANCH  15  17
ENDBRANCH   8  15
BRANCH   1  33
HETATM   33  C8  UNL     1      -1.319  51.668 -24.810  1.00  0.00    -0.014 A 
HETATM   34  C2  UNL     1      -0.342  51.538 -25.829  1.00  0.00    -0.050 A 
HETATM   35  C1  UNL     1       1.118  51.350 -25.506  1.00  0.00     0.049 C 
HETATM   36  C3  UNL     1      -0.731  51.587 -27.178  1.00  0.00     0.007 A 
HETATM   37  C4  UNL     1      -2.066  51.761 -27.527  1.00  0.00     0.001 A 
HETATM   38  C5  UNL     1      -3.032  51.888 -26.535  1.00  0.00     0.007 A 
HETATM   39  C6  UNL     1      -2.677  51.844 -25.178  1.00  0.00    -0.050 A 
HETATM   40  C7  UNL     1      -3.764  51.987 -24.142  1.00  0.00     0.049 C 
ENDBRANCH   1  33
TORSDOF 8
ENDMDL
