MODEL 1
REMARK minimizedAffinity -7.42506266
REMARK CNNscore 0.516421854
REMARK CNNaffinity 7.68674326
REMARK  9 active torsions:
REMARK  status: ('A' for Active; 'I' for Inactive)
REMARK    1  A    between atoms: C2_2  and  C3_3 
REMARK       I    between atoms: C3_3  and  N1_5 
REMARK    2  A    between atoms: C7_9  and  C8_10 
REMARK       I    between atoms: C8_10  and  N2_12 
REMARK    3  A    between atoms: N2_12  and  C9_13 
REMARK    4  A    between atoms: C12_16  and  N3_17 
REMARK    5  A    between atoms: N3_17  and  C13_18 
REMARK    6  A    between atoms: C22_33  and  O3_34 
REMARK    7  A    between atoms: O3_34  and  C23_35 
REMARK    8  A    between atoms: C23_35  and  C24_36 
REMARK    9  A    between atoms: C24_36  and  O4_37 
ROOT
HETATM    1  C9  UNL     1      -1.189  51.364 -20.642  1.00  0.00     0.069 A 
HETATM    2  C10 UNL     1      -0.972  51.676 -21.983  1.00  0.00     0.050 A 
HETATM    3  C11 UNL     1      -0.062  52.698 -22.360  1.00  0.00     0.037 A 
HETATM    4  C12 UNL     1       0.216  53.091 -23.687  1.00  0.00     0.119 A 
HETATM    5  N4  UNL     1       1.123  54.045 -23.969  1.00  0.00    -0.338 N 
ATOM      6  H4  UNL     1       1.334  54.312 -24.931  1.00  0.00     0.168 HD
HETATM    7  C19 UNL     1       1.734  54.623 -22.933  1.00  0.00     0.182 A 
HETATM    8  N5  UNL     1       1.533  54.344 -21.641  1.00  0.00    -0.351 N 
ATOM      9  H5  UNL     1       2.035  54.838 -20.902  1.00  0.00     0.166 HD
HETATM   10  C20 UNL     1       0.644  53.388 -21.366  1.00  0.00     0.049 A 
HETATM   11  C21 UNL     1       0.421  53.067 -20.034  1.00  0.00     0.069 A 
HETATM   12  C22 UNL     1      -0.488  52.076 -19.655  1.00  0.00     0.097 A 
ENDROOT
BRANCH   1  13
HETATM   13  N2  UNL     1      -2.077  50.357 -20.206  1.00  0.00    -0.323 N 
HETATM   14  C8  UNL     1      -2.581  49.283 -20.918  1.00  0.00     0.245 C 
HETATM   15  O2  UNL     1      -2.344  49.040 -22.100  1.00  0.00    -0.271 OA
HETATM   16  H11 UNL     1      -2.419  50.478 -19.245  1.00  0.00     0.169 HD
BRANCH  14  17
HETATM   17  C7  UNL     1      -3.483  48.364 -20.056  1.00  0.00     0.180 C 
HETATM   18  N1  UNL     1      -4.746  48.068 -20.745  1.00  0.00    -0.335 N 
HETATM   19  C3  UNL     1      -5.802  48.942 -20.669  1.00  0.00     0.243 C 
HETATM   20  C4  UNL     1      -4.794  46.676 -21.171  1.00  0.00     0.127 C 
HETATM   21  O1  UNL     1      -5.720  50.030 -20.103  1.00  0.00    -0.268 OA
HETATM   22  C5  UNL     1      -3.376  46.159 -20.983  1.00  0.00     0.022 C 
HETATM   23  C6  UNL     1      -2.865  46.985 -19.810  1.00  0.00     0.037 C 
BRANCH  19  24
HETATM   24  C2  UNL     1      -7.089  48.537 -21.277  1.00  0.00     0.064 C 
HETATM   25  C1  UNL     1      -8.202  48.397 -20.545  1.00  0.00     0.017 C 
ENDBRANCH  19  24
ENDBRANCH  14  17
ENDBRANCH   1  13
BRANCH  12  26
HETATM   26  O3  UNL     1      -0.747  51.702 -18.362  1.00  0.00    -0.347 OA
BRANCH  26  27
HETATM   27  C23 UNL     1       0.346  51.499 -17.467  1.00  0.00     0.201 C 
BRANCH  27  28
HETATM   28  C24 UNL     1      -0.041  50.542 -16.340  1.00  0.00     0.193 C 
BRANCH  28  29
HETATM   29  O4  UNL     1      -1.385  50.744 -15.906  1.00  0.00    -0.394 OA
HETATM   30  C25 UNL     1      -1.998  49.554 -15.428  1.00  0.00     0.201 C 
ENDBRANCH  28  29
ENDBRANCH  27  28
ENDBRANCH  26  27
ENDBRANCH  12  26
BRANCH   4  31
HETATM   31  N3  UNL     1      -0.476  52.461 -24.753  1.00  0.00    -0.339 N 
HETATM   32  H13 UNL     1       0.168  51.884 -25.295  1.00  0.00     0.167 HD
BRANCH  31  33
HETATM   33  C13 UNL     1      -1.767  51.880 -24.738  1.00  0.00     0.074 A 
HETATM   34  C14 UNL     1      -2.898  52.559 -24.268  1.00  0.00     0.033 A 
HETATM   35  C15 UNL     1      -4.165  51.967 -24.317  1.00  0.00     0.004 A 
HETATM   36  C16 UNL     1      -4.322  50.689 -24.853  1.00  0.00     0.027 A 
HETATM   37  C17 UNL     1      -3.212  50.010 -25.350  1.00  0.00     0.074 A 
HETATM   38 CL1  UNL     1      -3.415  48.436 -26.018  1.00  0.00    -0.081 Cl
HETATM   39  C18 UNL     1      -1.953  50.607 -25.301  1.00  0.00     0.164 A 
HETATM   40  F1  UNL     1      -0.879  49.957 -25.783  1.00  0.00    -0.202 F 
ENDBRANCH  31  33
ENDBRANCH   4  31
TORSDOF 9
ENDMDL
MODEL 2
REMARK minimizedAffinity -8.58474636
REMARK CNNscore 0.314859211
REMARK CNNaffinity 7.49194765
REMARK  9 active torsions:
REMARK  status: ('A' for Active; 'I' for Inactive)
REMARK    1  A    between atoms: C2_2  and  C3_3 
REMARK       I    between atoms: C3_3  and  N1_5 
REMARK    2  A    between atoms: C7_9  and  C8_10 
REMARK       I    between atoms: C8_10  and  N2_12 
REMARK    3  A    between atoms: N2_12  and  C9_13 
REMARK    4  A    between atoms: C12_16  and  N3_17 
REMARK    5  A    between atoms: N3_17  and  C13_18 
REMARK    6  A    between atoms: C22_33  and  O3_34 
REMARK    7  A    between atoms: O3_34  and  C23_35 
REMARK    8  A    between atoms: C23_35  and  C24_36 
REMARK    9  A    between atoms: C24_36  and  O4_37 
ROOT
HETATM    1  C9  UNL     1      -0.879  50.948 -23.375  1.00  0.00     0.069 A 
HETATM    2  C10 UNL     1      -0.741  51.203 -22.011  1.00  0.00     0.050 A 
HETATM    3  C11 UNL     1       0.037  52.295 -21.545  1.00  0.00     0.037 A 
HETATM    4  C12 UNL     1       0.242  52.628 -20.190  1.00  0.00     0.119 A 
HETATM    5  N4  UNL     1       0.963  53.705 -19.824  1.00  0.00    -0.338 N 
ATOM      6  H4  UNL     1       1.093  53.951 -18.843  1.00  0.00     0.168 HD
HETATM    7  C19 UNL     1       1.499  54.434 -20.805  1.00  0.00     0.182 A 
HETATM    8  N5  UNL     1       1.385  54.200 -22.117  1.00  0.00    -0.351 N 
ATOM      9  H5  UNL     1       1.833  54.801 -22.809  1.00  0.00     0.166 HD
HETATM   10  C20 UNL     1       0.657  53.140 -22.474  1.00  0.00     0.049 A 
HETATM   11  C21 UNL     1       0.512  52.876 -23.830  1.00  0.00     0.069 A 
HETATM   12  C22 UNL     1      -0.235  51.792 -24.295  1.00  0.00     0.097 A 
ENDROOT
BRANCH   1  13
HETATM   13  N2  UNL     1      -1.641  49.881 -23.898  1.00  0.00    -0.323 N 
HETATM   14  C8  UNL     1      -2.963  49.884 -24.310  1.00  0.00     0.245 C 
HETATM   15  O2  UNL     1      -3.720  50.851 -24.258  1.00  0.00    -0.271 OA
HETATM   16  H11 UNL     1      -1.148  48.981 -23.929  1.00  0.00     0.169 HD
BRANCH  14  17
HETATM   17  C7  UNL     1      -3.413  48.518 -24.885  1.00  0.00     0.180 C 
HETATM   18  N1  UNL     1      -4.873  48.461 -25.027  1.00  0.00    -0.335 N 
HETATM   19  C3  UNL     1      -5.663  48.113 -23.959  1.00  0.00     0.243 C 
HETATM   20  C4  UNL     1      -5.263  48.482 -26.430  1.00  0.00     0.127 C 
HETATM   21  O1  UNL     1      -5.206  47.917 -22.834  1.00  0.00    -0.268 OA
HETATM   22  C5  UNL     1      -3.996  48.852 -27.184  1.00  0.00     0.022 C 
HETATM   23  C6  UNL     1      -2.895  48.271 -26.305  1.00  0.00     0.037 C 
BRANCH  19  24
HETATM   24  C2  UNL     1      -7.116  47.950 -24.188  1.00  0.00     0.064 C 
HETATM   25  C1  UNL     1      -8.013  48.174 -23.218  1.00  0.00     0.017 C 
ENDBRANCH  19  24
ENDBRANCH  14  17
ENDBRANCH   1  13
BRANCH  12  26
HETATM   26  O3  UNL     1      -0.430  51.480 -25.616  1.00  0.00    -0.347 OA
BRANCH  26  27
HETATM   27  C23 UNL     1       0.682  51.040 -26.394  1.00  0.00     0.201 C 
BRANCH  27  28
HETATM   28  C24 UNL     1       0.911  51.961 -27.591  1.00  0.00     0.193 C 
BRANCH  28  29
HETATM   29  O4  UNL     1       0.733  53.335 -27.249  1.00  0.00    -0.394 OA
HETATM   30  C25 UNL     1      -0.379  53.930 -27.903  1.00  0.00     0.201 C 
ENDBRANCH  28  29
ENDBRANCH  27  28
ENDBRANCH  26  27
ENDBRANCH  12  26
BRANCH   4  31
HETATM   31  N3  UNL     1      -0.330  51.808 -19.183  1.00  0.00    -0.339 N 
HETATM   32  H13 UNL     1      -0.826  51.026 -19.609  1.00  0.00     0.167 HD
BRANCH  31  33
HETATM   33  C13 UNL     1       0.232  51.421 -17.942  1.00  0.00     0.074 A 
HETATM   34  C14 UNL     1       0.997  52.289 -17.154  1.00  0.00     0.033 A 
HETATM   35  C15 UNL     1       1.493  51.882 -15.910  1.00  0.00     0.004 A 
HETATM   36  C16 UNL     1       1.218  50.603 -15.429  1.00  0.00     0.027 A 
HETATM   37  C17 UNL     1       0.435  49.736 -16.189  1.00  0.00     0.074 A 
HETATM   38 CL1  UNL     1       0.091  48.161 -15.585  1.00  0.00    -0.081 Cl
HETATM   39  C18 UNL     1      -0.059  50.148 -17.426  1.00  0.00     0.164 A 
HETATM   40  F1  UNL     1      -0.818  49.316 -18.161  1.00  0.00    -0.202 F 
ENDBRANCH  31  33
ENDBRANCH   4  31
TORSDOF 9
ENDMDL
MODEL 3
REMARK minimizedAffinity -7.22220612
REMARK CNNscore 0.298497915
REMARK CNNaffinity 7.49745131
REMARK  9 active torsions:
REMARK  status: ('A' for Active; 'I' for Inactive)
REMARK    1  A    between atoms: C2_2  and  C3_3 
REMARK       I    between atoms: C3_3  and  N1_5 
REMARK    2  A    between atoms: C7_9  and  C8_10 
REMARK       I    between atoms: C8_10  and  N2_12 
REMARK    3  A    between atoms: N2_12  and  C9_13 
REMARK    4  A    between atoms: C12_16  and  N3_17 
REMARK    5  A    between atoms: N3_17  and  C13_18 
REMARK    6  A    between atoms: C22_33  and  O3_34 
REMARK    7  A    between atoms: O3_34  and  C23_35 
REMARK    8  A    between atoms: C23_35  and  C24_36 
REMARK    9  A    between atoms: C24_36  and  O4_37 
ROOT
HETATM    1  C9  UNL     1      -1.259  51.006 -20.733  1.00  0.00     0.069 A 
HETATM    2  C10 UNL     1      -0.936  51.509 -21.993  1.00  0.00     0.050 A 
HETATM    3  C11 UNL     1      -0.041  52.601 -22.138  1.00  0.00     0.037 A 
HETATM    4  C12 UNL     1       0.339  53.183 -23.366  1.00  0.00     0.119 A 
HETATM    5  N4  UNL     1       1.226  54.194 -23.429  1.00  0.00    -0.338 N 
ATOM      6  H4  UNL     1       1.512  54.598 -24.320  1.00  0.00     0.168 HD
HETATM    7  C19 UNL     1       1.714  54.641 -22.270  1.00  0.00     0.182 A 
HETATM    8  N5  UNL     1       1.410  54.178 -21.053  1.00  0.00    -0.351 N 
ATOM      9  H5  UNL     1       1.820  54.579 -20.209  1.00  0.00     0.166 HD
HETATM   10  C20 UNL     1       0.542  53.166 -20.997  1.00  0.00     0.049 A 
HETATM   11  C21 UNL     1       0.213  52.656 -19.748  1.00  0.00     0.069 A 
HETATM   12  C22 UNL     1      -0.683  51.596 -19.596  1.00  0.00     0.097 A 
ENDROOT
BRANCH   1  13
HETATM   13  N2  UNL     1      -2.139  49.922 -20.525  1.00  0.00    -0.323 N 
HETATM   14  C8  UNL     1      -3.520  49.903 -20.603  1.00  0.00     0.245 C 
HETATM   15  O2  UNL     1      -4.231  50.875 -20.853  1.00  0.00    -0.271 OA
HETATM   16  H11 UNL     1      -1.679  49.051 -20.234  1.00  0.00     0.169 HD
BRANCH  14  17
HETATM   17  C7  UNL     1      -4.114  48.492 -20.366  1.00  0.00     0.180 C 
HETATM   18  N1  UNL     1      -4.324  48.242 -18.934  1.00  0.00    -0.335 N 
HETATM   19  C3  UNL     1      -3.294  47.788 -18.148  1.00  0.00     0.243 C 
HETATM   20  C4  UNL     1      -5.744  48.217 -18.611  1.00  0.00     0.127 C 
HETATM   21  O1  UNL     1      -2.148  47.649 -18.574  1.00  0.00    -0.268 OA
HETATM   22  C5  UNL     1      -6.438  48.755 -19.852  1.00  0.00     0.022 C 
HETATM   23  C6  UNL     1      -5.507  48.322 -20.977  1.00  0.00     0.037 C 
BRANCH  19  24
HETATM   24  C2  UNL     1      -3.590  47.434 -16.743  1.00  0.00     0.064 C 
HETATM   25  C1  UNL     1      -2.635  47.009 -15.905  1.00  0.00     0.017 C 
ENDBRANCH  19  24
ENDBRANCH  14  17
ENDBRANCH   1  13
BRANCH  12  26
HETATM   26  O3  UNL     1      -1.042  51.037 -18.396  1.00  0.00    -0.347 OA
BRANCH  26  27
HETATM   27  C23 UNL     1      -0.045  50.389 -17.608  1.00  0.00     0.201 C 
BRANCH  27  28
HETATM   28  C24 UNL     1       0.159  51.115 -16.279  1.00  0.00     0.193 C 
BRANCH  28  29
HETATM   29  O4  UNL     1      -0.134  50.276 -15.162  1.00  0.00    -0.394 OA
HETATM   30  C25 UNL     1       1.026  49.677 -14.600  1.00  0.00     0.201 C 
ENDBRANCH  28  29
ENDBRANCH  27  28
ENDBRANCH  26  27
ENDBRANCH  12  26
BRANCH   4  31
HETATM   31  N3  UNL     1      -0.224  52.686 -24.569  1.00  0.00    -0.339 N 
HETATM   32  H13 UNL     1       0.496  52.236 -25.134  1.00  0.00     0.167 HD
BRANCH  31  33
HETATM   33  C13 UNL     1      -1.471  52.039 -24.752  1.00  0.00     0.074 A 
HETATM   34  C14 UNL     1      -2.692  52.643 -24.428  1.00  0.00     0.033 A 
HETATM   35  C15 UNL     1      -3.905  51.988 -24.670  1.00  0.00     0.004 A 
HETATM   36  C16 UNL     1      -3.915  50.723 -25.256  1.00  0.00     0.027 A 
HETATM   37  C17 UNL     1      -2.711  50.119 -25.610  1.00  0.00     0.074 A 
HETATM   38 CL1  UNL     1      -2.730  48.561 -26.341  1.00  0.00    -0.081 Cl
HETATM   39  C18 UNL     1      -1.505  50.778 -25.368  1.00  0.00     0.164 A 
HETATM   40  F1  UNL     1      -0.340  50.201 -25.712  1.00  0.00    -0.202 F 
ENDBRANCH  31  33
ENDBRANCH   4  31
TORSDOF 9
ENDMDL
MODEL 4
REMARK minimizedAffinity -7.72317171
REMARK CNNscore 0.287459701
REMARK CNNaffinity 7.56208277
REMARK  9 active torsions:
REMARK  status: ('A' for Active; 'I' for Inactive)
REMARK    1  A    between atoms: C2_2  and  C3_3 
REMARK       I    between atoms: C3_3  and  N1_5 
REMARK    2  A    between atoms: C7_9  and  C8_10 
REMARK       I    between atoms: C8_10  and  N2_12 
REMARK    3  A    between atoms: N2_12  and  C9_13 
REMARK    4  A    between atoms: C12_16  and  N3_17 
REMARK    5  A    between atoms: N3_17  and  C13_18 
REMARK    6  A    between atoms: C22_33  and  O3_34 
REMARK    7  A    between atoms: O3_34  and  C23_35 
REMARK    8  A    between atoms: C23_35  and  C24_36 
REMARK    9  A    between atoms: C24_36  and  O4_37 
ROOT
HETATM    1  C9  UNL     1      -1.390  50.795 -23.146  1.00  0.00     0.069 A 
HETATM    2  C10 UNL     1      -1.297  51.372 -21.880  1.00  0.00     0.050 A 
HETATM    3  C11 UNL     1      -0.372  52.416 -21.617  1.00  0.00     0.037 A 
HETATM    4  C12 UNL     1      -0.200  53.054 -20.370  1.00  0.00     0.119 A 
HETATM    5  N4  UNL     1       0.672  54.067 -20.205  1.00  0.00    -0.338 N 
ATOM      6  H4  UNL     1       0.780  54.537 -19.307  1.00  0.00     0.168 HD
HETATM    7  C19 UNL     1       1.388  54.426 -21.273  1.00  0.00     0.182 A 
HETATM    8  N5  UNL     1       1.320  53.879 -22.491  1.00  0.00    -0.351 N 
ATOM      9  H5  UNL     1       1.909  54.205 -23.258  1.00  0.00     0.166 HD
HETATM   10  C20 UNL     1       0.444  52.887 -22.653  1.00  0.00     0.049 A 
HETATM   11  C21 UNL     1       0.342  52.304 -23.910  1.00  0.00     0.069 A 
HETATM   12  C22 UNL     1      -0.551  51.263 -24.172  1.00  0.00     0.097 A 
ENDROOT
BRANCH   1  13
HETATM   13  N2  UNL     1      -2.291  49.757 -23.470  1.00  0.00    -0.323 N 
HETATM   14  C8  UNL     1      -3.647  49.841 -23.729  1.00  0.00     0.245 C 
HETATM   15  O2  UNL     1      -4.315  50.873 -23.692  1.00  0.00    -0.271 OA
HETATM   16  H11 UNL     1      -1.877  48.818 -23.464  1.00  0.00     0.169 HD
BRANCH  14  17
HETATM   17  C7  UNL     1      -4.270  48.474 -24.108  1.00  0.00     0.180 C 
HETATM   18  N1  UNL     1      -5.115  47.960 -23.023  1.00  0.00    -0.335 N 
HETATM   19  C3  UNL     1      -4.561  47.261 -21.981  1.00  0.00     0.243 C 
HETATM   20  C4  UNL     1      -6.524  48.006 -23.393  1.00  0.00     0.127 C 
HETATM   21  O1  UNL     1      -3.347  47.103 -21.861  1.00  0.00    -0.268 OA
HETATM   22  C5  UNL     1      -6.570  48.848 -24.657  1.00  0.00     0.022 C 
HETATM   23  C6  UNL     1      -5.221  48.566 -25.305  1.00  0.00     0.037 C 
BRANCH  19  24
HETATM   24  C2  UNL     1      -5.470  46.659 -20.981  1.00  0.00     0.064 C 
HETATM   25  C1  UNL     1      -5.656  45.334 -20.901  1.00  0.00     0.017 C 
ENDBRANCH  19  24
ENDBRANCH  14  17
ENDBRANCH   1  13
BRANCH  12  26
HETATM   26  O3  UNL     1      -0.712  50.653 -25.388  1.00  0.00    -0.347 OA
BRANCH  26  27
HETATM   27  C23 UNL     1       0.405  50.567 -26.272  1.00  0.00     0.201 C 
BRANCH  27  28
HETATM   28  C24 UNL     1       0.322  51.633 -27.364  1.00  0.00     0.193 C 
BRANCH  28  29
HETATM   29  O4  UNL     1       1.493  52.449 -27.402  1.00  0.00    -0.394 OA
HETATM   30  C25 UNL     1       2.682  51.726 -27.114  1.00  0.00     0.201 C 
ENDBRANCH  28  29
ENDBRANCH  27  28
ENDBRANCH  26  27
ENDBRANCH  12  26
BRANCH   4  31
HETATM   31  N3  UNL     1      -0.970  52.621 -19.260  1.00  0.00    -0.339 N 
HETATM   32  H13 UNL     1      -1.922  52.408 -19.556  1.00  0.00     0.167 HD
BRANCH  31  33
HETATM   33  C13 UNL     1      -0.578  51.765 -18.202  1.00  0.00     0.074 A 
HETATM   34  C14 UNL     1      -1.318  50.638 -17.826  1.00  0.00     0.033 A 
HETATM   35  C15 UNL     1      -0.870  49.791 -16.806  1.00  0.00     0.004 A 
HETATM   36  C16 UNL     1       0.335  50.052 -16.155  1.00  0.00     0.027 A 
HETATM   37  C17 UNL     1       1.097  51.155 -16.535  1.00  0.00     0.074 A 
HETATM   38 CL1  UNL     1       2.589  51.466 -15.734  1.00  0.00    -0.081 Cl
HETATM   39  C18 UNL     1       0.647  51.993 -17.554  1.00  0.00     0.164 A 
HETATM   40  F1  UNL     1       1.381  53.057 -17.927  1.00  0.00    -0.202 F 
ENDBRANCH  31  33
ENDBRANCH   4  31
TORSDOF 9
ENDMDL
MODEL 5
REMARK minimizedAffinity -7.7501688
REMARK CNNscore 0.212418914
REMARK CNNaffinity 7.15444994
REMARK  9 active torsions:
REMARK  status: ('A' for Active; 'I' for Inactive)
REMARK    1  A    between atoms: C2_2  and  C3_3 
REMARK       I    between atoms: C3_3  and  N1_5 
REMARK    2  A    between atoms: C7_9  and  C8_10 
REMARK       I    between atoms: C8_10  and  N2_12 
REMARK    3  A    between atoms: N2_12  and  C9_13 
REMARK    4  A    between atoms: C12_16  and  N3_17 
REMARK    5  A    between atoms: N3_17  and  C13_18 
REMARK    6  A    between atoms: C22_33  and  O3_34 
REMARK    7  A    between atoms: O3_34  and  C23_35 
REMARK    8  A    between atoms: C23_35  and  C24_36 
REMARK    9  A    between atoms: C24_36  and  O4_37 
ROOT
HETATM    1  C9  UNL     1      -2.240  51.033 -19.915  1.00  0.00     0.069 A 
HETATM    2  C10 UNL     1      -1.514  51.319 -21.071  1.00  0.00     0.050 A 
HETATM    3  C11 UNL     1      -0.449  52.258 -21.054  1.00  0.00     0.037 A 
HETATM    4  C12 UNL     1       0.335  52.619 -22.170  1.00  0.00     0.119 A 
HETATM    5  N4  UNL     1       1.356  53.490 -22.069  1.00  0.00    -0.338 N 
ATOM      6  H4  UNL     1       1.931  53.734 -22.875  1.00  0.00     0.168 HD
HETATM    7  C19 UNL     1       1.579  54.021 -20.865  1.00  0.00     0.182 A 
HETATM    8  N5  UNL     1       0.889  53.766 -19.748  1.00  0.00    -0.351 N 
ATOM      9  H5  UNL     1       1.116  54.219 -18.863  1.00  0.00     0.166 HD
HETATM   10  C20 UNL     1      -0.112  52.890 -19.851  1.00  0.00     0.049 A 
HETATM   11  C21 UNL     1      -0.843  52.597 -18.706  1.00  0.00     0.069 A 
HETATM   12  C22 UNL     1      -1.904  51.689 -18.720  1.00  0.00     0.097 A 
ENDROOT
BRANCH   1  13
HETATM   13  N2  UNL     1      -3.305  50.108 -19.869  1.00  0.00    -0.323 N 
HETATM   14  C8  UNL     1      -3.294  48.761 -20.188  1.00  0.00     0.245 C 
HETATM   15  O2  UNL     1      -2.318  48.138 -20.604  1.00  0.00    -0.271 OA
HETATM   16  H11 UNL     1      -4.210  50.514 -19.605  1.00  0.00     0.169 HD
BRANCH  14  17
HETATM   17  C7  UNL     1      -4.661  48.076 -19.943  1.00  0.00     0.180 C 
HETATM   18  N1  UNL     1      -5.517  48.165 -21.132  1.00  0.00    -0.335 N 
HETATM   19  C3  UNL     1      -6.277  49.285 -21.362  1.00  0.00     0.243 C 
HETATM   20  C4  UNL     1      -5.674  46.859 -21.761  1.00  0.00     0.127 C 
HETATM   21  O1  UNL     1      -6.219  50.282 -20.644  1.00  0.00    -0.268 OA
HETATM   22  C5  UNL     1      -4.639  45.973 -21.087  1.00  0.00     0.022 C 
HETATM   23  C6  UNL     1      -4.536  46.572 -19.690  1.00  0.00     0.037 C 
BRANCH  19  24
HETATM   24  C2  UNL     1      -7.213  49.272 -22.507  1.00  0.00     0.064 C 
HETATM   25  C1  UNL     1      -6.840  49.671 -23.730  1.00  0.00     0.017 C 
ENDBRANCH  19  24
ENDBRANCH  14  17
ENDBRANCH   1  13
BRANCH  12  26
HETATM   26  O3  UNL     1      -2.657  51.345 -17.627  1.00  0.00    -0.347 OA
BRANCH  26  27
HETATM   27  C23 UNL     1      -2.028  50.675 -16.536  1.00  0.00     0.201 C 
BRANCH  27  28
HETATM   28  C24 UNL     1      -2.908  50.717 -15.287  1.00  0.00     0.193 C 
BRANCH  28  29
HETATM   29  O4  UNL     1      -2.249  51.352 -14.192  1.00  0.00    -0.394 OA
HETATM   30  C25 UNL     1      -3.113  52.191 -13.437  1.00  0.00     0.201 C 
ENDBRANCH  28  29
ENDBRANCH  27  28
ENDBRANCH  26  27
ENDBRANCH  12  26
BRANCH   4  31
HETATM   31  N3  UNL     1       0.043  52.043 -23.434  1.00  0.00    -0.339 N 
HETATM   32  H13 UNL     1      -0.738  51.394 -23.351  1.00  0.00     0.167 HD
BRANCH  31  33
HETATM   33  C13 UNL     1       0.030  52.673 -24.702  1.00  0.00     0.074 A 
HETATM   34  C14 UNL     1      -0.037  54.063 -24.858  1.00  0.00     0.033 A 
HETATM   35  C15 UNL     1       0.002  54.648 -26.128  1.00  0.00     0.004 A 
HETATM   36  C16 UNL     1       0.124  53.850 -27.265  1.00  0.00     0.027 A 
HETATM   37  C17 UNL     1       0.219  52.467 -27.127  1.00  0.00     0.074 A 
HETATM   38 CL1  UNL     1       0.378  51.487 -28.534  1.00  0.00    -0.081 Cl
HETATM   39  C18 UNL     1       0.182  51.890 -25.858  1.00  0.00     0.164 A 
HETATM   40  F1  UNL     1       0.278  50.556 -25.720  1.00  0.00    -0.202 F 
ENDBRANCH  31  33
ENDBRANCH   4  31
TORSDOF 9
ENDMDL
MODEL 6
REMARK minimizedAffinity -7.96855307
REMARK CNNscore 0.191993266
REMARK CNNaffinity 7.08009148
REMARK  9 active torsions:
REMARK  status: ('A' for Active; 'I' for Inactive)
REMARK    1  A    between atoms: C2_2  and  C3_3 
REMARK       I    between atoms: C3_3  and  N1_5 
REMARK    2  A    between atoms: C7_9  and  C8_10 
REMARK       I    between atoms: C8_10  and  N2_12 
REMARK    3  A    between atoms: N2_12  and  C9_13 
REMARK    4  A    between atoms: C12_16  and  N3_17 
REMARK    5  A    between atoms: N3_17  and  C13_18 
REMARK    6  A    between atoms: C22_33  and  O3_34 
REMARK    7  A    between atoms: O3_34  and  C23_35 
REMARK    8  A    between atoms: C23_35  and  C24_36 
REMARK    9  A    between atoms: C24_36  and  O4_37 
ROOT
HETATM    1  C9  UNL     1      -1.836  50.686 -20.796  1.00  0.00     0.069 A 
HETATM    2  C10 UNL     1      -1.103  51.391 -19.842  1.00  0.00     0.050 A 
HETATM    3  C11 UNL     1      -0.098  52.316 -20.227  1.00  0.00     0.037 A 
HETATM    4  C12 UNL     1       0.700  53.067 -19.337  1.00  0.00     0.119 A 
HETATM    5  N4  UNL     1       1.609  53.957 -19.778  1.00  0.00    -0.338 N 
ATOM      6  H4  UNL     1       2.170  54.511 -19.131  1.00  0.00     0.168 HD
HETATM    7  C19 UNL     1       1.742  54.081 -21.100  1.00  0.00     0.182 A 
HETATM    8  N5  UNL     1       1.055  53.407 -22.030  1.00  0.00    -0.351 N 
ATOM      9  H5  UNL     1       1.219  53.552 -23.026  1.00  0.00     0.166 HD
HETATM   10  C20 UNL     1       0.144  52.538 -21.588  1.00  0.00     0.049 A 
HETATM   11  C21 UNL     1      -0.593  51.831 -22.529  1.00  0.00     0.069 A 
HETATM   12  C22 UNL     1      -1.570  50.904 -22.157  1.00  0.00     0.097 A 
ENDROOT
BRANCH   1  13
HETATM   13  N2  UNL     1      -2.850  49.757 -20.475  1.00  0.00    -0.323 N 
HETATM   14  C8  UNL     1      -2.725  48.411 -20.176  1.00  0.00     0.245 C 
HETATM   15  O2  UNL     1      -1.669  47.781 -20.169  1.00  0.00    -0.271 OA
HETATM   16  H11 UNL     1      -3.803  50.136 -20.516  1.00  0.00     0.169 HD
BRANCH  14  17
HETATM   17  C7  UNL     1      -4.078  47.750 -19.816  1.00  0.00     0.180 C 
HETATM   18  N1  UNL     1      -4.982  47.733 -20.973  1.00  0.00    -0.335 N 
HETATM   19  C3  UNL     1      -5.755  48.828 -21.269  1.00  0.00     0.243 C 
HETATM   20  C4  UNL     1      -5.160  46.378 -21.477  1.00  0.00     0.127 C 
HETATM   21  O1  UNL     1      -5.673  49.885 -20.644  1.00  0.00    -0.268 OA
HETATM   22  C5  UNL     1      -4.095  45.555 -20.770  1.00  0.00     0.022 C 
HETATM   23  C6  UNL     1      -3.937  46.274 -19.437  1.00  0.00     0.037 C 
BRANCH  19  24
HETATM   24  C2  UNL     1      -6.738  48.714 -22.369  1.00  0.00     0.064 C 
HETATM   25  C1  UNL     1      -7.472  49.760 -22.772  1.00  0.00     0.017 C 
ENDBRANCH  19  24
ENDBRANCH  14  17
ENDBRANCH   1  13
BRANCH  12  26
HETATM   26  O3  UNL     1      -2.341  50.182 -23.031  1.00  0.00    -0.347 OA
BRANCH  26  27
HETATM   27  C23 UNL     1      -3.461  50.813 -23.650  1.00  0.00     0.201 C 
BRANCH  27  28
HETATM   28  C24 UNL     1      -3.116  52.236 -24.085  1.00  0.00     0.193 C 
BRANCH  28  29
HETATM   29  O4  UNL     1      -3.623  52.534 -25.385  1.00  0.00    -0.394 OA
HETATM   30  C25 UNL     1      -2.923  51.857 -26.421  1.00  0.00     0.201 C 
ENDBRANCH  28  29
ENDBRANCH  27  28
ENDBRANCH  26  27
ENDBRANCH  12  26
BRANCH   4  31
HETATM   31  N3  UNL     1       0.536  52.884 -17.940  1.00  0.00    -0.339 N 
HETATM   32  H13 UNL     1      -0.380  52.482 -17.745  1.00  0.00     0.167 HD
BRANCH  31  33
HETATM   33  C13 UNL     1       1.489  52.425 -16.998  1.00  0.00     0.074 A 
HETATM   34  C14 UNL     1       2.791  52.935 -16.928  1.00  0.00     0.033 A 
HETATM   35  C15 UNL     1       3.686  52.489 -15.950  1.00  0.00     0.004 A 
HETATM   36  C16 UNL     1       3.287  51.534 -15.016  1.00  0.00     0.027 A 
HETATM   37  C17 UNL     1       1.987  51.035 -15.055  1.00  0.00     0.074 A 
HETATM   38 CL1  UNL     1       1.497  49.863 -13.893  1.00  0.00    -0.081 Cl
HETATM   39  C18 UNL     1       1.098  51.486 -16.030  1.00  0.00     0.164 A 
HETATM   40  F1  UNL     1      -0.159  51.011 -16.069  1.00  0.00    -0.202 F 
ENDBRANCH  31  33
ENDBRANCH   4  31
TORSDOF 9
ENDMDL
MODEL 7
REMARK minimizedAffinity -8.23303223
REMARK CNNscore 0.163467899
REMARK CNNaffinity 6.53788805
REMARK  9 active torsions:
REMARK  status: ('A' for Active; 'I' for Inactive)
REMARK    1  A    between atoms: C2_2  and  C3_3 
REMARK       I    between atoms: C3_3  and  N1_5 
REMARK    2  A    between atoms: C7_9  and  C8_10 
REMARK       I    between atoms: C8_10  and  N2_12 
REMARK    3  A    between atoms: N2_12  and  C9_13 
REMARK    4  A    between atoms: C12_16  and  N3_17 
REMARK    5  A    between atoms: N3_17  and  C13_18 
REMARK    6  A    between atoms: C22_33  and  O3_34 
REMARK    7  A    between atoms: O3_34  and  C23_35 
REMARK    8  A    between atoms: C23_35  and  C24_36 
REMARK    9  A    between atoms: C24_36  and  O4_37 
ROOT
HETATM    1  C9  UNL     1      -1.409  50.141 -22.479  1.00  0.00     0.069 A 
HETATM    2  C10 UNL     1      -2.329  49.117 -22.255  1.00  0.00     0.050 A 
HETATM    3  C11 UNL     1      -2.387  48.443 -21.007  1.00  0.00     0.037 A 
HETATM    4  C12 UNL     1      -3.273  47.392 -20.691  1.00  0.00     0.119 A 
HETATM    5  N4  UNL     1      -3.297  46.826 -19.470  1.00  0.00    -0.338 N 
ATOM      6  H4  UNL     1      -3.952  46.079 -19.241  1.00  0.00     0.168 HD
HETATM    7  C19 UNL     1      -2.422  47.288 -18.574  1.00  0.00     0.182 A 
HETATM    8  N5  UNL     1      -1.527  48.262 -18.772  1.00  0.00    -0.351 N 
ATOM      9  H5  UNL     1      -0.884  48.556 -18.036  1.00  0.00     0.166 HD
HETATM   10  C20 UNL     1      -1.519  48.830 -19.979  1.00  0.00     0.049 A 
HETATM   11  C21 UNL     1      -0.608  49.853 -20.213  1.00  0.00     0.069 A 
HETATM   12  C22 UNL     1      -0.532  50.506 -21.444  1.00  0.00     0.097 A 
ENDROOT
BRANCH   1  13
HETATM   13  N2  UNL     1      -1.307  50.850 -23.695  1.00  0.00    -0.323 N 
HETATM   14  C8  UNL     1      -1.990  51.986 -24.093  1.00  0.00     0.245 C 
HETATM   15  O2  UNL     1      -2.848  52.567 -23.431  1.00  0.00    -0.271 OA
HETATM   16  H11 UNL     1      -0.670  50.428 -24.381  1.00  0.00     0.169 HD
BRANCH  14  17
HETATM   17  C7  UNL     1      -1.543  52.495 -25.487  1.00  0.00     0.180 C 
HETATM   18  N1  UNL     1      -0.426  51.697 -26.007  1.00  0.00    -0.335 N 
HETATM   19  C3  UNL     1       0.865  51.987 -25.642  1.00  0.00     0.243 C 
HETATM   20  C4  UNL     1      -0.852  50.871 -27.130  1.00  0.00     0.127 C 
HETATM   21  O1  UNL     1       1.141  52.856 -24.817  1.00  0.00    -0.268 OA
HETATM   22  C5  UNL     1      -2.369  50.955 -27.124  1.00  0.00     0.022 C 
HETATM   23  C6  UNL     1      -2.632  52.342 -26.552  1.00  0.00     0.037 C 
BRANCH  19  24
HETATM   24  C2  UNL     1       1.961  51.233 -26.291  1.00  0.00     0.064 C 
HETATM   25  C1  UNL     1       2.663  51.745 -27.311  1.00  0.00     0.017 C 
ENDBRANCH  19  24
ENDBRANCH  14  17
ENDBRANCH   1  13
BRANCH  12  26
HETATM   26  O3  UNL     1       0.333  51.529 -21.739  1.00  0.00    -0.347 OA
BRANCH  26  27
HETATM   27  C23 UNL     1       0.113  52.811 -21.154  1.00  0.00     0.201 C 
BRANCH  27  28
HETATM   28  C24 UNL     1       1.281  53.210 -20.254  1.00  0.00     0.193 C 
BRANCH  28  29
HETATM   29  O4  UNL     1       1.975  54.352 -20.755  1.00  0.00    -0.394 OA
HETATM   30  C25 UNL     1       1.599  54.691 -22.083  1.00  0.00     0.201 C 
ENDBRANCH  28  29
ENDBRANCH  27  28
ENDBRANCH  26  27
ENDBRANCH  12  26
BRANCH   4  31
HETATM   31  N3  UNL     1      -4.169  46.922 -21.685  1.00  0.00    -0.339 N 
HETATM   32  H13 UNL     1      -4.264  45.909 -21.621  1.00  0.00     0.167 HD
BRANCH  31  33
HETATM   33  C13 UNL     1      -5.386  47.505 -22.116  1.00  0.00     0.074 A 
HETATM   34  C14 UNL     1      -5.553  48.054 -23.394  1.00  0.00     0.033 A 
HETATM   35  C15 UNL     1      -6.786  48.577 -23.797  1.00  0.00     0.004 A 
HETATM   36  C16 UNL     1      -7.878  48.545 -22.931  1.00  0.00     0.027 A 
HETATM   37  C17 UNL     1      -7.738  47.978 -21.666  1.00  0.00     0.074 A 
HETATM   38 CL1  UNL     1      -9.093  47.934 -20.605  1.00  0.00    -0.081 Cl
HETATM   39  C18 UNL     1      -6.506  47.456 -21.271  1.00  0.00     0.164 A 
HETATM   40  F1  UNL     1      -6.366  46.905 -20.053  1.00  0.00    -0.202 F 
ENDBRANCH  31  33
ENDBRANCH   4  31
TORSDOF 9
ENDMDL
MODEL 8
REMARK minimizedAffinity -8.34485722
REMARK CNNscore 0.162999347
REMARK CNNaffinity 7.01254511
REMARK  9 active torsions:
REMARK  status: ('A' for Active; 'I' for Inactive)
REMARK    1  A    between atoms: C2_2  and  C3_3 
REMARK       I    between atoms: C3_3  and  N1_5 
REMARK    2  A    between atoms: C7_9  and  C8_10 
REMARK       I    between atoms: C8_10  and  N2_12 
REMARK    3  A    between atoms: N2_12  and  C9_13 
REMARK    4  A    between atoms: C12_16  and  N3_17 
REMARK    5  A    between atoms: N3_17  and  C13_18 
REMARK    6  A    between atoms: C22_33  and  O3_34 
REMARK    7  A    between atoms: O3_34  and  C23_35 
REMARK    8  A    between atoms: C23_35  and  C24_36 
REMARK    9  A    between atoms: C24_36  and  O4_37 
ROOT
HETATM    1  C9  UNL     1      -0.994  50.845 -23.189  1.00  0.00     0.069 A 
HETATM    2  C10 UNL     1      -0.953  51.015 -21.805  1.00  0.00     0.050 A 
HETATM    3  C11 UNL     1      -0.208  52.071 -21.218  1.00  0.00     0.037 A 
HETATM    4  C12 UNL     1      -0.099  52.317 -19.833  1.00  0.00     0.119 A 
HETATM    5  N4  UNL     1       0.596  53.365 -19.351  1.00  0.00    -0.338 N 
ATOM      6  H4  UNL     1       0.656  53.550 -18.350  1.00  0.00     0.168 HD
HETATM    7  C19 UNL     1       1.202  54.150 -20.244  1.00  0.00     0.182 A 
HETATM    8  N5  UNL     1       1.182  53.998 -21.572  1.00  0.00    -0.351 N 
ATOM      9  H5  UNL     1       1.679  54.638 -22.192  1.00  0.00     0.166 HD
HETATM   10  C20 UNL     1       0.479  52.968 -22.046  1.00  0.00     0.049 A 
HETATM   11  C21 UNL     1       0.431  52.789 -23.423  1.00  0.00     0.069 A 
HETATM   12  C22 UNL     1      -0.284  51.740 -24.006  1.00  0.00     0.097 A 
ENDROOT
BRANCH   1  13
HETATM   13  N2  UNL     1      -1.719  49.818 -23.830  1.00  0.00    -0.323 N 
HETATM   14  C8  UNL     1      -2.976  49.878 -24.406  1.00  0.00     0.245 C 
HETATM   15  O2  UNL     1      -3.700  50.871 -24.428  1.00  0.00    -0.271 OA
HETATM   16  H11 UNL     1      -1.257  48.901 -23.820  1.00  0.00     0.169 HD
BRANCH  14  17
HETATM   17  C7  UNL     1      -3.396  48.541 -25.067  1.00  0.00     0.180 C 
HETATM   18  N1  UNL     1      -4.847  48.494 -25.287  1.00  0.00    -0.335 N 
HETATM   19  C3  UNL     1      -5.691  48.100 -24.279  1.00  0.00     0.243 C 
HETATM   20  C4  UNL     1      -5.163  48.582 -26.707  1.00  0.00     0.127 C 
HETATM   21  O1  UNL     1      -5.294  47.851 -23.142  1.00  0.00    -0.268 OA
HETATM   22  C5  UNL     1      -3.858  48.983 -27.375  1.00  0.00     0.022 C 
HETATM   23  C6  UNL     1      -2.805  48.359 -26.467  1.00  0.00     0.037 C 
BRANCH  19  24
HETATM   24  C2  UNL     1      -7.130  47.951 -24.591  1.00  0.00     0.064 C 
HETATM   25  C1  UNL     1      -8.029  48.880 -24.240  1.00  0.00     0.017 C 
ENDBRANCH  19  24
ENDBRANCH  14  17
ENDBRANCH   1  13
BRANCH  12  26
HETATM   26  O3  UNL     1      -0.384  51.512 -25.355  1.00  0.00    -0.347 OA
BRANCH  26  27
HETATM   27  C23 UNL     1       0.788  51.150 -26.084  1.00  0.00     0.201 C 
BRANCH  27  28
HETATM   28  C24 UNL     1       1.116  52.198 -27.147  1.00  0.00     0.193 C 
BRANCH  28  29
HETATM   29  O4  UNL     1       0.529  53.464 -26.847  1.00  0.00    -0.394 OA
HETATM   30  C25 UNL     1      -0.364  53.915 -27.856  1.00  0.00     0.201 C 
ENDBRANCH  28  29
ENDBRANCH  27  28
ENDBRANCH  26  27
ENDBRANCH  12  26
BRANCH   4  31
HETATM   31  N3  UNL     1      -0.745  51.441 -18.923  1.00  0.00    -0.339 N 
HETATM   32  H13 UNL     1      -1.118  51.968 -18.135  1.00  0.00     0.167 HD
BRANCH  31  33
HETATM   33  C13 UNL     1      -1.575  50.332 -19.214  1.00  0.00     0.074 A 
HETATM   34  C14 UNL     1      -1.105  49.013 -19.218  1.00  0.00     0.033 A 
HETATM   35  C15 UNL     1      -1.970  47.941 -19.463  1.00  0.00     0.004 A 
HETATM   36  C16 UNL     1      -3.325  48.171 -19.692  1.00  0.00     0.027 A 
HETATM   37  C17 UNL     1      -3.816  49.475 -19.665  1.00  0.00     0.074 A 
HETATM   38 CL1  UNL     1      -5.493  49.752 -19.940  1.00  0.00    -0.081 Cl
HETATM   39  C18 UNL     1      -2.949  50.539 -19.418  1.00  0.00     0.164 A 
HETATM   40  F1  UNL     1      -3.419  51.799 -19.387  1.00  0.00    -0.202 F 
ENDBRANCH  31  33
ENDBRANCH   4  31
TORSDOF 9
ENDMDL
MODEL 9
REMARK minimizedAffinity -8.13315392
REMARK CNNscore 0.159522131
REMARK CNNaffinity 7.20174408
REMARK  9 active torsions:
REMARK  status: ('A' for Active; 'I' for Inactive)
REMARK    1  A    between atoms: C2_2  and  C3_3 
REMARK       I    between atoms: C3_3  and  N1_5 
REMARK    2  A    between atoms: C7_9  and  C8_10 
REMARK       I    between atoms: C8_10  and  N2_12 
REMARK    3  A    between atoms: N2_12  and  C9_13 
REMARK    4  A    between atoms: C12_16  and  N3_17 
REMARK    5  A    between atoms: N3_17  and  C13_18 
REMARK    6  A    between atoms: C22_33  and  O3_34 
REMARK    7  A    between atoms: O3_34  and  C23_35 
REMARK    8  A    between atoms: C23_35  and  C24_36 
REMARK    9  A    between atoms: C24_36  and  O4_37 
ROOT
HETATM    1  C9  UNL     1      -1.637  50.947 -22.784  1.00  0.00     0.069 A 
HETATM    2  C10 UNL     1      -1.379  51.441 -21.506  1.00  0.00     0.050 A 
HETATM    3  C11 UNL     1      -0.337  52.377 -21.278  1.00  0.00     0.037 A 
HETATM    4  C12 UNL     1       0.005  52.925 -20.024  1.00  0.00     0.119 A 
HETATM    5  N4  UNL     1       0.984  53.840 -19.892  1.00  0.00    -0.338 N 
ATOM      6  H4  UNL     1       1.215  54.247 -18.986  1.00  0.00     0.168 HD
HETATM    7  C19 UNL     1       1.638  54.190 -21.002  1.00  0.00     0.182 A 
HETATM    8  N5  UNL     1       1.411  53.720 -22.233  1.00  0.00    -0.351 N 
ATOM      9  H5  UNL     1       1.961  54.031 -23.035  1.00  0.00     0.166 HD
HETATM   10  C20 UNL     1       0.430  52.825 -22.362  1.00  0.00     0.049 A 
HETATM   11  C21 UNL     1       0.163  52.327 -23.630  1.00  0.00     0.069 A 
HETATM   12  C22 UNL     1      -0.848  51.390 -23.858  1.00  0.00     0.097 A 
ENDROOT
BRANCH   1  13
HETATM   13  N2  UNL     1      -2.661  50.019 -23.072  1.00  0.00    -0.323 N 
HETATM   14  C8  UNL     1      -2.923  48.804 -22.463  1.00  0.00     0.245 C 
HETATM   15  O2  UNL     1      -2.261  48.310 -21.552  1.00  0.00    -0.271 OA
HETATM   16  H11 UNL     1      -3.253  50.273 -23.872  1.00  0.00     0.169 HD
BRANCH  14  17
HETATM   17  C7  UNL     1      -4.184  48.108 -23.033  1.00  0.00     0.180 C 
HETATM   18  N1  UNL     1      -5.401  48.600 -22.375  1.00  0.00    -0.335 N 
HETATM   19  C3  UNL     1      -5.813  48.060 -21.182  1.00  0.00     0.243 C 
HETATM   20  C4  UNL     1      -6.196  49.414 -23.285  1.00  0.00     0.127 C 
HETATM   21  O1  UNL     1      -5.157  47.215 -20.576  1.00  0.00    -0.268 OA
HETATM   22  C5  UNL     1      -5.287  49.667 -24.477  1.00  0.00     0.022 C 
HETATM   23  C6  UNL     1      -4.416  48.418 -24.514  1.00  0.00     0.037 C 
BRANCH  19  24
HETATM   24  C2  UNL     1      -7.110  48.504 -20.625  1.00  0.00     0.064 C 
HETATM   25  C1  UNL     1      -7.192  49.497 -19.730  1.00  0.00     0.017 C 
ENDBRANCH  19  24
ENDBRANCH  14  17
ENDBRANCH   1  13
BRANCH  12  26
HETATM   26  O3  UNL     1      -1.173  50.867 -25.083  1.00  0.00    -0.347 OA
BRANCH  26  27
HETATM   27  C23 UNL     1      -0.376  51.210 -26.215  1.00  0.00     0.201 C 
BRANCH  27  28
HETATM   28  C24 UNL     1      -1.234  51.821 -27.322  1.00  0.00     0.193 C 
BRANCH  28  29
HETATM   29  O4  UNL     1      -1.386  53.231 -27.163  1.00  0.00    -0.394 OA
HETATM   30  C25 UNL     1      -0.349  53.975 -27.788  1.00  0.00     0.201 C 
ENDBRANCH  28  29
ENDBRANCH  27  28
ENDBRANCH  26  27
ENDBRANCH  12  26
BRANCH   4  31
HETATM   31  N3  UNL     1      -0.706  52.506 -18.870  1.00  0.00    -0.339 N 
HETATM   32  H13 UNL     1      -1.710  52.543 -19.045  1.00  0.00     0.167 HD
BRANCH  31  33
HETATM   33  C13 UNL     1      -0.396  51.441 -17.989  1.00  0.00     0.074 A 
HETATM   34  C14 UNL     1      -0.932  50.156 -18.135  1.00  0.00     0.033 A 
HETATM   35  C15 UNL     1      -0.562  49.120 -17.271  1.00  0.00     0.004 A 
HETATM   36  C16 UNL     1       0.363  49.351 -16.254  1.00  0.00     0.027 A 
HETATM   37  C17 UNL     1       0.926  50.617 -16.110  1.00  0.00     0.074 A 
HETATM   38 CL1  UNL     1       2.075  50.893 -14.858  1.00  0.00    -0.081 Cl
HETATM   39  C18 UNL     1       0.556  51.645 -16.977  1.00  0.00     0.164 A 
HETATM   40  F1  UNL     1       1.100  52.868 -16.845  1.00  0.00    -0.202 F 
ENDBRANCH  31  33
ENDBRANCH   4  31
TORSDOF 9
ENDMDL
