MODEL 1
REMARK minimizedAffinity -6.46269941
REMARK CNNscore 0.63044697
REMARK CNNaffinity 6.53854179
REMARK  9 active torsions:
REMARK  status: ('A' for Active; 'I' for Inactive)
REMARK    1  A    between atoms: C2_2  and  C3_3 
REMARK       I    between atoms: C3_3  and  N1_5 
REMARK    2  A    between atoms: C7_9  and  C8_10 
REMARK       I    between atoms: C8_10  and  N2_12 
REMARK    3  A    between atoms: N2_12  and  C9_13 
REMARK    4  A    between atoms: C12_16  and  N3_17 
REMARK    5  A    between atoms: N3_17  and  C13_18 
REMARK    6  A    between atoms: C22_33  and  O3_34 
REMARK    7  A    between atoms: O3_34  and  C23_35 
REMARK    8  A    between atoms: C23_35  and  C24_36 
REMARK    9  A    between atoms: C24_36  and  O4_37 
ROOT
HETATM    1  C9  UNL     1      13.586  59.873   4.411  1.00  0.00     0.069 A 
HETATM    2  C10 UNL     1      14.040  59.021   3.404  1.00  0.00     0.050 A 
HETATM    3  C11 UNL     1      14.537  57.727   3.708  1.00  0.00     0.037 A 
HETATM    4  C12 UNL     1      15.025  56.801   2.761  1.00  0.00     0.119 A 
HETATM    5  N4  UNL     1      15.444  55.573   3.121  1.00  0.00    -0.338 N 
ATOM      6  H4  UNL     1      15.779  54.901   2.431  1.00  0.00     0.168 HD
HETATM    7  C19 UNL     1      15.402  55.277   4.421  1.00  0.00     0.182 A 
HETATM    8  N5  UNL     1      14.980  56.083   5.402  1.00  0.00    -0.351 N 
ATOM      9  H5  UNL     1      14.985  55.786   6.378  1.00  0.00     0.166 HD
HETATM   10  C20 UNL     1      14.550  57.293   5.039  1.00  0.00     0.049 A 
HETATM   11  C21 UNL     1      14.094  58.149   6.033  1.00  0.00     0.069 A 
HETATM   12  C22 UNL     1      13.623  59.431   5.744  1.00  0.00     0.097 A 
ENDROOT
BRANCH   1  13
HETATM   13  N2  UNL     1      13.078  61.168   4.172  1.00  0.00    -0.323 N 
HETATM   14  C8  UNL     1      13.775  62.333   3.902  1.00  0.00     0.245 C 
HETATM   15  O2  UNL     1      14.999  62.432   3.851  1.00  0.00    -0.271 OA
HETATM   16  H11 UNL     1      12.058  61.247   4.257  1.00  0.00     0.169 HD
BRANCH  14  17
HETATM   17  C7  UNL     1      12.841  63.540   3.634  1.00  0.00     0.180 C 
HETATM   18  N1  UNL     1      12.714  64.383   4.830  1.00  0.00    -0.335 N 
HETATM   19  C3  UNL     1      11.801  64.072   5.807  1.00  0.00     0.243 C 
HETATM   20  C4  UNL     1      13.394  65.658   4.645  1.00  0.00     0.127 C 
HETATM   21  O1  UNL     1      11.116  63.051   5.772  1.00  0.00    -0.268 OA
HETATM   22  C5  UNL     1      14.217  65.483   3.379  1.00  0.00     0.022 C 
HETATM   23  C6  UNL     1      13.391  64.492   2.569  1.00  0.00     0.037 C 
BRANCH  19  24
HETATM   24  C2  UNL     1      11.626  65.021   6.928  1.00  0.00     0.064 C 
HETATM   25  C1  UNL     1      12.196  64.816   8.123  1.00  0.00     0.017 C 
ENDBRANCH  19  24
ENDBRANCH  14  17
ENDBRANCH   1  13
BRANCH  12  26
HETATM   26  O3  UNL     1      13.149  60.322   6.673  1.00  0.00    -0.347 OA
BRANCH  26  27
HETATM   27  C23 UNL     1      12.475  59.824   7.828  1.00  0.00     0.201 C 
BRANCH  27  28
HETATM   28  C24 UNL     1      10.968  60.055   7.725  1.00  0.00     0.193 C 
BRANCH  28  29
HETATM   29  O4  UNL     1      10.288  59.682   8.922  1.00  0.00    -0.394 OA
HETATM   30  C25 UNL     1      10.261  60.721   9.891  1.00  0.00     0.201 C 
ENDBRANCH  28  29
ENDBRANCH  27  28
ENDBRANCH  26  27
ENDBRANCH  12  26
BRANCH   4  31
HETATM   31  N3  UNL     1      15.069  57.171   1.393  1.00  0.00    -0.339 N 
HETATM   32  H13 UNL     1      16.004  57.497   1.148  1.00  0.00     0.167 HD
BRANCH  31  33
HETATM   33  C13 UNL     1      14.469  56.519   0.288  1.00  0.00     0.074 A 
HETATM   34  C14 UNL     1      15.163  55.620  -0.530  1.00  0.00     0.033 A 
HETATM   35  C15 UNL     1      14.518  54.960  -1.583  1.00  0.00     0.004 A 
HETATM   36  C16 UNL     1      13.163  55.178  -1.822  1.00  0.00     0.027 A 
HETATM   37  C17 UNL     1      12.450  56.049  -1.001  1.00  0.00     0.074 A 
HETATM   38 CL1  UNL     1      10.774  56.308  -1.297  1.00  0.00    -0.081 Cl
HETATM   39  C18 UNL     1      13.097  56.702   0.047  1.00  0.00     0.164 A 
HETATM   40  F1  UNL     1      12.413  57.541   0.846  1.00  0.00    -0.202 F 
ENDBRANCH  31  33
ENDBRANCH   4  31
TORSDOF 9
ENDMDL
MODEL 2
REMARK minimizedAffinity -6.17371607
REMARK CNNscore 0.615474463
REMARK CNNaffinity 6.99498749
REMARK  9 active torsions:
REMARK  status: ('A' for Active; 'I' for Inactive)
REMARK    1  A    between atoms: C2_2  and  C3_3 
REMARK       I    between atoms: C3_3  and  N1_5 
REMARK    2  A    between atoms: C7_9  and  C8_10 
REMARK       I    between atoms: C8_10  and  N2_12 
REMARK    3  A    between atoms: N2_12  and  C9_13 
REMARK    4  A    between atoms: C12_16  and  N3_17 
REMARK    5  A    between atoms: N3_17  and  C13_18 
REMARK    6  A    between atoms: C22_33  and  O3_34 
REMARK    7  A    between atoms: O3_34  and  C23_35 
REMARK    8  A    between atoms: C23_35  and  C24_36 
REMARK    9  A    between atoms: C24_36  and  O4_37 
ROOT
HETATM    1  C9  UNL     1      13.207  60.751   3.010  1.00  0.00     0.069 A 
HETATM    2  C10 UNL     1      13.331  59.638   2.178  1.00  0.00     0.050 A 
HETATM    3  C11 UNL     1      13.474  58.333   2.717  1.00  0.00     0.037 A 
HETATM    4  C12 UNL     1      13.614  57.151   1.959  1.00  0.00     0.119 A 
HETATM    5  N4  UNL     1      13.706  55.941   2.541  1.00  0.00    -0.338 N 
ATOM      6  H4  UNL     1      13.789  55.088   1.988  1.00  0.00     0.168 HD
HETATM    7  C19 UNL     1      13.684  55.909   3.875  1.00  0.00     0.182 A 
HETATM    8  N5  UNL     1      13.575  56.965   4.689  1.00  0.00    -0.351 N 
ATOM      9  H5  UNL     1      13.574  56.860   5.704  1.00  0.00     0.166 HD
HETATM   10  C20 UNL     1      13.469  58.161   4.107  1.00  0.00     0.049 A 
HETATM   11  C21 UNL     1      13.344  59.276   4.925  1.00  0.00     0.069 A 
HETATM   12  C22 UNL     1      13.223  60.565   4.402  1.00  0.00     0.097 A 
ENDROOT
BRANCH   1  13
HETATM   13  N2  UNL     1      13.058  62.072   2.534  1.00  0.00    -0.323 N 
HETATM   14  C8  UNL     1      13.796  62.729   1.566  1.00  0.00     0.245 C 
HETATM   15  O2  UNL     1      14.755  62.254   0.959  1.00  0.00    -0.271 OA
HETATM   16  H11 UNL     1      12.331  62.616   3.012  1.00  0.00     0.169 HD
BRANCH  14  17
HETATM   17  C7  UNL     1      13.274  64.160   1.284  1.00  0.00     0.180 C 
HETATM   18  N1  UNL     1      14.094  65.165   1.971  1.00  0.00    -0.335 N 
HETATM   19  C3  UNL     1      13.849  65.485   3.283  1.00  0.00     0.243 C 
HETATM   20  C4  UNL     1      14.885  65.934   1.019  1.00  0.00     0.127 C 
HETATM   21  O1  UNL     1      13.004  64.901   3.960  1.00  0.00    -0.268 OA
HETATM   22  C5  UNL     1      14.758  65.179  -0.295  1.00  0.00     0.022 C 
HETATM   23  C6  UNL     1      13.375  64.549  -0.193  1.00  0.00     0.037 C 
BRANCH  19  24
HETATM   24  C2  UNL     1      14.622  66.591   3.890  1.00  0.00     0.064 C 
HETATM   25  C1  UNL     1      15.742  66.370   4.591  1.00  0.00     0.017 C 
ENDBRANCH  19  24
ENDBRANCH  14  17
ENDBRANCH   1  13
BRANCH  12  26
HETATM   26  O3  UNL     1      13.085  61.706   5.150  1.00  0.00    -0.347 OA
BRANCH  26  27
HETATM   27  C23 UNL     1      12.808  61.590   6.545  1.00  0.00     0.201 C 
BRANCH  27  28
HETATM   28  C24 UNL     1      11.303  61.627   6.809  1.00  0.00     0.193 C 
BRANCH  28  29
HETATM   29  O4  UNL     1      11.001  61.494   8.197  1.00  0.00    -0.394 OA
HETATM   30  C25 UNL     1      10.402  60.247   8.518  1.00  0.00     0.201 C 
ENDBRANCH  28  29
ENDBRANCH  27  28
ENDBRANCH  26  27
ENDBRANCH  12  26
BRANCH   4  31
HETATM   31  N3  UNL     1      13.654  57.240   0.543  1.00  0.00    -0.339 N 
HETATM   32  H13 UNL     1      14.003  58.155   0.259  1.00  0.00     0.167 HD
BRANCH  31  33
HETATM   33  C13 UNL     1      14.052  56.248  -0.386  1.00  0.00     0.074 A 
HETATM   34  C14 UNL     1      15.394  55.988  -0.689  1.00  0.00     0.033 A 
HETATM   35  C15 UNL     1      15.746  54.966  -1.577  1.00  0.00     0.004 A 
HETATM   36  C16 UNL     1      14.759  54.177  -2.166  1.00  0.00     0.027 A 
HETATM   37  C17 UNL     1      13.420  54.404  -1.856  1.00  0.00     0.074 A 
HETATM   38 CL1  UNL     1      12.207  53.421  -2.579  1.00  0.00    -0.081 Cl
HETATM   39  C18 UNL     1      13.076  55.423  -0.968  1.00  0.00     0.164 A 
HETATM   40  F1  UNL     1      11.785  55.644  -0.662  1.00  0.00    -0.202 F 
ENDBRANCH  31  33
ENDBRANCH   4  31
TORSDOF 9
ENDMDL
MODEL 3
REMARK minimizedAffinity -6.63349199
REMARK CNNscore 0.533963561
REMARK CNNaffinity 6.59165621
REMARK  9 active torsions:
REMARK  status: ('A' for Active; 'I' for Inactive)
REMARK    1  A    between atoms: C2_2  and  C3_3 
REMARK       I    between atoms: C3_3  and  N1_5 
REMARK    2  A    between atoms: C7_9  and  C8_10 
REMARK       I    between atoms: C8_10  and  N2_12 
REMARK    3  A    between atoms: N2_12  and  C9_13 
REMARK    4  A    between atoms: C12_16  and  N3_17 
REMARK    5  A    between atoms: N3_17  and  C13_18 
REMARK    6  A    between atoms: C22_33  and  O3_34 
REMARK    7  A    between atoms: O3_34  and  C23_35 
REMARK    8  A    between atoms: C23_35  and  C24_36 
REMARK    9  A    between atoms: C24_36  and  O4_37 
ROOT
HETATM    1  C9  UNL     1      13.495  59.565   4.134  1.00  0.00     0.069 A 
HETATM    2  C10 UNL     1      12.861  59.875   5.336  1.00  0.00     0.050 A 
HETATM    3  C11 UNL     1      12.361  61.180   5.587  1.00  0.00     0.037 A 
HETATM    4  C12 UNL     1      11.715  61.590   6.772  1.00  0.00     0.119 A 
HETATM    5  N4  UNL     1      11.232  62.837   6.922  1.00  0.00    -0.338 N 
ATOM      6  H4  UNL     1      10.749  63.123   7.774  1.00  0.00     0.168 HD
HETATM    7  C19 UNL     1      11.415  63.682   5.905  1.00  0.00     0.182 A 
HETATM    8  N5  UNL     1      12.029  63.407   4.750  1.00  0.00    -0.351 N 
ATOM      9  H5  UNL     1      12.137  64.111   4.020  1.00  0.00     0.166 HD
HETATM   10  C20 UNL     1      12.492  62.164   4.599  1.00  0.00     0.049 A 
HETATM   11  C21 UNL     1      13.125  61.844   3.405  1.00  0.00     0.069 A 
HETATM   12  C22 UNL     1      13.636  60.568   3.160  1.00  0.00     0.097 A 
ENDROOT
BRANCH   1  13
HETATM   13  N2  UNL     1      14.008  58.286   3.826  1.00  0.00    -0.323 N 
HETATM   14  C8  UNL     1      14.254  57.226   4.680  1.00  0.00     0.245 C 
HETATM   15  O2  UNL     1      14.081  57.240   5.897  1.00  0.00    -0.271 OA
HETATM   16  H11 UNL     1      14.269  58.159   2.841  1.00  0.00     0.169 HD
BRANCH  14  17
HETATM   17  C7  UNL     1      14.762  55.965   3.937  1.00  0.00     0.180 C 
HETATM   18  N1  UNL     1      16.109  55.594   4.387  1.00  0.00    -0.335 N 
HETATM   19  C3  UNL     1      17.216  56.192   3.837  1.00  0.00     0.243 C 
HETATM   20  C4  UNL     1      16.080  54.365   5.169  1.00  0.00     0.127 C 
HETATM   21  O1  UNL     1      17.135  57.106   3.017  1.00  0.00    -0.268 OA
HETATM   22  C5  UNL     1      14.607  54.116   5.451  1.00  0.00     0.022 C 
HETATM   23  C6  UNL     1      13.920  54.721   4.234  1.00  0.00     0.037 C 
BRANCH  19  24
HETATM   24  C2  UNL     1      18.551  55.695   4.235  1.00  0.00     0.064 C 
HETATM   25  C1  UNL     1      19.067  54.569   3.725  1.00  0.00     0.017 C 
ENDBRANCH  19  24
ENDBRANCH  14  17
ENDBRANCH   1  13
BRANCH  12  26
HETATM   26  O3  UNL     1      14.260  60.180   2.002  1.00  0.00    -0.347 OA
BRANCH  26  27
HETATM   27  C23 UNL     1      13.507  60.133   0.792  1.00  0.00     0.201 C 
BRANCH  27  28
HETATM   28  C24 UNL     1      13.579  58.746   0.156  1.00  0.00     0.193 C 
BRANCH  28  29
HETATM   29  O4  UNL     1      12.419  57.965   0.444  1.00  0.00    -0.394 OA
HETATM   30  C25 UNL     1      12.330  56.790  -0.350  1.00  0.00     0.201 C 
ENDBRANCH  28  29
ENDBRANCH  27  28
ENDBRANCH  26  27
ENDBRANCH  12  26
BRANCH   4  31
HETATM   31  N3  UNL     1      11.564  60.660   7.833  1.00  0.00    -0.339 N 
HETATM   32  H13 UNL     1      11.063  59.835   7.507  1.00  0.00     0.167 HD
BRANCH  31  33
HETATM   33  C13 UNL     1      12.507  60.305   8.828  1.00  0.00     0.074 A 
HETATM   34  C14 UNL     1      13.428  61.216   9.360  1.00  0.00     0.033 A 
HETATM   35  C15 UNL     1      14.311  60.836  10.377  1.00  0.00     0.004 A 
HETATM   36  C16 UNL     1      14.275  59.541  10.890  1.00  0.00     0.027 A 
HETATM   37  C17 UNL     1      13.347  58.629  10.391  1.00  0.00     0.074 A 
HETATM   38 CL1  UNL     1      13.302  57.033  11.035  1.00  0.00    -0.081 Cl
HETATM   39  C18 UNL     1      12.468  59.014   9.379  1.00  0.00     0.164 A 
HETATM   40  F1  UNL     1      11.568  58.138   8.898  1.00  0.00    -0.202 F 
ENDBRANCH  31  33
ENDBRANCH   4  31
TORSDOF 9
ENDMDL
MODEL 4
REMARK minimizedAffinity -6.67170095
REMARK CNNscore 0.497435838
REMARK CNNaffinity 6.33800936
REMARK  9 active torsions:
REMARK  status: ('A' for Active; 'I' for Inactive)
REMARK    1  A    between atoms: C2_2  and  C3_3 
REMARK       I    between atoms: C3_3  and  N1_5 
REMARK    2  A    between atoms: C7_9  and  C8_10 
REMARK       I    between atoms: C8_10  and  N2_12 
REMARK    3  A    between atoms: N2_12  and  C9_13 
REMARK    4  A    between atoms: C12_16  and  N3_17 
REMARK    5  A    between atoms: N3_17  and  C13_18 
REMARK    6  A    between atoms: C22_33  and  O3_34 
REMARK    7  A    between atoms: O3_34  and  C23_35 
REMARK    8  A    between atoms: C23_35  and  C24_36 
REMARK    9  A    between atoms: C24_36  and  O4_37 
ROOT
HETATM    1  C9  UNL     1      12.266  55.839  -1.163  1.00  0.00     0.069 A 
HETATM    2  C10 UNL     1      12.608  54.523  -1.472  1.00  0.00     0.050 A 
HETATM    3  C11 UNL     1      12.325  53.972  -2.749  1.00  0.00     0.037 A 
HETATM    4  C12 UNL     1      12.624  52.653  -3.150  1.00  0.00     0.119 A 
HETATM    5  N4  UNL     1      12.361  52.213  -4.395  1.00  0.00    -0.338 N 
ATOM      6  H4  UNL     1      12.596  51.264  -4.686  1.00  0.00     0.168 HD
HETATM    7  C19 UNL     1      11.779  53.076  -5.230  1.00  0.00     0.182 A 
HETATM    8  N5  UNL     1      11.435  54.337  -4.950  1.00  0.00    -0.351 N 
ATOM      9  H5  UNL     1      10.983  54.936  -5.642  1.00  0.00     0.166 HD
HETATM   10  C20 UNL     1      11.712  54.774  -3.720  1.00  0.00     0.049 A 
HETATM   11  C21 UNL     1      11.376  56.084  -3.401  1.00  0.00     0.069 A 
HETATM   12  C22 UNL     1      11.633  56.625  -2.140  1.00  0.00     0.097 A 
ENDROOT
BRANCH   1  13
HETATM   13  N2  UNL     1      12.524  56.442   0.087  1.00  0.00    -0.323 N 
HETATM   14  C8  UNL     1      13.736  56.603   0.735  1.00  0.00     0.245 C 
HETATM   15  O2  UNL     1      14.823  56.206   0.317  1.00  0.00    -0.271 OA
HETATM   16  H11 UNL     1      11.685  56.758   0.588  1.00  0.00     0.169 HD
BRANCH  14  17
HETATM   17  C7  UNL     1      13.604  57.378   2.069  1.00  0.00     0.180 C 
HETATM   18  N1  UNL     1      14.416  56.756   3.123  1.00  0.00    -0.335 N 
HETATM   19  C3  UNL     1      13.925  55.700   3.849  1.00  0.00     0.243 C 
HETATM   20  C4  UNL     1      15.558  57.595   3.465  1.00  0.00     0.127 C 
HETATM   21  O1  UNL     1      12.838  55.178   3.605  1.00  0.00    -0.268 OA
HETATM   22  C5  UNL     1      15.607  58.653   2.375  1.00  0.00     0.022 C 
HETATM   23  C6  UNL     1      14.143  58.808   1.983  1.00  0.00     0.037 C 
BRANCH  19  24
HETATM   24  C2  UNL     1      14.733  55.192   4.979  1.00  0.00     0.064 C 
HETATM   25  C1  UNL     1      14.646  53.922   5.396  1.00  0.00     0.017 C 
ENDBRANCH  19  24
ENDBRANCH  14  17
ENDBRANCH   1  13
BRANCH  12  26
HETATM   26  O3  UNL     1      11.340  57.910  -1.762  1.00  0.00    -0.347 OA
BRANCH  26  27
HETATM   27  C23 UNL     1      11.781  58.991  -2.583  1.00  0.00     0.201 C 
BRANCH  27  28
HETATM   28  C24 UNL     1      12.404  60.101  -1.738  1.00  0.00     0.193 C 
BRANCH  28  29
HETATM   29  O4  UNL     1      11.716  60.279  -0.500  1.00  0.00    -0.394 OA
HETATM   30  C25 UNL     1      12.056  61.494   0.153  1.00  0.00     0.201 C 
ENDBRANCH  28  29
ENDBRANCH  27  28
ENDBRANCH  26  27
ENDBRANCH  12  26
BRANCH   4  31
HETATM   31  N3  UNL     1      13.224  51.767  -2.219  1.00  0.00    -0.339 N 
HETATM   32  H13 UNL     1      13.403  52.252  -1.340  1.00  0.00     0.167 HD
BRANCH  31  33
HETATM   33  C13 UNL     1      12.915  50.406  -1.980  1.00  0.00     0.074 A 
HETATM   34  C14 UNL     1      13.894  49.407  -1.912  1.00  0.00     0.033 A 
HETATM   35  C15 UNL     1      13.551  48.081  -1.625  1.00  0.00     0.004 A 
HETATM   36  C16 UNL     1      12.221  47.737  -1.386  1.00  0.00     0.027 A 
HETATM   37  C17 UNL     1      11.238  48.723  -1.422  1.00  0.00     0.074 A 
HETATM   38 CL1  UNL     1       9.599  48.292  -1.117  1.00  0.00    -0.081 Cl
HETATM   39  C18 UNL     1      11.586  50.042  -1.706  1.00  0.00     0.164 A 
HETATM   40  F1  UNL     1      10.641  50.998  -1.739  1.00  0.00    -0.202 F 
ENDBRANCH  31  33
ENDBRANCH   4  31
TORSDOF 9
ENDMDL
MODEL 5
REMARK minimizedAffinity -6.47622824
REMARK CNNscore 0.465500742
REMARK CNNaffinity 6.66579294
REMARK  9 active torsions:
REMARK  status: ('A' for Active; 'I' for Inactive)
REMARK    1  A    between atoms: C2_2  and  C3_3 
REMARK       I    between atoms: C3_3  and  N1_5 
REMARK    2  A    between atoms: C7_9  and  C8_10 
REMARK       I    between atoms: C8_10  and  N2_12 
REMARK    3  A    between atoms: N2_12  and  C9_13 
REMARK    4  A    between atoms: C12_16  and  N3_17 
REMARK    5  A    between atoms: N3_17  and  C13_18 
REMARK    6  A    between atoms: C22_33  and  O3_34 
REMARK    7  A    between atoms: O3_34  and  C23_35 
REMARK    8  A    between atoms: C23_35  and  C24_36 
REMARK    9  A    between atoms: C24_36  and  O4_37 
ROOT
HETATM    1  C9  UNL     1      13.130  60.165   4.245  1.00  0.00     0.069 A 
HETATM    2  C10 UNL     1      12.593  60.383   5.513  1.00  0.00     0.050 A 
HETATM    3  C11 UNL     1      12.230  61.687   5.941  1.00  0.00     0.037 A 
HETATM    4  C12 UNL     1      11.689  62.007   7.204  1.00  0.00     0.119 A 
HETATM    5  N4  UNL     1      11.332  63.265   7.525  1.00  0.00    -0.338 N 
ATOM      6  H4  UNL     1      10.924  63.488   8.432  1.00  0.00     0.168 HD
HETATM    7  C19 UNL     1      11.536  64.205   6.600  1.00  0.00     0.182 A 
HETATM    8  N5  UNL     1      12.058  64.017   5.383  1.00  0.00    -0.351 N 
ATOM      9  H5  UNL     1      12.191  64.791   4.732  1.00  0.00     0.166 HD
HETATM   10  C20 UNL     1      12.396  62.767   5.064  1.00  0.00     0.049 A 
HETATM   11  C21 UNL     1      12.932  62.537   3.804  1.00  0.00     0.069 A 
HETATM   12  C22 UNL     1      13.310  61.259   3.383  1.00  0.00     0.097 A 
ENDROOT
BRANCH   1  13
HETATM   13  N2  UNL     1      13.506  58.892   3.762  1.00  0.00    -0.323 N 
HETATM   14  C8  UNL     1      13.823  57.754   4.483  1.00  0.00     0.245 C 
HETATM   15  O2  UNL     1      13.853  57.676   5.710  1.00  0.00    -0.271 OA
HETATM   16  H11 UNL     1      13.594  58.834   2.741  1.00  0.00     0.169 HD
BRANCH  14  17
HETATM   17  C7  UNL     1      14.124  56.536   3.575  1.00  0.00     0.180 C 
HETATM   18  N1  UNL     1      15.561  56.237   3.551  1.00  0.00    -0.335 N 
HETATM   19  C3  UNL     1      16.397  56.906   2.692  1.00  0.00     0.243 C 
HETATM   20  C4  UNL     1      15.849  54.997   4.260  1.00  0.00     0.127 C 
HETATM   21  O1  UNL     1      16.009  57.826   1.974  1.00  0.00    -0.268 OA
HETATM   22  C5  UNL     1      14.562  54.659   4.996  1.00  0.00     0.022 C 
HETATM   23  C6  UNL     1      13.487  55.241   4.088  1.00  0.00     0.037 C 
BRANCH  19  24
HETATM   24  C2  UNL     1      17.812  56.480   2.620  1.00  0.00     0.064 C 
HETATM   25  C1  UNL     1      18.751  57.243   2.043  1.00  0.00     0.017 C 
ENDBRANCH  19  24
ENDBRANCH  14  17
ENDBRANCH   1  13
BRANCH  12  26
HETATM   26  O3  UNL     1      13.832  60.960   2.152  1.00  0.00    -0.347 OA
BRANCH  26  27
HETATM   27  C23 UNL     1      13.266  61.571   0.993  1.00  0.00     0.201 C 
BRANCH  27  28
HETATM   28  C24 UNL     1      12.637  60.523   0.075  1.00  0.00     0.193 C 
BRANCH  28  29
HETATM   29  O4  UNL     1      12.164  61.097  -1.143  1.00  0.00    -0.394 OA
HETATM   30  C25 UNL     1      12.578  62.445  -1.319  1.00  0.00     0.201 C 
ENDBRANCH  28  29
ENDBRANCH  27  28
ENDBRANCH  26  27
ENDBRANCH  12  26
BRANCH   4  31
HETATM   31  N3  UNL     1      11.511  60.975   8.161  1.00  0.00    -0.339 N 
HETATM   32  H13 UNL     1      10.968  60.213   7.757  1.00  0.00     0.167 HD
BRANCH  31  33
HETATM   33  C13 UNL     1      12.452  60.472   9.093  1.00  0.00     0.074 A 
HETATM   34  C14 UNL     1      13.363  61.293   9.768  1.00  0.00     0.033 A 
HETATM   35  C15 UNL     1      14.243  60.762  10.718  1.00  0.00     0.004 A 
HETATM   36  C16 UNL     1      14.214  59.401  11.018  1.00  0.00     0.027 A 
HETATM   37  C17 UNL     1      13.295  58.574  10.375  1.00  0.00     0.074 A 
HETATM   38 CL1  UNL     1      13.257  56.896  10.757  1.00  0.00    -0.081 Cl
HETATM   39  C18 UNL     1      12.419  59.110   9.432  1.00  0.00     0.164 A 
HETATM   40  F1  UNL     1      11.527  58.316   8.811  1.00  0.00    -0.202 F 
ENDBRANCH  31  33
ENDBRANCH   4  31
TORSDOF 9
ENDMDL
MODEL 6
REMARK minimizedAffinity -6.99614859
REMARK CNNscore 0.463222682
REMARK CNNaffinity 6.02838135
REMARK  9 active torsions:
REMARK  status: ('A' for Active; 'I' for Inactive)
REMARK    1  A    between atoms: C2_2  and  C3_3 
REMARK       I    between atoms: C3_3  and  N1_5 
REMARK    2  A    between atoms: C7_9  and  C8_10 
REMARK       I    between atoms: C8_10  and  N2_12 
REMARK    3  A    between atoms: N2_12  and  C9_13 
REMARK    4  A    between atoms: C12_16  and  N3_17 
REMARK    5  A    between atoms: N3_17  and  C13_18 
REMARK    6  A    between atoms: C22_33  and  O3_34 
REMARK    7  A    between atoms: O3_34  and  C23_35 
REMARK    8  A    between atoms: C23_35  and  C24_36 
REMARK    9  A    between atoms: C24_36  and  O4_37 
ROOT
HETATM    1  C9  UNL     1      13.779  59.680   7.485  1.00  0.00     0.069 A 
HETATM    2  C10 UNL     1      12.944  60.778   7.287  1.00  0.00     0.050 A 
HETATM    3  C11 UNL     1      12.428  61.514   8.386  1.00  0.00     0.037 A 
HETATM    4  C12 UNL     1      11.571  62.631   8.286  1.00  0.00     0.119 A 
HETATM    5  N4  UNL     1      11.153  63.304   9.375  1.00  0.00    -0.338 N 
ATOM      6  H4  UNL     1      10.548  64.121   9.296  1.00  0.00     0.168 HD
HETATM    7  C19 UNL     1      11.566  62.851  10.560  1.00  0.00     0.182 A 
HETATM    8  N5  UNL     1      12.359  61.795  10.770  1.00  0.00    -0.351 N 
ATOM      9  H5  UNL     1      12.625  61.504  11.711  1.00  0.00     0.166 HD
HETATM   10  C20 UNL     1      12.783  61.141   9.688  1.00  0.00     0.049 A 
HETATM   11  C21 UNL     1      13.617  60.045   9.872  1.00  0.00     0.069 A 
HETATM   12  C22 UNL     1      14.112  59.304   8.797  1.00  0.00     0.097 A 
ENDROOT
BRANCH   1  13
HETATM   13  N2  UNL     1      14.326  58.912   6.434  1.00  0.00    -0.323 N 
HETATM   14  C8  UNL     1      13.769  58.614   5.202  1.00  0.00     0.245 C 
HETATM   15  O2  UNL     1      12.653  58.965   4.824  1.00  0.00    -0.271 OA
HETATM   16  H11 UNL     1      15.238  58.490   6.645  1.00  0.00     0.169 HD
BRANCH  14  17
HETATM   17  C7  UNL     1      14.721  57.790   4.299  1.00  0.00     0.180 C 
HETATM   18  N1  UNL     1      14.364  56.366   4.317  1.00  0.00    -0.335 N 
HETATM   19  C3  UNL     1      14.827  55.545   5.315  1.00  0.00     0.243 C 
HETATM   20  C4  UNL     1      13.798  55.953   3.040  1.00  0.00     0.127 C 
HETATM   21  O1  UNL     1      15.481  55.966   6.268  1.00  0.00    -0.268 OA
HETATM   22  C5  UNL     1      13.534  57.249   2.291  1.00  0.00     0.022 C 
HETATM   23  C6  UNL     1      14.620  58.177   2.821  1.00  0.00     0.037 C 
BRANCH  19  24
HETATM   24  C2  UNL     1      14.542  54.097   5.218  1.00  0.00     0.064 C 
HETATM   25  C1  UNL     1      15.522  53.188   5.124  1.00  0.00     0.017 C 
ENDBRANCH  19  24
ENDBRANCH  14  17
ENDBRANCH   1  13
BRANCH  12  26
HETATM   26  O3  UNL     1      14.946  58.222   8.906  1.00  0.00    -0.347 OA
BRANCH  26  27
HETATM   27  C23 UNL     1      16.121  58.332   9.709  1.00  0.00     0.201 C 
BRANCH  27  28
HETATM   28  C24 UNL     1      15.998  57.489  10.977  1.00  0.00     0.193 C 
BRANCH  28  29
HETATM   29  O4  UNL     1      14.941  56.535  10.883  1.00  0.00    -0.394 OA
HETATM   30  C25 UNL     1      14.013  56.627  11.955  1.00  0.00     0.201 C 
ENDBRANCH  28  29
ENDBRANCH  27  28
ENDBRANCH  26  27
ENDBRANCH  12  26
BRANCH   4  31
HETATM   31  N3  UNL     1      11.143  63.060   7.004  1.00  0.00    -0.339 N 
HETATM   32  H13 UNL     1      10.124  63.052   6.954  1.00  0.00     0.167 HD
BRANCH  31  33
HETATM   33  C13 UNL     1      11.668  64.108   6.209  1.00  0.00     0.074 A 
HETATM   34  C14 UNL     1      11.795  65.422   6.674  1.00  0.00     0.033 A 
HETATM   35  C15 UNL     1      12.365  66.417   5.873  1.00  0.00     0.004 A 
HETATM   36  C16 UNL     1      12.833  66.108   4.596  1.00  0.00     0.027 A 
HETATM   37  C17 UNL     1      12.739  64.799   4.127  1.00  0.00     0.074 A 
HETATM   38 CL1  UNL     1      13.326  64.422   2.553  1.00  0.00    -0.081 Cl
HETATM   39  C18 UNL     1      12.172  63.812   4.932  1.00  0.00     0.164 A 
HETATM   40  F1  UNL     1      12.084  62.546   4.485  1.00  0.00    -0.202 F 
ENDBRANCH  31  33
ENDBRANCH   4  31
TORSDOF 9
ENDMDL
MODEL 7
REMARK minimizedAffinity -6.88250971
REMARK CNNscore 0.396267056
REMARK CNNaffinity 6.39854574
REMARK  9 active torsions:
REMARK  status: ('A' for Active; 'I' for Inactive)
REMARK    1  A    between atoms: C2_2  and  C3_3 
REMARK       I    between atoms: C3_3  and  N1_5 
REMARK    2  A    between atoms: C7_9  and  C8_10 
REMARK       I    between atoms: C8_10  and  N2_12 
REMARK    3  A    between atoms: N2_12  and  C9_13 
REMARK    4  A    between atoms: C12_16  and  N3_17 
REMARK    5  A    between atoms: N3_17  and  C13_18 
REMARK    6  A    between atoms: C22_33  and  O3_34 
REMARK    7  A    between atoms: O3_34  and  C23_35 
REMARK    8  A    between atoms: C23_35  and  C24_36 
REMARK    9  A    between atoms: C24_36  and  O4_37 
ROOT
HETATM    1  C9  UNL     1      13.106  58.870   0.484  1.00  0.00     0.069 A 
HETATM    2  C10 UNL     1      13.167  58.027   1.593  1.00  0.00     0.050 A 
HETATM    3  C11 UNL     1      13.310  58.550   2.905  1.00  0.00     0.037 A 
HETATM    4  C12 UNL     1      13.390  57.778   4.083  1.00  0.00     0.119 A 
HETATM    5  N4  UNL     1      13.485  58.348   5.300  1.00  0.00    -0.338 N 
ATOM      6  H4  UNL     1      13.524  57.787   6.150  1.00  0.00     0.168 HD
HETATM    7  C19 UNL     1      13.526  59.681   5.340  1.00  0.00     0.182 A 
HETATM    8  N5  UNL     1      13.478  60.506   4.289  1.00  0.00    -0.351 N 
ATOM      9  H5  UNL     1      13.522  61.519   4.400  1.00  0.00     0.166 HD
HETATM   10  C20 UNL     1      13.368  59.937   3.087  1.00  0.00     0.049 A 
HETATM   11  C21 UNL     1      13.304  60.767   1.975  1.00  0.00     0.069 A 
HETATM   12  C22 UNL     1      13.185  60.259   0.680  1.00  0.00     0.097 A 
ENDROOT
BRANCH   1  13
HETATM   13  N2  UNL     1      12.961  58.410  -0.843  1.00  0.00    -0.323 N 
HETATM   14  C8  UNL     1      12.016  57.540  -1.357  1.00  0.00     0.245 C 
HETATM   15  O2  UNL     1      11.131  56.988  -0.706  1.00  0.00    -0.271 OA
HETATM   16  H11 UNL     1      13.688  58.739  -1.488  1.00  0.00     0.169 HD
BRANCH  14  17
HETATM   17  C7  UNL     1      12.161  57.335  -2.885  1.00  0.00     0.180 C 
HETATM   18  N1  UNL     1      11.884  55.942  -3.259  1.00  0.00    -0.335 N 
HETATM   19  C3  UNL     1      12.870  54.991  -3.180  1.00  0.00     0.243 C 
HETATM   20  C4  UNL     1      10.627  55.837  -3.989  1.00  0.00     0.127 C 
HETATM   21  O1  UNL     1      13.987  55.232  -2.724  1.00  0.00    -0.268 OA
HETATM   22  C5  UNL     1       9.958  57.191  -3.813  1.00  0.00     0.022 C 
HETATM   23  C6  UNL     1      11.141  58.143  -3.693  1.00  0.00     0.037 C 
BRANCH  19  24
HETATM   24  C2  UNL     1      12.574  53.633  -3.686  1.00  0.00     0.064 C 
HETATM   25  C1  UNL     1      12.284  52.619  -2.859  1.00  0.00     0.017 C 
ENDBRANCH  19  24
ENDBRANCH  14  17
ENDBRANCH   1  13
BRANCH  12  26
HETATM   26  O3  UNL     1      13.105  61.019  -0.458  1.00  0.00    -0.347 OA
BRANCH  26  27
HETATM   27  C23 UNL     1      12.208  62.129  -0.488  1.00  0.00     0.201 C 
BRANCH  27  28
HETATM   28  C24 UNL     1      12.704  63.207  -1.452  1.00  0.00     0.193 C 
BRANCH  28  29
HETATM   29  O4  UNL     1      12.980  64.436  -0.781  1.00  0.00    -0.394 OA
HETATM   30  C25 UNL     1      12.782  64.357   0.624  1.00  0.00     0.201 C 
ENDBRANCH  28  29
ENDBRANCH  27  28
ENDBRANCH  26  27
ENDBRANCH  12  26
BRANCH   4  31
HETATM   31  N3  UNL     1      13.364  56.363   3.986  1.00  0.00    -0.339 N 
HETATM   32  H13 UNL     1      12.939  56.081   3.103  1.00  0.00     0.167 HD
BRANCH  31  33
HETATM   33  C13 UNL     1      14.366  55.439   4.370  1.00  0.00     0.074 A 
HETATM   34  C14 UNL     1      14.078  54.243   5.039  1.00  0.00     0.033 A 
HETATM   35  C15 UNL     1      15.093  53.335   5.357  1.00  0.00     0.004 A 
HETATM   36  C16 UNL     1      16.413  53.602   4.998  1.00  0.00     0.027 A 
HETATM   37  C17 UNL     1      16.714  54.775   4.309  1.00  0.00     0.074 A 
HETATM   38 CL1  UNL     1      18.345  55.096   3.860  1.00  0.00    -0.081 Cl
HETATM   39  C18 UNL     1      15.698  55.676   3.992  1.00  0.00     0.164 A 
HETATM   40  F1  UNL     1      15.983  56.807   3.323  1.00  0.00    -0.202 F 
ENDBRANCH  31  33
ENDBRANCH   4  31
TORSDOF 9
ENDMDL
MODEL 8
REMARK minimizedAffinity -6.28078556
REMARK CNNscore 0.384909391
REMARK CNNaffinity 6.22678518
REMARK  9 active torsions:
REMARK  status: ('A' for Active; 'I' for Inactive)
REMARK    1  A    between atoms: C2_2  and  C3_3 
REMARK       I    between atoms: C3_3  and  N1_5 
REMARK    2  A    between atoms: C7_9  and  C8_10 
REMARK       I    between atoms: C8_10  and  N2_12 
REMARK    3  A    between atoms: N2_12  and  C9_13 
REMARK    4  A    between atoms: C12_16  and  N3_17 
REMARK    5  A    between atoms: N3_17  and  C13_18 
REMARK    6  A    between atoms: C22_33  and  O3_34 
REMARK    7  A    between atoms: O3_34  and  C23_35 
REMARK    8  A    between atoms: C23_35  and  C24_36 
REMARK    9  A    between atoms: C24_36  and  O4_37 
ROOT
HETATM    1  C9  UNL     1      11.045  50.274  -2.919  1.00  0.00     0.069 A 
HETATM    2  C10 UNL     1      11.087  51.666  -2.975  1.00  0.00     0.050 A 
HETATM    3  C11 UNL     1      12.305  52.371  -2.788  1.00  0.00     0.037 A 
HETATM    4  C12 UNL     1      12.446  53.775  -2.817  1.00  0.00     0.119 A 
HETATM    5  N4  UNL     1      13.643  54.372  -2.670  1.00  0.00    -0.338 N 
ATOM      6  H4  UNL     1      13.742  55.386  -2.711  1.00  0.00     0.168 HD
HETATM    7  C19 UNL     1      14.695  53.574  -2.469  1.00  0.00     0.182 A 
HETATM    8  N5  UNL     1      14.673  52.239  -2.403  1.00  0.00    -0.351 N 
ATOM      9  H5  UNL     1      15.521  51.697  -2.238  1.00  0.00     0.166 HD
HETATM   10  C20 UNL     1      13.486  51.651  -2.565  1.00  0.00     0.049 A 
HETATM   11  C21 UNL     1      13.432  50.264  -2.513  1.00  0.00     0.069 A 
HETATM   12  C22 UNL     1      12.234  49.565  -2.676  1.00  0.00     0.097 A 
ENDROOT
BRANCH   1  13
HETATM   13  N2  UNL     1       9.867  49.518  -3.100  1.00  0.00    -0.323 N 
HETATM   14  C8  UNL     1       9.365  48.967  -4.266  1.00  0.00     0.245 C 
HETATM   15  O2  UNL     1       9.876  49.074  -5.380  1.00  0.00    -0.271 OA
HETATM   16  H11 UNL     1       9.295  49.411  -2.254  1.00  0.00     0.169 HD
BRANCH  14  17
HETATM   17  C7  UNL     1       8.069  48.151  -4.033  1.00  0.00     0.180 C 
HETATM   18  N1  UNL     1       7.208  48.177  -5.222  1.00  0.00    -0.335 N 
HETATM   19  C3  UNL     1       6.345  49.224  -5.433  1.00  0.00     0.243 C 
HETATM   20  C4  UNL     1       7.175  46.874  -5.872  1.00  0.00     0.127 C 
HETATM   21  O1  UNL     1       6.308  50.209  -4.699  1.00  0.00    -0.268 OA
HETATM   22  C5  UNL     1       8.290  46.079  -5.212  1.00  0.00     0.022 C 
HETATM   23  C6  UNL     1       8.337  46.661  -3.805  1.00  0.00     0.037 C 
BRANCH  19  24
HETATM   24  C2  UNL     1       5.412  49.141  -6.579  1.00  0.00     0.064 C 
HETATM   25  C1  UNL     1       4.148  49.574  -6.494  1.00  0.00     0.017 C 
ENDBRANCH  19  24
ENDBRANCH  14  17
ENDBRANCH   1  13
BRANCH  12  26
HETATM   26  O3  UNL     1      12.110  48.200  -2.648  1.00  0.00    -0.347 OA
BRANCH  26  27
HETATM   27  C23 UNL     1      12.000  47.541  -1.387  1.00  0.00     0.201 C 
BRANCH  27  28
HETATM   28  C24 UNL     1      11.199  46.246  -1.515  1.00  0.00     0.193 C 
BRANCH  28  29
HETATM   29  O4  UNL     1      10.071  46.228  -0.641  1.00  0.00    -0.394 OA
HETATM   30  C25 UNL     1       9.652  47.529  -0.251  1.00  0.00     0.201 C 
ENDBRANCH  28  29
ENDBRANCH  27  28
ENDBRANCH  26  27
ENDBRANCH  12  26
BRANCH   4  31
HETATM   31  N3  UNL     1      11.294  54.580  -3.013  1.00  0.00    -0.339 N 
HETATM   32  H13 UNL     1      11.085  55.104  -2.164  1.00  0.00     0.167 HD
BRANCH  31  33
HETATM   33  C13 UNL     1      10.932  55.329  -4.159  1.00  0.00     0.074 A 
HETATM   34  C14 UNL     1      11.368  55.000  -5.448  1.00  0.00     0.033 A 
HETATM   35  C15 UNL     1      10.948  55.738  -6.560  1.00  0.00     0.004 A 
HETATM   36  C16 UNL     1      10.071  56.810  -6.400  1.00  0.00     0.027 A 
HETATM   37  C17 UNL     1       9.606  57.135  -5.127  1.00  0.00     0.074 A 
HETATM   38 CL1  UNL     1       8.516  58.454  -4.937  1.00  0.00    -0.081 Cl
HETATM   39  C18 UNL     1      10.026  56.394  -4.023  1.00  0.00     0.164 A 
HETATM   40  F1  UNL     1       9.577  56.700  -2.793  1.00  0.00    -0.202 F 
ENDBRANCH  31  33
ENDBRANCH   4  31
TORSDOF 9
ENDMDL
MODEL 9
REMARK minimizedAffinity -6.6289196
REMARK CNNscore 0.29318592
REMARK CNNaffinity 6.12988281
REMARK  9 active torsions:
REMARK  status: ('A' for Active; 'I' for Inactive)
REMARK    1  A    between atoms: C2_2  and  C3_3 
REMARK       I    between atoms: C3_3  and  N1_5 
REMARK    2  A    between atoms: C7_9  and  C8_10 
REMARK       I    between atoms: C8_10  and  N2_12 
REMARK    3  A    between atoms: N2_12  and  C9_13 
REMARK    4  A    between atoms: C12_16  and  N3_17 
REMARK    5  A    between atoms: N3_17  and  C13_18 
REMARK    6  A    between atoms: C22_33  and  O3_34 
REMARK    7  A    between atoms: O3_34  and  C23_35 
REMARK    8  A    between atoms: C23_35  and  C24_36 
REMARK    9  A    between atoms: C24_36  and  O4_37 
ROOT
HETATM    1  C9  UNL     1      13.056  58.815   1.498  1.00  0.00     0.069 A 
HETATM    2  C10 UNL     1      13.450  58.997   2.823  1.00  0.00     0.050 A 
HETATM    3  C11 UNL     1      13.847  57.898   3.628  1.00  0.00     0.037 A 
HETATM    4  C12 UNL     1      14.251  57.982   4.977  1.00  0.00     0.119 A 
HETATM    5  N4  UNL     1      14.652  56.897   5.667  1.00  0.00    -0.338 N 
ATOM      6  H4  UNL     1      14.962  56.966   6.636  1.00  0.00     0.168 HD
HETATM    7  C19 UNL     1      14.626  55.728   5.023  1.00  0.00     0.182 A 
HETATM    8  N5  UNL     1      14.243  55.532   3.757  1.00  0.00    -0.351 N 
ATOM      9  H5  UNL     1      14.243  54.603   3.335  1.00  0.00     0.166 HD
HETATM   10  C20 UNL     1      13.862  56.612   3.073  1.00  0.00     0.049 A 
HETATM   11  C21 UNL     1      13.468  56.443   1.751  1.00  0.00     0.069 A 
HETATM   12  C22 UNL     1      13.058  57.517   0.960  1.00  0.00     0.097 A 
ENDROOT
BRANCH   1  13
HETATM   13  N2  UNL     1      12.656  59.868   0.648  1.00  0.00    -0.323 N 
HETATM   14  C8  UNL     1      13.427  60.880   0.105  1.00  0.00     0.245 C 
HETATM   15  O2  UNL     1      14.630  61.043   0.306  1.00  0.00    -0.271 OA
HETATM   16  H11 UNL     1      11.648  59.898   0.453  1.00  0.00     0.169 HD
BRANCH  14  17
HETATM   17  C7  UNL     1      12.619  61.811  -0.834  1.00  0.00     0.180 C 
HETATM   18  N1  UNL     1      13.329  63.075  -1.063  1.00  0.00    -0.335 N 
HETATM   19  C3  UNL     1      13.214  64.110  -0.169  1.00  0.00     0.243 C 
HETATM   20  C4  UNL     1      13.827  63.155  -2.430  1.00  0.00     0.127 C 
HETATM   21  O1  UNL     1      12.592  64.006   0.887  1.00  0.00    -0.268 OA
HETATM   22  C5  UNL     1      13.658  61.752  -2.991  1.00  0.00     0.022 C 
HETATM   23  C6  UNL     1      12.441  61.228  -2.239  1.00  0.00     0.037 C 
BRANCH  19  24
HETATM   24  C2  UNL     1      13.848  65.402  -0.509  1.00  0.00     0.064 C 
HETATM   25  C1  UNL     1      14.822  65.932   0.243  1.00  0.00     0.017 C 
ENDBRANCH  19  24
ENDBRANCH  14  17
ENDBRANCH   1  13
BRANCH  12  26
HETATM   26  O3  UNL     1      12.669  57.423  -0.352  1.00  0.00    -0.347 OA
BRANCH  26  27
HETATM   27  C23 UNL     1      12.143  56.186  -0.831  1.00  0.00     0.201 C 
BRANCH  27  28
HETATM   28  C24 UNL     1      10.851  56.409  -1.615  1.00  0.00     0.193 C 
BRANCH  28  29
HETATM   29  O4  UNL     1      10.581  57.795  -1.817  1.00  0.00    -0.394 OA
HETATM   30  C25 UNL     1      10.459  58.143  -3.189  1.00  0.00     0.201 C 
ENDBRANCH  28  29
ENDBRANCH  27  28
ENDBRANCH  26  27
ENDBRANCH  12  26
BRANCH   4  31
HETATM   31  N3  UNL     1      14.241  59.244   5.624  1.00  0.00    -0.339 N 
HETATM   32  H13 UNL     1      14.788  59.917   5.087  1.00  0.00     0.167 HD
BRANCH  31  33
HETATM   33  C13 UNL     1      13.159  59.889   6.270  1.00  0.00     0.074 A 
HETATM   34  C14 UNL     1      12.424  60.919   5.672  1.00  0.00     0.033 A 
HETATM   35  C15 UNL     1      11.330  61.497   6.326  1.00  0.00     0.004 A 
HETATM   36  C16 UNL     1      10.946  61.042   7.587  1.00  0.00     0.027 A 
HETATM   37  C17 UNL     1      11.650  60.000   8.186  1.00  0.00     0.074 A 
HETATM   38 CL1  UNL     1      11.165  59.436   9.739  1.00  0.00    -0.081 Cl
HETATM   39  C18 UNL     1      12.737  59.426   7.527  1.00  0.00     0.164 A 
HETATM   40  F1  UNL     1      13.417  58.417   8.100  1.00  0.00    -0.202 F 
ENDBRANCH  31  33
ENDBRANCH   4  31
TORSDOF 9
ENDMDL
