MODEL 1
REMARK minimizedAffinity -9.57571125
REMARK  4 active torsions:
REMARK  status: ('A' for Active; 'I' for Inactive)
REMARK    1  A    between atoms: O1_2  and  C2_3 
REMARK    2  A    between atoms: C6_7  and  N1_8 
REMARK    3  A    between atoms: N1_8  and  C7_9 
REMARK    4  A    between atoms: C10_16  and  C11_17 
ROOT
HETATM    1  C7  UNL     1       0.759  52.941 -19.109  1.00  0.00     0.697 A 
HETATM    2  N2  UNL     1       1.290  53.941 -19.835  1.00  0.00    -0.131 N 
ATOM      3  H2  UNL     1       1.775  54.706 -19.366  1.00  0.00     0.205 HD
HETATM    4  N3  UNL     1       1.183  53.938 -21.197  1.00  0.00    -0.284 N 
ATOM      5  H3  UNL     1       1.587  54.697 -21.746  1.00  0.00     0.187 HD
HETATM    6  C8  UNL     1       0.545  52.932 -21.802  1.00  0.00     0.077 A 
HETATM    7  C9  UNL     1       0.423  52.907 -23.188  1.00  0.00     0.045 A 
HETATM    8  C10 UNL     1      -0.240  51.867 -23.847  1.00  0.00    -0.020 A 
HETATM    9  C17 UNL     1      -0.783  50.838 -23.071  1.00  0.00     0.021 A 
HETATM   10  C18 UNL     1      -0.665  50.853 -21.670  1.00  0.00    -0.032 A 
HETATM   11  C19 UNL     1      -1.261  49.729 -20.866  1.00  0.00     0.050 C 
HETATM   12  C20 UNL     1       0.001  51.902 -21.022  1.00  0.00     0.083 A 
HETATM   13  N4  UNL     1       0.112  51.911 -19.679  1.00  0.00    -0.188 N 
ATOM     14  H4  UNL     1      -0.282  51.160 -19.113  1.00  0.00     0.184 HD
ENDROOT
BRANCH   1  15
HETATM   15  N1  UNL     1       0.835  52.891 -17.718  1.00  0.00    -0.190 N 
HETATM   16  H7  UNL     1      -0.015  53.274 -17.330  1.00  0.00     0.184 HD
BRANCH  15  17
HETATM   17  C6  UNL     1       1.795  52.424 -16.811  1.00  0.00     0.051 A 
HETATM   18  C5  UNL     1       3.105  52.919 -16.919  1.00  0.00     0.030 A 
HETATM   19  C4  UNL     1       4.114  52.496 -16.051  1.00  0.00     0.005 A 
HETATM   20  C3  UNL     1       3.824  51.566 -15.059  1.00  0.00     0.037 A 
HETATM   21  C2  UNL     1       2.534  51.055 -14.928  1.00  0.00     0.070 A 
HETATM   22  C21 UNL     1       1.530  51.484 -15.804  1.00  0.00     0.066 A 
BRANCH  21  23
HETATM   23  O1  UNL     1       2.382  50.148 -13.914  1.00  0.00    -0.356 OA
HETATM   24  C1  UNL     1       3.522  49.365 -13.576  1.00  0.00     0.210 C 
ENDBRANCH  21  23
ENDBRANCH  15  17
ENDBRANCH   1  15
BRANCH   8  25
HETATM   25  C11 UNL     1      -0.361  51.855 -25.314  1.00  0.00     0.018 A 
HETATM   26  C12 UNL     1      -1.594  52.112 -25.951  1.00  0.00     0.046 A 
HETATM   27 CL1  UNL     1      -3.029  52.465 -25.046  1.00  0.00    -0.083 Cl
HETATM   28  C13 UNL     1      -1.709  52.098 -27.346  1.00  0.00     0.025 A 
HETATM   29  C14 UNL     1      -0.597  51.827 -28.139  1.00  0.00     0.003 A 
HETATM   30  C15 UNL     1       0.631  51.572 -27.535  1.00  0.00     0.025 A 
HETATM   31  C16 UNL     1       0.748  51.585 -26.140  1.00  0.00     0.046 A 
HETATM   32 CL2  UNL     1       2.317  51.258 -25.479  1.00  0.00    -0.083 Cl
ENDBRANCH   8  25
TORSDOF 4
ENDMDL
MODEL 2
REMARK minimizedAffinity -9.37902927
REMARK  4 active torsions:
REMARK  status: ('A' for Active; 'I' for Inactive)
REMARK    1  A    between atoms: O1_2  and  C2_3 
REMARK    2  A    between atoms: C6_7  and  N1_8 
REMARK    3  A    between atoms: N1_8  and  C7_9 
REMARK    4  A    between atoms: C10_16  and  C11_17 
ROOT
HETATM    1  C7  UNL     1       0.503  52.458 -18.686  1.00  0.00     0.697 A 
HETATM    2  N2  UNL     1      -0.344  51.415 -18.729  1.00  0.00    -0.131 N 
ATOM      3  H2  UNL     1      -0.612  50.942 -17.865  1.00  0.00     0.205 HD
HETATM    4  N3  UNL     1      -0.850  50.984 -19.923  1.00  0.00    -0.284 N 
ATOM      5  H3  UNL     1      -1.493  50.192 -19.954  1.00  0.00     0.187 HD
HETATM    6  C8  UNL     1      -0.494  51.608 -21.049  1.00  0.00     0.077 A 
HETATM    7  C9  UNL     1      -0.995  51.188 -22.277  1.00  0.00     0.045 A 
HETATM    8  C10 UNL     1      -0.638  51.823 -23.471  1.00  0.00    -0.020 A 
HETATM    9  C17 UNL     1       0.243  52.906 -23.401  1.00  0.00     0.021 A 
HETATM   10  C18 UNL     1       0.755  53.339 -22.165  1.00  0.00    -0.032 A 
HETATM   11  C19 UNL     1       1.702  54.509 -22.127  1.00  0.00     0.050 C 
HETATM   12  C20 UNL     1       0.391  52.694 -20.977  1.00  0.00     0.083 A 
HETATM   13  N4  UNL     1       0.884  53.113 -19.794  1.00  0.00    -0.188 N 
ATOM     14  H4  UNL     1       1.526  53.904 -19.743  1.00  0.00     0.184 HD
ENDROOT
BRANCH   1  15
HETATM   15  N1  UNL     1       1.052  52.941 -17.499  1.00  0.00    -0.190 N 
HETATM   16  H7  UNL     1       0.708  53.875 -17.335  1.00  0.00     0.184 HD
BRANCH  15  17
HETATM   17  C6  UNL     1       1.923  52.406 -16.542  1.00  0.00     0.051 A 
HETATM   18  C5  UNL     1       3.285  52.743 -16.621  1.00  0.00     0.030 A 
HETATM   19  C4  UNL     1       4.209  52.244 -15.702  1.00  0.00     0.005 A 
HETATM   20  C3  UNL     1       3.783  51.396 -14.686  1.00  0.00     0.037 A 
HETATM   21  C2  UNL     1       2.439  51.042 -14.582  1.00  0.00     0.070 A 
HETATM   22  C21 UNL     1       1.519  51.546 -15.509  1.00  0.00     0.066 A 
BRANCH  21  23
HETATM   23  O1  UNL     1       2.151  50.201 -13.539  1.00  0.00    -0.356 OA
HETATM   24  C1  UNL     1       2.779  48.924 -13.553  1.00  0.00     0.210 C 
ENDBRANCH  21  23
ENDBRANCH  15  17
ENDBRANCH   1  15
BRANCH   8  25
HETATM   25  C11 UNL     1      -1.176  51.366 -24.762  1.00  0.00     0.018 A 
HETATM   26  C12 UNL     1      -2.009  50.230 -24.850  1.00  0.00     0.046 A 
HETATM   27 CL1  UNL     1      -2.452  49.316 -23.446  1.00  0.00    -0.083 Cl
HETATM   28  C13 UNL     1      -2.518  49.793 -26.079  1.00  0.00     0.025 A 
HETATM   29  C14 UNL     1      -2.208  50.480 -27.250  1.00  0.00     0.003 A 
HETATM   30  C15 UNL     1      -1.390  51.605 -27.191  1.00  0.00     0.025 A 
HETATM   31  C16 UNL     1      -0.880  52.043 -25.963  1.00  0.00     0.046 A 
HETATM   32 CL2  UNL     1       0.128  53.453 -25.986  1.00  0.00    -0.083 Cl
ENDBRANCH   8  25
TORSDOF 4
ENDMDL
MODEL 3
REMARK minimizedAffinity -9.25940323
REMARK  4 active torsions:
REMARK  status: ('A' for Active; 'I' for Inactive)
REMARK    1  A    between atoms: O1_2  and  C2_3 
REMARK    2  A    between atoms: C6_7  and  N1_8 
REMARK    3  A    between atoms: N1_8  and  C7_9 
REMARK    4  A    between atoms: C10_16  and  C11_17 
ROOT
HETATM    1  C7  UNL     1       0.496  52.504 -18.695  1.00  0.00     0.697 A 
HETATM    2  N2  UNL     1      -0.401  51.503 -18.736  1.00  0.00    -0.131 N 
ATOM      3  H2  UNL     1      -0.696  51.051 -17.871  1.00  0.00     0.205 HD
HETATM    4  N3  UNL     1      -0.921  51.088 -19.929  1.00  0.00    -0.284 N 
ATOM      5  H3  UNL     1      -1.602  50.329 -19.959  1.00  0.00     0.187 HD
HETATM    6  C8  UNL     1      -0.529  51.686 -21.058  1.00  0.00     0.077 A 
HETATM    7  C9  UNL     1      -1.044  51.282 -22.285  1.00  0.00     0.045 A 
HETATM    8  C10 UNL     1      -0.650  51.890 -23.482  1.00  0.00    -0.020 A 
HETATM    9  C17 UNL     1       0.283  52.929 -23.415  1.00  0.00     0.021 A 
HETATM   10  C18 UNL     1       0.809  53.346 -22.180  1.00  0.00    -0.032 A 
HETATM   11  C19 UNL     1       1.811  54.469 -22.145  1.00  0.00     0.050 C 
HETATM   12  C20 UNL     1       0.407  52.728 -20.989  1.00  0.00     0.083 A 
HETATM   13  N4  UNL     1       0.914  53.132 -19.806  1.00  0.00    -0.188 N 
ATOM     14  H4  UNL     1       1.593  53.891 -19.757  1.00  0.00     0.184 HD
ENDROOT
BRANCH   1  15
HETATM   15  N1  UNL     1       1.062  52.968 -17.509  1.00  0.00    -0.190 N 
HETATM   16  H7  UNL     1       0.771  53.923 -17.359  1.00  0.00     0.184 HD
BRANCH  15  17
HETATM   17  C6  UNL     1       1.892  52.396 -16.538  1.00  0.00     0.051 A 
HETATM   18  C5  UNL     1       3.251  52.752 -16.531  1.00  0.00     0.030 A 
HETATM   19  C4  UNL     1       4.136  52.218 -15.593  1.00  0.00     0.005 A 
HETATM   20  C3  UNL     1       3.673  51.314 -14.644  1.00  0.00     0.037 A 
HETATM   21  C2  UNL     1       2.330  50.938 -14.626  1.00  0.00     0.070 A 
HETATM   22  C21 UNL     1       1.450  51.479 -15.572  1.00  0.00     0.066 A 
BRANCH  21  23
HETATM   23  O1  UNL     1       2.003  50.042 -13.644  1.00  0.00    -0.356 OA
HETATM   24  C1  UNL     1       3.037  49.680 -12.736  1.00  0.00     0.210 C 
ENDBRANCH  21  23
ENDBRANCH  15  17
ENDBRANCH   1  15
BRANCH   8  25
HETATM   25  C11 UNL     1      -1.203  51.450 -24.773  1.00  0.00     0.018 A 
HETATM   26  C12 UNL     1      -0.984  52.187 -25.956  1.00  0.00     0.046 A 
HETATM   27 CL1  UNL     1      -0.044  53.644 -25.959  1.00  0.00    -0.083 Cl
HETATM   28  C13 UNL     1      -1.513  51.770 -27.183  1.00  0.00     0.025 A 
HETATM   29  C14 UNL     1      -2.274  50.606 -27.259  1.00  0.00     0.003 A 
HETATM   30  C15 UNL     1      -2.504  49.859 -26.107  1.00  0.00     0.025 A 
HETATM   31  C16 UNL     1      -1.976  50.275 -24.879  1.00  0.00     0.046 A 
HETATM   32 CL2  UNL     1      -2.314  49.282 -23.499  1.00  0.00    -0.083 Cl
ENDBRANCH   8  25
TORSDOF 4
ENDMDL
MODEL 4
REMARK minimizedAffinity -9.18782139
REMARK  4 active torsions:
REMARK  status: ('A' for Active; 'I' for Inactive)
REMARK    1  A    between atoms: O1_2  and  C2_3 
REMARK    2  A    between atoms: C6_7  and  N1_8 
REMARK    3  A    between atoms: N1_8  and  C7_9 
REMARK    4  A    between atoms: C10_16  and  C11_17 
ROOT
HETATM    1  C7  UNL     1      -4.319  49.042 -25.524  1.00  0.00     0.697 A 
HETATM    2  N2  UNL     1      -4.207  50.316 -25.939  1.00  0.00    -0.131 N 
ATOM      3  H2  UNL     1      -4.715  50.626 -26.767  1.00  0.00     0.205 HD
HETATM    4  N3  UNL     1      -3.417  51.198 -25.257  1.00  0.00    -0.284 N 
ATOM      5  H3  UNL     1      -3.334  52.165 -25.573  1.00  0.00     0.187 HD
HETATM    6  C8  UNL     1      -2.755  50.783 -24.173  1.00  0.00     0.077 A 
HETATM    7  C9  UNL     1      -1.944  51.663 -23.463  1.00  0.00     0.045 A 
HETATM    8  C10 UNL     1      -1.240  51.254 -22.326  1.00  0.00    -0.020 A 
HETATM    9  C17 UNL     1      -1.372  49.926 -21.913  1.00  0.00     0.021 A 
HETATM   10  C18 UNL     1      -2.189  49.029 -22.623  1.00  0.00    -0.032 A 
HETATM   11  C19 UNL     1      -2.309  47.605 -22.150  1.00  0.00     0.050 C 
HETATM   12  C20 UNL     1      -2.889  49.450 -23.761  1.00  0.00     0.083 A 
HETATM   13  N4  UNL     1      -3.671  48.586 -24.439  1.00  0.00    -0.188 N 
ATOM     14  H4  UNL     1      -3.769  47.617 -24.137  1.00  0.00     0.184 HD
ENDROOT
BRANCH   1  15
HETATM   15  N1  UNL     1      -5.106  48.097 -26.179  1.00  0.00    -0.190 N 
HETATM   16  H7  UNL     1      -5.374  47.381 -25.520  1.00  0.00     0.184 HD
BRANCH  15  17
HETATM   17  C6  UNL     1      -5.582  47.967 -27.489  1.00  0.00     0.051 A 
HETATM   18  C5  UNL     1      -6.833  47.357 -27.684  1.00  0.00     0.030 A 
HETATM   19  C4  UNL     1      -7.368  47.191 -28.963  1.00  0.00     0.005 A 
HETATM   20  C3  UNL     1      -6.655  47.634 -30.071  1.00  0.00     0.037 A 
HETATM   21  C2  UNL     1      -5.410  48.241 -29.911  1.00  0.00     0.070 A 
HETATM   22  C21 UNL     1      -4.882  48.401 -28.624  1.00  0.00     0.066 A 
BRANCH  21  23
HETATM   23  O1  UNL     1      -4.812  48.630 -31.080  1.00  0.00    -0.356 OA
HETATM   24  C1  UNL     1      -4.924  47.740 -32.185  1.00  0.00     0.210 C 
ENDBRANCH  21  23
ENDBRANCH  15  17
ENDBRANCH   1  15
BRANCH   8  25
HETATM   25  C11 UNL     1      -0.385  52.197 -21.585  1.00  0.00     0.018 A 
HETATM   26  C12 UNL     1       0.629  52.934 -22.233  1.00  0.00     0.046 A 
HETATM   27 CL1  UNL     1       0.918  52.781 -23.935  1.00  0.00    -0.083 Cl
HETATM   28  C13 UNL     1       1.443  53.828 -21.527  1.00  0.00     0.025 A 
HETATM   29  C14 UNL     1       1.265  54.008 -20.158  1.00  0.00     0.003 A 
HETATM   30  C15 UNL     1       0.270  53.294 -19.495  1.00  0.00     0.025 A 
HETATM   31  C16 UNL     1      -0.545  52.399 -20.199  1.00  0.00     0.046 A 
HETATM   32 CL2  UNL     1      -1.756  51.556 -19.290  1.00  0.00    -0.083 Cl
ENDBRANCH   8  25
TORSDOF 4
ENDMDL
MODEL 5
REMARK minimizedAffinity -9.18432999
REMARK  4 active torsions:
REMARK  status: ('A' for Active; 'I' for Inactive)
REMARK    1  A    between atoms: O1_2  and  C2_3 
REMARK    2  A    between atoms: C6_7  and  N1_8 
REMARK    3  A    between atoms: N1_8  and  C7_9 
REMARK    4  A    between atoms: C10_16  and  C11_17 
ROOT
HETATM    1  C7  UNL     1      -3.586  49.855 -26.981  1.00  0.00     0.697 A 
HETATM    2  N2  UNL     1      -4.292  49.956 -25.842  1.00  0.00    -0.131 N 
ATOM      3  H2  UNL     1      -5.266  49.651 -25.819  1.00  0.00     0.205 HD
HETATM    4  N3  UNL     1      -3.715  50.465 -24.713  1.00  0.00    -0.284 N 
ATOM      5  H3  UNL     1      -4.253  50.541 -23.849  1.00  0.00     0.187 HD
HETATM    6  C8  UNL     1      -2.440  50.863 -24.751  1.00  0.00     0.077 A 
HETATM    7  C9  UNL     1      -1.831  51.385 -23.614  1.00  0.00     0.045 A 
HETATM    8  C10 UNL     1      -0.498  51.809 -23.627  1.00  0.00    -0.020 A 
HETATM    9  C17 UNL     1       0.218  51.694 -24.822  1.00  0.00     0.021 A 
HETATM   10  C18 UNL     1      -0.389  51.167 -25.977  1.00  0.00    -0.032 A 
HETATM   11  C19 UNL     1       0.411  51.057 -27.247  1.00  0.00     0.050 C 
HETATM   12  C20 UNL     1      -1.725  50.747 -25.951  1.00  0.00     0.083 A 
HETATM   13  N4  UNL     1      -2.302  50.242 -27.060  1.00  0.00    -0.188 N 
ATOM     14  H4  UNL     1      -1.780  50.156 -27.932  1.00  0.00     0.184 HD
ENDROOT
BRANCH   1  15
HETATM   15  N1  UNL     1      -4.121  49.347 -28.163  1.00  0.00    -0.190 N 
HETATM   16  H7  UNL     1      -3.696  49.822 -28.946  1.00  0.00     0.184 HD
BRANCH  15  17
HETATM   17  C6  UNL     1      -5.064  48.355 -28.457  1.00  0.00     0.051 A 
HETATM   18  C5  UNL     1      -5.887  47.892 -27.417  1.00  0.00     0.030 A 
HETATM   19  C4  UNL     1      -6.847  46.902 -27.638  1.00  0.00     0.005 A 
HETATM   20  C3  UNL     1      -6.996  46.357 -28.908  1.00  0.00     0.037 A 
HETATM   21  C2  UNL     1      -6.193  46.795 -29.960  1.00  0.00     0.070 A 
HETATM   22  C21 UNL     1      -5.232  47.786 -29.728  1.00  0.00     0.066 A 
BRANCH  21  23
HETATM   23  O1  UNL     1      -6.439  46.178 -31.158  1.00  0.00    -0.356 OA
HETATM   24  C1  UNL     1      -5.309  45.865 -31.964  1.00  0.00     0.210 C 
ENDBRANCH  21  23
ENDBRANCH  15  17
ENDBRANCH   1  15
BRANCH   8  25
HETATM   25  C11 UNL     1       0.133  52.360 -22.416  1.00  0.00     0.018 A 
HETATM   26  C12 UNL     1       0.077  51.676 -21.183  1.00  0.00     0.046 A 
HETATM   27 CL1  UNL     1      -0.725  50.148 -21.026  1.00  0.00    -0.083 Cl
HETATM   28  C13 UNL     1       0.675  52.201 -20.031  1.00  0.00     0.025 A 
HETATM   29  C14 UNL     1       1.343  53.423 -20.083  1.00  0.00     0.003 A 
HETATM   30  C15 UNL     1       1.413  54.117 -21.287  1.00  0.00     0.025 A 
HETATM   31  C16 UNL     1       0.816  53.593 -22.440  1.00  0.00     0.046 A 
HETATM   32 CL2  UNL     1       0.957  54.527 -23.893  1.00  0.00    -0.083 Cl
ENDBRANCH   8  25
TORSDOF 4
ENDMDL
MODEL 6
REMARK minimizedAffinity -9.13583374
REMARK  4 active torsions:
REMARK  status: ('A' for Active; 'I' for Inactive)
REMARK    1  A    between atoms: O1_2  and  C2_3 
REMARK    2  A    between atoms: C6_7  and  N1_8 
REMARK    3  A    between atoms: N1_8  and  C7_9 
REMARK    4  A    between atoms: C10_16  and  C11_17 
ROOT
HETATM    1  C7  UNL     1       1.087  53.000 -19.107  1.00  0.00     0.697 A 
HETATM    2  N2  UNL     1       1.349  54.045 -19.910  1.00  0.00    -0.131 N 
ATOM      3  H2  UNL     1       1.816  54.870 -19.534  1.00  0.00     0.205 HD
HETATM    4  N3  UNL     1       0.993  54.009 -21.229  1.00  0.00    -0.284 N 
ATOM      5  H3  UNL     1       1.194  54.803 -21.838  1.00  0.00     0.187 HD
HETATM    6  C8  UNL     1       0.381  52.925 -21.714  1.00  0.00     0.077 A 
HETATM    7  C9  UNL     1       0.010  52.865 -23.053  1.00  0.00     0.045 A 
HETATM    8  C10 UNL     1      -0.633  51.743 -23.585  1.00  0.00    -0.020 A 
HETATM    9  C17 UNL     1      -0.894  50.668 -22.731  1.00  0.00     0.021 A 
HETATM   10  C18 UNL     1      -0.522  50.718 -21.376  1.00  0.00    -0.032 A 
HETATM   11  C19 UNL     1      -0.818  49.542 -20.484  1.00  0.00     0.050 C 
HETATM   12  C20 UNL     1       0.120  51.848 -20.854  1.00  0.00     0.083 A 
HETATM   13  N4  UNL     1       0.475  51.891 -19.555  1.00  0.00    -0.188 N 
ATOM     14  H4  UNL     1       0.286  51.106 -18.931  1.00  0.00     0.184 HD
ENDROOT
BRANCH   1  15
HETATM   15  N1  UNL     1       1.423  52.980 -17.754  1.00  0.00    -0.190 N 
HETATM   16  H7  UNL     1       1.724  53.902 -17.477  1.00  0.00     0.184 HD
BRANCH  15  17
HETATM   17  C6  UNL     1       1.410  51.991 -16.763  1.00  0.00     0.051 A 
HETATM   18  C5  UNL     1       0.420  50.996 -16.830  1.00  0.00     0.030 A 
HETATM   19  C4  UNL     1       0.346  49.981 -15.874  1.00  0.00     0.005 A 
HETATM   20  C3  UNL     1       1.264  49.949 -14.830  1.00  0.00     0.037 A 
HETATM   21  C2  UNL     1       2.256  50.923 -14.735  1.00  0.00     0.070 A 
HETATM   22  C21 UNL     1       2.322  51.937 -15.698  1.00  0.00     0.066 A 
BRANCH  21  23
HETATM   23  O1  UNL     1       3.095  50.777 -13.662  1.00  0.00    -0.356 OA
HETATM   24  C1  UNL     1       4.289  50.034 -13.876  1.00  0.00     0.210 C 
ENDBRANCH  21  23
ENDBRANCH  15  17
ENDBRANCH   1  15
BRANCH   8  25
HETATM   25  C11 UNL     1      -1.021  51.695 -25.005  1.00  0.00     0.018 A 
HETATM   26  C12 UNL     1      -0.066  51.476 -26.020  1.00  0.00     0.046 A 
HETATM   27 CL1  UNL     1       1.612  51.241 -25.656  1.00  0.00    -0.083 Cl
HETATM   28  C13 UNL     1      -0.435  51.433 -27.370  1.00  0.00     0.025 A 
HETATM   29  C14 UNL     1      -1.767  51.608 -27.739  1.00  0.00     0.003 A 
HETATM   30  C15 UNL     1      -2.729  51.824 -26.756  1.00  0.00     0.025 A 
HETATM   31  C16 UNL     1      -2.361  51.867 -25.406  1.00  0.00     0.046 A 
HETATM   32 CL2  UNL     1      -3.628  52.140 -24.254  1.00  0.00    -0.083 Cl
ENDBRANCH   8  25
TORSDOF 4
ENDMDL
MODEL 7
REMARK minimizedAffinity -9.07838726
REMARK  4 active torsions:
REMARK  status: ('A' for Active; 'I' for Inactive)
REMARK    1  A    between atoms: O1_2  and  C2_3 
REMARK    2  A    between atoms: C6_7  and  N1_8 
REMARK    3  A    between atoms: N1_8  and  C7_9 
REMARK    4  A    between atoms: C10_16  and  C11_17 
ROOT
HETATM    1  C7  UNL     1      -0.364  52.544 -21.404  1.00  0.00     0.697 A 
HETATM    2  N2  UNL     1       0.309  53.629 -20.982  1.00  0.00    -0.131 N 
ATOM      3  H2  UNL     1       0.444  54.420 -21.611  1.00  0.00     0.205 HD
HETATM    4  N3  UNL     1       0.815  53.677 -19.713  1.00  0.00    -0.284 N 
ATOM      5  H3  UNL     1       1.325  54.501 -19.394  1.00  0.00     0.187 HD
HETATM    6  C8  UNL     1       0.635  52.636 -18.895  1.00  0.00     0.077 A 
HETATM    7  C9  UNL     1       1.140  52.662 -17.600  1.00  0.00     0.045 A 
HETATM    8  C10 UNL     1       0.966  51.586 -16.723  1.00  0.00    -0.020 A 
HETATM    9  C17 UNL     1       0.262  50.470 -17.184  1.00  0.00     0.021 A 
HETATM   10  C18 UNL     1      -0.254  50.434 -18.492  1.00  0.00    -0.032 A 
HETATM   11  C19 UNL     1      -1.007  49.216 -18.956  1.00  0.00     0.050 C 
HETATM   12  C20 UNL     1      -0.072  51.518 -19.361  1.00  0.00     0.083 A 
HETATM   13  N4  UNL     1      -0.569  51.479 -20.613  1.00  0.00    -0.188 N 
ATOM     14  H4  UNL     1      -1.084  50.665 -20.950  1.00  0.00     0.184 HD
ENDROOT
BRANCH   1  15
HETATM   15  N1  UNL     1      -0.900  52.436 -22.686  1.00  0.00    -0.190 N 
HETATM   16  H7  UNL     1      -1.843  52.796 -22.679  1.00  0.00     0.184 HD
BRANCH  15  17
HETATM   17  C6  UNL     1      -0.408  51.969 -23.911  1.00  0.00     0.051 A 
HETATM   18  C5  UNL     1      -1.174  51.028 -24.620  1.00  0.00     0.030 A 
HETATM   19  C4  UNL     1      -0.743  50.517 -25.845  1.00  0.00     0.005 A 
HETATM   20  C3  UNL     1       0.468  50.940 -26.381  1.00  0.00     0.037 A 
HETATM   21  C2  UNL     1       1.252  51.870 -25.701  1.00  0.00     0.070 A 
HETATM   22  C21 UNL     1       0.812  52.376 -24.472  1.00  0.00     0.066 A 
BRANCH  21  23
HETATM   23  O1  UNL     1       2.420  52.201 -26.335  1.00  0.00    -0.356 OA
HETATM   24  C1  UNL     1       2.553  51.789 -27.690  1.00  0.00     0.210 C 
ENDBRANCH  21  23
ENDBRANCH  15  17
ENDBRANCH   1  15
BRANCH   8  25
HETATM   25  C11 UNL     1       1.508  51.628 -15.355  1.00  0.00     0.018 A 
HETATM   26  C12 UNL     1       2.886  51.817 -15.116  1.00  0.00     0.046 A 
HETATM   27 CL1  UNL     1       4.015  52.019 -16.415  1.00  0.00    -0.083 Cl
HETATM   28  C13 UNL     1       3.401  51.854 -13.815  1.00  0.00     0.025 A 
HETATM   29  C14 UNL     1       2.553  51.703 -12.721  1.00  0.00     0.003 A 
HETATM   30  C15 UNL     1       1.189  51.517 -12.929  1.00  0.00     0.025 A 
HETATM   31  C16 UNL     1       0.672  51.480 -14.229  1.00  0.00     0.046 A 
HETATM   32 CL2  UNL     1      -1.038  51.245 -14.391  1.00  0.00    -0.083 Cl
ENDBRANCH   8  25
TORSDOF 4
ENDMDL
MODEL 8
REMARK minimizedAffinity -9.04242325
REMARK  4 active torsions:
REMARK  status: ('A' for Active; 'I' for Inactive)
REMARK    1  A    between atoms: O1_2  and  C2_3 
REMARK    2  A    between atoms: C6_7  and  N1_8 
REMARK    3  A    between atoms: N1_8  and  C7_9 
REMARK    4  A    between atoms: C10_16  and  C11_17 
ROOT
HETATM    1  C7  UNL     1      -0.349  52.564 -21.379  1.00  0.00     0.697 A 
HETATM    2  N2  UNL     1       0.333  53.640 -20.948  1.00  0.00    -0.131 N 
ATOM      3  H2  UNL     1       0.475  54.434 -21.572  1.00  0.00     0.205 HD
HETATM    4  N3  UNL     1       0.837  53.675 -19.679  1.00  0.00    -0.284 N 
ATOM      5  H3  UNL     1       1.354  54.493 -19.353  1.00  0.00     0.187 HD
HETATM    6  C8  UNL     1       0.647  52.630 -18.868  1.00  0.00     0.077 A 
HETATM    7  C9  UNL     1       1.151  52.643 -17.572  1.00  0.00     0.045 A 
HETATM    8  C10 UNL     1       0.966  51.563 -16.703  1.00  0.00    -0.020 A 
HETATM    9  C17 UNL     1       0.253  50.456 -17.172  1.00  0.00     0.021 A 
HETATM   10  C18 UNL     1      -0.261  50.433 -18.481  1.00  0.00    -0.032 A 
HETATM   11  C19 UNL     1      -1.024  49.225 -18.954  1.00  0.00     0.050 C 
HETATM   12  C20 UNL     1      -0.068  51.521 -19.342  1.00  0.00     0.083 A 
HETATM   13  N4  UNL     1      -0.563  51.495 -20.596  1.00  0.00    -0.188 N 
ATOM     14  H4  UNL     1      -1.085  50.688 -20.938  1.00  0.00     0.184 HD
ENDROOT
BRANCH   1  15
HETATM   15  N1  UNL     1      -0.884  52.469 -22.663  1.00  0.00    -0.190 N 
HETATM   16  H7  UNL     1      -1.811  52.867 -22.662  1.00  0.00     0.184 HD
BRANCH  15  17
HETATM   17  C6  UNL     1      -0.406  51.974 -23.882  1.00  0.00     0.051 A 
HETATM   18  C5  UNL     1      -1.184  51.022 -24.563  1.00  0.00     0.030 A 
HETATM   19  C4  UNL     1      -0.767  50.483 -25.782  1.00  0.00     0.005 A 
HETATM   20  C3  UNL     1       0.440  50.889 -26.339  1.00  0.00     0.037 A 
HETATM   21  C2  UNL     1       1.235  51.831 -25.686  1.00  0.00     0.070 A 
HETATM   22  C21 UNL     1       0.809  52.364 -24.464  1.00  0.00     0.066 A 
BRANCH  21  23
HETATM   23  O1  UNL     1       2.398  52.143 -26.339  1.00  0.00    -0.356 OA
HETATM   24  C1  UNL     1       2.454  51.843 -27.729  1.00  0.00     0.210 C 
ENDBRANCH  21  23
ENDBRANCH  15  17
ENDBRANCH   1  15
BRANCH   8  25
HETATM   25  C11 UNL     1       1.506  51.591 -15.334  1.00  0.00     0.018 A 
HETATM   26  C12 UNL     1       0.668  51.426 -14.210  1.00  0.00     0.046 A 
HETATM   27 CL1  UNL     1      -1.037  51.170 -14.378  1.00  0.00    -0.083 Cl
HETATM   28  C13 UNL     1       1.182  51.456 -12.908  1.00  0.00     0.025 A 
HETATM   29  C14 UNL     1       2.544  51.652 -12.696  1.00  0.00     0.003 A 
HETATM   30  C15 UNL     1       3.393  51.817 -13.787  1.00  0.00     0.025 A 
HETATM   31  C16 UNL     1       2.881  51.787 -15.090  1.00  0.00     0.046 A 
HETATM   32 CL2  UNL     1       4.013  51.999 -16.386  1.00  0.00    -0.083 Cl
ENDBRANCH   8  25
TORSDOF 4
ENDMDL
MODEL 9
REMARK minimizedAffinity -9.03594971
REMARK  4 active torsions:
REMARK  status: ('A' for Active; 'I' for Inactive)
REMARK    1  A    between atoms: O1_2  and  C2_3 
REMARK    2  A    between atoms: C6_7  and  N1_8 
REMARK    3  A    between atoms: N1_8  and  C7_9 
REMARK    4  A    between atoms: C10_16  and  C11_17 
ROOT
HETATM    1  C7  UNL     1      -3.362  49.825 -27.021  1.00  0.00     0.697 A 
HETATM    2  N2  UNL     1      -4.108  49.949 -25.910  1.00  0.00    -0.131 N 
ATOM      3  H2  UNL     1      -5.082  49.643 -25.915  1.00  0.00     0.205 HD
HETATM    4  N3  UNL     1      -3.571  50.483 -24.773  1.00  0.00    -0.284 N 
ATOM      5  H3  UNL     1      -4.138  50.576 -23.930  1.00  0.00     0.187 HD
HETATM    6  C8  UNL     1      -2.296  50.882 -24.775  1.00  0.00     0.077 A 
HETATM    7  C9  UNL     1      -1.727  51.429 -23.630  1.00  0.00     0.045 A 
HETATM    8  C10 UNL     1      -0.395  51.855 -23.605  1.00  0.00    -0.020 A 
HETATM    9  C17 UNL     1       0.362  51.715 -24.772  1.00  0.00     0.021 A 
HETATM   10  C18 UNL     1      -0.204  51.163 -25.935  1.00  0.00    -0.032 A 
HETATM   11  C19 UNL     1       0.640  51.026 -27.174  1.00  0.00     0.050 C 
HETATM   12  C20 UNL     1      -1.539  50.741 -25.947  1.00  0.00     0.083 A 
HETATM   13  N4  UNL     1      -2.077  50.211 -27.064  1.00  0.00    -0.188 N 
ATOM     14  H4  UNL     1      -1.525  50.108 -27.916  1.00  0.00     0.184 HD
ENDROOT
BRANCH   1  15
HETATM   15  N1  UNL     1      -3.856  49.290 -28.210  1.00  0.00    -0.190 N 
HETATM   16  H7  UNL     1      -3.261  49.581 -28.972  1.00  0.00     0.184 HD
BRANCH  15  17
HETATM   17  C6  UNL     1      -4.941  48.465 -28.530  1.00  0.00     0.051 A 
HETATM   18  C5  UNL     1      -5.644  47.854 -27.478  1.00  0.00     0.030 A 
HETATM   19  C4  UNL     1      -6.733  47.017 -27.724  1.00  0.00     0.005 A 
HETATM   20  C3  UNL     1      -7.137  46.776 -29.032  1.00  0.00     0.037 A 
HETATM   21  C2  UNL     1      -6.458  47.365 -30.098  1.00  0.00     0.070 A 
HETATM   22  C21 UNL     1      -5.365  48.202 -29.841  1.00  0.00     0.066 A 
BRANCH  21  23
HETATM   23  O1  UNL     1      -6.954  47.046 -31.334  1.00  0.00    -0.356 OA
HETATM   24  C1  UNL     1      -6.032  46.509 -32.276  1.00  0.00     0.210 C 
ENDBRANCH  21  23
ENDBRANCH  15  17
ENDBRANCH   1  15
BRANCH   8  25
HETATM   25  C11 UNL     1       0.193  52.432 -22.385  1.00  0.00     0.018 A 
HETATM   26  C12 UNL     1       0.852  53.680 -22.407  1.00  0.00     0.046 A 
HETATM   27 CL1  UNL     1       0.997  54.606 -23.865  1.00  0.00    -0.083 Cl
HETATM   28  C13 UNL     1       1.414  54.227 -21.247  1.00  0.00     0.025 A 
HETATM   29  C14 UNL     1       1.332  53.542 -20.038  1.00  0.00     0.003 A 
HETATM   30  C15 UNL     1       0.686  52.310 -19.989  1.00  0.00     0.025 A 
HETATM   31  C16 UNL     1       0.124  51.761 -21.148  1.00  0.00     0.046 A 
HETATM   32 CL2  UNL     1      -0.661  50.224 -20.989  1.00  0.00    -0.083 Cl
ENDBRANCH   8  25
TORSDOF 4
ENDMDL
