MODEL 1
REMARK minimizedAffinity -8.90745926
REMARK CNNscore 0.140155092
REMARK CNNaffinity 7.13365316
REMARK  16 active torsions:
REMARK  status: ('A' for Active; 'I' for Inactive)
REMARK    1  A    between atoms: C1_2  and  C2_3 
REMARK       I    between atoms: C1_2  and  N1_10 
REMARK    2  A    between atoms: C2_3  and  C3_4 
REMARK    3  A    between atoms: N1_10  and  C9_11 
REMARK    4  A    between atoms: C9_11  and  C10_12 
REMARK    5  A    between atoms: C9_11  and  C17_24 
REMARK    6  A    between atoms: C10_12  and  C11_13 
REMARK    7  A    between atoms: C14_16  and  O2_17 
REMARK    8  A    between atoms: O2_17  and  P1_18 
REMARK    9  A    between atoms: P1_18  and  O4_20 
REMARK   10  A    between atoms: P1_18  and  O5_21 
REMARK       I    between atoms: C17_24  and  N2_26 
REMARK   11  A    between atoms: N2_26  and  C18_27 
REMARK   12  A    between atoms: C18_27  and  C19_28 
REMARK   13  A    between atoms: C18_27  and  C20_30 
REMARK   14  A    between atoms: C19_28  and  O7_29 
REMARK   15  A    between atoms: C21_33  and  C22_34 
REMARK   16  A    between atoms: C22_34  and  C23_35 
ROOT
HETATM    1  C9  UNL     1      -2.093   8.164  13.522  1.00  0.00     0.180 C 
ENDROOT
BRANCH   1   2
HETATM    2  N1  UNL     1      -1.768   8.392  14.930  1.00  0.00    -0.347 N 
HETATM    3  C1  UNL     1      -2.373   9.377  15.673  1.00  0.00     0.222 C 
HETATM    4  O1  UNL     1      -3.155  10.188  15.186  1.00  0.00    -0.273 OA
HETATM    5  H8  UNL     1      -1.154   7.715  15.371  1.00  0.00     0.163 HD
BRANCH   3   6
HETATM    6  C2  UNL     1      -1.989   9.381  17.143  1.00  0.00     0.141 C 
BRANCH   6   7
HETATM    7  C3  UNL     1      -2.320  10.690  17.814  1.00  0.00    -0.050 A 
HETATM    8  C4  UNL     1      -1.393  11.744  17.812  1.00  0.00     0.007 A 
HETATM    9  C5  UNL     1      -1.707  12.963  18.415  1.00  0.00     0.001 A 
HETATM   10  C6  UNL     1      -2.952  13.144  19.018  1.00  0.00     0.000 A 
HETATM   11  C7  UNL     1      -3.883  12.106  19.019  1.00  0.00     0.001 A 
HETATM   12  C8  UNL     1      -3.572  10.886  18.418  1.00  0.00     0.007 A 
ENDBRANCH   6   7
ENDBRANCH   3   6
ENDBRANCH   1   2
BRANCH   1  13
HETATM   13  C10 UNL     1      -1.361   9.164  12.605  1.00  0.00     0.073 C 
BRANCH  13  14
HETATM   14  C11 UNL     1      -0.218   8.572  11.810  1.00  0.00    -0.056 A 
HETATM   15  C12 UNL     1      -0.441   8.070  10.520  1.00  0.00     0.010 A 
HETATM   16  C13 UNL     1       0.611   7.535   9.769  1.00  0.00     0.038 A 
HETATM   17  C14 UNL     1       1.894   7.507  10.301  1.00  0.00     0.081 A 
HETATM   18  C15 UNL     1       2.129   7.994  11.586  1.00  0.00     0.038 A 
HETATM   19  C16 UNL     1       1.075   8.502  12.348  1.00  0.00     0.010 A 
BRANCH  17  20
HETATM   20  O2  UNL     1       2.978   7.042   9.617  1.00  0.00    -0.255 OA
BRANCH  20  21
HETATM   21  P1  UNL     1       3.412   5.501   9.530  1.00  0.00     0.396 P 
HETATM   22  O3  UNL     1       3.454   4.898   8.167  1.00  0.00    -0.631 OA
BRANCH  21  23
HETATM   23  O4  UNL     1       4.818   5.377  10.279  1.00  0.00    -0.307 OA
HETATM   24  H14 UNL     1       5.555   5.611   9.678  1.00  0.00     0.222 HD
ENDBRANCH  21  23
BRANCH  21  25
HETATM   25  O5  UNL     1       2.444   4.688  10.517  1.00  0.00    -0.307 OA
HETATM   26  H15 UNL     1       2.559   3.731  10.370  1.00  0.00     0.222 HD
ENDBRANCH  21  25
ENDBRANCH  20  21
ENDBRANCH  17  20
ENDBRANCH  13  14
ENDBRANCH   1  13
BRANCH   1  27
HETATM   27  C17 UNL     1      -1.668   6.717  13.206  1.00  0.00     0.241 C 
HETATM   28  O6  UNL     1      -0.644   6.218  13.680  1.00  0.00    -0.271 OA
HETATM   29  N2  UNL     1      -2.501   6.020  12.367  1.00  0.00    -0.345 N 
HETATM   30  H18 UNL     1      -3.276   6.491  11.910  1.00  0.00     0.163 HD
BRANCH  29  31
HETATM   31  C18 UNL     1      -2.134   4.721  11.810  1.00  0.00     0.185 C 
BRANCH  31  32
HETATM   32  C19 UNL     1      -0.984   4.110  12.632  1.00  0.00     0.197 C 
BRANCH  32  33
HETATM   33  O7  UNL     1       0.157   3.819  11.815  1.00  0.00    -0.398 OA
HETATM   34  H22 UNL     1       0.465   4.671  11.445  1.00  0.00     0.209 HD
ENDBRANCH  32  33
ENDBRANCH  31  32
BRANCH  31  35
HETATM   35  C20 UNL     1      -3.335   3.828  11.847  1.00  0.00     0.173 A 
HETATM   36  N3  UNL     1      -4.596   4.129  12.090  1.00  0.00    -0.325 N 
HETATM   37  C21 UNL     1      -5.217   2.914  11.930  1.00  0.00     0.108 A 
ATOM     38  H3  UNL     1      -5.005   5.031  12.334  1.00  0.00     0.169 HD
HETATM   39  N4  UNL     1      -4.400   1.907  11.580  1.00  0.00    -0.247 N 
HETATM   40  O8  UNL     1      -3.142   2.511  11.541  1.00  0.00    -0.221 OA
ATOM     41  H4  UNL     1      -4.640   0.934  11.390  1.00  0.00     0.196 HD
BRANCH  37  42
HETATM   42  C22 UNL     1      -6.685   2.739  12.069  1.00  0.00     0.117 C 
BRANCH  42  43
HETATM   43  C23 UNL     1      -7.184   3.973  12.785  1.00  0.00    -0.049 A 
HETATM   44  C24 UNL     1      -8.037   4.880  12.140  1.00  0.00     0.009 A 
HETATM   45  C25 UNL     1      -8.478   6.030  12.799  1.00  0.00     0.026 A 
HETATM   46  C26 UNL     1      -8.079   6.286  14.113  1.00  0.00     0.055 A 
HETATM   47 CL1  UNL     1      -8.666   7.727  14.866  1.00  0.00    -0.083 Cl
HETATM   48  C27 UNL     1      -7.231   5.387  14.770  1.00  0.00     0.056 A 
HETATM   49 CL2  UNL     1      -6.699   5.632  16.396  1.00  0.00    -0.083 Cl
HETATM   50  C28 UNL     1      -6.786   4.239  14.106  1.00  0.00     0.033 A 
ENDBRANCH  42  43
ENDBRANCH  37  42
ENDBRANCH  31  35
ENDBRANCH  29  31
ENDBRANCH   1  27
TORSDOF 16
ENDMDL
MODEL 2
REMARK minimizedAffinity -8.80795956
REMARK CNNscore 0.128978163
REMARK CNNaffinity 6.1122756
REMARK  16 active torsions:
REMARK  status: ('A' for Active; 'I' for Inactive)
REMARK    1  A    between atoms: C1_2  and  C2_3 
REMARK       I    between atoms: C1_2  and  N1_10 
REMARK    2  A    between atoms: C2_3  and  C3_4 
REMARK    3  A    between atoms: N1_10  and  C9_11 
REMARK    4  A    between atoms: C9_11  and  C10_12 
REMARK    5  A    between atoms: C9_11  and  C17_24 
REMARK    6  A    between atoms: C10_12  and  C11_13 
REMARK    7  A    between atoms: C14_16  and  O2_17 
REMARK    8  A    between atoms: O2_17  and  P1_18 
REMARK    9  A    between atoms: P1_18  and  O4_20 
REMARK   10  A    between atoms: P1_18  and  O5_21 
REMARK       I    between atoms: C17_24  and  N2_26 
REMARK   11  A    between atoms: N2_26  and  C18_27 
REMARK   12  A    between atoms: C18_27  and  C19_28 
REMARK   13  A    between atoms: C18_27  and  C20_30 
REMARK   14  A    between atoms: C19_28  and  O7_29 
REMARK   15  A    between atoms: C21_33  and  C22_34 
REMARK   16  A    between atoms: C22_34  and  C23_35 
ROOT
HETATM    1  C9  UNL     1       0.177   9.025  15.169  1.00  0.00     0.180 C 
ENDROOT
BRANCH   1   2
HETATM    2  N1  UNL     1      -0.789   8.022  15.615  1.00  0.00    -0.347 N 
HETATM    3  C1  UNL     1      -2.123   8.091  15.290  1.00  0.00     0.222 C 
HETATM    4  O1  UNL     1      -2.608   9.043  14.686  1.00  0.00    -0.273 OA
HETATM    5  H8  UNL     1      -0.413   7.203  16.084  1.00  0.00     0.163 HD
BRANCH   3   6
HETATM    6  C2  UNL     1      -2.944   6.896  15.746  1.00  0.00     0.141 C 
BRANCH   6   7
HETATM    7  C3  UNL     1      -3.367   6.024  14.591  1.00  0.00    -0.050 A 
HETATM    8  C4  UNL     1      -4.729   5.825  14.312  1.00  0.00     0.007 A 
HETATM    9  C5  UNL     1      -5.121   5.034  13.231  1.00  0.00     0.001 A 
HETATM   10  C6  UNL     1      -4.158   4.442  12.414  1.00  0.00     0.000 A 
HETATM   11  C7  UNL     1      -2.804   4.638  12.678  1.00  0.00     0.001 A 
HETATM   12  C8  UNL     1      -2.408   5.428  13.758  1.00  0.00     0.007 A 
ENDBRANCH   6   7
ENDBRANCH   3   6
ENDBRANCH   1   2
BRANCH   1  13
HETATM   13  C10 UNL     1      -0.047   9.408  13.693  1.00  0.00     0.073 C 
BRANCH  13  14
HETATM   14  C11 UNL     1       0.429   8.376  12.694  1.00  0.00    -0.056 A 
HETATM   15  C12 UNL     1      -0.087   8.365  11.390  1.00  0.00     0.010 A 
HETATM   16  C13 UNL     1       0.358   7.427  10.453  1.00  0.00     0.038 A 
HETATM   17  C14 UNL     1       1.327   6.498  10.813  1.00  0.00     0.081 A 
HETATM   18  C15 UNL     1       1.842   6.491  12.108  1.00  0.00     0.038 A 
HETATM   19  C16 UNL     1       1.379   7.409  13.053  1.00  0.00     0.010 A 
BRANCH  17  20
HETATM   20  O2  UNL     1       1.842   5.581   9.946  1.00  0.00    -0.255 OA
BRANCH  20  21
HETATM   21  P1  UNL     1       3.269   5.705   9.226  1.00  0.00     0.396 P 
HETATM   22  O3  UNL     1       3.866   7.070   9.165  1.00  0.00    -0.631 OA
BRANCH  21  23
HETATM   23  O4  UNL     1       4.240   4.662   9.949  1.00  0.00    -0.307 OA
HETATM   24  H14 UNL     1       4.625   5.050  10.762  1.00  0.00     0.222 HD
ENDBRANCH  21  23
BRANCH  21  25
HETATM   25  O5  UNL     1       3.115   5.050   7.771  1.00  0.00    -0.307 OA
HETATM   26  H15 UNL     1       3.906   5.253   7.237  1.00  0.00     0.222 HD
ENDBRANCH  21  25
ENDBRANCH  20  21
ENDBRANCH  17  20
ENDBRANCH  13  14
ENDBRANCH   1  13
BRANCH   1  27
HETATM   27  C17 UNL     1      -0.011  10.248  16.089  1.00  0.00     0.241 C 
HETATM   28  O6  UNL     1      -0.368  11.344  15.654  1.00  0.00    -0.271 OA
HETATM   29  N2  UNL     1       0.243  10.036  17.422  1.00  0.00    -0.345 N 
HETATM   30  H18 UNL     1       0.638   9.153  17.732  1.00  0.00     0.163 HD
BRANCH  29  31
HETATM   31  C18 UNL     1       0.313  11.133  18.383  1.00  0.00     0.185 C 
BRANCH  31  32
HETATM   32  C19 UNL     1      -1.087  11.404  18.964  1.00  0.00     0.197 C 
BRANCH  32  33
HETATM   33  O7  UNL     1      -1.827  12.330  18.158  1.00  0.00    -0.398 OA
HETATM   34  H22 UNL     1      -1.936  11.915  17.278  1.00  0.00     0.209 HD
ENDBRANCH  32  33
ENDBRANCH  31  32
BRANCH  31  35
HETATM   35  C20 UNL     1       1.267  10.754  19.473  1.00  0.00     0.173 A 
HETATM   36  N3  UNL     1       1.252  11.082  20.751  1.00  0.00    -0.325 N 
HETATM   37  C21 UNL     1       2.340  10.395  21.234  1.00  0.00     0.108 A 
ATOM     38  H3  UNL     1       0.602  11.688  21.250  1.00  0.00     0.169 HD
HETATM   39  N4  UNL     1       2.989   9.655  20.321  1.00  0.00    -0.247 N 
HETATM   40  O8  UNL     1       2.286   9.907  19.142  1.00  0.00    -0.221 OA
ATOM     41  H4  UNL     1       3.802   9.054  20.456  1.00  0.00     0.196 HD
BRANCH  37  42
HETATM   42  C22 UNL     1       2.729  10.417  22.668  1.00  0.00     0.117 C 
BRANCH  42  43
HETATM   43  C23 UNL     1       3.699  11.566  22.817  1.00  0.00    -0.049 A 
HETATM   44  C24 UNL     1       3.239  12.890  22.862  1.00  0.00     0.009 A 
HETATM   45  C25 UNL     1       4.141  13.951  22.978  1.00  0.00     0.026 A 
HETATM   46  C26 UNL     1       5.514  13.702  23.057  1.00  0.00     0.055 A 
HETATM   47 CL1  UNL     1       6.570  15.062  23.202  1.00  0.00    -0.083 Cl
HETATM   48  C27 UNL     1       5.986  12.385  23.017  1.00  0.00     0.056 A 
HETATM   49 CL2  UNL     1       7.667  11.998  23.116  1.00  0.00    -0.083 Cl
HETATM   50  C28 UNL     1       5.081  11.325  22.895  1.00  0.00     0.033 A 
ENDBRANCH  42  43
ENDBRANCH  37  42
ENDBRANCH  31  35
ENDBRANCH  29  31
ENDBRANCH   1  27
TORSDOF 16
ENDMDL
MODEL 3
REMARK minimizedAffinity -8.56407642
REMARK CNNscore 0.121901251
REMARK CNNaffinity 6.5576787
REMARK  16 active torsions:
REMARK  status: ('A' for Active; 'I' for Inactive)
REMARK    1  A    between atoms: C1_2  and  C2_3 
REMARK       I    between atoms: C1_2  and  N1_10 
REMARK    2  A    between atoms: C2_3  and  C3_4 
REMARK    3  A    between atoms: N1_10  and  C9_11 
REMARK    4  A    between atoms: C9_11  and  C10_12 
REMARK    5  A    between atoms: C9_11  and  C17_24 
REMARK    6  A    between atoms: C10_12  and  C11_13 
REMARK    7  A    between atoms: C14_16  and  O2_17 
REMARK    8  A    between atoms: O2_17  and  P1_18 
REMARK    9  A    between atoms: P1_18  and  O4_20 
REMARK   10  A    between atoms: P1_18  and  O5_21 
REMARK       I    between atoms: C17_24  and  N2_26 
REMARK   11  A    between atoms: N2_26  and  C18_27 
REMARK   12  A    between atoms: C18_27  and  C19_28 
REMARK   13  A    between atoms: C18_27  and  C20_30 
REMARK   14  A    between atoms: C19_28  and  O7_29 
REMARK   15  A    between atoms: C21_33  and  C22_34 
REMARK   16  A    between atoms: C22_34  and  C23_35 
ROOT
HETATM    1  C9  UNL     1      -8.375   6.459  15.494  1.00  0.00     0.180 C 
ENDROOT
BRANCH   1   2
HETATM    2  N1  UNL     1      -8.023   5.995  14.152  1.00  0.00    -0.347 N 
HETATM    3  C1  UNL     1      -7.711   4.683  13.886  1.00  0.00     0.222 C 
HETATM    4  O1  UNL     1      -7.617   3.834  14.768  1.00  0.00    -0.273 OA
HETATM    5  H8  UNL     1      -8.128   6.664  13.396  1.00  0.00     0.163 HD
BRANCH   3   6
HETATM    6  C2  UNL     1      -7.488   4.375  12.415  1.00  0.00     0.141 C 
BRANCH   6   7
HETATM    7  C3  UNL     1      -6.190   3.643  12.178  1.00  0.00    -0.050 A 
HETATM    8  C4  UNL     1      -6.196   2.335  11.668  1.00  0.00     0.007 A 
HETATM    9  C5  UNL     1      -4.995   1.665  11.429  1.00  0.00     0.001 A 
HETATM   10  C6  UNL     1      -3.779   2.296  11.689  1.00  0.00     0.000 A 
HETATM   11  C7  UNL     1      -3.762   3.598  12.189  1.00  0.00     0.001 A 
HETATM   12  C8  UNL     1      -4.961   4.270  12.429  1.00  0.00     0.007 A 
ENDBRANCH   6   7
ENDBRANCH   3   6
ENDBRANCH   1   2
BRANCH   1  13
HETATM   13  C10 UNL     1      -7.143   7.002  16.244  1.00  0.00     0.073 C 
BRANCH  13  14
HETATM   14  C11 UNL     1      -5.921   7.218  15.377  1.00  0.00    -0.056 A 
HETATM   15  C12 UNL     1      -5.903   8.248  14.426  1.00  0.00     0.010 A 
HETATM   16  C13 UNL     1      -4.773   8.467  13.631  1.00  0.00     0.038 A 
HETATM   17  C14 UNL     1      -3.651   7.662  13.789  1.00  0.00     0.081 A 
HETATM   18  C15 UNL     1      -3.658   6.629  14.724  1.00  0.00     0.038 A 
HETATM   19  C16 UNL     1      -4.795   6.390  15.499  1.00  0.00     0.010 A 
BRANCH  17  20
HETATM   20  O2  UNL     1      -2.498   7.840  13.084  1.00  0.00    -0.255 OA
BRANCH  20  21
HETATM   21  P1  UNL     1      -1.220   8.653  13.612  1.00  0.00     0.396 P 
HETATM   22  O3  UNL     1       0.062   7.896  13.691  1.00  0.00    -0.631 OA
BRANCH  21  23
HETATM   23  O4  UNL     1      -1.090   9.952  12.689  1.00  0.00    -0.307 OA
HETATM   24  H14 UNL     1      -0.607   9.744  11.862  1.00  0.00     0.222 HD
ENDBRANCH  21  23
BRANCH  21  25
HETATM   25  O5  UNL     1      -1.628   9.296  15.023  1.00  0.00    -0.307 OA
HETATM   26  H15 UNL     1      -0.833   9.656  15.458  1.00  0.00     0.222 HD
ENDBRANCH  21  25
ENDBRANCH  20  21
ENDBRANCH  17  20
ENDBRANCH  13  14
ENDBRANCH   1  13
BRANCH   1  27
HETATM   27  C17 UNL     1      -9.436   7.561  15.308  1.00  0.00     0.241 C 
HETATM   28  O6  UNL     1      -9.303   8.685  15.796  1.00  0.00    -0.271 OA
HETATM   29  N2  UNL     1     -10.535   7.211  14.564  1.00  0.00    -0.345 N 
HETATM   30  H18 UNL     1     -10.665   6.249  14.267  1.00  0.00     0.163 HD
BRANCH  29  31
HETATM   31  C18 UNL     1     -11.715   8.067  14.471  1.00  0.00     0.185 C 
BRANCH  31  32
HETATM   32  C19 UNL     1     -11.728   8.787  13.110  1.00  0.00     0.197 C 
BRANCH  32  33
HETATM   33  O7  UNL     1     -11.518  10.197  13.252  1.00  0.00    -0.398 OA
HETATM   34  H22 UNL     1     -10.632  10.312  13.651  1.00  0.00     0.209 HD
ENDBRANCH  32  33
ENDBRANCH  31  32
BRANCH  31  35
HETATM   35  C20 UNL     1     -12.936   7.215  14.625  1.00  0.00     0.173 A 
HETATM   36  N3  UNL     1     -14.154   7.557  15.001  1.00  0.00    -0.325 N 
HETATM   37  C21 UNL     1     -14.831   6.365  14.895  1.00  0.00     0.108 A 
ATOM     38  H3  UNL     1     -14.502   8.469  15.295  1.00  0.00     0.169 HD
HETATM   39  N4  UNL     1     -14.091   5.336  14.452  1.00  0.00    -0.247 N 
HETATM   40  O8  UNL     1     -12.823   5.896  14.287  1.00  0.00    -0.221 OA
ATOM     41  H4  UNL     1     -14.385   4.375  14.278  1.00  0.00     0.196 HD
BRANCH  37  42
HETATM   42  C22 UNL     1     -16.282   6.240  15.185  1.00  0.00     0.117 C 
BRANCH  42  43
HETATM   43  C23 UNL     1     -16.749   5.008  14.445  1.00  0.00    -0.049 A 
HETATM   44  C24 UNL     1     -17.262   5.106  13.144  1.00  0.00     0.009 A 
HETATM   45  C25 UNL     1     -17.713   3.967  12.471  1.00  0.00     0.026 A 
HETATM   46  C26 UNL     1     -17.650   2.714  13.087  1.00  0.00     0.055 A 
HETATM   47 CL1  UNL     1     -18.223   1.350  12.194  1.00  0.00    -0.083 Cl
HETATM   48  C27 UNL     1     -17.137   2.602  14.384  1.00  0.00     0.056 A 
HETATM   49 CL2  UNL     1     -17.022   1.088  15.209  1.00  0.00    -0.083 Cl
HETATM   50  C28 UNL     1     -16.691   3.744  15.058  1.00  0.00     0.033 A 
ENDBRANCH  42  43
ENDBRANCH  37  42
ENDBRANCH  31  35
ENDBRANCH  29  31
ENDBRANCH   1  27
TORSDOF 16
ENDMDL
MODEL 4
REMARK minimizedAffinity -8.60140896
REMARK CNNscore 0.118479468
REMARK CNNaffinity 5.79114676
REMARK  16 active torsions:
REMARK  status: ('A' for Active; 'I' for Inactive)
REMARK    1  A    between atoms: C1_2  and  C2_3 
REMARK       I    between atoms: C1_2  and  N1_10 
REMARK    2  A    between atoms: C2_3  and  C3_4 
REMARK    3  A    between atoms: N1_10  and  C9_11 
REMARK    4  A    between atoms: C9_11  and  C10_12 
REMARK    5  A    between atoms: C9_11  and  C17_24 
REMARK    6  A    between atoms: C10_12  and  C11_13 
REMARK    7  A    between atoms: C14_16  and  O2_17 
REMARK    8  A    between atoms: O2_17  and  P1_18 
REMARK    9  A    between atoms: P1_18  and  O4_20 
REMARK   10  A    between atoms: P1_18  and  O5_21 
REMARK       I    between atoms: C17_24  and  N2_26 
REMARK   11  A    between atoms: N2_26  and  C18_27 
REMARK   12  A    between atoms: C18_27  and  C19_28 
REMARK   13  A    between atoms: C18_27  and  C20_30 
REMARK   14  A    between atoms: C19_28  and  O7_29 
REMARK   15  A    between atoms: C21_33  and  C22_34 
REMARK   16  A    between atoms: C22_34  and  C23_35 
ROOT
HETATM    1  C9  UNL     1      -6.656   6.898  15.360  1.00  0.00     0.180 C 
ENDROOT
BRANCH   1   2
HETATM    2  N1  UNL     1      -7.040   5.559  14.912  1.00  0.00    -0.347 N 
HETATM    3  C1  UNL     1      -7.678   5.340  13.714  1.00  0.00     0.222 C 
HETATM    4  O1  UNL     1      -8.049   6.255  12.986  1.00  0.00    -0.273 OA
HETATM    5  H8  UNL     1      -6.713   4.779  15.473  1.00  0.00     0.163 HD
BRANCH   3   6
HETATM    6  C2  UNL     1      -7.888   3.874  13.372  1.00  0.00     0.141 C 
BRANCH   6   7
HETATM    7  C3  UNL     1      -6.681   3.269  12.699  1.00  0.00    -0.050 A 
HETATM    8  C4  UNL     1      -6.775   2.025  12.057  1.00  0.00     0.007 A 
HETATM    9  C5  UNL     1      -5.664   1.474  11.417  1.00  0.00     0.001 A 
HETATM   10  C6  UNL     1      -4.453   2.164  11.403  1.00  0.00     0.000 A 
HETATM   11  C7  UNL     1      -4.350   3.404  12.031  1.00  0.00     0.001 A 
HETATM   12  C8  UNL     1      -5.459   3.958  12.673  1.00  0.00     0.007 A 
ENDBRANCH   6   7
ENDBRANCH   3   6
ENDBRANCH   1   2
BRANCH   1  13
HETATM   13  C10 UNL     1      -6.095   7.742  14.199  1.00  0.00     0.073 C 
BRANCH  13  14
HETATM   14  C11 UNL     1      -4.607   7.584  13.966  1.00  0.00    -0.056 A 
HETATM   15  C12 UNL     1      -3.863   6.680  14.737  1.00  0.00     0.010 A 
HETATM   16  C13 UNL     1      -2.492   6.514  14.519  1.00  0.00     0.038 A 
HETATM   17  C14 UNL     1      -1.858   7.246  13.523  1.00  0.00     0.081 A 
HETATM   18  C15 UNL     1      -2.583   8.155  12.754  1.00  0.00     0.038 A 
HETATM   19  C16 UNL     1      -3.947   8.343  12.989  1.00  0.00     0.010 A 
BRANCH  17  20
HETATM   20  O2  UNL     1      -0.536   7.110  13.221  1.00  0.00    -0.255 OA
BRANCH  20  21
HETATM   21  P1  UNL     1       0.616   8.127  13.680  1.00  0.00     0.396 P 
HETATM   22  O3  UNL     1       1.951   7.530  13.973  1.00  0.00    -0.631 OA
BRANCH  21  23
HETATM   23  O4  UNL     1       0.704   9.258  12.555  1.00  0.00    -0.307 OA
HETATM   24  H14 UNL     1       1.270   8.966  11.810  1.00  0.00     0.222 HD
ENDBRANCH  21  23
BRANCH  21  25
HETATM   25  O5  UNL     1       0.039   8.952  14.927  1.00  0.00    -0.307 OA
HETATM   26  H15 UNL     1       0.760   9.460  15.343  1.00  0.00     0.222 HD
ENDBRANCH  21  25
ENDBRANCH  20  21
ENDBRANCH  17  20
ENDBRANCH  13  14
ENDBRANCH   1  13
BRANCH   1  27
HETATM   27  C17 UNL     1      -7.929   7.542  15.943  1.00  0.00     0.241 C 
HETATM   28  O6  UNL     1      -8.378   7.221  17.045  1.00  0.00    -0.271 OA
HETATM   29  N2  UNL     1      -8.528   8.495  15.157  1.00  0.00    -0.345 N 
HETATM   30  H18 UNL     1      -8.196   8.659  14.212  1.00  0.00     0.163 HD
BRANCH  29  31
HETATM   31  C18 UNL     1      -9.844   9.045  15.470  1.00  0.00     0.185 C 
BRANCH  31  32
HETATM   32  C19 UNL     1      -9.966  10.464  14.887  1.00  0.00     0.197 C 
BRANCH  32  33
HETATM   33  O7  UNL     1      -8.906  11.317  15.337  1.00  0.00    -0.398 OA
HETATM   34  H22 UNL     1      -8.070  10.924  15.013  1.00  0.00     0.209 HD
ENDBRANCH  32  33
ENDBRANCH  31  32
BRANCH  31  35
HETATM   35  C20 UNL     1     -10.889   8.147  14.884  1.00  0.00     0.173 A 
HETATM   36  N3  UNL     1     -11.989   7.670  15.435  1.00  0.00    -0.325 N 
HETATM   37  C21 UNL     1     -12.548   6.966  14.396  1.00  0.00     0.108 A 
ATOM     38  H3  UNL     1     -12.335   7.793  16.387  1.00  0.00     0.169 HD
HETATM   39  N4  UNL     1     -11.855   7.016  13.247  1.00  0.00    -0.247 N 
HETATM   40  O8  UNL     1     -10.740   7.789  13.575  1.00  0.00    -0.221 OA
ATOM     41  H4  UNL     1     -12.087   6.590  12.349  1.00  0.00     0.196 HD
BRANCH  37  42
HETATM   42  C22 UNL     1     -13.848   6.258  14.515  1.00  0.00     0.117 C 
BRANCH  42  43
HETATM   43  C23 UNL     1     -14.816   7.016  13.635  1.00  0.00    -0.049 A 
HETATM   44  C24 UNL     1     -15.887   6.357  13.016  1.00  0.00     0.009 A 
HETATM   45  C25 UNL     1     -16.767   7.057  12.186  1.00  0.00     0.026 A 
HETATM   46  C26 UNL     1     -16.591   8.427  11.970  1.00  0.00     0.055 A 
HETATM   47 CL1  UNL     1     -17.719   9.228  10.935  1.00  0.00    -0.083 Cl
HETATM   48  C27 UNL     1     -15.527   9.097  12.585  1.00  0.00     0.056 A 
HETATM   49 CL2  UNL     1     -15.249  10.789  12.370  1.00  0.00    -0.083 Cl
HETATM   50  C28 UNL     1     -14.645   8.393  13.411  1.00  0.00     0.033 A 
ENDBRANCH  42  43
ENDBRANCH  37  42
ENDBRANCH  31  35
ENDBRANCH  29  31
ENDBRANCH   1  27
TORSDOF 16
ENDMDL
MODEL 5
REMARK minimizedAffinity -9.44051361
REMARK CNNscore 0.102689154
REMARK CNNaffinity 6.74753428
REMARK  16 active torsions:
REMARK  status: ('A' for Active; 'I' for Inactive)
REMARK    1  A    between atoms: C1_2  and  C2_3 
REMARK       I    between atoms: C1_2  and  N1_10 
REMARK    2  A    between atoms: C2_3  and  C3_4 
REMARK    3  A    between atoms: N1_10  and  C9_11 
REMARK    4  A    between atoms: C9_11  and  C10_12 
REMARK    5  A    between atoms: C9_11  and  C17_24 
REMARK    6  A    between atoms: C10_12  and  C11_13 
REMARK    7  A    between atoms: C14_16  and  O2_17 
REMARK    8  A    between atoms: O2_17  and  P1_18 
REMARK    9  A    between atoms: P1_18  and  O4_20 
REMARK   10  A    between atoms: P1_18  and  O5_21 
REMARK       I    between atoms: C17_24  and  N2_26 
REMARK   11  A    between atoms: N2_26  and  C18_27 
REMARK   12  A    between atoms: C18_27  and  C19_28 
REMARK   13  A    between atoms: C18_27  and  C20_30 
REMARK   14  A    between atoms: C19_28  and  O7_29 
REMARK   15  A    between atoms: C21_33  and  C22_34 
REMARK   16  A    between atoms: C22_34  and  C23_35 
ROOT
HETATM    1  C9  UNL     1      -0.770   5.986  12.071  1.00  0.00     0.180 C 
ENDROOT
BRANCH   1   2
HETATM    2  N1  UNL     1      -1.632   4.863  11.701  1.00  0.00    -0.347 N 
HETATM    3  C1  UNL     1      -1.142   3.592  11.518  1.00  0.00     0.222 C 
HETATM    4  O1  UNL     1       0.056   3.332  11.561  1.00  0.00    -0.273 OA
HETATM    5  H8  UNL     1      -2.632   5.038  11.695  1.00  0.00     0.163 HD
BRANCH   3   6
HETATM    6  C2  UNL     1      -2.207   2.541  11.253  1.00  0.00     0.141 C 
BRANCH   6   7
HETATM    7  C3  UNL     1      -3.580   3.003  11.674  1.00  0.00    -0.050 A 
HETATM    8  C4  UNL     1      -3.755   3.705  12.876  1.00  0.00     0.007 A 
HETATM    9  C5  UNL     1      -5.022   4.150  13.256  1.00  0.00     0.001 A 
HETATM   10  C6  UNL     1      -6.123   3.907  12.435  1.00  0.00     0.000 A 
HETATM   11  C7  UNL     1      -5.959   3.217  11.235  1.00  0.00     0.001 A 
HETATM   12  C8  UNL     1      -4.694   2.770  10.852  1.00  0.00     0.007 A 
ENDBRANCH   6   7
ENDBRANCH   3   6
ENDBRANCH   1   2
BRANCH   1  13
HETATM   13  C10 UNL     1      -0.265   6.743  10.827  1.00  0.00     0.073 C 
BRANCH  13  14
HETATM   14  C11 UNL     1       1.242   6.830  10.711  1.00  0.00    -0.056 A 
HETATM   15  C12 UNL     1       1.973   5.758  10.178  1.00  0.00     0.010 A 
HETATM   16  C13 UNL     1       3.363   5.835  10.050  1.00  0.00     0.038 A 
HETATM   17  C14 UNL     1       4.031   6.987  10.448  1.00  0.00     0.081 A 
HETATM   18  C15 UNL     1       3.319   8.056  10.988  1.00  0.00     0.038 A 
HETATM   19  C16 UNL     1       1.933   7.972  11.142  1.00  0.00     0.010 A 
BRANCH  17  20
HETATM   20  O2  UNL     1       5.377   7.154  10.315  1.00  0.00    -0.255 OA
BRANCH  20  21
HETATM   21  P1  UNL     1       6.480   6.460  11.250  1.00  0.00     0.396 P 
HETATM   22  O3  UNL     1       7.762   7.202  11.428  1.00  0.00    -0.631 OA
BRANCH  21  23
HETATM   23  O4  UNL     1       5.770   6.154  12.649  1.00  0.00    -0.307 OA
HETATM   24  H14 UNL     1       5.787   6.944  13.228  1.00  0.00     0.222 HD
ENDBRANCH  21  23
BRANCH  21  25
HETATM   25  O5  UNL     1       6.715   4.982  10.675  1.00  0.00    -0.307 OA
HETATM   26  H15 UNL     1       7.495   4.586  11.105  1.00  0.00     0.222 HD
ENDBRANCH  21  25
ENDBRANCH  20  21
ENDBRANCH  17  20
ENDBRANCH  13  14
ENDBRANCH   1  13
BRANCH   1  27
HETATM   27  C17 UNL     1      -1.621   6.909  12.967  1.00  0.00     0.241 C 
HETATM   28  O6  UNL     1      -2.281   7.841  12.505  1.00  0.00    -0.271 OA
HETATM   29  N2  UNL     1      -1.596   6.623  14.310  1.00  0.00    -0.345 N 
HETATM   30  H18 UNL     1      -0.960   5.918  14.670  1.00  0.00     0.163 HD
BRANCH  29  31
HETATM   31  C18 UNL     1      -2.175   7.521  15.306  1.00  0.00     0.185 C 
BRANCH  31  32
HETATM   32  C19 UNL     1      -1.890   8.982  14.916  1.00  0.00     0.197 C 
BRANCH  32  33
HETATM   33  O7  UNL     1      -0.484   9.252  14.856  1.00  0.00    -0.398 OA
HETATM   34  H22 UNL     1      -0.114   8.672  14.160  1.00  0.00     0.209 HD
ENDBRANCH  32  33
ENDBRANCH  31  32
BRANCH  31  35
HETATM   35  C20 UNL     1      -3.651   7.274  15.370  1.00  0.00     0.173 A 
HETATM   36  N3  UNL     1      -4.312   6.297  15.960  1.00  0.00    -0.325 N 
HETATM   37  C21 UNL     1      -5.618   6.647  15.714  1.00  0.00     0.108 A 
ATOM     38  H3  UNL     1      -3.948   5.491  16.467  1.00  0.00     0.169 HD
HETATM   39  N4  UNL     1      -5.774   7.792  15.030  1.00  0.00    -0.247 N 
HETATM   40  O8  UNL     1      -4.463   8.204  14.785  1.00  0.00    -0.221 OA
ATOM     41  H4  UNL     1      -6.643   8.251  14.756  1.00  0.00     0.196 HD
BRANCH  37  42
HETATM   42  C22 UNL     1      -6.769   5.855  16.219  1.00  0.00     0.117 C 
BRANCH  42  43
HETATM   43  C23 UNL     1      -7.984   6.374  15.486  1.00  0.00    -0.049 A 
HETATM   44  C24 UNL     1      -8.288   5.923  14.193  1.00  0.00     0.009 A 
HETATM   45  C25 UNL     1      -9.401   6.422  13.511  1.00  0.00     0.026 A 
HETATM   46  C26 UNL     1     -10.228   7.373  14.115  1.00  0.00     0.055 A 
HETATM   47 CL1  UNL     1     -11.588   7.942  13.213  1.00  0.00    -0.083 Cl
HETATM   48  C27 UNL     1      -9.939   7.828  15.406  1.00  0.00     0.056 A 
HETATM   49 CL2  UNL     1     -10.918   8.997  16.219  1.00  0.00    -0.083 Cl
HETATM   50  C28 UNL     1      -8.821   7.331  16.085  1.00  0.00     0.033 A 
ENDBRANCH  42  43
ENDBRANCH  37  42
ENDBRANCH  31  35
ENDBRANCH  29  31
ENDBRANCH   1  27
TORSDOF 16
ENDMDL
MODEL 6
REMARK minimizedAffinity -9.0514164
REMARK CNNscore 0.096884571
REMARK CNNaffinity 5.78121519
REMARK  16 active torsions:
REMARK  status: ('A' for Active; 'I' for Inactive)
REMARK    1  A    between atoms: C1_2  and  C2_3 
REMARK       I    between atoms: C1_2  and  N1_10 
REMARK    2  A    between atoms: C2_3  and  C3_4 
REMARK    3  A    between atoms: N1_10  and  C9_11 
REMARK    4  A    between atoms: C9_11  and  C10_12 
REMARK    5  A    between atoms: C9_11  and  C17_24 
REMARK    6  A    between atoms: C10_12  and  C11_13 
REMARK    7  A    between atoms: C14_16  and  O2_17 
REMARK    8  A    between atoms: O2_17  and  P1_18 
REMARK    9  A    between atoms: P1_18  and  O4_20 
REMARK   10  A    between atoms: P1_18  and  O5_21 
REMARK       I    between atoms: C17_24  and  N2_26 
REMARK   11  A    between atoms: N2_26  and  C18_27 
REMARK   12  A    between atoms: C18_27  and  C19_28 
REMARK   13  A    between atoms: C18_27  and  C20_30 
REMARK   14  A    between atoms: C19_28  and  O7_29 
REMARK   15  A    between atoms: C21_33  and  C22_34 
REMARK   16  A    between atoms: C22_34  and  C23_35 
ROOT
HETATM    1  C9  UNL     1      -6.805   7.132  15.435  1.00  0.00     0.180 C 
ENDROOT
BRANCH   1   2
HETATM    2  N1  UNL     1      -7.075   5.728  15.126  1.00  0.00    -0.347 N 
HETATM    3  C1  UNL     1      -7.730   5.341  13.982  1.00  0.00     0.222 C 
HETATM    4  O1  UNL     1      -8.213   6.146  13.191  1.00  0.00    -0.273 OA
HETATM    5  H8  UNL     1      -6.656   5.037  15.741  1.00  0.00     0.163 HD
BRANCH   3   6
HETATM    6  C2  UNL     1      -7.812   3.836  13.783  1.00  0.00     0.141 C 
BRANCH   6   7
HETATM    7  C3  UNL     1      -6.718   3.323  12.879  1.00  0.00    -0.050 A 
HETATM    8  C4  UNL     1      -6.874   2.108  12.195  1.00  0.00     0.007 A 
HETATM    9  C5  UNL     1      -5.871   1.642  11.343  1.00  0.00     0.001 A 
HETATM   10  C6  UNL     1      -4.708   2.389  11.161  1.00  0.00     0.000 A 
HETATM   11  C7  UNL     1      -4.546   3.601  11.830  1.00  0.00     0.001 A 
HETATM   12  C8  UNL     1      -5.546   4.069  12.683  1.00  0.00     0.007 A 
ENDBRANCH   6   7
ENDBRANCH   3   6
ENDBRANCH   1   2
BRANCH   1  13
HETATM   13  C10 UNL     1      -6.263   7.886  14.205  1.00  0.00     0.073 C 
BRANCH  13  14
HETATM   14  C11 UNL     1      -4.788   7.678  13.935  1.00  0.00    -0.056 A 
HETATM   15  C12 UNL     1      -4.114   8.499  13.020  1.00  0.00     0.010 A 
HETATM   16  C13 UNL     1      -2.748   8.326  12.776  1.00  0.00     0.038 A 
HETATM   17  C14 UNL     1      -2.046   7.335  13.451  1.00  0.00     0.081 A 
HETATM   18  C15 UNL     1      -2.705   6.506  14.357  1.00  0.00     0.038 A 
HETATM   19  C16 UNL     1      -4.075   6.658  14.582  1.00  0.00     0.010 A 
BRANCH  17  20
HETATM   20  O2  UNL     1      -0.707   7.133  13.300  1.00  0.00    -0.255 OA
BRANCH  20  21
HETATM   21  P1  UNL     1       0.113   5.918  13.952  1.00  0.00     0.396 P 
HETATM   22  O3  UNL     1      -0.052   4.584  13.307  1.00  0.00    -0.631 OA
BRANCH  21  23
HETATM   23  O4  UNL     1       1.645   6.371  13.999  1.00  0.00    -0.307 OA
HETATM   24  H14 UNL     1       2.086   6.199  13.141  1.00  0.00     0.222 HD
ENDBRANCH  21  23
BRANCH  21  25
HETATM   25  O5  UNL     1      -0.264   5.885  15.510  1.00  0.00    -0.307 OA
HETATM   26  H15 UNL     1       0.078   5.063  15.909  1.00  0.00     0.222 HD
ENDBRANCH  21  25
ENDBRANCH  20  21
ENDBRANCH  17  20
ENDBRANCH  13  14
ENDBRANCH   1  13
BRANCH   1  27
HETATM   27  C17 UNL     1      -8.142   7.738  15.906  1.00  0.00     0.241 C 
HETATM   28  O6  UNL     1      -8.667   7.412  16.972  1.00  0.00    -0.271 OA
HETATM   29  N2  UNL     1      -8.707   8.664  15.064  1.00  0.00    -0.345 N 
HETATM   30  H18 UNL     1      -8.305   8.831  14.146  1.00  0.00     0.163 HD
BRANCH  29  31
HETATM   31  C18 UNL     1     -10.061   9.171  15.263  1.00  0.00     0.185 C 
BRANCH  31  32
HETATM   32  C19 UNL     1     -10.212  10.536  14.568  1.00  0.00     0.197 C 
BRANCH  32  33
HETATM   33  O7  UNL     1     -11.368  10.576  13.721  1.00  0.00    -0.398 OA
HETATM   34  H22 UNL     1     -12.146  10.439  14.298  1.00  0.00     0.209 HD
ENDBRANCH  32  33
ENDBRANCH  31  32
BRANCH  31  35
HETATM   35  C20 UNL     1     -11.031   8.183  14.693  1.00  0.00     0.173 A 
HETATM   36  N3  UNL     1     -12.086   7.624  15.255  1.00  0.00    -0.325 N 
HETATM   37  C21 UNL     1     -12.588   6.864  14.227  1.00  0.00     0.108 A 
ATOM     38  H3  UNL     1     -12.437   7.730  16.207  1.00  0.00     0.169 HD
HETATM   39  N4  UNL     1     -11.906   6.956  13.074  1.00  0.00    -0.247 N 
HETATM   40  O8  UNL     1     -10.857   7.822  13.387  1.00  0.00    -0.221 OA
ATOM     41  H4  UNL     1     -12.106   6.501  12.183  1.00  0.00     0.196 HD
BRANCH  37  42
HETATM   42  C22 UNL     1     -13.826   6.053  14.360  1.00  0.00     0.117 C 
BRANCH  42  43
HETATM   43  C23 UNL     1     -14.875   6.756  13.531  1.00  0.00    -0.049 A 
HETATM   44  C24 UNL     1     -14.596   7.986  12.916  1.00  0.00     0.009 A 
HETATM   45  C25 UNL     1     -15.576   8.643  12.168  1.00  0.00     0.026 A 
HETATM   46  C26 UNL     1     -16.846   8.077  12.019  1.00  0.00     0.055 A 
HETATM   47 CL1  UNL     1     -18.006   8.946  11.078  1.00  0.00    -0.083 Cl
HETATM   48  C27 UNL     1     -17.135   6.849  12.624  1.00  0.00     0.056 A 
HETATM   49 CL2  UNL     1     -18.679   6.086  12.480  1.00  0.00    -0.083 Cl
HETATM   50  C28 UNL     1     -16.155   6.196  13.377  1.00  0.00     0.033 A 
ENDBRANCH  42  43
ENDBRANCH  37  42
ENDBRANCH  31  35
ENDBRANCH  29  31
ENDBRANCH   1  27
TORSDOF 16
ENDMDL
MODEL 7
REMARK minimizedAffinity -9.66724205
REMARK CNNscore 0.0954277143
REMARK CNNaffinity 6.97817612
REMARK  16 active torsions:
REMARK  status: ('A' for Active; 'I' for Inactive)
REMARK    1  A    between atoms: C1_2  and  C2_3 
REMARK       I    between atoms: C1_2  and  N1_10 
REMARK    2  A    between atoms: C2_3  and  C3_4 
REMARK    3  A    between atoms: N1_10  and  C9_11 
REMARK    4  A    between atoms: C9_11  and  C10_12 
REMARK    5  A    between atoms: C9_11  and  C17_24 
REMARK    6  A    between atoms: C10_12  and  C11_13 
REMARK    7  A    between atoms: C14_16  and  O2_17 
REMARK    8  A    between atoms: O2_17  and  P1_18 
REMARK    9  A    between atoms: P1_18  and  O4_20 
REMARK   10  A    between atoms: P1_18  and  O5_21 
REMARK       I    between atoms: C17_24  and  N2_26 
REMARK   11  A    between atoms: N2_26  and  C18_27 
REMARK   12  A    between atoms: C18_27  and  C19_28 
REMARK   13  A    between atoms: C18_27  and  C20_30 
REMARK   14  A    between atoms: C19_28  and  O7_29 
REMARK   15  A    between atoms: C21_33  and  C22_34 
REMARK   16  A    between atoms: C22_34  and  C23_35 
ROOT
HETATM    1  C9  UNL     1      -5.507   6.138  14.239  1.00  0.00     0.180 C 
ENDROOT
BRANCH   1   2
HETATM    2  N1  UNL     1      -6.661   6.799  14.848  1.00  0.00    -0.347 N 
HETATM    3  C1  UNL     1      -7.558   6.127  15.644  1.00  0.00     0.222 C 
HETATM    4  O1  UNL     1      -7.504   4.914  15.822  1.00  0.00    -0.273 OA
HETATM    5  H8  UNL     1      -6.712   7.809  14.751  1.00  0.00     0.163 HD
BRANCH   3   6
HETATM    6  C2  UNL     1      -8.620   7.010  16.278  1.00  0.00     0.141 C 
BRANCH   6   7
HETATM    7  C3  UNL     1      -9.573   7.577  15.255  1.00  0.00    -0.050 A 
HETATM    8  C4  UNL     1      -9.934   8.932  15.295  1.00  0.00     0.007 A 
HETATM    9  C5  UNL     1     -10.799   9.462  14.337  1.00  0.00     0.001 A 
HETATM   10  C6  UNL     1     -11.305   8.646  13.325  1.00  0.00     0.000 A 
HETATM   11  C7  UNL     1     -10.946   7.300  13.271  1.00  0.00     0.001 A 
HETATM   12  C8  UNL     1     -10.082   6.767  14.228  1.00  0.00     0.007 A 
ENDBRANCH   6   7
ENDBRANCH   3   6
ENDBRANCH   1   2
BRANCH   1  13
HETATM   13  C10 UNL     1      -5.881   5.469  12.902  1.00  0.00     0.073 C 
BRANCH  13  14
HETATM   14  C11 UNL     1      -4.984   4.318  12.499  1.00  0.00    -0.056 A 
HETATM   15  C12 UNL     1      -3.632   4.313  12.871  1.00  0.00     0.010 A 
HETATM   16  C13 UNL     1      -2.798   3.247  12.518  1.00  0.00     0.038 A 
HETATM   17  C14 UNL     1      -3.313   2.176  11.798  1.00  0.00     0.081 A 
HETATM   18  C15 UNL     1      -4.653   2.172  11.414  1.00  0.00     0.038 A 
HETATM   19  C16 UNL     1      -5.482   3.248  11.741  1.00  0.00     0.010 A 
BRANCH  17  20
HETATM   20  O2  UNL     1      -2.577   1.083  11.454  1.00  0.00    -0.255 OA
BRANCH  20  21
HETATM   21  P1  UNL     1      -1.100   1.135  10.830  1.00  0.00     0.396 P 
HETATM   22  O3  UNL     1      -0.217  -0.032  11.115  1.00  0.00    -0.631 OA
BRANCH  21  23
HETATM   23  O4  UNL     1      -1.275   1.379   9.260  1.00  0.00    -0.307 OA
HETATM   24  H14 UNL     1      -1.435   0.534   8.792  1.00  0.00     0.222 HD
ENDBRANCH  21  23
BRANCH  21  25
HETATM   25  O5  UNL     1      -0.443   2.518  11.303  1.00  0.00    -0.307 OA
HETATM   26  H15 UNL     1       0.508   2.516  11.089  1.00  0.00     0.222 HD
ENDBRANCH  21  25
ENDBRANCH  20  21
ENDBRANCH  17  20
ENDBRANCH  13  14
ENDBRANCH   1  13
BRANCH   1  27
HETATM   27  C17 UNL     1      -4.441   7.231  14.028  1.00  0.00     0.241 C 
HETATM   28  O6  UNL     1      -4.532   8.067  13.127  1.00  0.00    -0.271 OA
HETATM   29  N2  UNL     1      -3.387   7.214  14.907  1.00  0.00    -0.345 N 
HETATM   30  H18 UNL     1      -3.286   6.450  15.569  1.00  0.00     0.163 HD
BRANCH  29  31
HETATM   31  C18 UNL     1      -2.201   8.045  14.715  1.00  0.00     0.185 C 
BRANCH  31  32
HETATM   32  C19 UNL     1      -1.818   8.718  16.045  1.00  0.00     0.197 C 
BRANCH  32  33
HETATM   33  O7  UNL     1      -2.839   8.555  17.038  1.00  0.00    -0.398 OA
HETATM   34  H22 UNL     1      -2.928   7.594  17.196  1.00  0.00     0.209 HD
ENDBRANCH  32  33
ENDBRANCH  31  32
BRANCH  31  35
HETATM   35  C20 UNL     1      -1.084   7.177  14.226  1.00  0.00     0.173 A 
HETATM   36  N3  UNL     1      -1.002   6.458  13.123  1.00  0.00    -0.325 N 
HETATM   37  C21 UNL     1       0.267   5.938  13.214  1.00  0.00     0.108 A 
ATOM     38  H3  UNL     1      -1.700   6.322  12.392  1.00  0.00     0.169 HD
HETATM   39  N4  UNL     1       0.958   6.326  14.298  1.00  0.00    -0.247 N 
HETATM   40  O8  UNL     1       0.053   7.139  14.983  1.00  0.00    -0.221 OA
ATOM     41  H4  UNL     1       1.914   6.085  14.559  1.00  0.00     0.196 HD
BRANCH  37  42
HETATM   42  C22 UNL     1       0.853   5.066  12.164  1.00  0.00     0.117 C 
BRANCH  42  43
HETATM   43  C23 UNL     1       1.486   5.998  11.156  1.00  0.00    -0.049 A 
HETATM   44  C24 UNL     1       2.859   6.280  11.205  1.00  0.00     0.009 A 
HETATM   45  C25 UNL     1       3.436   7.159  10.285  1.00  0.00     0.026 A 
HETATM   46  C26 UNL     1       2.650   7.762   9.299  1.00  0.00     0.055 A 
HETATM   47 CL1  UNL     1       3.432   8.835   8.194  1.00  0.00    -0.083 Cl
HETATM   48  C27 UNL     1       1.279   7.486   9.237  1.00  0.00     0.056 A 
HETATM   49 CL2  UNL     1       0.245   8.189   8.044  1.00  0.00    -0.083 Cl
HETATM   50  C28 UNL     1       0.703   6.610  10.163  1.00  0.00     0.033 A 
ENDBRANCH  42  43
ENDBRANCH  37  42
ENDBRANCH  31  35
ENDBRANCH  29  31
ENDBRANCH   1  27
TORSDOF 16
ENDMDL
MODEL 8
REMARK minimizedAffinity -9.26079369
REMARK CNNscore 0.0926992148
REMARK CNNaffinity 5.5149045
REMARK  16 active torsions:
REMARK  status: ('A' for Active; 'I' for Inactive)
REMARK    1  A    between atoms: C1_2  and  C2_3 
REMARK       I    between atoms: C1_2  and  N1_10 
REMARK    2  A    between atoms: C2_3  and  C3_4 
REMARK    3  A    between atoms: N1_10  and  C9_11 
REMARK    4  A    between atoms: C9_11  and  C10_12 
REMARK    5  A    between atoms: C9_11  and  C17_24 
REMARK    6  A    between atoms: C10_12  and  C11_13 
REMARK    7  A    between atoms: C14_16  and  O2_17 
REMARK    8  A    between atoms: O2_17  and  P1_18 
REMARK    9  A    between atoms: P1_18  and  O4_20 
REMARK   10  A    between atoms: P1_18  and  O5_21 
REMARK       I    between atoms: C17_24  and  N2_26 
REMARK   11  A    between atoms: N2_26  and  C18_27 
REMARK   12  A    between atoms: C18_27  and  C19_28 
REMARK   13  A    between atoms: C18_27  and  C20_30 
REMARK   14  A    between atoms: C19_28  and  O7_29 
REMARK   15  A    between atoms: C21_33  and  C22_34 
REMARK   16  A    between atoms: C22_34  and  C23_35 
ROOT
HETATM    1  C9  UNL     1      -1.141   8.299  13.531  1.00  0.00     0.180 C 
ENDROOT
BRANCH   1   2
HETATM    2  N1  UNL     1      -2.493   7.779  13.742  1.00  0.00    -0.347 N 
HETATM    3  C1  UNL     1      -2.730   6.593  14.393  1.00  0.00     0.222 C 
HETATM    4  O1  UNL     1      -1.827   5.847  14.759  1.00  0.00    -0.273 OA
HETATM    5  H8  UNL     1      -3.262   8.391  13.485  1.00  0.00     0.163 HD
BRANCH   3   6
HETATM    6  C2  UNL     1      -4.201   6.282  14.617  1.00  0.00     0.141 C 
BRANCH   6   7
HETATM    7  C3  UNL     1      -4.736   5.302  13.603  1.00  0.00    -0.050 A 
HETATM    8  C4  UNL     1      -3.860   4.619  12.745  1.00  0.00     0.007 A 
HETATM    9  C5  UNL     1      -4.352   3.697  11.820  1.00  0.00     0.001 A 
HETATM   10  C6  UNL     1      -5.722   3.442  11.749  1.00  0.00     0.000 A 
HETATM   11  C7  UNL     1      -6.600   4.110  12.601  1.00  0.00     0.001 A 
HETATM   12  C8  UNL     1      -6.111   5.033  13.527  1.00  0.00     0.007 A 
ENDBRANCH   6   7
ENDBRANCH   3   6
ENDBRANCH   1   2
BRANCH   1  13
HETATM   13  C10 UNL     1      -0.966   8.851  12.103  1.00  0.00     0.073 C 
BRANCH  13  14
HETATM   14  C11 UNL     1       0.042   8.104  11.256  1.00  0.00    -0.056 A 
HETATM   15  C12 UNL     1       0.090   8.310   9.870  1.00  0.00     0.010 A 
HETATM   16  C13 UNL     1       1.029   7.638   9.080  1.00  0.00     0.038 A 
HETATM   17  C14 UNL     1       1.929   6.761   9.673  1.00  0.00     0.081 A 
HETATM   18  C15 UNL     1       1.886   6.540  11.049  1.00  0.00     0.038 A 
HETATM   19  C16 UNL     1       0.932   7.188  11.836  1.00  0.00     0.010 A 
BRANCH  17  20
HETATM   20  O2  UNL     1       2.899   6.103   8.978  1.00  0.00    -0.255 OA
BRANCH  20  21
HETATM   21  P1  UNL     1       3.450   4.641   9.341  1.00  0.00     0.396 P 
HETATM   22  O3  UNL     1       2.575   3.795  10.202  1.00  0.00    -0.631 OA
BRANCH  21  23
HETATM   23  O4  UNL     1       3.795   3.923   7.955  1.00  0.00    -0.307 OA
HETATM   24  H14 UNL     1       2.994   3.516   7.565  1.00  0.00     0.222 HD
ENDBRANCH  21  23
BRANCH  21  25
HETATM   25  O5  UNL     1       4.909   4.838   9.976  1.00  0.00    -0.307 OA
HETATM   26  H15 UNL     1       5.211   3.996  10.365  1.00  0.00     0.222 HD
ENDBRANCH  21  25
ENDBRANCH  20  21
ENDBRANCH  17  20
ENDBRANCH  13  14
ENDBRANCH   1  13
BRANCH   1  27
HETATM   27  C17 UNL     1      -0.934   9.409  14.580  1.00  0.00     0.241 C 
HETATM   28  O6  UNL     1      -1.607   9.469  15.611  1.00  0.00    -0.271 OA
HETATM   29  N2  UNL     1       0.048  10.325  14.292  1.00  0.00    -0.345 N 
HETATM   30  H18 UNL     1       0.509  10.311  13.387  1.00  0.00     0.163 HD
BRANCH  29  31
HETATM   31  C18 UNL     1       0.225  11.545  15.074  1.00  0.00     0.185 C 
BRANCH  31  32
HETATM   32  C19 UNL     1      -1.054  12.400  15.001  1.00  0.00     0.197 C 
BRANCH  32  33
HETATM   33  O7  UNL     1      -1.472  12.616  13.647  1.00  0.00    -0.398 OA
HETATM   34  H22 UNL     1      -1.670  11.736  13.268  1.00  0.00     0.209 HD
ENDBRANCH  32  33
ENDBRANCH  31  32
BRANCH  31  35
HETATM   35  C20 UNL     1       0.520  11.166  16.492  1.00  0.00     0.173 A 
HETATM   36  N3  UNL     1      -0.141  11.464  17.594  1.00  0.00    -0.325 N 
HETATM   37  C21 UNL     1       0.583  10.793  18.551  1.00  0.00     0.108 A 
ATOM     38  H3  UNL     1      -0.973  12.043  17.707  1.00  0.00     0.169 HD
HETATM   39  N4  UNL     1       1.625  10.091  18.079  1.00  0.00    -0.247 N 
HETATM   40  O8  UNL     1       1.595  10.351  16.708  1.00  0.00    -0.221 OA
ATOM     41  H4  UNL     1       2.281   9.507  18.597  1.00  0.00     0.196 HD
BRANCH  37  42
HETATM   42  C22 UNL     1       0.204  10.793  19.987  1.00  0.00     0.117 C 
BRANCH  42  43
HETATM   43  C23 UNL     1       1.439  11.230  20.742  1.00  0.00    -0.049 A 
HETATM   44  C24 UNL     1       1.848  12.571  20.730  1.00  0.00     0.009 A 
HETATM   45  C25 UNL     1       3.002  12.967  21.412  1.00  0.00     0.026 A 
HETATM   46  C26 UNL     1       3.758  12.029  22.119  1.00  0.00     0.055 A 
HETATM   47 CL1  UNL     1       5.171  12.590  22.940  1.00  0.00    -0.083 Cl
HETATM   48  C27 UNL     1       3.358  10.688  22.142  1.00  0.00     0.056 A 
HETATM   49 CL2  UNL     1       4.238   9.472  23.000  1.00  0.00    -0.083 Cl
HETATM   50  C28 UNL     1       2.206  10.293  21.455  1.00  0.00     0.033 A 
ENDBRANCH  42  43
ENDBRANCH  37  42
ENDBRANCH  31  35
ENDBRANCH  29  31
ENDBRANCH   1  27
TORSDOF 16
ENDMDL
MODEL 9
REMARK minimizedAffinity -8.97492218
REMARK CNNscore 0.0892827138
REMARK CNNaffinity 6.47086
REMARK  16 active torsions:
REMARK  status: ('A' for Active; 'I' for Inactive)
REMARK    1  A    between atoms: C1_2  and  C2_3 
REMARK       I    between atoms: C1_2  and  N1_10 
REMARK    2  A    between atoms: C2_3  and  C3_4 
REMARK    3  A    between atoms: N1_10  and  C9_11 
REMARK    4  A    between atoms: C9_11  and  C10_12 
REMARK    5  A    between atoms: C9_11  and  C17_24 
REMARK    6  A    between atoms: C10_12  and  C11_13 
REMARK    7  A    between atoms: C14_16  and  O2_17 
REMARK    8  A    between atoms: O2_17  and  P1_18 
REMARK    9  A    between atoms: P1_18  and  O4_20 
REMARK   10  A    between atoms: P1_18  and  O5_21 
REMARK       I    between atoms: C17_24  and  N2_26 
REMARK   11  A    between atoms: N2_26  and  C18_27 
REMARK   12  A    between atoms: C18_27  and  C19_28 
REMARK   13  A    between atoms: C18_27  and  C20_30 
REMARK   14  A    between atoms: C19_28  and  O7_29 
REMARK   15  A    between atoms: C21_33  and  C22_34 
REMARK   16  A    between atoms: C22_34  and  C23_35 
ROOT
HETATM    1  C9  UNL     1       0.926   7.910  14.598  1.00  0.00     0.180 C 
ENDROOT
BRANCH   1   2
HETATM    2  N1  UNL     1       0.570   6.520  14.312  1.00  0.00    -0.347 N 
HETATM    3  C1  UNL     1      -0.536   6.183  13.570  1.00  0.00     0.222 C 
HETATM    4  O1  UNL     1      -1.348   7.015  13.177  1.00  0.00    -0.273 OA
HETATM    5  H8  UNL     1       1.242   5.811  14.591  1.00  0.00     0.163 HD
BRANCH   3   6
HETATM    6  C2  UNL     1      -0.671   4.697  13.283  1.00  0.00     0.141 C 
BRANCH   6   7
HETATM    7  C3  UNL     1      -1.962   4.370  12.574  1.00  0.00    -0.050 A 
HETATM    8  C4  UNL     1      -1.959   4.031  11.212  1.00  0.00     0.007 A 
HETATM    9  C5  UNL     1      -3.151   3.709  10.561  1.00  0.00     0.001 A 
HETATM   10  C6  UNL     1      -4.354   3.713  11.265  1.00  0.00     0.000 A 
HETATM   11  C7  UNL     1      -4.368   4.041  12.620  1.00  0.00     0.001 A 
HETATM   12  C8  UNL     1      -3.178   4.364  13.274  1.00  0.00     0.007 A 
ENDBRANCH   6   7
ENDBRANCH   3   6
ENDBRANCH   1   2
BRANCH   1  13
HETATM   13  C10 UNL     1       1.113   8.722  13.302  1.00  0.00     0.073 C 
BRANCH  13  14
HETATM   14  C11 UNL     1       1.839   7.988  12.196  1.00  0.00    -0.056 A 
HETATM   15  C12 UNL     1       3.134   7.492  12.408  1.00  0.00     0.010 A 
HETATM   16  C13 UNL     1       3.807   6.797  11.398  1.00  0.00     0.038 A 
HETATM   17  C14 UNL     1       3.187   6.587  10.173  1.00  0.00     0.081 A 
HETATM   18  C15 UNL     1       1.904   7.081   9.945  1.00  0.00     0.038 A 
HETATM   19  C16 UNL     1       1.240   7.799  10.942  1.00  0.00     0.010 A 
BRANCH  17  20
HETATM   20  O2  UNL     1       3.760   5.883   9.156  1.00  0.00    -0.255 OA
BRANCH  20  21
HETATM   21  P1  UNL     1       3.843   4.282   9.086  1.00  0.00     0.396 P 
HETATM   22  O3  UNL     1       2.876   3.529   9.935  1.00  0.00    -0.631 OA
BRANCH  21  23
HETATM   23  O4  UNL     1       3.717   3.884   7.543  1.00  0.00    -0.307 OA
HETATM   24  H14 UNL     1       2.777   3.840   7.270  1.00  0.00     0.222 HD
ENDBRANCH  21  23
BRANCH  21  25
HETATM   25  O5  UNL     1       5.362   3.880   9.402  1.00  0.00    -0.307 OA
HETATM   26  H15 UNL     1       5.422   2.916   9.536  1.00  0.00     0.222 HD
ENDBRANCH  21  25
ENDBRANCH  20  21
ENDBRANCH  17  20
ENDBRANCH  13  14
ENDBRANCH   1  13
BRANCH   1  27
HETATM   27  C17 UNL     1      -0.225   8.486  15.447  1.00  0.00     0.241 C 
HETATM   28  O6  UNL     1      -0.474   8.069  16.579  1.00  0.00    -0.271 OA
HETATM   29  N2  UNL     1      -0.951   9.494  14.861  1.00  0.00    -0.345 N 
HETATM   30  H18 UNL     1      -0.789   9.741  13.890  1.00  0.00     0.163 HD
BRANCH  29  31
HETATM   31  C18 UNL     1      -2.191   9.998  15.445  1.00  0.00     0.185 C 
BRANCH  31  32
HETATM   32  C19 UNL     1      -2.542  11.361  14.820  1.00  0.00     0.197 C 
BRANCH  32  33
HETATM   33  O7  UNL     1      -1.511  11.824  13.939  1.00  0.00    -0.398 OA
HETATM   34  H22 UNL     1      -1.439  11.166  13.218  1.00  0.00     0.209 HD
ENDBRANCH  32  33
ENDBRANCH  31  32
BRANCH  31  35
HETATM   35  C20 UNL     1      -3.280   9.005  15.183  1.00  0.00     0.173 A 
HETATM   36  N3  UNL     1      -3.591   7.907  15.845  1.00  0.00    -0.325 N 
HETATM   37  C21 UNL     1      -4.697   7.464  15.161  1.00  0.00     0.108 A 
ATOM     38  H3  UNL     1      -3.129   7.495  16.655  1.00  0.00     0.169 HD
HETATM   39  N4  UNL     1      -5.080   8.250  14.141  1.00  0.00    -0.247 N 
HETATM   40  O8  UNL     1      -4.127   9.269  14.143  1.00  0.00    -0.221 OA
ATOM     41  H4  UNL     1      -5.877   8.130  13.515  1.00  0.00     0.196 HD
BRANCH  37  42
HETATM   42  C22 UNL     1      -5.450   6.246  15.557  1.00  0.00     0.117 C 
BRANCH  42  43
HETATM   43  C23 UNL     1      -6.855   6.437  15.034  1.00  0.00    -0.049 A 
HETATM   44  C24 UNL     1      -7.838   7.043  15.828  1.00  0.00     0.009 A 
HETATM   45  C25 UNL     1      -9.142   7.198  15.349  1.00  0.00     0.026 A 
HETATM   46  C26 UNL     1      -9.477   6.755  14.067  1.00  0.00     0.055 A 
HETATM   47 CL1  UNL     1     -11.107   6.981  13.539  1.00  0.00    -0.083 Cl
HETATM   48  C27 UNL     1      -8.504   6.151  13.262  1.00  0.00     0.056 A 
HETATM   49 CL2  UNL     1      -8.842   5.583  11.665  1.00  0.00    -0.083 Cl
HETATM   50  C28 UNL     1      -7.201   5.992  13.747  1.00  0.00     0.033 A 
ENDBRANCH  42  43
ENDBRANCH  37  42
ENDBRANCH  31  35
ENDBRANCH  29  31
ENDBRANCH   1  27
TORSDOF 16
ENDMDL
