MODEL 1
REMARK minimizedAffinity -8.64361286
REMARK  8 active torsions:
REMARK  status: ('A' for Active; 'I' for Inactive)
REMARK    1  A    between atoms: O1_2  and  C2_3 
REMARK    2  A    between atoms: C5_6  and  N1_7 
REMARK    3  A    between atoms: N1_7  and  C6_8 
REMARK    4  A    between atoms: C16_24  and  O4_25 
REMARK    5  A    between atoms: O4_25  and  C17_26 
REMARK    6  A    between atoms: C17_26  and  C18_27 
REMARK    7  A    between atoms: C18_27  and  C19_28 
REMARK    8  A    between atoms: C19_28  and  N4_29 
ROOT
HETATM    1  C2  UNL     1      -0.718  52.003 -23.315  1.00  0.00     0.102 A 
HETATM    2  C3  UNL     1      -1.497  52.005 -24.471  1.00  0.00     0.057 A 
HETATM    3  C4  UNL     1      -1.137  52.796 -25.592  1.00  0.00     0.038 A 
HETATM    4  C5  UNL     1      -1.833  52.819 -26.814  1.00  0.00     0.119 A 
HETATM    5  N2  UNL     1      -1.455  53.595 -27.845  1.00  0.00    -0.338 N 
ATOM      6  H2  UNL     1      -1.986  53.627 -28.716  1.00  0.00     0.168 HD
HETATM    7  C13 UNL     1      -0.351  54.321 -27.669  1.00  0.00     0.182 A 
HETATM    8  N3  UNL     1       0.399  54.367 -26.560  1.00  0.00    -0.351 N 
ATOM      9  H3  UNL     1       1.229  54.956 -26.500  1.00  0.00     0.166 HD
HETATM   10  C14 UNL     1       0.005  53.603 -25.536  1.00  0.00     0.050 A 
HETATM   11  C15 UNL     1       0.766  53.601 -24.375  1.00  0.00     0.070 A 
HETATM   12  C16 UNL     1       0.435  52.799 -23.277  1.00  0.00     0.104 A 
ENDROOT
BRANCH   4  13
HETATM   13  N1  UNL     1      -3.022  52.057 -26.934  1.00  0.00    -0.339 N 
HETATM   14  H5  UNL     1      -3.321  52.086 -27.903  1.00  0.00     0.167 HD
BRANCH  13  15
HETATM   15  C6  UNL     1      -3.289  50.823 -26.312  1.00  0.00     0.070 A 
HETATM   16  C7  UNL     1      -2.839  49.634 -26.911  1.00  0.00     0.032 A 
HETATM   17  C8  UNL     1      -3.175  48.371 -26.386  1.00  0.00     0.005 A 
HETATM   18  C9  UNL     1      -4.001  48.269 -25.267  1.00  0.00     0.040 A 
HETATM   19  C10 UNL     1      -4.456  49.439 -24.702  1.00  0.00     0.107 A 
HETATM   20  C11 UNL     1      -4.116  50.678 -25.203  1.00  0.00     0.131 A 
HETATM   21  O3  UNL     1      -5.300  49.512 -23.640  1.00  0.00    -0.323 OA
HETATM   22  O2  UNL     1      -4.734  51.680 -24.513  1.00  0.00    -0.321 OA
HETATM   23  C12 UNL     1      -5.447  50.937 -23.513  1.00  0.00     0.352 A 
ENDBRANCH  13  15
ENDBRANCH   4  13
BRANCH   1  24
HETATM   24  O1  UNL     1      -0.986  51.265 -22.191  1.00  0.00    -0.353 OA
HETATM   25  C1  UNL     1      -1.531  49.964 -22.368  1.00  0.00     0.210 C 
ENDBRANCH   1  24
BRANCH  12  26
HETATM   26  O4  UNL     1       1.176  52.749 -22.121  1.00  0.00    -0.348 OA
BRANCH  26  27
HETATM   27  C17 UNL     1       1.410  53.987 -21.453  1.00  0.00     0.177 C 
BRANCH  27  28
HETATM   28  C18 UNL     1       0.595  53.995 -20.162  1.00  0.00     0.057 C 
BRANCH  28  29
HETATM   29  C19 UNL     1       0.983  52.817 -19.255  1.00  0.00     0.274 C 
BRANCH  29  30
HETATM   30  N4  UNL     1      -0.065  52.472 -18.278  1.00  0.00     0.092 N 
HETATM   31  C20 UNL     1      -1.324  52.057 -18.940  1.00  0.00     0.298 C 
HETATM   32  C21 UNL     1      -2.190  51.173 -18.031  1.00  0.00     0.198 C 
HETATM   33  O5  UNL     1      -1.555  49.931 -17.690  1.00  0.00    -0.388 OA
HETATM   34  C22 UNL     1      -0.123  50.016 -17.695  1.00  0.00     0.198 C 
HETATM   35  C23 UNL     1       0.396  51.418 -17.345  1.00  0.00     0.298 C 
ENDBRANCH  29  30
ENDBRANCH  28  29
ENDBRANCH  27  28
ENDBRANCH  26  27
ENDBRANCH  12  26
TORSDOF 8
ENDMDL
MODEL 2
REMARK minimizedAffinity -8.4906311
REMARK  8 active torsions:
REMARK  status: ('A' for Active; 'I' for Inactive)
REMARK    1  A    between atoms: O1_2  and  C2_3 
REMARK    2  A    between atoms: C5_6  and  N1_7 
REMARK    3  A    between atoms: N1_7  and  C6_8 
REMARK    4  A    between atoms: C16_24  and  O4_25 
REMARK    5  A    between atoms: O4_25  and  C17_26 
REMARK    6  A    between atoms: C17_26  and  C18_27 
REMARK    7  A    between atoms: C18_27  and  C19_28 
REMARK    8  A    between atoms: C19_28  and  N4_29 
ROOT
HETATM    1  C2  UNL     1      -1.367  50.035 -21.245  1.00  0.00     0.102 A 
HETATM    2  C3  UNL     1      -0.818  50.646 -20.119  1.00  0.00     0.057 A 
HETATM    3  C4  UNL     1      -0.074  51.849 -20.231  1.00  0.00     0.038 A 
HETATM    4  C5  UNL     1       0.469  52.560 -19.146  1.00  0.00     0.119 A 
HETATM    5  N2  UNL     1       1.176  53.693 -19.306  1.00  0.00    -0.338 N 
ATOM      6  H2  UNL     1       1.592  54.183 -18.515  1.00  0.00     0.168 HD
HETATM    7  C13 UNL     1       1.305  54.140 -20.556  1.00  0.00     0.182 A 
HETATM    8  N3  UNL     1       0.821  53.558 -21.660  1.00  0.00    -0.351 N 
ATOM      9  H3  UNL     1       0.970  53.960 -22.585  1.00  0.00     0.166 HD
HETATM   10  C14 UNL     1       0.132  52.425 -21.490  1.00  0.00     0.050 A 
HETATM   11  C15 UNL     1      -0.409  51.800 -22.605  1.00  0.00     0.070 A 
HETATM   12  C16 UNL     1      -1.172  50.631 -22.499  1.00  0.00     0.104 A 
ENDROOT
BRANCH   4  13
HETATM   13  N1  UNL     1       0.334  52.019 -17.842  1.00  0.00    -0.339 N 
HETATM   14  H5  UNL     1      -0.177  51.146 -17.913  1.00  0.00     0.167 HD
BRANCH  13  15
HETATM   15  C6  UNL     1       1.323  52.000 -16.841  1.00  0.00     0.070 A 
HETATM   16  C7  UNL     1       2.556  52.634 -17.072  1.00  0.00     0.032 A 
HETATM   17  C8  UNL     1       3.614  52.548 -16.147  1.00  0.00     0.005 A 
HETATM   18  C9  UNL     1       3.474  51.794 -14.983  1.00  0.00     0.040 A 
HETATM   19  C10 UNL     1       2.270  51.157 -14.776  1.00  0.00     0.107 A 
HETATM   20  C11 UNL     1       1.227  51.252 -15.672  1.00  0.00     0.131 A 
HETATM   21  O3  UNL     1       1.989  50.351 -13.720  1.00  0.00    -0.323 OA
HETATM   22  O2  UNL     1       0.165  50.489 -15.280  1.00  0.00    -0.321 OA
HETATM   23  C12 UNL     1       0.643  49.956 -14.037  1.00  0.00     0.352 A 
ENDBRANCH  13  15
ENDBRANCH   4  13
BRANCH   1  24
HETATM   24  O1  UNL     1      -2.105  48.880 -21.228  1.00  0.00    -0.353 OA
HETATM   25  C1  UNL     1      -1.455  47.686 -20.812  1.00  0.00     0.210 C 
ENDBRANCH   1  24
BRANCH  12  26
HETATM   26  O4  UNL     1      -1.746  49.998 -23.574  1.00  0.00    -0.348 OA
BRANCH  26  27
HETATM   27  C17 UNL     1      -3.001  50.504 -24.024  1.00  0.00     0.177 C 
BRANCH  27  28
HETATM   28  C18 UNL     1      -2.797  51.136 -25.399  1.00  0.00     0.057 C 
BRANCH  28  29
HETATM   29  C19 UNL     1      -1.914  50.250 -26.290  1.00  0.00     0.274 C 
BRANCH  29  30
HETATM   30  N4  UNL     1      -1.014  51.024 -27.163  1.00  0.00     0.092 N 
HETATM   31  C20 UNL     1      -1.451  52.433 -27.297  1.00  0.00     0.298 C 
HETATM   32  C21 UNL     1      -0.290  53.363 -27.685  1.00  0.00     0.198 C 
HETATM   33  O5  UNL     1       0.740  53.415 -26.686  1.00  0.00    -0.388 OA
HETATM   34  C22 UNL     1       0.824  52.213 -25.907  1.00  0.00     0.198 C 
HETATM   35  C23 UNL     1       0.385  50.963 -26.682  1.00  0.00     0.298 C 
ENDBRANCH  29  30
ENDBRANCH  28  29
ENDBRANCH  27  28
ENDBRANCH  26  27
ENDBRANCH  12  26
TORSDOF 8
ENDMDL
MODEL 3
REMARK minimizedAffinity -8.43690491
REMARK  8 active torsions:
REMARK  status: ('A' for Active; 'I' for Inactive)
REMARK    1  A    between atoms: O1_2  and  C2_3 
REMARK    2  A    between atoms: C5_6  and  N1_7 
REMARK    3  A    between atoms: N1_7  and  C6_8 
REMARK    4  A    between atoms: C16_24  and  O4_25 
REMARK    5  A    between atoms: O4_25  and  C17_26 
REMARK    6  A    between atoms: C17_26  and  C18_27 
REMARK    7  A    between atoms: C18_27  and  C19_28 
REMARK    8  A    between atoms: C19_28  and  N4_29 
ROOT
HETATM    1  C2  UNL     1       5.839  65.571 -37.332  1.00  0.00     0.102 A 
HETATM    2  C3  UNL     1       6.364  64.447 -36.695  1.00  0.00     0.057 A 
HETATM    3  C4  UNL     1       5.703  63.863 -35.584  1.00  0.00     0.038 A 
HETATM    4  C5  UNL     1       6.130  62.700 -34.917  1.00  0.00     0.119 A 
HETATM    5  N2  UNL     1       5.472  62.192 -33.860  1.00  0.00    -0.338 N 
ATOM      6  H2  UNL     1       5.808  61.367 -33.365  1.00  0.00     0.168 HD
HETATM    7  C13 UNL     1       4.356  62.824 -33.495  1.00  0.00     0.182 A 
HETATM    8  N3  UNL     1       3.847  63.924 -34.063  1.00  0.00    -0.351 N 
ATOM      9  H3  UNL     1       2.989  64.355 -33.719  1.00  0.00     0.166 HD
HETATM   10  C14 UNL     1       4.517  64.430 -35.103  1.00  0.00     0.050 A 
HETATM   11  C15 UNL     1       4.012  65.557 -35.737  1.00  0.00     0.070 A 
HETATM   12  C16 UNL     1       4.641  66.119 -36.854  1.00  0.00     0.104 A 
ENDROOT
BRANCH   4  13
HETATM   13  N1  UNL     1       7.344  62.091 -35.323  1.00  0.00    -0.339 N 
HETATM   14  H5  UNL     1       7.230  61.763 -36.276  1.00  0.00     0.167 HD
BRANCH  13  15
HETATM   15  C6  UNL     1       8.643  62.557 -35.051  1.00  0.00     0.070 A 
HETATM   16  C7  UNL     1       9.364  63.225 -36.055  1.00  0.00     0.032 A 
HETATM   17  C8  UNL     1      10.705  63.611 -35.867  1.00  0.00     0.005 A 
HETATM   18  C9  UNL     1      11.367  63.306 -34.678  1.00  0.00     0.040 A 
HETATM   19  C10 UNL     1      10.660  62.630 -33.709  1.00  0.00     0.107 A 
HETATM   20  C11 UNL     1       9.342  62.264 -33.884  1.00  0.00     0.131 A 
HETATM   21  O3  UNL     1      11.169  62.220 -32.519  1.00  0.00    -0.323 OA
HETATM   22  O2  UNL     1       8.878  61.556 -32.813  1.00  0.00    -0.321 OA
HETATM   23  C12 UNL     1      10.023  61.565 -31.949  1.00  0.00     0.352 A 
ENDBRANCH  13  15
ENDBRANCH   4  13
BRANCH   1  24
HETATM   24  O1  UNL     1       6.406  66.194 -38.414  1.00  0.00    -0.353 OA
HETATM   25  C1  UNL     1       7.547  67.011 -38.185  1.00  0.00     0.210 C 
ENDBRANCH   1  24
BRANCH  12  26
HETATM   26  O4  UNL     1       4.159  67.216 -37.525  1.00  0.00    -0.348 OA
BRANCH  26  27
HETATM   27  C17 UNL     1       3.177  66.976 -38.530  1.00  0.00     0.177 C 
BRANCH  27  28
HETATM   28  C18 UNL     1       3.628  67.667 -39.815  1.00  0.00     0.057 C 
BRANCH  28  29
HETATM   29  C19 UNL     1       2.443  67.894 -40.766  1.00  0.00     0.274 C 
BRANCH  29  30
HETATM   30  N4  UNL     1       1.140  67.878 -40.079  1.00  0.00     0.092 N 
HETATM   31  C20 UNL     1       0.582  69.242 -39.918  1.00  0.00     0.298 C 
HETATM   32  C21 UNL     1      -0.946  69.225 -39.756  1.00  0.00     0.198 C 
HETATM   33  O5  UNL     1      -1.624  68.710 -40.913  1.00  0.00    -0.388 OA
HETATM   34  C22 UNL     1      -0.827  67.778 -41.658  1.00  0.00     0.198 C 
HETATM   35  C23 UNL     1       0.171  67.007 -40.782  1.00  0.00     0.298 C 
ENDBRANCH  29  30
ENDBRANCH  28  29
ENDBRANCH  27  28
ENDBRANCH  26  27
ENDBRANCH  12  26
TORSDOF 8
ENDMDL
MODEL 4
REMARK minimizedAffinity -8.06046391
REMARK  8 active torsions:
REMARK  status: ('A' for Active; 'I' for Inactive)
REMARK    1  A    between atoms: O1_2  and  C2_3 
REMARK    2  A    between atoms: C5_6  and  N1_7 
REMARK    3  A    between atoms: N1_7  and  C6_8 
REMARK    4  A    between atoms: C16_24  and  O4_25 
REMARK    5  A    between atoms: O4_25  and  C17_26 
REMARK    6  A    between atoms: C17_26  and  C18_27 
REMARK    7  A    between atoms: C18_27  and  C19_28 
REMARK    8  A    between atoms: C19_28  and  N4_29 
ROOT
HETATM    1  C2  UNL     1      -0.032  52.224 -21.083  1.00  0.00     0.102 A 
HETATM    2  C3  UNL     1       0.087  52.146 -19.696  1.00  0.00     0.057 A 
HETATM    3  C4  UNL     1      -0.309  50.979 -18.994  1.00  0.00     0.038 A 
HETATM    4  C5  UNL     1      -0.175  50.794 -17.606  1.00  0.00     0.119 A 
HETATM    5  N2  UNL     1      -0.576  49.670 -16.986  1.00  0.00    -0.338 N 
ATOM      6  H2  UNL     1      -0.503  49.559 -15.975  1.00  0.00     0.168 HD
HETATM    7  C13 UNL     1      -1.074  48.708 -17.764  1.00  0.00     0.182 A 
HETATM    8  N3  UNL     1      -1.234  48.766 -19.092  1.00  0.00    -0.351 N 
ATOM      9  H3  UNL     1      -1.633  47.988 -19.617  1.00  0.00     0.166 HD
HETATM   10  C14 UNL     1      -0.846  49.894 -19.696  1.00  0.00     0.050 A 
HETATM   11  C15 UNL     1      -0.972  49.988 -21.075  1.00  0.00     0.070 A 
HETATM   12  C16 UNL     1      -0.553  51.124 -21.778  1.00  0.00     0.104 A 
ENDROOT
BRANCH   4  13
HETATM   13  N1  UNL     1       0.326  51.864 -16.823  1.00  0.00    -0.339 N 
HETATM   14  H5  UNL     1      -0.426  52.202 -16.231  1.00  0.00     0.167 HD
BRANCH  13  15
HETATM   15  C6  UNL     1       1.587  51.923 -16.200  1.00  0.00     0.070 A 
HETATM   16  C7  UNL     1       2.639  52.611 -16.828  1.00  0.00     0.032 A 
HETATM   17  C8  UNL     1       3.943  52.605 -16.300  1.00  0.00     0.005 A 
HETATM   18  C9  UNL     1       4.234  51.878 -15.146  1.00  0.00     0.040 A 
HETATM   19  C10 UNL     1       3.202  51.188 -14.551  1.00  0.00     0.107 A 
HETATM   20  C11 UNL     1       1.920  51.204 -15.057  1.00  0.00     0.131 A 
HETATM   21  O3  UNL     1       3.327  50.398 -13.452  1.00  0.00    -0.323 OA
HETATM   22  O2  UNL     1       1.090  50.399 -14.331  1.00  0.00    -0.321 OA
HETATM   23  C12 UNL     1       1.976  49.927 -13.307  1.00  0.00     0.352 A 
ENDBRANCH  13  15
ENDBRANCH   4  13
BRANCH   1  24
HETATM   24  O1  UNL     1       0.332  53.307 -21.842  1.00  0.00    -0.353 OA
HETATM   25  C1  UNL     1       1.476  54.046 -21.433  1.00  0.00     0.210 C 
ENDBRANCH   1  24
BRANCH  12  26
HETATM   26  O4  UNL     1      -0.636  51.245 -23.144  1.00  0.00    -0.348 OA
BRANCH  26  27
HETATM   27  C17 UNL     1      -1.704  50.554 -23.788  1.00  0.00     0.177 C 
BRANCH  27  28
HETATM   28  C18 UNL     1      -1.770  51.023 -25.240  1.00  0.00     0.057 C 
BRANCH  28  29
HETATM   29  C19 UNL     1      -0.528  50.571 -26.024  1.00  0.00     0.274 C 
BRANCH  29  30
HETATM   30  N4  UNL     1       0.126  51.673 -26.752  1.00  0.00     0.092 N 
HETATM   31  C20 UNL     1      -0.860  52.582 -27.382  1.00  0.00     0.298 C 
HETATM   32  C21 UNL     1      -0.279  53.983 -27.627  1.00  0.00     0.198 C 
HETATM   33  O5  UNL     1       0.084  54.658 -26.412  1.00  0.00    -0.388 OA
HETATM   34  C22 UNL     1       0.436  53.754 -25.355  1.00  0.00     0.198 C 
HETATM   35  C23 UNL     1       1.036  52.436 -25.867  1.00  0.00     0.298 C 
ENDBRANCH  29  30
ENDBRANCH  28  29
ENDBRANCH  27  28
ENDBRANCH  26  27
ENDBRANCH  12  26
TORSDOF 8
ENDMDL
MODEL 5
REMARK minimizedAffinity -8.05495071
REMARK  8 active torsions:
REMARK  status: ('A' for Active; 'I' for Inactive)
REMARK    1  A    between atoms: O1_2  and  C2_3 
REMARK    2  A    between atoms: C5_6  and  N1_7 
REMARK    3  A    between atoms: N1_7  and  C6_8 
REMARK    4  A    between atoms: C16_24  and  O4_25 
REMARK    5  A    between atoms: O4_25  and  C17_26 
REMARK    6  A    between atoms: C17_26  and  C18_27 
REMARK    7  A    between atoms: C18_27  and  C19_28 
REMARK    8  A    between atoms: C19_28  and  N4_29 
ROOT
HETATM    1  C2  UNL     1      -1.270  51.424 -26.947  1.00  0.00     0.102 A 
HETATM    2  C3  UNL     1      -2.327  50.672 -27.456  1.00  0.00     0.057 A 
HETATM    3  C4  UNL     1      -3.123  49.862 -26.606  1.00  0.00     0.038 A 
HETATM    4  C5  UNL     1      -4.239  49.115 -27.023  1.00  0.00     0.119 A 
HETATM    5  N2  UNL     1      -4.955  48.353 -26.177  1.00  0.00    -0.338 N 
ATOM      6  H2  UNL     1      -5.743  47.791 -26.497  1.00  0.00     0.168 HD
HETATM    7  C13 UNL     1      -4.580  48.373 -24.898  1.00  0.00     0.182 A 
HETATM    8  N3  UNL     1      -3.549  49.057 -24.385  1.00  0.00    -0.351 N 
ATOM      9  H3  UNL     1      -3.320  49.013 -23.392  1.00  0.00     0.166 HD
HETATM   10  C14 UNL     1      -2.835  49.798 -25.237  1.00  0.00     0.050 A 
HETATM   11  C15 UNL     1      -1.771  50.542 -24.745  1.00  0.00     0.070 A 
HETATM   12  C16 UNL     1      -1.002  51.368 -25.572  1.00  0.00     0.104 A 
ENDROOT
BRANCH   4  13
HETATM   13  N1  UNL     1      -4.570  49.100 -28.402  1.00  0.00    -0.339 N 
HETATM   14  H5  UNL     1      -3.735  49.327 -28.930  1.00  0.00     0.167 HD
BRANCH  13  15
HETATM   15  C6  UNL     1      -5.395  48.162 -29.051  1.00  0.00     0.070 A 
HETATM   16  C7  UNL     1      -6.181  47.284 -28.286  1.00  0.00     0.032 A 
HETATM   17  C8  UNL     1      -6.936  46.259 -28.886  1.00  0.00     0.005 A 
HETATM   18  C9  UNL     1      -6.895  46.067 -30.266  1.00  0.00     0.040 A 
HETATM   19  C10 UNL     1      -6.104  46.918 -31.005  1.00  0.00     0.107 A 
HETATM   20  C11 UNL     1      -5.375  47.933 -30.422  1.00  0.00     0.131 A 
HETATM   21  O3  UNL     1      -5.920  46.838 -32.349  1.00  0.00    -0.323 OA
HETATM   22  O2  UNL     1      -4.626  48.600 -31.348  1.00  0.00    -0.321 OA
HETATM   23  C12 UNL     1      -5.003  47.926 -32.557  1.00  0.00     0.352 A 
ENDBRANCH  13  15
ENDBRANCH   4  13
BRANCH   1  24
HETATM   24  O1  UNL     1      -0.457  52.238 -27.693  1.00  0.00    -0.353 OA
HETATM   25  C1  UNL     1       0.698  51.657 -28.285  1.00  0.00     0.210 C 
ENDBRANCH   1  24
BRANCH  12  26
HETATM   26  O4  UNL     1       0.040  52.139 -25.119  1.00  0.00    -0.348 OA
BRANCH  26  27
HETATM   27  C17 UNL     1      -0.184  52.886 -23.925  1.00  0.00     0.177 C 
BRANCH  27  28
HETATM   28  C18 UNL     1       0.697  52.301 -22.823  1.00  0.00     0.057 C 
BRANCH  28  29
HETATM   29  C19 UNL     1       0.647  53.168 -21.556  1.00  0.00     0.274 C 
BRANCH  29  30
HETATM   30  N4  UNL     1      -0.257  52.629 -20.524  1.00  0.00     0.092 N 
HETATM   31  C20 UNL     1      -0.094  51.167 -20.354  1.00  0.00     0.298 C 
HETATM   32  C21 UNL     1      -0.554  50.692 -18.967  1.00  0.00     0.198 C 
HETATM   33  O5  UNL     1       0.226  51.252 -17.899  1.00  0.00    -0.388 OA
HETATM   34  C22 UNL     1       0.787  52.530 -18.228  1.00  0.00     0.198 C 
HETATM   35  C23 UNL     1      -0.067  53.322 -19.228  1.00  0.00     0.298 C 
ENDBRANCH  29  30
ENDBRANCH  28  29
ENDBRANCH  27  28
ENDBRANCH  26  27
ENDBRANCH  12  26
TORSDOF 8
ENDMDL
MODEL 6
REMARK minimizedAffinity -8.04962826
REMARK  8 active torsions:
REMARK  status: ('A' for Active; 'I' for Inactive)
REMARK    1  A    between atoms: O1_2  and  C2_3 
REMARK    2  A    between atoms: C5_6  and  N1_7 
REMARK    3  A    between atoms: N1_7  and  C6_8 
REMARK    4  A    between atoms: C16_24  and  O4_25 
REMARK    5  A    between atoms: O4_25  and  C17_26 
REMARK    6  A    between atoms: C17_26  and  C18_27 
REMARK    7  A    between atoms: C18_27  and  C19_28 
REMARK    8  A    between atoms: C19_28  and  N4_29 
ROOT
HETATM    1  C2  UNL     1      -2.458  50.060 -26.763  1.00  0.00     0.102 A 
HETATM    2  C3  UNL     1      -1.956  50.376 -25.501  1.00  0.00     0.057 A 
HETATM    3  C4  UNL     1      -2.454  49.736 -24.337  1.00  0.00     0.038 A 
HETATM    4  C5  UNL     1      -1.971  49.953 -23.034  1.00  0.00     0.119 A 
HETATM    5  N2  UNL     1      -2.485  49.327 -21.960  1.00  0.00    -0.338 N 
ATOM      6  H2  UNL     1      -2.149  49.515 -21.016  1.00  0.00     0.168 HD
HETATM    7  C13 UNL     1      -3.459  48.447 -22.196  1.00  0.00     0.182 A 
HETATM    8  N3  UNL     1      -3.985  48.148 -23.390  1.00  0.00    -0.351 N 
ATOM      9  H3  UNL     1      -4.737  47.466 -23.487  1.00  0.00     0.166 HD
HETATM   10  C14 UNL     1      -3.477  48.787 -24.448  1.00  0.00     0.050 A 
HETATM   11  C15 UNL     1      -3.977  48.491 -25.709  1.00  0.00     0.070 A 
HETATM   12  C16 UNL     1      -3.468  49.094 -26.865  1.00  0.00     0.104 A 
ENDROOT
BRANCH   4  13
HETATM   13  N1  UNL     1      -0.961  50.928 -22.836  1.00  0.00    -0.339 N 
HETATM   14  H5  UNL     1      -0.981  51.568 -23.622  1.00  0.00     0.167 HD
BRANCH  13  15
HETATM   15  C6  UNL     1      -0.636  51.557 -21.620  1.00  0.00     0.070 A 
HETATM   16  C7  UNL     1      -1.310  51.184 -20.445  1.00  0.00     0.032 A 
HETATM   17  C8  UNL     1      -1.099  51.860 -19.228  1.00  0.00     0.005 A 
HETATM   18  C9  UNL     1      -0.232  52.950 -19.167  1.00  0.00     0.040 A 
HETATM   19  C10 UNL     1       0.406  53.323 -20.329  1.00  0.00     0.107 A 
HETATM   20  C11 UNL     1       0.214  52.654 -21.519  1.00  0.00     0.131 A 
HETATM   21  O3  UNL     1       1.244  54.386 -20.450  1.00  0.00    -0.323 OA
HETATM   22  O2  UNL     1       0.905  53.243 -22.538  1.00  0.00    -0.321 OA
HETATM   23  C12 UNL     1       1.575  54.308 -21.847  1.00  0.00     0.352 A 
ENDBRANCH  13  15
ENDBRANCH   4  13
BRANCH   1  24
HETATM   24  O1  UNL     1      -2.031  50.621 -27.939  1.00  0.00    -0.353 OA
HETATM   25  C1  UNL     1      -1.020  51.619 -27.867  1.00  0.00     0.210 C 
ENDBRANCH   1  24
BRANCH  12  26
HETATM   26  O4  UNL     1      -3.917  48.808 -28.131  1.00  0.00    -0.348 OA
BRANCH  26  27
HETATM   27  C17 UNL     1      -5.178  48.151 -28.234  1.00  0.00     0.177 C 
BRANCH  27  28
HETATM   28  C18 UNL     1      -5.583  48.122 -29.706  1.00  0.00     0.057 C 
BRANCH  28  29
HETATM   29  C19 UNL     1      -4.927  46.941 -30.438  1.00  0.00     0.274 C 
BRANCH  29  30
HETATM   30  N4  UNL     1      -5.571  46.630 -31.726  1.00  0.00     0.092 N 
HETATM   31  C20 UNL     1      -6.510  47.697 -32.147  1.00  0.00     0.298 C 
HETATM   32  C21 UNL     1      -6.735  47.700 -33.667  1.00  0.00     0.198 C 
HETATM   33  O5  UNL     1      -5.538  47.983 -34.408  1.00  0.00    -0.388 OA
HETATM   34  C22 UNL     1      -4.346  47.584 -33.717  1.00  0.00     0.198 C 
HETATM   35  C23 UNL     1      -4.565  46.383 -32.785  1.00  0.00     0.298 C 
ENDBRANCH  29  30
ENDBRANCH  28  29
ENDBRANCH  27  28
ENDBRANCH  26  27
ENDBRANCH  12  26
TORSDOF 8
ENDMDL
MODEL 7
REMARK minimizedAffinity -8.04583931
REMARK  8 active torsions:
REMARK  status: ('A' for Active; 'I' for Inactive)
REMARK    1  A    between atoms: O1_2  and  C2_3 
REMARK    2  A    between atoms: C5_6  and  N1_7 
REMARK    3  A    between atoms: N1_7  and  C6_8 
REMARK    4  A    between atoms: C16_24  and  O4_25 
REMARK    5  A    between atoms: O4_25  and  C17_26 
REMARK    6  A    between atoms: C17_26  and  C18_27 
REMARK    7  A    between atoms: C18_27  and  C19_28 
REMARK    8  A    between atoms: C19_28  and  N4_29 
ROOT
HETATM    1  C2  UNL     1      -3.865  48.807 -24.781  1.00  0.00     0.102 A 
HETATM    2  C3  UNL     1      -2.876  49.510 -24.095  1.00  0.00     0.057 A 
HETATM    3  C4  UNL     1      -1.864  50.217 -24.795  1.00  0.00     0.038 A 
HETATM    4  C5  UNL     1      -0.862  50.994 -24.188  1.00  0.00     0.119 A 
HETATM    5  N2  UNL     1       0.081  51.638 -24.898  1.00  0.00    -0.338 N 
ATOM      6  H2  UNL     1       0.822  52.173 -24.445  1.00  0.00     0.168 HD
HETATM    7  C13 UNL     1      -0.004  51.540 -26.225  1.00  0.00     0.182 A 
HETATM    8  N3  UNL     1      -0.919  50.845 -26.911  1.00  0.00    -0.351 N 
ATOM      9  H3  UNL     1      -0.912  50.811 -27.930  1.00  0.00     0.166 HD
HETATM   10  C14 UNL     1      -1.843  50.196 -26.195  1.00  0.00     0.050 A 
HETATM   11  C15 UNL     1      -2.826  49.482 -26.866  1.00  0.00     0.070 A 
HETATM   12  C16 UNL     1      -3.846  48.809 -26.182  1.00  0.00     0.104 A 
ENDROOT
BRANCH   4  13
HETATM   13  N1  UNL     1      -0.796  51.033 -22.772  1.00  0.00    -0.339 N 
HETATM   14  H5  UNL     1      -0.599  50.096 -22.439  1.00  0.00     0.167 HD
BRANCH  13  15
HETATM   15  C6  UNL     1      -0.188  52.036 -21.993  1.00  0.00     0.070 A 
HETATM   16  C7  UNL     1       0.579  53.032 -22.621  1.00  0.00     0.032 A 
HETATM   17  C8  UNL     1       1.295  53.988 -21.877  1.00  0.00     0.005 A 
HETATM   18  C9  UNL     1       1.288  53.948 -20.483  1.00  0.00     0.040 A 
HETATM   19  C10 UNL     1       0.552  52.955 -19.877  1.00  0.00     0.107 A 
HETATM   20  C11 UNL     1      -0.163  52.025 -20.602  1.00  0.00     0.131 A 
HETATM   21  O3  UNL     1       0.478  52.750 -18.536  1.00  0.00    -0.323 OA
HETATM   22  O2  UNL     1      -0.759  51.110 -19.784  1.00  0.00    -0.321 OA
HETATM   23  C12 UNL     1      -0.379  51.596 -18.489  1.00  0.00     0.352 A 
ENDBRANCH  13  15
ENDBRANCH   4  13
BRANCH   1  24
HETATM   24  O1  UNL     1      -4.882  48.105 -24.187  1.00  0.00    -0.353 OA
HETATM   25  C1  UNL     1      -5.630  48.758 -23.169  1.00  0.00     0.210 C 
ENDBRANCH   1  24
BRANCH  12  26
HETATM   26  O4  UNL     1      -4.851  48.114 -26.810  1.00  0.00    -0.348 OA
BRANCH  26  27
HETATM   27  C17 UNL     1      -4.889  48.182 -28.234  1.00  0.00     0.177 C 
BRANCH  27  28
HETATM   28  C18 UNL     1      -6.219  47.598 -28.705  1.00  0.00     0.057 C 
BRANCH  28  29
HETATM   29  C19 UNL     1      -6.063  46.890 -30.060  1.00  0.00     0.274 C 
BRANCH  29  30
HETATM   30  N4  UNL     1      -5.760  47.818 -31.164  1.00  0.00     0.092 N 
HETATM   31  C20 UNL     1      -4.821  47.224 -32.144  1.00  0.00     0.298 C 
HETATM   32  C21 UNL     1      -4.939  47.882 -33.528  1.00  0.00     0.198 C 
HETATM   33  O5  UNL     1      -6.230  47.691 -34.128  1.00  0.00    -0.388 OA
HETATM   34  C22 UNL     1      -7.277  47.529 -33.161  1.00  0.00     0.198 C 
HETATM   35  C23 UNL     1      -6.998  48.266 -31.844  1.00  0.00     0.298 C 
ENDBRANCH  29  30
ENDBRANCH  28  29
ENDBRANCH  27  28
ENDBRANCH  26  27
ENDBRANCH  12  26
TORSDOF 8
ENDMDL
MODEL 8
REMARK minimizedAffinity -8.03189564
REMARK  8 active torsions:
REMARK  status: ('A' for Active; 'I' for Inactive)
REMARK    1  A    between atoms: O1_2  and  C2_3 
REMARK    2  A    between atoms: C5_6  and  N1_7 
REMARK    3  A    between atoms: N1_7  and  C6_8 
REMARK    4  A    between atoms: C16_24  and  O4_25 
REMARK    5  A    between atoms: O4_25  and  C17_26 
REMARK    6  A    between atoms: C17_26  and  C18_27 
REMARK    7  A    between atoms: C18_27  and  C19_28 
REMARK    8  A    between atoms: C19_28  and  N4_29 
ROOT
HETATM    1  C2  UNL     1      -0.904  50.744 -20.096  1.00  0.00     0.102 A 
HETATM    2  C3  UNL     1      -0.665  51.132 -21.414  1.00  0.00     0.057 A 
HETATM    3  C4  UNL     1       0.082  52.301 -21.706  1.00  0.00     0.038 A 
HETATM    4  C5  UNL     1       0.416  52.737 -23.001  1.00  0.00     0.119 A 
HETATM    5  N2  UNL     1       1.120  53.861 -23.225  1.00  0.00    -0.338 N 
ATOM      6  H2  UNL     1       1.329  54.185 -24.170  1.00  0.00     0.168 HD
HETATM    7  C13 UNL     1       1.530  54.529 -22.147  1.00  0.00     0.182 A 
HETATM    8  N3  UNL     1       1.288  54.202 -20.872  1.00  0.00    -0.351 N 
ATOM      9  H3  UNL     1       1.631  54.772 -20.099  1.00  0.00     0.166 HD
HETATM   10  C14 UNL     1       0.575  53.092 -20.661  1.00  0.00     0.050 A 
HETATM   11  C15 UNL     1       0.319  52.701 -19.353  1.00  0.00     0.070 A 
HETATM   12  C16 UNL     1      -0.390  51.531 -19.057  1.00  0.00     0.104 A 
ENDROOT
BRANCH   4  13
HETATM   13  N1  UNL     1      -0.079  52.009 -24.112  1.00  0.00    -0.339 N 
HETATM   14  H5  UNL     1      -1.087  52.124 -24.142  1.00  0.00     0.167 HD
BRANCH  13  15
HETATM   15  C6  UNL     1       0.506  51.938 -25.390  1.00  0.00     0.070 A 
HETATM   16  C7  UNL     1       1.755  51.314 -25.547  1.00  0.00     0.032 A 
HETATM   17  C8  UNL     1       2.430  51.315 -26.782  1.00  0.00     0.005 A 
HETATM   18  C9  UNL     1       1.885  51.973 -27.884  1.00  0.00     0.040 A 
HETATM   19  C10 UNL     1       0.672  52.601 -27.715  1.00  0.00     0.107 A 
HETATM   20  C11 UNL     1       0.000  52.589 -26.510  1.00  0.00     0.131 A 
HETATM   21  O3  UNL     1       0.029  53.321 -28.671  1.00  0.00    -0.323 OA
HETATM   22  O2  UNL     1      -1.146  53.328 -26.574  1.00  0.00    -0.321 OA
HETATM   23  C12 UNL     1      -1.134  53.753 -27.944  1.00  0.00     0.352 A 
ENDBRANCH  13  15
ENDBRANCH   4  13
BRANCH   1  24
HETATM   24  O1  UNL     1      -1.607  49.627 -19.723  1.00  0.00    -0.353 OA
HETATM   25  C1  UNL     1      -1.131  48.365 -20.173  1.00  0.00     0.210 C 
ENDBRANCH   1  24
BRANCH  12  26
HETATM   26  O4  UNL     1      -0.639  51.098 -17.778  1.00  0.00    -0.348 OA
BRANCH  26  27
HETATM   27  C17 UNL     1       0.467  50.568 -17.051  1.00  0.00     0.177 C 
BRANCH  27  28
HETATM   28  C18 UNL     1       0.946  51.633 -16.067  1.00  0.00     0.057 C 
BRANCH  28  29
HETATM   29  C19 UNL     1       0.642  51.224 -14.617  1.00  0.00     0.274 C 
BRANCH  29  30
HETATM   30  N4  UNL     1      -0.283  52.149 -13.940  1.00  0.00     0.092 N 
HETATM   31  C20 UNL     1      -1.632  51.558 -13.771  1.00  0.00     0.298 C 
HETATM   32  C21 UNL     1      -2.406  52.208 -12.615  1.00  0.00     0.198 C 
HETATM   33  O5  UNL     1      -1.780  52.004 -11.339  1.00  0.00    -0.388 OA
HETATM   34  C22 UNL     1      -0.358  51.837 -11.435  1.00  0.00     0.198 C 
HETATM   35  C23 UNL     1       0.254  52.584 -12.630  1.00  0.00     0.298 C 
ENDBRANCH  29  30
ENDBRANCH  28  29
ENDBRANCH  27  28
ENDBRANCH  26  27
ENDBRANCH  12  26
TORSDOF 8
ENDMDL
MODEL 9
REMARK minimizedAffinity -8.02529144
REMARK  8 active torsions:
REMARK  status: ('A' for Active; 'I' for Inactive)
REMARK    1  A    between atoms: O1_2  and  C2_3 
REMARK    2  A    between atoms: C5_6  and  N1_7 
REMARK    3  A    between atoms: N1_7  and  C6_8 
REMARK    4  A    between atoms: C16_24  and  O4_25 
REMARK    5  A    between atoms: O4_25  and  C17_26 
REMARK    6  A    between atoms: C17_26  and  C18_27 
REMARK    7  A    between atoms: C18_27  and  C19_28 
REMARK    8  A    between atoms: C19_28  and  N4_29 
ROOT
HETATM    1  C2  UNL     1      -2.575  49.429 -26.194  1.00  0.00     0.102 A 
HETATM    2  C3  UNL     1      -3.365  48.967 -27.246  1.00  0.00     0.057 A 
HETATM    3  C4  UNL     1      -4.643  48.400 -27.005  1.00  0.00     0.038 A 
HETATM    4  C5  UNL     1      -5.527  47.959 -28.005  1.00  0.00     0.119 A 
HETATM    5  N2  UNL     1      -6.726  47.418 -27.722  1.00  0.00    -0.338 N 
ATOM      6  H2  UNL     1      -7.345  47.073 -28.455  1.00  0.00     0.168 HD
HETATM    7  C13 UNL     1      -7.060  47.358 -26.433  1.00  0.00     0.182 A 
HETATM    8  N3  UNL     1      -6.310  47.760 -25.400  1.00  0.00    -0.351 N 
ATOM      9  H3  UNL     1      -6.634  47.672 -24.437  1.00  0.00     0.166 HD
HETATM   10  C14 UNL     1      -5.115  48.281 -25.692  1.00  0.00     0.050 A 
HETATM   11  C15 UNL     1      -4.312  48.733 -24.652  1.00  0.00     0.070 A 
HETATM   12  C16 UNL     1      -3.065  49.324 -24.886  1.00  0.00     0.104 A 
ENDROOT
BRANCH   4  13
HETATM   13  N1  UNL     1      -5.105  48.011 -29.357  1.00  0.00    -0.339 N 
HETATM   14  H5  UNL     1      -4.340  47.355 -29.476  1.00  0.00     0.167 HD
BRANCH  13  15
HETATM   15  C6  UNL     1      -5.937  48.098 -30.489  1.00  0.00     0.070 A 
HETATM   16  C7  UNL     1      -7.315  48.318 -30.320  1.00  0.00     0.032 A 
HETATM   17  C8  UNL     1      -8.203  48.303 -31.412  1.00  0.00     0.005 A 
HETATM   18  C9  UNL     1      -7.736  48.032 -32.698  1.00  0.00     0.040 A 
HETATM   19  C10 UNL     1      -6.388  47.794 -32.850  1.00  0.00     0.107 A 
HETATM   20  C11 UNL     1      -5.513  47.824 -31.785  1.00  0.00     0.131 A 
HETATM   21  O3  UNL     1      -5.783  47.472 -34.023  1.00  0.00    -0.323 OA
HETATM   22  O2  UNL     1      -4.245  47.500 -32.175  1.00  0.00    -0.321 OA
HETATM   23  C12 UNL     1      -4.421  47.315 -33.586  1.00  0.00     0.352 A 
ENDBRANCH  13  15
ENDBRANCH   4  13
BRANCH   1  24
HETATM   24  O1  UNL     1      -1.335  49.997 -26.337  1.00  0.00    -0.353 OA
HETATM   25  C1  UNL     1      -1.207  51.088 -27.240  1.00  0.00     0.210 C 
ENDBRANCH   1  24
BRANCH  12  26
HETATM   26  O4  UNL     1      -2.255  49.807 -23.888  1.00  0.00    -0.348 OA
BRANCH  26  27
HETATM   27  C17 UNL     1      -2.898  50.247 -22.693  1.00  0.00     0.177 C 
BRANCH  27  28
HETATM   28  C18 UNL     1      -2.159  51.482 -22.180  1.00  0.00     0.057 C 
BRANCH  28  29
HETATM   29  C19 UNL     1      -1.434  51.184 -20.859  1.00  0.00     0.274 C 
BRANCH  29  30
HETATM   30  N4  UNL     1      -0.045  51.675 -20.840  1.00  0.00     0.092 N 
HETATM   31  C20 UNL     1       0.220  52.628 -21.943  1.00  0.00     0.298 C 
HETATM   32  C21 UNL     1       1.399  53.562 -21.628  1.00  0.00     0.198 C 
HETATM   33  O5  UNL     1       1.153  54.408 -20.494  1.00  0.00    -0.388 OA
HETATM   34  C22 UNL     1       0.240  53.828 -19.552  1.00  0.00     0.198 C 
HETATM   35  C23 UNL     1       0.289  52.293 -19.536  1.00  0.00     0.298 C 
ENDBRANCH  29  30
ENDBRANCH  28  29
ENDBRANCH  27  28
ENDBRANCH  26  27
ENDBRANCH  12  26
TORSDOF 8
ENDMDL
