MODEL 1
REMARK minimizedAffinity -10.2499533
REMARK CNNscore 0.686081171
REMARK CNNaffinity 8.01898289
REMARK  4 active torsions:
REMARK  status: ('A' for Active; 'I' for Inactive)
REMARK    1  A    between atoms: C8_8  and  N1_9 
REMARK    2  A    between atoms: C12_16  and  N3_17 
REMARK    3  A    between atoms: N3_17  and  C13_18 
REMARK    4  A    between atoms: C16_21  and  N4_22 
ROOT
HETATM    1  N1  UNL     1      -0.569  51.907 -23.886  1.00  0.00    -0.108 N 
HETATM    2  C9  UNL     1       0.081  53.026 -23.377  1.00  0.00     0.282 A 
HETATM    3  O1  UNL     1       0.424  54.013 -24.024  1.00  0.00    -0.266 OA
HETATM    4  C10 UNL     1       0.426  52.998 -21.945  1.00  0.00     0.095 A 
HETATM    5  C11 UNL     1       1.095  54.032 -21.340  1.00  0.00     0.127 A 
HETATM    6  N2  UNL     1       1.451  54.019 -20.033  1.00  0.00    -0.201 N 
ATOM      7  H2  UNL     1       1.921  54.817 -19.607  1.00  0.00     0.183 HD
HETATM    8  C12 UNL     1       1.163  52.919 -19.317  1.00  0.00     0.684 A 
HETATM    9  N6  UNL     1       0.484  51.878 -19.823  1.00  0.00    -0.174 N 
ATOM     10  H6  UNL     1       0.251  51.069 -19.247  1.00  0.00     0.186 HD
HETATM   11  C24 UNL     1       0.120  51.940 -21.125  1.00  0.00     0.162 A 
HETATM   12  N7  UNL     1      -0.606  50.883 -21.704  1.00  0.00    -0.128 N 
HETATM   13  C25 UNL     1      -1.122  49.743 -21.122  1.00  0.00     0.086 A 
HETATM   14  C26 UNL     1      -1.151  49.243 -19.811  1.00  0.00     0.033 A 
HETATM   15  C27 UNL     1      -1.788  48.016 -19.601  1.00  0.00     0.002 A 
HETATM   16  C28 UNL     1      -2.379  47.318 -20.655  1.00  0.00     0.002 A 
HETATM   17  C29 UNL     1      -2.356  47.836 -21.953  1.00  0.00     0.032 A 
HETATM   18  C30 UNL     1      -1.723  49.068 -22.182  1.00  0.00     0.077 A 
HETATM   19  N8  UNL     1      -1.598  49.768 -23.353  1.00  0.00    -0.188 N 
ATOM     20  H8  UNL     1      -1.949  49.498 -24.271  1.00  0.00     0.184 HD
HETATM   21  C31 UNL     1      -0.931  50.860 -23.047  1.00  0.00     0.701 A 
ENDROOT
BRANCH   8  22
HETATM   22  N3  UNL     1       1.599  52.937 -17.998  1.00  0.00    -0.192 N 
HETATM   23  H11 UNL     1       2.525  53.340 -17.960  1.00  0.00     0.184 HD
BRANCH  22  24
HETATM   24  C13 UNL     1       1.216  52.204 -16.868  1.00  0.00     0.049 A 
HETATM   25  C14 UNL     1       1.616  52.507 -15.568  1.00  0.00     0.032 A 
HETATM   26  C15 UNL     1       1.238  51.700 -14.483  1.00  0.00     0.031 A 
HETATM   27  C16 UNL     1       0.449  50.554 -14.643  1.00  0.00     0.030 A 
HETATM   28  C22 UNL     1       0.071  50.246 -15.954  1.00  0.00     0.031 A 
HETATM   29  C23 UNL     1       0.448  51.048 -17.044  1.00  0.00     0.032 A 
BRANCH  27  30
HETATM   30  N4  UNL     1       0.087  49.766 -13.564  1.00  0.00    -0.378 N 
HETATM   31  C17 UNL     1       0.785  48.509 -13.250  1.00  0.00     0.153 C 
HETATM   32  C18 UNL     1       0.515  48.094 -11.785  1.00  0.00     0.291 C 
HETATM   33  N5  UNL     1      -0.914  47.853 -11.477  1.00  0.00     0.087 N 
HETATM   34  C19 UNL     1      -1.174  48.070 -10.056  1.00  0.00     0.310 C 
HETATM   35  C20 UNL     1      -1.791  48.684 -12.328  1.00  0.00     0.291 C 
HETATM   36  C21 UNL     1      -1.174  50.010 -12.838  1.00  0.00     0.153 C 
ENDBRANCH  27  30
ENDBRANCH  22  24
ENDBRANCH   8  22
BRANCH   1  37
HETATM   37  C8  UNL     1      -0.954  51.817 -25.251  1.00  0.00     0.072 A 
HETATM   38  C2  UNL     1      -0.008  51.431 -26.234  1.00  0.00    -0.034 A 
HETATM   39  C1  UNL     1       1.420  51.093 -25.899  1.00  0.00     0.050 C 
HETATM   40  C3  UNL     1      -0.405  51.359 -27.579  1.00  0.00     0.009 A 
HETATM   41  C4  UNL     1      -1.701  51.698 -27.960  1.00  0.00     0.001 A 
HETATM   42  C5  UNL     1      -2.624  52.096 -26.998  1.00  0.00     0.009 A 
HETATM   43  C6  UNL     1      -2.273  52.148 -25.639  1.00  0.00    -0.034 A 
HETATM   44  C7  UNL     1      -3.332  52.573 -24.655  1.00  0.00     0.050 C 
ENDBRANCH   1  37
TORSDOF 4
ENDMDL
MODEL 2
REMARK minimizedAffinity -10.905673
REMARK CNNscore 0.611553133
REMARK CNNaffinity 8.0265646
REMARK  4 active torsions:
REMARK  status: ('A' for Active; 'I' for Inactive)
REMARK    1  A    between atoms: C8_8  and  N1_9 
REMARK    2  A    between atoms: C12_16  and  N3_17 
REMARK    3  A    between atoms: N3_17  and  C13_18 
REMARK    4  A    between atoms: C16_21  and  N4_22 
ROOT
HETATM    1  N1  UNL     1      -0.154  52.023 -24.069  1.00  0.00    -0.108 N 
HETATM    2  C9  UNL     1       0.491  53.098 -23.467  1.00  0.00     0.282 A 
HETATM    3  O1  UNL     1       1.010  54.045 -24.056  1.00  0.00    -0.266 OA
HETATM    4  C10 UNL     1       0.600  53.071 -21.998  1.00  0.00     0.095 A 
HETATM    5  C11 UNL     1       1.242  54.062 -21.299  1.00  0.00     0.127 A 
HETATM    6  N2  UNL     1       1.381  54.045 -19.953  1.00  0.00    -0.201 N 
ATOM      7  H2  UNL     1       1.839  54.812 -19.461  1.00  0.00     0.183 HD
HETATM    8  C12 UNL     1       0.898  52.984 -19.286  1.00  0.00     0.684 A 
HETATM    9  N6  UNL     1       0.230  51.988 -19.888  1.00  0.00    -0.174 N 
ATOM     10  H6  UNL     1      -0.155  51.210 -19.353  1.00  0.00     0.186 HD
HETATM   11  C24 UNL     1       0.085  52.054 -21.232  1.00  0.00     0.162 A 
HETATM   12  N7  UNL     1      -0.620  51.045 -21.914  1.00  0.00    -0.128 N 
HETATM   13  C25 UNL     1      -1.310  49.958 -21.417  1.00  0.00     0.086 A 
HETATM   14  C26 UNL     1      -1.587  49.486 -20.125  1.00  0.00     0.033 A 
HETATM   15  C27 UNL     1      -2.343  48.315 -20.013  1.00  0.00     0.002 A 
HETATM   16  C28 UNL     1      -2.810  47.645 -21.144  1.00  0.00     0.002 A 
HETATM   17  C29 UNL     1      -2.539  48.135 -22.425  1.00  0.00     0.032 A 
HETATM   18  C30 UNL     1      -1.784  49.312 -22.556  1.00  0.00     0.077 A 
HETATM   19  N8  UNL     1      -1.418  49.978 -23.695  1.00  0.00    -0.188 N 
ATOM     20  H8  UNL     1      -1.638  49.719 -24.657  1.00  0.00     0.184 HD
HETATM   21  C31 UNL     1      -0.726  51.022 -23.292  1.00  0.00     0.701 A 
ENDROOT
BRANCH   8  22
HETATM   22  N3  UNL     1       1.117  52.992 -17.914  1.00  0.00    -0.192 N 
HETATM   23  H11 UNL     1       1.620  53.832 -17.663  1.00  0.00     0.184 HD
BRANCH  22  24
HETATM   24  C13 UNL     1       1.137  51.971 -16.955  1.00  0.00     0.049 A 
HETATM   25  C14 UNL     1       1.963  51.970 -15.833  1.00  0.00     0.032 A 
HETATM   26  C15 UNL     1       1.971  50.889 -14.936  1.00  0.00     0.031 A 
HETATM   27  C16 UNL     1       1.163  49.760 -15.119  1.00  0.00     0.030 A 
HETATM   28  C22 UNL     1       0.355  49.761 -16.261  1.00  0.00     0.031 A 
HETATM   29  C23 UNL     1       0.344  50.838 -17.163  1.00  0.00     0.032 A 
BRANCH  27  30
HETATM   30  N4  UNL     1       1.186  48.701 -14.229  1.00  0.00    -0.378 N 
HETATM   31  C17 UNL     1       1.111  48.906 -12.773  1.00  0.00     0.153 C 
HETATM   32  C18 UNL     1       0.686  47.598 -12.066  1.00  0.00     0.291 C 
HETATM   33  N5  UNL     1       1.621  46.468 -12.269  1.00  0.00     0.087 N 
HETATM   34  C19 UNL     1       0.919  45.194 -12.131  1.00  0.00     0.310 C 
HETATM   35  C20 UNL     1       2.313  46.573 -13.570  1.00  0.00     0.291 C 
HETATM   36  C21 UNL     1       1.550  47.343 -14.677  1.00  0.00     0.153 C 
ENDBRANCH  27  30
ENDBRANCH  22  24
ENDBRANCH   8  22
BRANCH   1  37
HETATM   37  C8  UNL     1      -0.321  51.937 -25.477  1.00  0.00     0.072 A 
HETATM   38  C2  UNL     1       0.765  51.547 -26.300  1.00  0.00    -0.034 A 
HETATM   39  C1  UNL     1       2.121  51.199 -25.747  1.00  0.00     0.050 C 
HETATM   40  C3  UNL     1       0.583  51.480 -27.691  1.00  0.00     0.009 A 
HETATM   41  C4  UNL     1      -0.635  51.828 -28.269  1.00  0.00     0.001 A 
HETATM   42  C5  UNL     1      -1.695  52.231 -27.462  1.00  0.00     0.009 A 
HETATM   43  C6  UNL     1      -1.561  52.279 -26.065  1.00  0.00    -0.034 A 
HETATM   44  C7  UNL     1      -2.758  52.708 -25.258  1.00  0.00     0.050 C 
ENDBRANCH   1  37
TORSDOF 4
ENDMDL
MODEL 3
REMARK minimizedAffinity -8.27330685
REMARK CNNscore 0.151275292
REMARK CNNaffinity 5.51673508
REMARK  4 active torsions:
REMARK  status: ('A' for Active; 'I' for Inactive)
REMARK    1  A    between atoms: C8_8  and  N1_9 
REMARK    2  A    between atoms: C12_16  and  N3_17 
REMARK    3  A    between atoms: N3_17  and  C13_18 
REMARK    4  A    between atoms: C16_21  and  N4_22 
ROOT
HETATM    1  N1  UNL     1      -0.059  69.174 -40.638  1.00  0.00    -0.108 N 
HETATM    2  C9  UNL     1       0.323  68.160 -39.768  1.00  0.00     0.282 A 
HETATM    3  O1  UNL     1      -0.438  67.442 -39.122  1.00  0.00    -0.266 OA
HETATM    4  C10 UNL     1       1.770  67.963 -39.572  1.00  0.00     0.095 A 
HETATM    5  C11 UNL     1       2.264  67.012 -38.714  1.00  0.00     0.127 A 
HETATM    6  N2  UNL     1       3.587  66.831 -38.493  1.00  0.00    -0.201 N 
ATOM      7  H2  UNL     1       3.922  66.095 -37.872  1.00  0.00     0.183 HD
HETATM    8  C12 UNL     1       4.445  67.653 -39.120  1.00  0.00     0.684 A 
HETATM    9  N6  UNL     1       4.048  68.587 -39.998  1.00  0.00    -0.174 N 
ATOM     10  H6  UNL     1       4.724  69.176 -40.485  1.00  0.00     0.186 HD
HETATM   11  C24 UNL     1       2.719  68.719 -40.215  1.00  0.00     0.162 A 
HETATM   12  N7  UNL     1       2.247  69.672 -41.136  1.00  0.00    -0.128 N 
HETATM   13  C25 UNL     1       2.950  70.507 -41.982  1.00  0.00     0.086 A 
HETATM   14  C26 UNL     1       4.313  70.695 -42.257  1.00  0.00     0.033 A 
HETATM   15  C27 UNL     1       4.652  71.663 -43.207  1.00  0.00     0.002 A 
HETATM   16  C28 UNL     1       3.672  72.409 -43.862  1.00  0.00     0.002 A 
HETATM   17  C29 UNL     1       2.316  72.200 -43.589  1.00  0.00     0.032 A 
HETATM   18  C30 UNL     1       1.957  71.230 -42.639  1.00  0.00     0.077 A 
HETATM   19  N8  UNL     1       0.708  70.846 -42.231  1.00  0.00    -0.188 N 
ATOM     20  H8  UNL     1      -0.186  71.214 -42.557  1.00  0.00     0.184 HD
HETATM   21  C31 UNL     1       0.899  69.903 -41.333  1.00  0.00     0.701 A 
ENDROOT
BRANCH   8  22
HETATM   22  N3  UNL     1       5.787  67.459 -38.815  1.00  0.00    -0.192 N 
HETATM   23  H11 UNL     1       6.355  67.882 -39.534  1.00  0.00     0.184 HD
BRANCH  22  24
HETATM   24  C13 UNL     1       6.444  66.529 -37.999  1.00  0.00     0.049 A 
HETATM   25  C14 UNL     1       5.817  65.441 -37.395  1.00  0.00     0.032 A 
HETATM   26  C15 UNL     1       6.523  64.574 -36.545  1.00  0.00     0.031 A 
HETATM   27  C16 UNL     1       7.882  64.754 -36.255  1.00  0.00     0.030 A 
HETATM   28  C22 UNL     1       8.496  65.862 -36.849  1.00  0.00     0.031 A 
HETATM   29  C23 UNL     1       7.794  66.734 -37.698  1.00  0.00     0.032 A 
BRANCH  27  30
HETATM   30  N4  UNL     1       8.563  63.894 -35.412  1.00  0.00    -0.378 N 
HETATM   31  C17 UNL     1       9.930  63.434 -35.708  1.00  0.00     0.153 C 
HETATM   32  C18 UNL     1      10.607  62.894 -34.427  1.00  0.00     0.291 C 
HETATM   33  N5  UNL     1       9.913  61.737 -33.816  1.00  0.00     0.087 N 
HETATM   34  C19 UNL     1      10.195  61.670 -32.384  1.00  0.00     0.310 C 
HETATM   35  C20 UNL     1       8.460  61.781 -34.087  1.00  0.00     0.291 C 
HETATM   36  C21 UNL     1       7.862  63.191 -34.321  1.00  0.00     0.153 C 
ENDBRANCH  27  30
ENDBRANCH  22  24
ENDBRANCH   8  22
BRANCH   1  37
HETATM   37  C8  UNL     1      -1.424  69.459 -40.909  1.00  0.00     0.072 A 
HETATM   38  C2  UNL     1      -2.101  68.776 -41.949  1.00  0.00    -0.034 A 
HETATM   39  C1  UNL     1      -1.437  67.726 -42.800  1.00  0.00     0.050 C 
HETATM   40  C3  UNL     1      -3.447  69.080 -42.209  1.00  0.00     0.009 A 
HETATM   41  C4  UNL     1      -4.108  70.069 -41.485  1.00  0.00     0.001 A 
HETATM   42  C5  UNL     1      -3.437  70.755 -40.477  1.00  0.00     0.009 A 
HETATM   43  C6  UNL     1      -2.101  70.455 -40.166  1.00  0.00    -0.034 A 
HETATM   44  C7  UNL     1      -1.448  71.229 -39.051  1.00  0.00     0.050 C 
ENDBRANCH   1  37
TORSDOF 4
ENDMDL
MODEL 4
REMARK minimizedAffinity -9.00640774
REMARK CNNscore 0.105654977
REMARK CNNaffinity 6.49119329
REMARK  4 active torsions:
REMARK  status: ('A' for Active; 'I' for Inactive)
REMARK    1  A    between atoms: C8_8  and  N1_9 
REMARK    2  A    between atoms: C12_16  and  N3_17 
REMARK    3  A    between atoms: N3_17  and  C13_18 
REMARK    4  A    between atoms: C16_21  and  N4_22 
ROOT
HETATM    1  N1  UNL     1       1.335  49.583 -13.647  1.00  0.00    -0.108 N 
HETATM    2  C9  UNL     1       2.233  50.588 -13.987  1.00  0.00     0.282 A 
HETATM    3  O1  UNL     1       3.165  50.984 -13.289  1.00  0.00    -0.266 OA
HETATM    4  C10 UNL     1       2.015  51.266 -15.277  1.00  0.00     0.095 A 
HETATM    5  C11 UNL     1       2.819  52.293 -15.702  1.00  0.00     0.127 A 
HETATM    6  N2  UNL     1       2.623  52.952 -16.868  1.00  0.00    -0.201 N 
ATOM      7  H2  UNL     1       3.257  53.692 -17.169  1.00  0.00     0.183 HD
HETATM    8  C12 UNL     1       1.564  52.599 -17.616  1.00  0.00     0.684 A 
HETATM    9  N6  UNL     1       0.746  51.586 -17.289  1.00  0.00    -0.174 N 
ATOM     10  H6  UNL     1      -0.032  51.319 -17.892  1.00  0.00     0.186 HD
HETATM   11  C24 UNL     1       0.992  50.932 -16.130  1.00  0.00     0.162 A 
HETATM   12  N7  UNL     1       0.177  49.852 -15.745  1.00  0.00    -0.128 N 
HETATM   13  C25 UNL     1      -0.859  49.242 -16.423  1.00  0.00     0.086 A 
HETATM   14  C26 UNL     1      -1.441  49.426 -17.687  1.00  0.00     0.033 A 
HETATM   15  C27 UNL     1      -2.505  48.587 -18.036  1.00  0.00     0.002 A 
HETATM   16  C28 UNL     1      -2.965  47.601 -17.163  1.00  0.00     0.002 A 
HETATM   17  C29 UNL     1      -2.366  47.419 -15.913  1.00  0.00     0.032 A 
HETATM   18  C30 UNL     1      -1.295  48.250 -15.547  1.00  0.00     0.077 A 
HETATM   19  N8  UNL     1      -0.552  48.240 -14.397  1.00  0.00    -0.188 N 
ATOM     20  H8  UNL     1      -0.661  47.615 -13.599  1.00  0.00     0.184 HD
HETATM   21  C31 UNL     1       0.333  49.204 -14.535  1.00  0.00     0.701 A 
ENDROOT
BRANCH   8  22
HETATM   22  N3  UNL     1       1.378  53.345 -18.774  1.00  0.00    -0.192 N 
HETATM   23  H11 UNL     1       1.302  54.322 -18.530  1.00  0.00     0.184 HD
BRANCH  22  24
HETATM   24  C13 UNL     1       0.911  53.005 -20.050  1.00  0.00     0.049 A 
HETATM   25  C14 UNL     1       0.153  51.870 -20.327  1.00  0.00     0.032 A 
HETATM   26  C15 UNL     1      -0.240  51.559 -21.638  1.00  0.00     0.031 A 
HETATM   27  C16 UNL     1       0.107  52.361 -22.734  1.00  0.00     0.030 A 
HETATM   28  C22 UNL     1       0.888  53.486 -22.448  1.00  0.00     0.031 A 
HETATM   29  C23 UNL     1       1.286  53.801 -21.137  1.00  0.00     0.032 A 
BRANCH  27  30
HETATM   30  N4  UNL     1      -0.284  52.039 -24.021  1.00  0.00    -0.378 N 
HETATM   31  C17 UNL     1       0.692  51.845 -25.105  1.00  0.00     0.153 C 
HETATM   32  C18 UNL     1       0.052  51.055 -26.271  1.00  0.00     0.291 C 
HETATM   33  N5  UNL     1      -1.114  51.725 -26.890  1.00  0.00     0.087 N 
HETATM   34  C19 UNL     1      -2.002  50.741 -27.505  1.00  0.00     0.310 C 
HETATM   35  C20 UNL     1      -1.828  52.569 -25.909  1.00  0.00     0.291 C 
HETATM   36  C21 UNL     1      -1.699  52.134 -24.428  1.00  0.00     0.153 C 
ENDBRANCH  27  30
ENDBRANCH  22  24
ENDBRANCH   8  22
BRANCH   1  37
HETATM   37  C8  UNL     1       1.441  48.856 -12.431  1.00  0.00     0.072 A 
HETATM   38  C2  UNL     1       2.204  47.662 -12.379  1.00  0.00    -0.034 A 
HETATM   39  C1  UNL     1       2.936  47.112 -13.574  1.00  0.00     0.050 C 
HETATM   40  C3  UNL     1       2.287  46.952 -11.171  1.00  0.00     0.009 A 
HETATM   41  C4  UNL     1       1.601  47.386 -10.039  1.00  0.00     0.001 A 
HETATM   42  C5  UNL     1       0.836  48.547 -10.096  1.00  0.00     0.009 A 
HETATM   43  C6  UNL     1       0.755  49.302 -11.277  1.00  0.00    -0.034 A 
HETATM   44  C7  UNL     1      -0.080  50.555 -11.255  1.00  0.00     0.050 C 
ENDBRANCH   1  37
TORSDOF 4
ENDMDL
MODEL 5
REMARK minimizedAffinity -8.8890686
REMARK CNNscore 0.0868688151
REMARK CNNaffinity 5.20777082
REMARK  4 active torsions:
REMARK  status: ('A' for Active; 'I' for Inactive)
REMARK    1  A    between atoms: C8_8  and  N1_9 
REMARK    2  A    between atoms: C12_16  and  N3_17 
REMARK    3  A    between atoms: N3_17  and  C13_18 
REMARK    4  A    between atoms: C16_21  and  N4_22 
ROOT
HETATM    1  N1  UNL     1     -16.522  45.587 -24.698  1.00  0.00    -0.108 N 
HETATM    2  C9  UNL     1     -15.337  46.303 -24.828  1.00  0.00     0.282 A 
HETATM    3  O1  UNL     1     -14.794  46.959 -23.942  1.00  0.00    -0.266 OA
HETATM    4  C10 UNL     1     -14.707  46.308 -26.160  1.00  0.00     0.095 A 
HETATM    5  C11 UNL     1     -13.552  47.005 -26.414  1.00  0.00     0.127 A 
HETATM    6  N2  UNL     1     -12.970  47.050 -27.635  1.00  0.00    -0.201 N 
ATOM      7  H2  UNL     1     -12.095  47.554 -27.783  1.00  0.00     0.183 HD
HETATM    8  C12 UNL     1     -13.582  46.411 -28.645  1.00  0.00     0.684 A 
HETATM    9  N6  UNL     1     -14.696  45.681 -28.477  1.00  0.00    -0.174 N 
ATOM     10  H6  UNL     1     -15.121  45.179 -29.256  1.00  0.00     0.186 HD
HETATM   11  C24 UNL     1     -15.232  45.635 -27.236  1.00  0.00     0.162 A 
HETATM   12  N7  UNL     1     -16.391  44.873 -26.998  1.00  0.00    -0.128 N 
HETATM   13  C25 UNL     1     -17.088  44.037 -27.847  1.00  0.00     0.086 A 
HETATM   14  C26 UNL     1     -16.908  43.625 -29.176  1.00  0.00     0.033 A 
HETATM   15  C27 UNL     1     -17.850  42.740 -29.710  1.00  0.00     0.002 A 
HETATM   16  C28 UNL     1     -18.925  42.281 -28.949  1.00  0.00     0.002 A 
HETATM   17  C29 UNL     1     -19.084  42.689 -27.622  1.00  0.00     0.032 A 
HETATM   18  C30 UNL     1     -18.146  43.574 -27.067  1.00  0.00     0.077 A 
HETATM   19  N8  UNL     1     -18.090  44.086 -25.798  1.00  0.00    -0.188 N 
ATOM     20  H8  UNL     1     -18.739  43.905 -25.033  1.00  0.00     0.184 HD
HETATM   21  C31 UNL     1     -17.025  44.859 -25.770  1.00  0.00     0.701 A 
ENDROOT
BRANCH   8  22
HETATM   22  N3  UNL     1     -12.971  46.537 -29.887  1.00  0.00    -0.192 N 
HETATM   23  H11 UNL     1     -13.613  46.235 -30.606  1.00  0.00     0.184 HD
BRANCH  22  24
HETATM   24  C13 UNL     1     -11.626  46.607 -30.274  1.00  0.00     0.049 A 
HETATM   25  C14 UNL     1     -10.869  47.776 -30.255  1.00  0.00     0.032 A 
HETATM   26  C15 UNL     1      -9.539  47.789 -30.706  1.00  0.00     0.031 A 
HETATM   27  C16 UNL     1      -8.905  46.641 -31.200  1.00  0.00     0.030 A 
HETATM   28  C22 UNL     1      -9.682  45.478 -31.235  1.00  0.00     0.031 A 
HETATM   29  C23 UNL     1     -11.014  45.460 -30.788  1.00  0.00     0.032 A 
BRANCH  27  30
HETATM   30  N4  UNL     1      -7.595  46.670 -31.644  1.00  0.00    -0.378 N 
HETATM   31  C17 UNL     1      -6.663  45.560 -31.392  1.00  0.00     0.153 C 
HETATM   32  C18 UNL     1      -5.464  45.630 -32.366  1.00  0.00     0.291 C 
HETATM   33  N5  UNL     1      -4.661  46.869 -32.250  1.00  0.00     0.087 N 
HETATM   34  C19 UNL     1      -3.984  47.158 -33.512  1.00  0.00     0.310 C 
HETATM   35  C20 UNL     1      -5.492  48.005 -31.802  1.00  0.00     0.291 C 
HETATM   36  C21 UNL     1      -6.998  47.918 -32.156  1.00  0.00     0.153 C 
ENDBRANCH  27  30
ENDBRANCH  22  24
ENDBRANCH   8  22
BRANCH   1  37
HETATM   37  C8  UNL     1     -17.222  45.507 -23.465  1.00  0.00     0.072 A 
HETATM   38  C2  UNL     1     -16.791  44.605 -22.459  1.00  0.00    -0.034 A 
HETATM   39  C1  UNL     1     -15.592  43.712 -22.628  1.00  0.00     0.050 C 
HETATM   40  C3  UNL     1     -17.503  44.532 -21.251  1.00  0.00     0.009 A 
HETATM   41  C4  UNL     1     -18.645  45.303 -21.048  1.00  0.00     0.001 A 
HETATM   42  C5  UNL     1     -19.080  46.173 -22.043  1.00  0.00     0.009 A 
HETATM   43  C6  UNL     1     -18.375  46.298 -23.251  1.00  0.00    -0.034 A 
HETATM   44  C7  UNL     1     -18.898  47.273 -24.273  1.00  0.00     0.050 C 
ENDBRANCH   1  37
TORSDOF 4
ENDMDL
MODEL 6
REMARK minimizedAffinity -8.03020191
REMARK CNNscore 0.0782013834
REMARK CNNaffinity 6.03241014
REMARK  4 active torsions:
REMARK  status: ('A' for Active; 'I' for Inactive)
REMARK    1  A    between atoms: C8_8  and  N1_9 
REMARK    2  A    between atoms: C12_16  and  N3_17 
REMARK    3  A    between atoms: N3_17  and  C13_18 
REMARK    4  A    between atoms: C16_21  and  N4_22 
ROOT
HETATM    1  N1  UNL     1      -5.019  48.579 -20.656  1.00  0.00    -0.108 N 
HETATM    2  C9  UNL     1      -5.552  48.781 -19.388  1.00  0.00     0.282 A 
HETATM    3  O1  UNL     1      -4.912  49.065 -18.377  1.00  0.00    -0.266 OA
HETATM    4  C10 UNL     1      -7.006  48.593 -19.240  1.00  0.00     0.095 A 
HETATM    5  C11 UNL     1      -7.637  48.736 -18.030  1.00  0.00     0.127 A 
HETATM    6  N2  UNL     1      -8.966  48.539 -17.862  1.00  0.00    -0.201 N 
ATOM      7  H2  UNL     1      -9.409  48.683 -16.955  1.00  0.00     0.183 HD
HETATM    8  C12 UNL     1      -9.681  48.148 -18.929  1.00  0.00     0.684 A 
HETATM    9  N6  UNL     1      -9.149  48.016 -20.154  1.00  0.00    -0.174 N 
ATOM     10  H6  UNL     1      -9.723  47.749 -20.954  1.00  0.00     0.186 HD
HETATM   11  C24 UNL     1      -7.823  48.249 -20.289  1.00  0.00     0.162 A 
HETATM   12  N7  UNL     1      -7.214  48.140 -21.553  1.00  0.00    -0.128 N 
HETATM   13  C25 UNL     1      -7.780  47.896 -22.788  1.00  0.00     0.086 A 
HETATM   14  C26 UNL     1      -9.095  47.707 -23.239  1.00  0.00     0.033 A 
HETATM   15  C27 UNL     1      -9.283  47.479 -24.606  1.00  0.00     0.002 A 
HETATM   16  C28 UNL     1      -8.203  47.447 -25.489  1.00  0.00     0.002 A 
HETATM   17  C29 UNL     1      -6.899  47.651 -25.027  1.00  0.00     0.032 A 
HETATM   18  C30 UNL     1      -6.693  47.885 -23.659  1.00  0.00     0.077 A 
HETATM   19  N8  UNL     1      -5.520  48.128 -22.994  1.00  0.00    -0.188 N 
ATOM     20  H8  UNL     1      -4.584  48.177 -23.395  1.00  0.00     0.184 HD
HETATM   21  C31 UNL     1      -5.852  48.287 -21.730  1.00  0.00     0.701 A 
ENDROOT
BRANCH   8  22
HETATM   22  N3  UNL     1     -11.029  47.908 -18.687  1.00  0.00    -0.192 N 
HETATM   23  H11 UNL     1     -11.151  47.647 -17.719  1.00  0.00     0.184 HD
BRANCH  22  24
HETATM   24  C13 UNL     1     -12.097  47.588 -19.535  1.00  0.00     0.049 A 
HETATM   25  C14 UNL     1     -12.043  46.606 -20.522  1.00  0.00     0.032 A 
HETATM   26  C15 UNL     1     -13.134  46.370 -21.374  1.00  0.00     0.031 A 
HETATM   27  C16 UNL     1     -14.325  47.103 -21.286  1.00  0.00     0.030 A 
HETATM   28  C22 UNL     1     -14.360  48.101 -20.306  1.00  0.00     0.031 A 
HETATM   29  C23 UNL     1     -13.271  48.344 -19.453  1.00  0.00     0.032 A 
BRANCH  27  30
HETATM   30  N4  UNL     1     -15.389  46.861 -22.135  1.00  0.00    -0.378 N 
HETATM   31  C17 UNL     1     -16.450  45.897 -21.799  1.00  0.00     0.153 C 
HETATM   32  C18 UNL     1     -17.711  46.163 -22.654  1.00  0.00     0.291 C 
HETATM   33  N5  UNL     1     -17.492  46.032 -24.113  1.00  0.00     0.087 N 
HETATM   34  C19 UNL     1     -18.457  46.846 -24.849  1.00  0.00     0.310 C 
HETATM   35  C20 UNL     1     -16.100  46.371 -24.477  1.00  0.00     0.291 C 
HETATM   36  C21 UNL     1     -15.376  47.355 -23.525  1.00  0.00     0.153 C 
ENDBRANCH  27  30
ENDBRANCH  22  24
ENDBRANCH   8  22
BRANCH   1  37
HETATM   37  C8  UNL     1      -3.632  48.732 -20.923  1.00  0.00     0.072 A 
HETATM   38  C2  UNL     1      -2.776  47.602 -20.907  1.00  0.00    -0.034 A 
HETATM   39  C1  UNL     1      -3.272  46.209 -20.626  1.00  0.00     0.050 C 
HETATM   40  C3  UNL     1      -1.406  47.776 -21.162  1.00  0.00     0.009 A 
HETATM   41  C4  UNL     1      -0.877  49.043 -21.390  1.00  0.00     0.001 A 
HETATM   42  C5  UNL     1      -1.714  50.155 -21.385  1.00  0.00     0.009 A 
HETATM   43  C6  UNL     1      -3.095  50.017 -21.167  1.00  0.00    -0.034 A 
HETATM   44  C7  UNL     1      -3.939  51.265 -21.193  1.00  0.00     0.050 C 
ENDBRANCH   1  37
TORSDOF 4
ENDMDL
MODEL 7
REMARK minimizedAffinity -8.68520832
REMARK CNNscore 0.0751207918
REMARK CNNaffinity 5.62660217
REMARK  4 active torsions:
REMARK  status: ('A' for Active; 'I' for Inactive)
REMARK    1  A    between atoms: C8_8  and  N1_9 
REMARK    2  A    between atoms: C12_16  and  N3_17 
REMARK    3  A    between atoms: N3_17  and  C13_18 
REMARK    4  A    between atoms: C16_21  and  N4_22 
ROOT
HETATM    1  N1  UNL     1       2.772  50.108 -12.287  1.00  0.00    -0.108 N 
HETATM    2  C9  UNL     1       3.563  50.396 -13.393  1.00  0.00     0.282 A 
HETATM    3  O1  UNL     1       4.762  50.147 -13.503  1.00  0.00    -0.266 OA
HETATM    4  C10 UNL     1       2.912  51.103 -14.510  1.00  0.00     0.095 A 
HETATM    5  C11 UNL     1       3.600  51.466 -15.639  1.00  0.00     0.127 A 
HETATM    6  N2  UNL     1       3.033  52.143 -16.666  1.00  0.00    -0.201 N 
ATOM      7  H2  UNL     1       3.566  52.372 -17.505  1.00  0.00     0.183 HD
HETATM    8  C12 UNL     1       1.745  52.502 -16.542  1.00  0.00     0.684 A 
HETATM    9  N6  UNL     1       0.991  52.161 -15.486  1.00  0.00    -0.174 N 
ATOM     10  H6  UNL     1       0.006  52.420 -15.434  1.00  0.00     0.186 HD
HETATM   11  C24 UNL     1       1.586  51.459 -14.493  1.00  0.00     0.162 A 
HETATM   12  N7  UNL     1       0.840  51.061 -13.369  1.00  0.00    -0.128 N 
HETATM   13  C25 UNL     1      -0.509  51.198 -13.110  1.00  0.00     0.086 A 
HETATM   14  C26 UNL     1      -1.593  51.721 -13.831  1.00  0.00     0.033 A 
HETATM   15  C27 UNL     1      -2.852  51.682 -13.222  1.00  0.00     0.002 A 
HETATM   16  C28 UNL     1      -3.025  51.137 -11.950  1.00  0.00     0.002 A 
HETATM   17  C29 UNL     1      -1.938  50.606 -11.249  1.00  0.00     0.032 A 
HETATM   18  C30 UNL     1      -0.667  50.634 -11.846  1.00  0.00     0.077 A 
HETATM   19  N8  UNL     1       0.523  50.159 -11.361  1.00  0.00    -0.188 N 
ATOM     20  H8  UNL     1       0.682  49.700 -10.464  1.00  0.00     0.184 HD
HETATM   21  C31 UNL     1       1.417  50.416 -12.292  1.00  0.00     0.701 A 
ENDROOT
BRANCH   8  22
HETATM   22  N3  UNL     1       1.229  53.242 -17.600  1.00  0.00    -0.192 N 
HETATM   23  H11 UNL     1       0.801  54.083 -17.240  1.00  0.00     0.184 HD
BRANCH  22  24
HETATM   24  C13 UNL     1       0.860  52.891 -18.905  1.00  0.00     0.049 A 
HETATM   25  C14 UNL     1       1.267  53.582 -20.044  1.00  0.00     0.032 A 
HETATM   26  C15 UNL     1       0.819  53.209 -21.321  1.00  0.00     0.031 A 
HETATM   27  C16 UNL     1      -0.059  52.135 -21.522  1.00  0.00     0.030 A 
HETATM   28  C22 UNL     1      -0.480  51.462 -20.370  1.00  0.00     0.031 A 
HETATM   29  C23 UNL     1      -0.036  51.833 -19.089  1.00  0.00     0.032 A 
BRANCH  27  30
HETATM   30  N4  UNL     1      -0.495  51.782 -22.786  1.00  0.00    -0.378 N 
HETATM   31  C17 UNL     1      -1.285  50.563 -23.025  1.00  0.00     0.153 C 
HETATM   32  C18 UNL     1      -2.021  50.654 -24.382  1.00  0.00     0.291 C 
HETATM   33  N5  UNL     1      -1.122  50.791 -25.551  1.00  0.00     0.087 N 
HETATM   34  C19 UNL     1      -1.813  51.460 -26.651  1.00  0.00     0.310 C 
HETATM   35  C20 UNL     1       0.129  51.488 -25.185  1.00  0.00     0.291 C 
HETATM   36  C21 UNL     1       0.029  52.463 -23.985  1.00  0.00     0.153 C 
ENDBRANCH  27  30
ENDBRANCH  22  24
ENDBRANCH   8  22
BRANCH   1  37
HETATM   37  C8  UNL     1       3.287  49.429 -11.150  1.00  0.00     0.072 A 
HETATM   38  C2  UNL     1       3.891  50.161 -10.097  1.00  0.00    -0.034 A 
HETATM   39  C1  UNL     1       4.011  51.661 -10.114  1.00  0.00     0.050 C 
HETATM   40  C3  UNL     1       4.404  49.471  -8.987  1.00  0.00     0.009 A 
HETATM   41  C4  UNL     1       4.360  48.080  -8.928  1.00  0.00     0.001 A 
HETATM   42  C5  UNL     1       3.786  47.360  -9.972  1.00  0.00     0.009 A 
HETATM   43  C6  UNL     1       3.232  48.017 -11.083  1.00  0.00    -0.034 A 
HETATM   44  C7  UNL     1       2.613  47.170 -12.163  1.00  0.00     0.050 C 
ENDBRANCH   1  37
TORSDOF 4
ENDMDL
MODEL 8
REMARK minimizedAffinity -8.59594727
REMARK CNNscore 0.0745902136
REMARK CNNaffinity 5.60138464
REMARK  4 active torsions:
REMARK  status: ('A' for Active; 'I' for Inactive)
REMARK    1  A    between atoms: C8_8  and  N1_9 
REMARK    2  A    between atoms: C12_16  and  N3_17 
REMARK    3  A    between atoms: N3_17  and  C13_18 
REMARK    4  A    between atoms: C16_21  and  N4_22 
ROOT
HETATM    1  N1  UNL     1      -7.030  47.083 -29.692  1.00  0.00    -0.108 N 
HETATM    2  C9  UNL     1      -5.741  47.595 -29.596  1.00  0.00     0.282 A 
HETATM    3  O1  UNL     1      -4.940  47.704 -30.522  1.00  0.00    -0.266 OA
HETATM    4  C10 UNL     1      -5.285  47.999 -28.254  1.00  0.00     0.095 A 
HETATM    5  C11 UNL     1      -4.022  48.489 -28.033  1.00  0.00     0.127 A 
HETATM    6  N2  UNL     1      -3.569  48.838 -26.807  1.00  0.00    -0.201 N 
ATOM      7  H2  UNL     1      -2.635  49.227 -26.681  1.00  0.00     0.183 HD
HETATM    8  C12 UNL     1      -4.390  48.654 -25.760  1.00  0.00     0.684 A 
HETATM    9  N6  UNL     1      -5.650  48.210 -25.891  1.00  0.00    -0.174 N 
ATOM     10  H6  UNL     1      -6.262  48.111 -25.081  1.00  0.00     0.186 HD
HETATM   11  C24 UNL     1      -6.077  47.899 -27.137  1.00  0.00     0.162 A 
HETATM   12  N7  UNL     1      -7.393  47.443 -27.336  1.00  0.00    -0.128 N 
HETATM   13  C25 UNL     1      -8.431  47.320 -26.434  1.00  0.00     0.086 A 
HETATM   14  C26 UNL     1      -8.579  47.612 -25.070  1.00  0.00     0.033 A 
HETATM   15  C27 UNL     1      -9.820  47.345 -24.483  1.00  0.00     0.002 A 
HETATM   16  C28 UNL     1     -10.873  46.814 -25.227  1.00  0.00     0.002 A 
HETATM   17  C29 UNL     1     -10.716  46.542 -26.590  1.00  0.00     0.032 A 
HETATM   18  C30 UNL     1      -9.478  46.806 -27.196  1.00  0.00     0.077 A 
HETATM   19  N8  UNL     1      -9.107  46.640 -28.504  1.00  0.00    -0.188 N 
ATOM     20  H8  UNL     1      -9.683  46.285 -29.267  1.00  0.00     0.184 HD
HETATM   21  C31 UNL     1      -7.853  47.034 -28.573  1.00  0.00     0.701 A 
ENDROOT
BRANCH   8  22
HETATM   22  N3  UNL     1      -3.854  48.977 -24.519  1.00  0.00    -0.192 N 
HETATM   23  H11 UNL     1      -3.151  49.693 -24.637  1.00  0.00     0.184 HD
BRANCH  22  24
HETATM   24  C13 UNL     1      -3.808  48.285 -23.302  1.00  0.00     0.049 A 
HETATM   25  C14 UNL     1      -2.631  47.969 -22.628  1.00  0.00     0.032 A 
HETATM   26  C15 UNL     1      -2.652  47.227 -21.436  1.00  0.00     0.031 A 
HETATM   27  C16 UNL     1      -3.844  46.762 -20.864  1.00  0.00     0.030 A 
HETATM   28  C22 UNL     1      -5.019  47.066 -21.561  1.00  0.00     0.031 A 
HETATM   29  C23 UNL     1      -5.003  47.806 -22.755  1.00  0.00     0.032 A 
BRANCH  27  30
HETATM   30  N4  UNL     1      -3.848  46.028 -19.691  1.00  0.00    -0.378 N 
HETATM   31  C17 UNL     1      -3.032  46.415 -18.529  1.00  0.00     0.153 C 
HETATM   32  C18 UNL     1      -3.565  45.736 -17.246  1.00  0.00     0.291 C 
HETATM   33  N5  UNL     1      -3.537  44.256 -17.287  1.00  0.00     0.087 N 
HETATM   34  C19 UNL     1      -4.554  43.701 -16.396  1.00  0.00     0.310 C 
HETATM   35  C20 UNL     1      -3.690  43.757 -18.670  1.00  0.00     0.291 C 
HETATM   36  C21 UNL     1      -4.460  44.687 -19.640  1.00  0.00     0.153 C 
ENDBRANCH  27  30
ENDBRANCH  22  24
ENDBRANCH   8  22
BRANCH   1  37
HETATM   37  C8  UNL     1      -7.582  46.661 -30.931  1.00  0.00     0.072 A 
HETATM   38  C2  UNL     1      -7.427  45.319 -31.360  1.00  0.00    -0.034 A 
HETATM   39  C1  UNL     1      -6.699  44.284 -30.545  1.00  0.00     0.050 C 
HETATM   40  C3  UNL     1      -7.970  44.924 -32.593  1.00  0.00     0.009 A 
HETATM   41  C4  UNL     1      -8.621  45.843 -33.413  1.00  0.00     0.001 A 
HETATM   42  C5  UNL     1      -8.754  47.166 -33.002  1.00  0.00     0.009 A 
HETATM   43  C6  UNL     1      -8.254  47.590 -31.760  1.00  0.00    -0.034 A 
HETATM   44  C7  UNL     1      -8.452  49.033 -31.378  1.00  0.00     0.050 C 
ENDBRANCH   1  37
TORSDOF 4
ENDMDL
MODEL 9
REMARK minimizedAffinity -9.34430027
REMARK CNNscore 0.0730581433
REMARK CNNaffinity 6.42915583
REMARK  4 active torsions:
REMARK  status: ('A' for Active; 'I' for Inactive)
REMARK    1  A    between atoms: C8_8  and  N1_9 
REMARK    2  A    between atoms: C12_16  and  N3_17 
REMARK    3  A    between atoms: N3_17  and  C13_18 
REMARK    4  A    between atoms: C16_21  and  N4_22 
ROOT
HETATM    1  N1  UNL     1      -0.370  49.137 -14.662  1.00  0.00    -0.108 N 
HETATM    2  C9  UNL     1       0.497  50.219 -14.575  1.00  0.00     0.282 A 
HETATM    3  O1  UNL     1       1.097  50.579 -13.564  1.00  0.00    -0.266 OA
HETATM    4  C10 UNL     1       0.673  51.030 -15.792  1.00  0.00     0.095 A 
HETATM    5  C11 UNL     1       1.479  52.140 -15.815  1.00  0.00     0.127 A 
HETATM    6  N2  UNL     1       1.634  52.919 -16.912  1.00  0.00    -0.201 N 
ATOM      7  H2  UNL     1       2.265  53.720 -16.905  1.00  0.00     0.183 HD
HETATM    8  C12 UNL     1       0.929  52.601 -18.010  1.00  0.00     0.684 A 
HETATM    9  N6  UNL     1       0.142  51.517 -18.082  1.00  0.00    -0.174 N 
ATOM     10  H6  UNL     1      -0.357  51.282 -18.940  1.00  0.00     0.186 HD
HETATM   11  C24 UNL     1       0.035  50.746 -16.975  1.00  0.00     0.162 A 
HETATM   12  N7  UNL     1      -0.764  49.588 -16.998  1.00  0.00    -0.128 N 
HETATM   13  C25 UNL     1      -1.449  49.008 -18.046  1.00  0.00     0.086 A 
HETATM   14  C26 UNL     1      -1.580  49.307 -19.411  1.00  0.00     0.033 A 
HETATM   15  C27 UNL     1      -2.383  48.461 -20.183  1.00  0.00     0.002 A 
HETATM   16  C28 UNL     1      -3.024  47.358 -19.619  1.00  0.00     0.002 A 
HETATM   17  C29 UNL     1      -2.872  47.064 -18.261  1.00  0.00     0.032 A 
HETATM   18  C30 UNL     1      -2.068  47.900 -17.471  1.00  0.00     0.077 A 
HETATM   19  N8  UNL     1      -1.763  47.795 -16.140  1.00  0.00    -0.188 N 
ATOM     20  H8  UNL     1      -2.082  47.077 -15.491  1.00  0.00     0.184 HD
HETATM   21  C31 UNL     1      -0.972  48.813 -15.873  1.00  0.00     0.701 A 
ENDROOT
BRANCH   8  22
HETATM   22  N3  UNL     1       1.083  53.466 -19.087  1.00  0.00    -0.192 N 
HETATM   23  H11 UNL     1       1.082  54.418 -18.751  1.00  0.00     0.184 HD
BRANCH  22  24
HETATM   24  C13 UNL     1       0.853  53.312 -20.460  1.00  0.00     0.049 A 
HETATM   25  C14 UNL     1       0.076  52.297 -21.013  1.00  0.00     0.032 A 
HETATM   26  C15 UNL     1      -0.074  52.169 -22.403  1.00  0.00     0.031 A 
HETATM   27  C16 UNL     1       0.548  53.042 -23.306  1.00  0.00     0.030 A 
HETATM   28  C22 UNL     1       1.344  54.044 -22.742  1.00  0.00     0.031 A 
HETATM   29  C23 UNL     1       1.499  54.176 -21.351  1.00  0.00     0.032 A 
BRANCH  27  30
HETATM   30  N4  UNL     1       0.394  52.900 -24.673  1.00  0.00    -0.378 N 
HETATM   31  C17 UNL     1      -0.182  53.968 -25.507  1.00  0.00     0.153 C 
HETATM   32  C18 UNL     1       0.191  53.753 -26.992  1.00  0.00     0.291 C 
HETATM   33  N5  UNL     1      -0.306  52.480 -27.563  1.00  0.00     0.087 N 
HETATM   34  C19 UNL     1       0.538  52.057 -28.679  1.00  0.00     0.310 C 
HETATM   35  C20 UNL     1      -0.408  51.432 -26.526  1.00  0.00     0.291 C 
HETATM   36  C21 UNL     1       0.553  51.584 -25.320  1.00  0.00     0.153 C 
ENDBRANCH  27  30
ENDBRANCH  22  24
ENDBRANCH   8  22
BRANCH   1  37
HETATM   37  C8  UNL     1      -0.621  48.280 -13.556  1.00  0.00     0.072 A 
HETATM   38  C2  UNL     1       0.197  47.144 -13.337  1.00  0.00    -0.034 A 
HETATM   39  C1  UNL     1       1.355  46.790 -14.231  1.00  0.00     0.050 C 
HETATM   40  C3  UNL     1      -0.074  46.303 -12.245  1.00  0.00     0.009 A 
HETATM   41  C4  UNL     1      -1.155  46.552 -11.403  1.00  0.00     0.001 A 
HETATM   42  C5  UNL     1      -1.970  47.656 -11.631  1.00  0.00     0.009 A 
HETATM   43  C6  UNL     1      -1.711  48.538 -12.693  1.00  0.00    -0.034 A 
HETATM   44  C7  UNL     1      -2.628  49.721 -12.864  1.00  0.00     0.050 C 
ENDBRANCH   1  37
TORSDOF 4
ENDMDL
