MODEL 1
REMARK minimizedAffinity -8.22228146
REMARK  8 active torsions:
REMARK  status: ('A' for Active; 'I' for Inactive)
REMARK    1  A    between atoms: O1_2  and  C2_3 
REMARK    2  A    between atoms: C5_6  and  N1_7 
REMARK    3  A    between atoms: N1_7  and  C6_8 
REMARK    4  A    between atoms: C16_25  and  O4_26 
REMARK    5  A    between atoms: O4_26  and  C17_27 
REMARK    6  A    between atoms: C17_27  and  C18_28 
REMARK    7  A    between atoms: C18_28  and  C19_29 
REMARK    8  A    between atoms: C19_29  and  N4_30 
ROOT
HETATM    1  C2  UNL     1      -2.484  49.766 -24.880  1.00  0.00     0.102 A 
HETATM    2  C3  UNL     1      -1.407  50.459 -24.324  1.00  0.00     0.056 A 
HETATM    3  C4  UNL     1      -0.880  51.615 -24.952  1.00  0.00     0.032 A 
HETATM    4  C5  UNL     1       0.203  52.377 -24.468  1.00  0.00     0.098 A 
HETATM    5  N2  UNL     1       0.647  53.477 -25.104  1.00  0.00    -0.342 N 
ATOM      6  H2  UNL     1       1.437  54.018 -24.751  1.00  0.00     0.167 HD
HETATM    7  C13 UNL     1       0.002  53.824 -26.218  1.00  0.00     0.182 A 
HETATM    8  N3  UNL     1      -1.026  53.173 -26.774  1.00  0.00    -0.351 N 
ATOM      9  H3  UNL     1      -1.458  53.495 -27.639  1.00  0.00     0.166 HD
HETATM   10  C14 UNL     1      -1.457  52.080 -26.139  1.00  0.00     0.049 A 
HETATM   11  C15 UNL     1      -2.526  51.379 -26.684  1.00  0.00     0.070 A 
HETATM   12  C16 UNL     1      -3.046  50.230 -26.079  1.00  0.00     0.104 A 
ENDROOT
BRANCH   4  13
HETATM   13  N1  UNL     1       0.883  51.939 -23.298  1.00  0.00    -0.240 NA
HETATM   14  H5  UNL     1       1.885  52.009 -23.469  1.00  0.00     0.135 HD
BRANCH  13  15
HETATM   15  C6  UNL     1       0.584  52.353 -21.980  1.00  0.00     0.089 A 
HETATM   16  C7  UNL     1       0.966  53.631 -21.539  1.00  0.00     0.140 A 
HETATM   17  F1  UNL     1       1.598  54.453 -22.393  1.00  0.00    -0.204 F 
HETATM   18  C8  UNL     1       0.705  54.087 -20.238  1.00  0.00     0.047 A 
HETATM   19  C9  UNL     1       0.057  53.254 -19.327  1.00  0.00     0.043 A 
HETATM   20  C10 UNL     1      -0.294  51.990 -19.754  1.00  0.00     0.107 A 
HETATM   21  C11 UNL     1      -0.036  51.546 -21.037  1.00  0.00     0.129 A 
HETATM   22  O3  UNL     1      -0.901  51.046 -18.985  1.00  0.00    -0.323 OA
HETATM   23  O2  UNL     1      -0.422  50.247 -21.204  1.00  0.00    -0.321 OA
HETATM   24  C12 UNL     1      -1.013  49.959 -19.925  1.00  0.00     0.352 A 
ENDBRANCH  13  15
ENDBRANCH   4  13
BRANCH   1  25
HETATM   25  O1  UNL     1      -3.048  48.638 -24.342  1.00  0.00    -0.353 OA
HETATM   26  C1  UNL     1      -4.028  48.807 -23.326  1.00  0.00     0.210 C 
ENDBRANCH   1  25
BRANCH  12  27
HETATM   27  O4  UNL     1      -4.105  49.506 -26.569  1.00  0.00    -0.348 OA
BRANCH  27  28
HETATM   28  C17 UNL     1      -3.826  48.462 -27.498  1.00  0.00     0.177 C 
BRANCH  28  29
HETATM   29  C18 UNL     1      -4.981  48.346 -28.492  1.00  0.00     0.057 C 
BRANCH  29  30
HETATM   30  C19 UNL     1      -6.211  47.671 -27.868  1.00  0.00     0.274 C 
BRANCH  30  31
HETATM   31  N4  UNL     1      -7.269  47.400 -28.857  1.00  0.00     0.092 N 
HETATM   32  C20 UNL     1      -6.713  47.235 -30.219  1.00  0.00     0.298 C 
HETATM   33  C21 UNL     1      -6.825  48.501 -31.081  1.00  0.00     0.198 C 
HETATM   34  O5  UNL     1      -8.177  48.944 -31.265  1.00  0.00    -0.388 OA
HETATM   35  C22 UNL     1      -9.049  48.538 -30.201  1.00  0.00     0.198 C 
HETATM   36  C23 UNL     1      -8.322  48.439 -28.850  1.00  0.00     0.298 C 
ENDBRANCH  30  31
ENDBRANCH  29  30
ENDBRANCH  28  29
ENDBRANCH  27  28
ENDBRANCH  12  27
TORSDOF 8
ENDMDL
MODEL 2
REMARK minimizedAffinity -8.16994572
REMARK  8 active torsions:
REMARK  status: ('A' for Active; 'I' for Inactive)
REMARK    1  A    between atoms: O1_2  and  C2_3 
REMARK    2  A    between atoms: C5_6  and  N1_7 
REMARK    3  A    between atoms: N1_7  and  C6_8 
REMARK    4  A    between atoms: C16_25  and  O4_26 
REMARK    5  A    between atoms: O4_26  and  C17_27 
REMARK    6  A    between atoms: C17_27  and  C18_28 
REMARK    7  A    between atoms: C18_28  and  C19_29 
REMARK    8  A    between atoms: C19_29  and  N4_30 
ROOT
HETATM    1  C2  UNL     1      -1.283  51.728 -21.858  1.00  0.00     0.102 A 
HETATM    2  C3  UNL     1      -1.879  51.867 -23.112  1.00  0.00     0.056 A 
HETATM    3  C4  UNL     1      -1.202  52.519 -24.174  1.00  0.00     0.032 A 
HETATM    4  C5  UNL     1      -1.721  52.707 -25.470  1.00  0.00     0.098 A 
HETATM    5  N2  UNL     1      -1.020  53.321 -26.442  1.00  0.00    -0.342 N 
ATOM      6  H2  UNL     1      -1.406  53.461 -27.375  1.00  0.00     0.167 HD
HETATM    7  C13 UNL     1       0.206  53.738 -26.122  1.00  0.00     0.182 A 
HETATM    8  N3  UNL     1       0.794  53.624 -24.926  1.00  0.00    -0.351 N 
ATOM      9  H3  UNL     1       1.733  53.982 -24.755  1.00  0.00     0.166 HD
HETATM   10  C14 UNL     1       0.090  53.017 -23.967  1.00  0.00     0.049 A 
HETATM   11  C15 UNL     1       0.669  52.876 -22.712  1.00  0.00     0.070 A 
HETATM   12  C16 UNL     1       0.005  52.246 -21.654  1.00  0.00     0.104 A 
ENDROOT
BRANCH   4  13
HETATM   13  N1  UNL     1      -3.049  52.282 -25.748  1.00  0.00    -0.240 NA
HETATM   14  H5  UNL     1      -3.424  52.873 -26.489  1.00  0.00     0.135 HD
BRANCH  13  15
HETATM   15  C6  UNL     1      -3.449  50.941 -25.946  1.00  0.00     0.089 A 
HETATM   16  C7  UNL     1      -3.053  50.251 -27.104  1.00  0.00     0.140 A 
HETATM   17  F1  UNL     1      -2.276  50.878 -28.002  1.00  0.00    -0.204 F 
HETATM   18  C8  UNL     1      -3.433  48.924 -27.356  1.00  0.00     0.047 A 
HETATM   19  C9  UNL     1      -4.246  48.249 -26.446  1.00  0.00     0.043 A 
HETATM   20  C10 UNL     1      -4.655  48.937 -25.322  1.00  0.00     0.107 A 
HETATM   21  C11 UNL     1      -4.277  50.243 -25.078  1.00  0.00     0.129 A 
HETATM   22  O3  UNL     1      -5.471  48.438 -24.356  1.00  0.00    -0.323 OA
HETATM   23  O2  UNL     1      -4.852  50.725 -23.938  1.00  0.00    -0.321 OA
HETATM   24  C12 UNL     1      -5.559  49.566 -23.463  1.00  0.00     0.352 A 
ENDBRANCH  13  15
ENDBRANCH   4  13
BRANCH   1  25
HETATM   25  O1  UNL     1      -1.871  51.120 -20.778  1.00  0.00    -0.353 OA
HETATM   26  C1  UNL     1      -3.286  51.186 -20.670  1.00  0.00     0.210 C 
ENDBRANCH   1  25
BRANCH  12  27
HETATM   27  O4  UNL     1       0.534  52.072 -20.399  1.00  0.00    -0.348 OA
BRANCH  27  28
HETATM   28  C17 UNL     1       0.526  53.187 -19.511  1.00  0.00     0.177 C 
BRANCH  28  29
HETATM   29  C18 UNL     1       0.959  52.729 -18.119  1.00  0.00     0.057 C 
BRANCH  29  30
HETATM   30  C19 UNL     1       0.300  51.401 -17.719  1.00  0.00     0.274 C 
BRANCH  30  31
HETATM   31  N4  UNL     1       0.672  50.974 -16.359  1.00  0.00     0.092 N 
HETATM   32  C20 UNL     1      -0.409  50.191 -15.719  1.00  0.00     0.298 C 
HETATM   33  C21 UNL     1      -1.277  51.019 -14.759  1.00  0.00     0.198 C 
HETATM   34  O5  UNL     1      -0.532  51.604 -13.682  1.00  0.00    -0.388 OA
HETATM   35  C22 UNL     1       0.849  51.816 -14.007  1.00  0.00     0.198 C 
HETATM   36  C23 UNL     1       1.064  52.113 -15.500  1.00  0.00     0.298 C 
ENDBRANCH  30  31
ENDBRANCH  29  30
ENDBRANCH  28  29
ENDBRANCH  27  28
ENDBRANCH  12  27
TORSDOF 8
ENDMDL
MODEL 3
REMARK minimizedAffinity -8.14233685
REMARK  8 active torsions:
REMARK  status: ('A' for Active; 'I' for Inactive)
REMARK    1  A    between atoms: O1_2  and  C2_3 
REMARK    2  A    between atoms: C5_6  and  N1_7 
REMARK    3  A    between atoms: N1_7  and  C6_8 
REMARK    4  A    between atoms: C16_25  and  O4_26 
REMARK    5  A    between atoms: O4_26  and  C17_27 
REMARK    6  A    between atoms: C17_27  and  C18_28 
REMARK    7  A    between atoms: C18_28  and  C19_29 
REMARK    8  A    between atoms: C19_29  and  N4_30 
ROOT
HETATM    1  C2  UNL     1      -2.575  49.473 -26.266  1.00  0.00     0.102 A 
HETATM    2  C3  UNL     1      -3.274  48.997 -27.376  1.00  0.00     0.056 A 
HETATM    3  C4  UNL     1      -4.562  48.420 -27.236  1.00  0.00     0.032 A 
HETATM    4  C5  UNL     1      -5.341  47.913 -28.294  1.00  0.00     0.098 A 
HETATM    5  N2  UNL     1      -6.566  47.391 -28.097  1.00  0.00    -0.342 N 
ATOM      6  H2  UNL     1      -7.120  47.018 -28.868  1.00  0.00     0.167 HD
HETATM    7  C13 UNL     1      -7.019  47.386 -26.843  1.00  0.00     0.182 A 
HETATM    8  N3  UNL     1      -6.365  47.829 -25.763  1.00  0.00    -0.351 N 
ATOM      9  H3  UNL     1      -6.775  47.778 -24.831  1.00  0.00     0.166 HD
HETATM   10  C14 UNL     1      -5.148  48.341 -25.967  1.00  0.00     0.049 A 
HETATM   11  C15 UNL     1      -4.439  48.815 -24.870  1.00  0.00     0.070 A 
HETATM   12  C16 UNL     1      -3.164  49.374 -24.995  1.00  0.00     0.104 A 
ENDROOT
BRANCH   4  13
HETATM   13  N1  UNL     1      -4.794  47.902 -29.607  1.00  0.00    -0.240 NA
HETATM   14  H5  UNL     1      -3.895  47.424 -29.572  1.00  0.00     0.135 HD
BRANCH  13  15
HETATM   15  C6  UNL     1      -5.495  47.535 -30.778  1.00  0.00     0.089 A 
HETATM   16  C7  UNL     1      -4.931  46.617 -31.679  1.00  0.00     0.140 A 
HETATM   17  F1  UNL     1      -3.731  46.083 -31.399  1.00  0.00    -0.204 F 
HETATM   18  C8  UNL     1      -5.579  46.228 -32.861  1.00  0.00     0.047 A 
HETATM   19  C9  UNL     1      -6.823  46.770 -33.183  1.00  0.00     0.043 A 
HETATM   20  C10 UNL     1      -7.363  47.691 -32.309  1.00  0.00     0.107 A 
HETATM   21  C11 UNL     1      -6.722  48.070 -31.145  1.00  0.00     0.129 A 
HETATM   22  O3  UNL     1      -8.548  48.335 -32.488  1.00  0.00    -0.323 OA
HETATM   23  O2  UNL     1      -7.423  49.033 -30.478  1.00  0.00    -0.321 OA
HETATM   24  C12 UNL     1      -8.595  49.154 -31.303  1.00  0.00     0.352 A 
ENDBRANCH  13  15
ENDBRANCH   4  13
BRANCH   1  25
HETATM   25  O1  UNL     1      -1.326  50.037 -26.313  1.00  0.00    -0.353 OA
HETATM   26  C1  UNL     1      -1.146  51.180 -27.139  1.00  0.00     0.210 C 
ENDBRANCH   1  25
BRANCH  12  27
HETATM   27  O4  UNL     1      -2.424  49.865 -23.948  1.00  0.00    -0.348 OA
BRANCH  27  28
HETATM   28  C17 UNL     1      -3.006  50.884 -23.140  1.00  0.00     0.177 C 
BRANCH  28  29
HETATM   29  C18 UNL     1      -1.905  51.808 -22.619  1.00  0.00     0.057 C 
BRANCH  29  30
HETATM   30  C19 UNL     1      -1.363  51.346 -21.259  1.00  0.00     0.274 C 
BRANCH  30  31
HETATM   31  N4  UNL     1       0.037  51.752 -21.042  1.00  0.00     0.092 N 
HETATM   32  C20 UNL     1       0.255  52.237 -19.661  1.00  0.00     0.298 C 
HETATM   33  C21 UNL     1       0.241  53.769 -19.543  1.00  0.00     0.198 C 
HETATM   34  O5  UNL     1       1.246  54.409 -20.343  1.00  0.00    -0.388 OA
HETATM   35  C22 UNL     1       1.635  53.629 -21.482  1.00  0.00     0.198 C 
HETATM   36  C23 UNL     1       0.485  52.764 -22.024  1.00  0.00     0.298 C 
ENDBRANCH  30  31
ENDBRANCH  29  30
ENDBRANCH  28  29
ENDBRANCH  27  28
ENDBRANCH  12  27
TORSDOF 8
ENDMDL
MODEL 4
REMARK minimizedAffinity -8.09666061
REMARK  8 active torsions:
REMARK  status: ('A' for Active; 'I' for Inactive)
REMARK    1  A    between atoms: O1_2  and  C2_3 
REMARK    2  A    between atoms: C5_6  and  N1_7 
REMARK    3  A    between atoms: N1_7  and  C6_8 
REMARK    4  A    between atoms: C16_25  and  O4_26 
REMARK    5  A    between atoms: O4_26  and  C17_27 
REMARK    6  A    between atoms: C17_27  and  C18_28 
REMARK    7  A    between atoms: C18_28  and  C19_29 
REMARK    8  A    between atoms: C19_29  and  N4_30 
ROOT
HETATM    1  C2  UNL     1      -0.667  50.877 -19.715  1.00  0.00     0.102 A 
HETATM    2  C3  UNL     1      -0.596  51.131 -21.085  1.00  0.00     0.056 A 
HETATM    3  C4  UNL     1       0.106  52.257 -21.583  1.00  0.00     0.032 A 
HETATM    4  C5  UNL     1       0.232  52.595 -22.946  1.00  0.00     0.098 A 
HETATM    5  N2  UNL     1       0.927  53.672 -23.357  1.00  0.00    -0.342 N 
ATOM      6  H2  UNL     1       1.006  53.914 -24.345  1.00  0.00     0.167 HD
HETATM    7  C13 UNL     1       1.506  54.408 -22.407  1.00  0.00     0.182 A 
HETATM    8  N3  UNL     1       1.444  54.189 -21.089  1.00  0.00    -0.351 N 
ATOM      9  H3  UNL     1       1.905  54.808 -20.422  1.00  0.00     0.166 HD
HETATM   10  C14 UNL     1       0.750  53.120 -20.690  1.00  0.00     0.049 A 
HETATM   11  C15 UNL     1       0.666  52.859 -19.327  1.00  0.00     0.070 A 
HETATM   12  C16 UNL     1      -0.033  51.758 -18.824  1.00  0.00     0.104 A 
ENDROOT
BRANCH   4  13
HETATM   13  N1  UNL     1      -0.441  51.802 -23.916  1.00  0.00    -0.240 NA
HETATM   14  H5  UNL     1      -1.392  51.638 -23.587  1.00  0.00     0.135 HD
BRANCH  13  15
HETATM   15  C6  UNL     1      -0.443  52.046 -25.308  1.00  0.00     0.089 A 
HETATM   16  C7  UNL     1      -1.638  52.387 -25.962  1.00  0.00     0.140 A 
HETATM   17  F1  UNL     1      -2.767  52.495 -25.242  1.00  0.00    -0.204 F 
HETATM   18  C8  UNL     1      -1.698  52.627 -27.344  1.00  0.00     0.047 A 
HETATM   19  C9  UNL     1      -0.544  52.516 -28.118  1.00  0.00     0.043 A 
HETATM   20  C10 UNL     1       0.624  52.156 -27.477  1.00  0.00     0.107 A 
HETATM   21  C11 UNL     1       0.678  51.921 -26.117  1.00  0.00     0.129 A 
HETATM   22  O3  UNL     1       1.825  51.974 -28.088  1.00  0.00    -0.323 OA
HETATM   23  O2  UNL     1       1.924  51.525 -25.726  1.00  0.00    -0.321 OA
HETATM   24  C12 UNL     1       2.651  51.612 -26.964  1.00  0.00     0.352 A 
ENDBRANCH  13  15
ENDBRANCH   4  13
BRANCH   1  25
HETATM   25  O1  UNL     1      -1.330  49.817 -19.151  1.00  0.00    -0.353 OA
HETATM   26  C1  UNL     1      -1.126  48.530 -19.720  1.00  0.00     0.210 C 
ENDBRANCH   1  25
BRANCH  12  27
HETATM   27  O4  UNL     1      -0.140  51.448 -17.491  1.00  0.00    -0.348 OA
BRANCH  27  28
HETATM   28  C17 UNL     1       1.046  51.481 -16.702  1.00  0.00     0.177 C 
BRANCH  28  29
HETATM   29  C18 UNL     1       0.737  50.954 -15.301  1.00  0.00     0.057 C 
BRANCH  29  30
HETATM   30  C19 UNL     1       0.380  52.085 -14.326  1.00  0.00     0.274 C 
BRANCH  30  31
HETATM   31  N4  UNL     1      -0.426  51.615 -13.186  1.00  0.00     0.092 N 
HETATM   32  C20 UNL     1      -1.745  51.106 -13.624  1.00  0.00     0.298 C 
HETATM   33  C21 UNL     1      -2.881  52.125 -13.456  1.00  0.00     0.198 C 
HETATM   34  O5  UNL     1      -3.061  52.554 -12.098  1.00  0.00    -0.388 OA
HETATM   35  C22 UNL     1      -1.865  52.448 -11.314  1.00  0.00     0.198 C 
HETATM   36  C23 UNL     1      -0.592  52.658 -12.150  1.00  0.00     0.298 C 
ENDBRANCH  30  31
ENDBRANCH  29  30
ENDBRANCH  28  29
ENDBRANCH  27  28
ENDBRANCH  12  27
TORSDOF 8
ENDMDL
MODEL 5
REMARK minimizedAffinity -8.05083752
REMARK  8 active torsions:
REMARK  status: ('A' for Active; 'I' for Inactive)
REMARK    1  A    between atoms: O1_2  and  C2_3 
REMARK    2  A    between atoms: C5_6  and  N1_7 
REMARK    3  A    between atoms: N1_7  and  C6_8 
REMARK    4  A    between atoms: C16_25  and  O4_26 
REMARK    5  A    between atoms: O4_26  and  C17_27 
REMARK    6  A    between atoms: C17_27  and  C18_28 
REMARK    7  A    between atoms: C18_28  and  C19_29 
REMARK    8  A    between atoms: C19_29  and  N4_30 
ROOT
HETATM    1  C2  UNL     1      -2.155  51.590 -21.354  1.00  0.00     0.102 A 
HETATM    2  C3  UNL     1      -3.108  51.549 -22.373  1.00  0.00     0.056 A 
HETATM    3  C4  UNL     1      -4.432  51.113 -22.118  1.00  0.00     0.032 A 
HETATM    4  C5  UNL     1      -5.459  51.037 -23.080  1.00  0.00     0.098 A 
HETATM    5  N2  UNL     1      -6.703  50.628 -22.771  1.00  0.00    -0.342 N 
ATOM      6  H2  UNL     1      -7.438  50.568 -23.475  1.00  0.00     0.167 HD
HETATM    7  C13 UNL     1      -6.927  50.304 -21.497  1.00  0.00     0.182 A 
HETATM    8  N3  UNL     1      -6.029  50.327 -20.505  1.00  0.00    -0.351 N 
ATOM      9  H3  UNL     1      -6.274  50.049 -19.555  1.00  0.00     0.166 HD
HETATM   10  C14 UNL     1      -4.795  50.730 -20.822  1.00  0.00     0.049 A 
HETATM   11  C15 UNL     1      -3.836  50.770 -19.817  1.00  0.00     0.070 A 
HETATM   12  C16 UNL     1      -2.524  51.188 -20.060  1.00  0.00     0.104 A 
ENDROOT
BRANCH   4  13
HETATM   13  N1  UNL     1      -5.157  51.353 -24.434  1.00  0.00    -0.240 NA
HETATM   14  H5  UNL     1      -4.952  52.349 -24.489  1.00  0.00     0.135 HD
BRANCH  13  15
HETATM   15  C6  UNL     1      -4.268  50.627 -25.260  1.00  0.00     0.089 A 
HETATM   16  C7  UNL     1      -4.256  49.223 -25.220  1.00  0.00     0.140 A 
HETATM   17  F1  UNL     1      -5.113  48.587 -24.404  1.00  0.00    -0.204 F 
HETATM   18  C8  UNL     1      -3.385  48.456 -26.009  1.00  0.00     0.047 A 
HETATM   19  C9  UNL     1      -2.480  49.088 -26.861  1.00  0.00     0.043 A 
HETATM   20  C10 UNL     1      -2.476  50.468 -26.878  1.00  0.00     0.107 A 
HETATM   21  C11 UNL     1      -3.336  51.219 -26.101  1.00  0.00     0.129 A 
HETATM   22  O3  UNL     1      -1.638  51.236 -27.625  1.00  0.00    -0.323 OA
HETATM   23  O2  UNL     1      -3.104  52.556 -26.247  1.00  0.00    -0.321 OA
HETATM   24  C12 UNL     1      -2.071  52.558 -27.247  1.00  0.00     0.352 A 
ENDBRANCH  13  15
ENDBRANCH   4  13
BRANCH   1  25
HETATM   25  O1  UNL     1      -0.854  51.991 -21.517  1.00  0.00    -0.353 OA
HETATM   26  C1  UNL     1      -0.408  52.271 -22.837  1.00  0.00     0.210 C 
ENDBRANCH   1  25
BRANCH  12  27
HETATM   27  O4  UNL     1      -1.540  51.255 -19.104  1.00  0.00    -0.348 OA
BRANCH  27  28
HETATM   28  C17 UNL     1      -1.262  50.079 -18.349  1.00  0.00     0.177 C 
BRANCH  28  29
HETATM   29  C18 UNL     1      -1.004  50.463 -16.892  1.00  0.00     0.057 C 
BRANCH  29  30
HETATM   30  C19 UNL     1       0.448  50.189 -16.474  1.00  0.00     0.274 C 
BRANCH  30  31
HETATM   31  N4  UNL     1       0.968  51.204 -15.541  1.00  0.00     0.092 N 
HETATM   32  C20 UNL     1       1.435  52.413 -16.256  1.00  0.00     0.298 C 
HETATM   33  C21 UNL     1       2.955  52.448 -16.469  1.00  0.00     0.198 C 
HETATM   34  O5  UNL     1       3.700  52.410 -15.243  1.00  0.00    -0.388 OA
HETATM   35  C22 UNL     1       2.986  51.774 -14.173  1.00  0.00     0.198 C 
HETATM   36  C23 UNL     1       2.039  50.670 -14.672  1.00  0.00     0.298 C 
ENDBRANCH  30  31
ENDBRANCH  29  30
ENDBRANCH  28  29
ENDBRANCH  27  28
ENDBRANCH  12  27
TORSDOF 8
ENDMDL
MODEL 6
REMARK minimizedAffinity -8.00880051
REMARK  8 active torsions:
REMARK  status: ('A' for Active; 'I' for Inactive)
REMARK    1  A    between atoms: O1_2  and  C2_3 
REMARK    2  A    between atoms: C5_6  and  N1_7 
REMARK    3  A    between atoms: N1_7  and  C6_8 
REMARK    4  A    between atoms: C16_25  and  O4_26 
REMARK    5  A    between atoms: O4_26  and  C17_27 
REMARK    6  A    between atoms: C17_27  and  C18_28 
REMARK    7  A    between atoms: C18_28  and  C19_29 
REMARK    8  A    between atoms: C19_29  and  N4_30 
ROOT
HETATM    1  C2  UNL     1      -0.155  51.884 -21.041  1.00  0.00     0.102 A 
HETATM    2  C3  UNL     1       0.007  51.836 -19.655  1.00  0.00     0.056 A 
HETATM    3  C4  UNL     1      -0.401  50.701 -18.911  1.00  0.00     0.032 A 
HETATM    4  C5  UNL     1      -0.278  50.562 -17.514  1.00  0.00     0.098 A 
HETATM    5  N2  UNL     1      -0.671  49.448 -16.867  1.00  0.00    -0.342 N 
ATOM      6  H2  UNL     1      -0.586  49.359 -15.854  1.00  0.00     0.167 HD
HETATM    7  C13 UNL     1      -1.177  48.468 -17.616  1.00  0.00     0.182 A 
HETATM    8  N3  UNL     1      -1.350  48.495 -18.942  1.00  0.00    -0.351 N 
ATOM      9  H3  UNL     1      -1.759  47.707 -19.444  1.00  0.00     0.166 HD
HETATM   10  C14 UNL     1      -0.961  49.604 -19.576  1.00  0.00     0.049 A 
HETATM   11  C15 UNL     1      -1.122  49.667 -20.955  1.00  0.00     0.070 A 
HETATM   12  C16 UNL     1      -0.735  50.787 -21.697  1.00  0.00     0.104 A 
ENDROOT
BRANCH   4  13
HETATM   13  N1  UNL     1       0.229  51.653 -16.756  1.00  0.00    -0.240 NA
HETATM   14  H5  UNL     1      -0.484  51.929 -16.083  1.00  0.00     0.135 HD
BRANCH  13  15
HETATM   15  C6  UNL     1       1.509  51.704 -16.159  1.00  0.00     0.089 A 
HETATM   16  C7  UNL     1       2.553  52.404 -16.788  1.00  0.00     0.140 A 
HETATM   17  F1  UNL     1       2.308  53.035 -17.947  1.00  0.00    -0.204 F 
HETATM   18  C8  UNL     1       3.845  52.474 -16.245  1.00  0.00     0.047 A 
HETATM   19  C9  UNL     1       4.131  51.823 -15.045  1.00  0.00     0.043 A 
HETATM   20  C10 UNL     1       3.111  51.115 -14.444  1.00  0.00     0.107 A 
HETATM   21  C11 UNL     1       1.840  51.049 -14.981  1.00  0.00     0.129 A 
HETATM   22  O3  UNL     1       3.230  50.400 -13.293  1.00  0.00    -0.323 OA
HETATM   23  O2  UNL     1       1.023  50.245 -14.240  1.00  0.00    -0.321 OA
HETATM   24  C12 UNL     1       1.892  49.885 -13.151  1.00  0.00     0.352 A 
ENDBRANCH  13  15
ENDBRANCH   4  13
BRANCH   1  25
HETATM   25  O1  UNL     1       0.205  52.944 -21.832  1.00  0.00    -0.353 OA
HETATM   26  C1  UNL     1       1.279  53.765 -21.392  1.00  0.00     0.210 C 
ENDBRANCH   1  25
BRANCH  12  27
HETATM   27  O4  UNL     1      -0.863  50.898 -23.060  1.00  0.00    -0.348 OA
BRANCH  27  28
HETATM   28  C17 UNL     1      -2.165  51.120 -23.592  1.00  0.00     0.177 C 
BRANCH  28  29
HETATM   29  C18 UNL     1      -2.066  51.330 -25.103  1.00  0.00     0.057 C 
BRANCH  29  30
HETATM   30  C19 UNL     1      -0.780  50.727 -25.684  1.00  0.00     0.274 C 
BRANCH  30  31
HETATM   31  N4  UNL     1       0.018  51.713 -26.433  1.00  0.00     0.092 N 
HETATM   32  C20 UNL     1       0.879  52.514 -25.534  1.00  0.00     0.298 C 
HETATM   33  C21 UNL     1       0.291  53.889 -25.189  1.00  0.00     0.198 C 
HETATM   34  O5  UNL     1       0.060  54.713 -26.340  1.00  0.00    -0.388 OA
HETATM   35  C22 UNL     1      -0.151  53.954 -27.539  1.00  0.00     0.198 C 
HETATM   36  C23 UNL     1      -0.825  52.599 -27.266  1.00  0.00     0.298 C 
ENDBRANCH  30  31
ENDBRANCH  29  30
ENDBRANCH  28  29
ENDBRANCH  27  28
ENDBRANCH  12  27
TORSDOF 8
ENDMDL
MODEL 7
REMARK minimizedAffinity -8.00414848
REMARK  8 active torsions:
REMARK  status: ('A' for Active; 'I' for Inactive)
REMARK    1  A    between atoms: O1_2  and  C2_3 
REMARK    2  A    between atoms: C5_6  and  N1_7 
REMARK    3  A    between atoms: N1_7  and  C6_8 
REMARK    4  A    between atoms: C16_25  and  O4_26 
REMARK    5  A    between atoms: O4_26  and  C17_27 
REMARK    6  A    between atoms: C17_27  and  C18_28 
REMARK    7  A    between atoms: C18_28  and  C19_29 
REMARK    8  A    between atoms: C19_29  and  N4_30 
ROOT
HETATM    1  C2  UNL     1      -0.381  50.609 -19.828  1.00  0.00     0.102 A 
HETATM    2  C3  UNL     1      -0.143  50.893 -21.174  1.00  0.00     0.056 A 
HETATM    3  C4  UNL     1       0.368  52.153 -21.574  1.00  0.00     0.032 A 
HETATM    4  C5  UNL     1       0.639  52.531 -22.905  1.00  0.00     0.098 A 
HETATM    5  N2  UNL     1       1.139  53.741 -23.219  1.00  0.00    -0.342 N 
ATOM      6  H2  UNL     1       1.325  54.009 -24.186  1.00  0.00     0.167 HD
HETATM    7  C13 UNL     1       1.381  54.571 -22.203  1.00  0.00     0.182 A 
HETATM    8  N3  UNL     1       1.153  54.324 -20.908  1.00  0.00    -0.351 N 
ATOM      9  H3  UNL     1       1.351  55.018 -20.188  1.00  0.00     0.166 HD
HETATM   10  C14 UNL     1       0.652  53.123 -20.605  1.00  0.00     0.049 A 
HETATM   11  C15 UNL     1       0.406  52.828 -19.270  1.00  0.00     0.070 A 
HETATM   12  C16 UNL     1      -0.110  51.593 -18.865  1.00  0.00     0.104 A 
ENDROOT
BRANCH   4  13
HETATM   13  N1  UNL     1       0.323  51.625 -23.954  1.00  0.00    -0.240 NA
HETATM   14  H5  UNL     1       0.286  50.686 -23.562  1.00  0.00     0.135 HD
BRANCH  13  15
HETATM   15  C6  UNL     1      -0.716  51.801 -24.896  1.00  0.00     0.089 A 
HETATM   16  C7  UNL     1      -1.887  51.029 -24.806  1.00  0.00     0.140 A 
HETATM   17  F1  UNL     1      -2.007  50.143 -23.804  1.00  0.00    -0.204 F 
HETATM   18  C8  UNL     1      -2.942  51.155 -25.722  1.00  0.00     0.047 A 
HETATM   19  C9  UNL     1      -2.843  52.061 -26.777  1.00  0.00     0.043 A 
HETATM   20  C10 UNL     1      -1.682  52.799 -26.878  1.00  0.00     0.107 A 
HETATM   21  C11 UNL     1      -0.646  52.673 -25.973  1.00  0.00     0.129 A 
HETATM   22  O3  UNL     1      -1.413  53.700 -27.860  1.00  0.00    -0.323 OA
HETATM   23  O2  UNL     1       0.415  53.462 -26.314  1.00  0.00    -0.321 OA
HETATM   24  C12 UNL     1      -0.097  54.143 -27.472  1.00  0.00     0.352 A 
ENDBRANCH  13  15
ENDBRANCH   4  13
BRANCH   1  25
HETATM   25  O1  UNL     1      -0.880  49.421 -19.358  1.00  0.00    -0.353 OA
HETATM   26  C1  UNL     1      -1.092  48.374 -20.296  1.00  0.00     0.210 C 
ENDBRANCH   1  25
BRANCH  12  27
HETATM   27  O4  UNL     1      -0.363  51.247 -17.560  1.00  0.00    -0.348 OA
BRANCH  27  28
HETATM   28  C17 UNL     1       0.747  51.118 -16.677  1.00  0.00     0.177 C 
BRANCH  28  29
HETATM   29  C18 UNL     1       0.546  49.891 -15.788  1.00  0.00     0.057 C 
BRANCH  29  30
HETATM   30  C19 UNL     1       0.256  50.278 -14.331  1.00  0.00     0.274 C 
BRANCH  30  31
HETATM   31  N4  UNL     1      -0.632  51.448 -14.223  1.00  0.00     0.092 N 
HETATM   32  C20 UNL     1      -0.201  52.363 -13.142  1.00  0.00     0.298 C 
HETATM   33  C21 UNL     1      -0.990  52.181 -11.837  1.00  0.00     0.198 C 
HETATM   34  O5  UNL     1      -2.400  52.399 -11.992  1.00  0.00    -0.388 OA
HETATM   35  C22 UNL     1      -2.862  52.155 -13.328  1.00  0.00     0.198 C 
HETATM   36  C23 UNL     1      -2.049  51.062 -14.041  1.00  0.00     0.298 C 
ENDBRANCH  30  31
ENDBRANCH  29  30
ENDBRANCH  28  29
ENDBRANCH  27  28
ENDBRANCH  12  27
TORSDOF 8
ENDMDL
MODEL 8
REMARK minimizedAffinity -7.94909811
REMARK  8 active torsions:
REMARK  status: ('A' for Active; 'I' for Inactive)
REMARK    1  A    between atoms: O1_2  and  C2_3 
REMARK    2  A    between atoms: C5_6  and  N1_7 
REMARK    3  A    between atoms: N1_7  and  C6_8 
REMARK    4  A    between atoms: C16_25  and  O4_26 
REMARK    5  A    between atoms: O4_26  and  C17_27 
REMARK    6  A    between atoms: C17_27  and  C18_28 
REMARK    7  A    between atoms: C18_28  and  C19_29 
REMARK    8  A    between atoms: C19_29  and  N4_30 
ROOT
HETATM    1  C2  UNL     1      -0.313  50.134 -17.989  1.00  0.00     0.102 A 
HETATM    2  C3  UNL     1      -0.427  50.439 -19.346  1.00  0.00     0.056 A 
HETATM    3  C4  UNL     1       0.061  51.666 -19.862  1.00  0.00     0.032 A 
HETATM    4  C5  UNL     1      -0.009  52.061 -21.213  1.00  0.00     0.098 A 
HETATM    5  N2  UNL     1       0.489  53.235 -21.644  1.00  0.00    -0.342 N 
ATOM      6  H2  UNL     1       0.426  53.517 -22.623  1.00  0.00     0.167 HD
HETATM    7  C13 UNL     1       1.068  54.011 -20.728  1.00  0.00     0.182 A 
HETATM    8  N3  UNL     1       1.181  53.744 -19.422  1.00  0.00    -0.351 N 
ATOM      9  H3  UNL     1       1.627  54.398 -18.779  1.00  0.00     0.166 HD
HETATM   10  C14 UNL     1       0.681  52.579 -19.002  1.00  0.00     0.049 A 
HETATM   11  C15 UNL     1       0.784  52.265 -17.652  1.00  0.00     0.070 A 
HETATM   12  C16 UNL     1       0.294  51.064 -17.130  1.00  0.00     0.104 A 
ENDROOT
BRANCH   4  13
HETATM   13  N1  UNL     1      -0.675  51.215 -22.143  1.00  0.00    -0.240 NA
HETATM   14  H5  UNL     1      -0.807  50.305 -21.705  1.00  0.00     0.135 HD
BRANCH  13  15
HETATM   15  C6  UNL     1      -1.824  51.569 -22.886  1.00  0.00     0.089 A 
HETATM   16  C7  UNL     1      -3.099  51.475 -22.301  1.00  0.00     0.140 A 
HETATM   17  F1  UNL     1      -3.201  51.066 -21.026  1.00  0.00    -0.204 F 
HETATM   18  C8  UNL     1      -4.272  51.801 -22.998  1.00  0.00     0.047 A 
HETATM   19  C9  UNL     1      -4.197  52.223 -24.326  1.00  0.00     0.043 A 
HETATM   20  C10 UNL     1      -2.947  52.289 -24.905  1.00  0.00     0.107 A 
HETATM   21  C11 UNL     1      -1.794  51.968 -24.215  1.00  0.00     0.129 A 
HETATM   22  O3  UNL     1      -2.703  52.648 -26.194  1.00  0.00    -0.323 OA
HETATM   23  O2  UNL     1      -0.691  52.054 -25.014  1.00  0.00    -0.321 OA
HETATM   24  C12 UNL     1      -1.266  52.534 -26.242  1.00  0.00     0.352 A 
ENDBRANCH  13  15
ENDBRANCH   4  13
BRANCH   1  25
HETATM   25  O1  UNL     1      -0.765  48.977 -17.409  1.00  0.00    -0.353 OA
HETATM   26  C1  UNL     1      -2.029  48.477 -17.825  1.00  0.00     0.210 C 
ENDBRANCH   1  25
BRANCH  12  27
HETATM   27  O4  UNL     1       0.377  50.700 -15.808  1.00  0.00    -0.348 OA
BRANCH  27  28
HETATM   28  C17 UNL     1       0.508  51.735 -14.839  1.00  0.00     0.177 C 
BRANCH  28  29
HETATM   29  C18 UNL     1      -0.367  51.409 -13.629  1.00  0.00     0.057 C 
BRANCH  29  30
HETATM   30  C19 UNL     1      -0.428  52.575 -12.632  1.00  0.00     0.274 C 
BRANCH  30  31
HETATM   31  N4  UNL     1      -1.383  52.332 -11.537  1.00  0.00     0.092 N 
HETATM   32  C20 UNL     1      -2.681  51.837 -12.045  1.00  0.00     0.298 C 
HETATM   33  C21 UNL     1      -3.751  52.933 -12.161  1.00  0.00     0.198 C 
HETATM   34  O5  UNL     1      -4.043  53.575 -10.911  1.00  0.00    -0.388 OA
HETATM   35  C22 UNL     1      -2.948  53.523  -9.986  1.00  0.00     0.198 C 
HETATM   36  C23 UNL     1      -1.581  53.530 -10.690  1.00  0.00     0.298 C 
ENDBRANCH  30  31
ENDBRANCH  29  30
ENDBRANCH  28  29
ENDBRANCH  27  28
ENDBRANCH  12  27
TORSDOF 8
ENDMDL
MODEL 9
REMARK minimizedAffinity -7.84716129
REMARK  8 active torsions:
REMARK  status: ('A' for Active; 'I' for Inactive)
REMARK    1  A    between atoms: O1_2  and  C2_3 
REMARK    2  A    between atoms: C5_6  and  N1_7 
REMARK    3  A    between atoms: N1_7  and  C6_8 
REMARK    4  A    between atoms: C16_25  and  O4_26 
REMARK    5  A    between atoms: O4_26  and  C17_27 
REMARK    6  A    between atoms: C17_27  and  C18_28 
REMARK    7  A    between atoms: C18_28  and  C19_29 
REMARK    8  A    between atoms: C19_29  and  N4_30 
ROOT
HETATM    1  C2  UNL     1      -3.168  50.022 -26.865  1.00  0.00     0.102 A 
HETATM    2  C3  UNL     1      -3.127  50.675 -25.633  1.00  0.00     0.056 A 
HETATM    3  C4  UNL     1      -3.758  50.120 -24.491  1.00  0.00     0.032 A 
HETATM    4  C5  UNL     1      -3.771  50.705 -23.209  1.00  0.00     0.098 A 
HETATM    5  N2  UNL     1      -4.377  50.119 -22.159  1.00  0.00    -0.342 N 
ATOM      6  H2  UNL     1      -4.388  50.553 -21.236  1.00  0.00     0.167 HD
HETATM    7  C13 UNL     1      -4.961  48.942 -22.386  1.00  0.00     0.182 A 
HETATM    8  N3  UNL     1      -5.021  48.302 -23.560  1.00  0.00    -0.351 N 
ATOM      9  H3  UNL     1      -5.501  47.408 -23.657  1.00  0.00     0.166 HD
HETATM   10  C14 UNL     1      -4.421  48.892 -24.597  1.00  0.00     0.049 A 
HETATM   11  C15 UNL     1      -4.459  48.255 -25.831  1.00  0.00     0.070 A 
HETATM   12  C16 UNL     1      -3.850  48.799 -26.966  1.00  0.00     0.104 A 
ENDROOT
BRANCH   4  13
HETATM   13  N1  UNL     1      -3.170  51.982 -23.029  1.00  0.00    -0.240 NA
HETATM   14  H5  UNL     1      -3.738  52.510 -22.369  1.00  0.00     0.135 HD
BRANCH  13  15
HETATM   15  C6  UNL     1      -1.797  52.206 -22.778  1.00  0.00     0.089 A 
HETATM   16  C7  UNL     1      -1.247  51.880 -21.527  1.00  0.00     0.140 A 
HETATM   17  F1  UNL     1      -2.039  51.336 -20.589  1.00  0.00    -0.204 F 
HETATM   18  C8  UNL     1       0.106  52.095 -21.222  1.00  0.00     0.047 A 
HETATM   19  C9  UNL     1       0.951  52.664 -22.174  1.00  0.00     0.043 A 
HETATM   20  C10 UNL     1       0.402  53.008 -23.392  1.00  0.00     0.107 A 
HETATM   21  C11 UNL     1      -0.930  52.794 -23.689  1.00  0.00     0.129 A 
HETATM   22  O3  UNL     1       1.078  53.599 -24.413  1.00  0.00    -0.323 OA
HETATM   23  O2  UNL     1      -1.249  53.267 -24.928  1.00  0.00    -0.321 OA
HETATM   24  C12 UNL     1       0.031  53.724 -25.397  1.00  0.00     0.352 A 
ENDBRANCH  13  15
ENDBRANCH   4  13
BRANCH   1  25
HETATM   25  O1  UNL     1      -2.591  50.492 -28.017  1.00  0.00    -0.353 OA
HETATM   26  C1  UNL     1      -1.432  51.305 -27.893  1.00  0.00     0.210 C 
ENDBRANCH   1  25
BRANCH  12  27
HETATM   27  O4  UNL     1      -3.849  48.208 -28.206  1.00  0.00    -0.348 OA
BRANCH  27  28
HETATM   28  C17 UNL     1      -5.089  48.116 -28.901  1.00  0.00     0.177 C 
BRANCH  28  29
HETATM   29  C18 UNL     1      -6.165  47.592 -27.950  1.00  0.00     0.057 C 
BRANCH  29  30
HETATM   30  C19 UNL     1      -7.410  47.104 -28.703  1.00  0.00     0.274 C 
BRANCH  30  31
HETATM   31  N4  UNL     1      -7.499  47.656 -30.066  1.00  0.00     0.092 N 
HETATM   32  C20 UNL     1      -8.636  48.594 -30.201  1.00  0.00     0.298 C 
HETATM   33  C21 UNL     1      -9.880  47.957 -30.839  1.00  0.00     0.198 C 
HETATM   34  O5  UNL     1      -9.641  47.443 -32.157  1.00  0.00    -0.388 OA
HETATM   35  C22 UNL     1      -8.271  47.083 -32.378  1.00  0.00     0.198 C 
HETATM   36  C23 UNL     1      -7.576  46.597 -31.096  1.00  0.00     0.298 C 
ENDBRANCH  30  31
ENDBRANCH  29  30
ENDBRANCH  28  29
ENDBRANCH  27  28
ENDBRANCH  12  27
TORSDOF 8
ENDMDL
