MODEL 1
REMARK minimizedAffinity -8.68323421
REMARK  6 active torsions:
REMARK  status: ('A' for Active; 'I' for Inactive)
REMARK    1  A    between atoms: O1_2  and  C2_3 
REMARK    2  A    between atoms: C5_6  and  N1_7 
REMARK    3  A    between atoms: N1_7  and  C6_8 
REMARK    4  A    between atoms: C16_25  and  O4_26 
REMARK    5  A    between atoms: O4_26  and  C17_27 
REMARK    6  A    between atoms: C17_27  and  C18_28 
ROOT
HETATM    1  C2  UNL     1      -0.385  50.875 -19.684  1.00  0.00     0.102 A 
HETATM    2  C3  UNL     1      -0.378  51.111 -21.058  1.00  0.00     0.056 A 
HETATM    3  C4  UNL     1       0.225  52.280 -21.600  1.00  0.00     0.032 A 
HETATM    4  C5  UNL     1       0.276  52.599 -22.971  1.00  0.00     0.098 A 
HETATM    5  N2  UNL     1       0.871  53.716 -23.427  1.00  0.00    -0.342 N 
ATOM      6  H2  UNL     1       0.897  53.941 -24.422  1.00  0.00     0.167 HD
HETATM    7  C13 UNL     1       1.424  54.516 -22.513  1.00  0.00     0.182 A 
HETATM    8  N3  UNL     1       1.429  54.320 -21.190  1.00  0.00    -0.351 N 
ATOM      9  H3  UNL     1       1.866  54.986 -20.553  1.00  0.00     0.166 HD
HETATM   10  C14 UNL     1       0.834  53.210 -20.746  1.00  0.00     0.049 A 
HETATM   11  C15 UNL     1       0.818  52.968 -19.382  1.00  0.00     0.070 A 
HETATM   12  C16 UNL     1       0.236  51.812 -18.855  1.00  0.00     0.104 A 
ENDROOT
BRANCH   4  13
HETATM   13  N1  UNL     1      -0.375  51.739 -23.899  1.00  0.00    -0.241 NA
HETATM   14  H5  UNL     1      -1.309  51.545 -23.542  1.00  0.00     0.135 HD
BRANCH  13  15
HETATM   15  C6  UNL     1      -0.423  51.944 -25.300  1.00  0.00     0.072 A 
HETATM   16  C7  UNL     1      -1.639  52.224 -25.957  1.00  0.00     0.058 A 
HETATM   17 CL1  UNL     1      -3.111  52.349 -25.051  1.00  0.00    -0.082 Cl
HETATM   18  C8  UNL     1      -1.702  52.417 -27.350  1.00  0.00     0.028 A 
HETATM   19  C9  UNL     1      -0.546  52.319 -28.127  1.00  0.00     0.041 A 
HETATM   20  C10 UNL     1       0.634  52.020 -27.481  1.00  0.00     0.106 A 
HETATM   21  C11 UNL     1       0.698  51.831 -26.116  1.00  0.00     0.128 A 
HETATM   22  O3  UNL     1       1.838  51.857 -28.091  1.00  0.00    -0.323 OA
HETATM   23  O2  UNL     1       1.959  51.490 -25.717  1.00  0.00    -0.321 OA
HETATM   24  C12 UNL     1       2.680  51.569 -26.959  1.00  0.00     0.352 A 
ENDBRANCH  13  15
ENDBRANCH   4  13
BRANCH   1  25
HETATM   25  O1  UNL     1      -0.951  49.793 -19.070  1.00  0.00    -0.353 OA
HETATM   26  C1  UNL     1      -1.126  48.613 -19.843  1.00  0.00     0.210 C 
ENDBRANCH   1  25
BRANCH  12  27
HETATM   27  O4  UNL     1       0.238  51.672 -17.490  1.00  0.00    -0.348 OA
BRANCH  27  28
HETATM   28  C17 UNL     1       1.380  52.326 -16.920  1.00  0.00     0.180 C 
BRANCH  28  29
HETATM   29  C18 UNL     1       1.375  52.096 -15.401  1.00  0.00     0.013 C 
HETATM   30  C19 UNL     1       2.792  51.775 -14.890  1.00  0.00     0.037 C 
HETATM   31  C20 UNL     1       2.743  51.007 -13.571  1.00  0.00     0.272 C 
HETATM   32  N4  UNL     1       2.026  49.727 -13.663  1.00  0.00     0.084 N 
HETATM   33  C21 UNL     1       2.941  48.589 -13.706  1.00  0.00     0.309 C 
HETATM   34  C22 UNL     1       1.063  49.661 -14.771  1.00  0.00     0.272 C 
HETATM   35  C23 UNL     1       0.370  51.003 -15.002  1.00  0.00     0.037 C 
ENDBRANCH  28  29
ENDBRANCH  27  28
ENDBRANCH  12  27
TORSDOF 6
ENDMDL
MODEL 2
REMARK minimizedAffinity -8.6629734
REMARK  6 active torsions:
REMARK  status: ('A' for Active; 'I' for Inactive)
REMARK    1  A    between atoms: O1_2  and  C2_3 
REMARK    2  A    between atoms: C5_6  and  N1_7 
REMARK    3  A    between atoms: N1_7  and  C6_8 
REMARK    4  A    between atoms: C16_25  and  O4_26 
REMARK    5  A    between atoms: O4_26  and  C17_27 
REMARK    6  A    between atoms: C17_27  and  C18_28 
ROOT
HETATM    1  C2  UNL     1      -0.971  52.147 -22.113  1.00  0.00     0.102 A 
HETATM    2  C3  UNL     1      -2.195  51.931 -22.745  1.00  0.00     0.056 A 
HETATM    3  C4  UNL     1      -3.315  51.431 -22.026  1.00  0.00     0.032 A 
HETATM    4  C5  UNL     1      -4.585  51.182 -22.583  1.00  0.00     0.098 A 
HETATM    5  N2  UNL     1      -5.612  50.718 -21.849  1.00  0.00    -0.342 N 
ATOM      6  H2  UNL     1      -6.527  50.535 -22.264  1.00  0.00     0.167 HD
HETATM    7  C13 UNL     1      -5.377  50.508 -20.552  1.00  0.00     0.182 A 
HETATM    8  N3  UNL     1      -4.215  50.700 -19.919  1.00  0.00    -0.351 N 
ATOM      9  H3  UNL     1      -4.110  50.506 -18.924  1.00  0.00     0.166 HD
HETATM   10  C14 UNL     1      -3.199  51.158 -20.655  1.00  0.00     0.049 A 
HETATM   11  C15 UNL     1      -1.977  51.372 -20.038  1.00  0.00     0.070 A 
HETATM   12  C16 UNL     1      -0.883  51.876 -20.745  1.00  0.00     0.104 A 
ENDROOT
BRANCH   4  13
HETATM   13  N1  UNL     1      -4.769  51.372 -23.980  1.00  0.00    -0.241 NA
HETATM   14  H5  UNL     1      -4.689  52.370 -24.173  1.00  0.00     0.135 HD
BRANCH  13  15
HETATM   15  C6  UNL     1      -4.118  50.627 -24.994  1.00  0.00     0.072 A 
HETATM   16  C7  UNL     1      -4.215  49.221 -25.045  1.00  0.00     0.058 A 
HETATM   17 CL1  UNL     1      -5.163  48.370 -23.871  1.00  0.00    -0.082 Cl
HETATM   18  C8  UNL     1      -3.562  48.469 -26.040  1.00  0.00     0.028 A 
HETATM   19  C9  UNL     1      -2.779  49.106 -27.004  1.00  0.00     0.041 A 
HETATM   20  C10 UNL     1      -2.669  50.478 -26.932  1.00  0.00     0.106 A 
HETATM   21  C11 UNL     1      -3.308  51.217 -25.958  1.00  0.00     0.128 A 
HETATM   22  O3  UNL     1      -1.923  51.246 -27.770  1.00  0.00    -0.323 OA
HETATM   23  O2  UNL     1      -3.002  52.545 -26.058  1.00  0.00    -0.321 OA
HETATM   24  C12 UNL     1      -2.179  52.559 -27.237  1.00  0.00     0.352 A 
ENDBRANCH  13  15
ENDBRANCH   4  13
BRANCH   1  25
HETATM   25  O1  UNL     1       0.164  52.608 -22.721  1.00  0.00    -0.353 OA
HETATM   26  C1  UNL     1       0.272  52.439 -24.128  1.00  0.00     0.210 C 
ENDBRANCH   1  25
BRANCH  12  27
HETATM   27  O4  UNL     1       0.296  52.025 -20.059  1.00  0.00    -0.348 OA
BRANCH  27  28
HETATM   28  C17 UNL     1       0.040  52.338 -18.683  1.00  0.00     0.180 C 
BRANCH  28  29
HETATM   29  C18 UNL     1       0.892  51.415 -17.799  1.00  0.00     0.013 C 
HETATM   30  C19 UNL     1       0.015  50.354 -17.106  1.00  0.00     0.037 C 
HETATM   31  C20 UNL     1       0.686  49.824 -15.842  1.00  0.00     0.272 C 
HETATM   32  N4  UNL     1       0.962  50.864 -14.842  1.00  0.00     0.084 N 
HETATM   33  C21 UNL     1       0.005  50.830 -13.738  1.00  0.00     0.309 C 
HETATM   34  C22 UNL     1       1.060  52.219 -15.402  1.00  0.00     0.272 C 
HETATM   35  C23 UNL     1       1.718  52.218 -16.780  1.00  0.00     0.037 C 
ENDBRANCH  28  29
ENDBRANCH  27  28
ENDBRANCH  12  27
TORSDOF 6
ENDMDL
MODEL 3
REMARK minimizedAffinity -8.60198212
REMARK  6 active torsions:
REMARK  status: ('A' for Active; 'I' for Inactive)
REMARK    1  A    between atoms: O1_2  and  C2_3 
REMARK    2  A    between atoms: C5_6  and  N1_7 
REMARK    3  A    between atoms: N1_7  and  C6_8 
REMARK    4  A    between atoms: C16_25  and  O4_26 
REMARK    5  A    between atoms: O4_26  and  C17_27 
REMARK    6  A    between atoms: C17_27  and  C18_28 
ROOT
HETATM    1  C2  UNL     1       1.072  53.417 -20.465  1.00  0.00     0.102 A 
HETATM    2  C3  UNL     1       1.051  53.125 -19.101  1.00  0.00     0.056 A 
HETATM    3  C4  UNL     1       0.414  51.953 -18.610  1.00  0.00     0.032 A 
HETATM    4  C5  UNL     1       0.343  51.582 -17.253  1.00  0.00     0.098 A 
HETATM    5  N2  UNL     1      -0.266  50.453 -16.848  1.00  0.00    -0.342 N 
ATOM      6  H2  UNL     1      -0.317  50.196 -15.862  1.00  0.00     0.167 HD
HETATM    7  C13 UNL     1      -0.801  49.686 -17.800  1.00  0.00     0.182 A 
HETATM    8  N3  UNL     1      -0.803  49.940 -19.113  1.00  0.00    -0.351 N 
ATOM      9  H3  UNL     1      -1.244  49.307 -19.780  1.00  0.00     0.166 HD
HETATM   10  C14 UNL     1      -0.198  51.065 -19.506  1.00  0.00     0.049 A 
HETATM   11  C15 UNL     1      -0.176  51.366 -20.858  1.00  0.00     0.070 A 
HETATM   12  C16 UNL     1       0.464  52.512 -21.338  1.00  0.00     0.104 A 
ENDROOT
BRANCH   4  13
HETATM   13  N1  UNL     1       0.883  52.461 -16.274  1.00  0.00    -0.241 NA
HETATM   14  H5  UNL     1       0.243  53.248 -16.174  1.00  0.00     0.135 HD
BRANCH  13  15
HETATM   15  C6  UNL     1       1.366  52.062 -15.003  1.00  0.00     0.072 A 
HETATM   16  C7  UNL     1       2.743  51.856 -14.776  1.00  0.00     0.058 A 
HETATM   17 CL1  UNL     1       3.885  52.113 -16.053  1.00  0.00    -0.082 Cl
HETATM   18  C8  UNL     1       3.233  51.448 -13.521  1.00  0.00     0.028 A 
HETATM   19  C9  UNL     1       2.354  51.219 -12.461  1.00  0.00     0.041 A 
HETATM   20  C10 UNL     1       1.008  51.398 -12.699  1.00  0.00     0.106 A 
HETATM   21  C11 UNL     1       0.525  51.799 -13.928  1.00  0.00     0.128 A 
HETATM   22  O3  UNL     1       0.020  51.188 -11.789  1.00  0.00    -0.323 OA
HETATM   23  O2  UNL     1      -0.841  51.851 -13.935  1.00  0.00    -0.321 OA
HETATM   24  C12 UNL     1      -1.144  51.524 -12.567  1.00  0.00     0.352 A 
ENDBRANCH  13  15
ENDBRANCH   4  13
BRANCH   1  25
HETATM   25  O1  UNL     1       1.644  54.523 -21.029  1.00  0.00    -0.353 OA
HETATM   26  C1  UNL     1       1.525  54.681 -22.437  1.00  0.00     0.210 C 
ENDBRANCH   1  25
BRANCH  12  27
HETATM   27  O4  UNL     1       0.407  52.746 -22.689  1.00  0.00    -0.348 OA
BRANCH  27  28
HETATM   28  C17 UNL     1      -0.660  51.994 -23.284  1.00  0.00     0.180 C 
BRANCH  28  29
HETATM   29  C18 UNL     1      -0.198  51.481 -24.656  1.00  0.00     0.013 C 
HETATM   30  C19 UNL     1       0.821  52.447 -25.289  1.00  0.00     0.037 C 
HETATM   31  C20 UNL     1       0.859  52.293 -26.807  1.00  0.00     0.272 C 
HETATM   32  N4  UNL     1      -0.434  52.554 -27.457  1.00  0.00     0.084 N 
HETATM   33  C21 UNL     1      -0.468  53.866 -28.099  1.00  0.00     0.309 C 
HETATM   34  C22 UNL     1      -1.592  52.380 -26.570  1.00  0.00     0.272 C 
HETATM   35  C23 UNL     1      -1.391  51.226 -25.591  1.00  0.00     0.037 C 
ENDBRANCH  28  29
ENDBRANCH  27  28
ENDBRANCH  12  27
TORSDOF 6
ENDMDL
MODEL 4
REMARK minimizedAffinity -8.52969742
REMARK  6 active torsions:
REMARK  status: ('A' for Active; 'I' for Inactive)
REMARK    1  A    between atoms: O1_2  and  C2_3 
REMARK    2  A    between atoms: C5_6  and  N1_7 
REMARK    3  A    between atoms: N1_7  and  C6_8 
REMARK    4  A    between atoms: C16_25  and  O4_26 
REMARK    5  A    between atoms: O4_26  and  C17_27 
REMARK    6  A    between atoms: C17_27  and  C18_28 
ROOT
HETATM    1  C2  UNL     1      -3.085  50.131 -26.932  1.00  0.00     0.102 A 
HETATM    2  C3  UNL     1      -3.076  50.746 -25.680  1.00  0.00     0.056 A 
HETATM    3  C4  UNL     1      -3.794  50.193 -24.584  1.00  0.00     0.032 A 
HETATM    4  C5  UNL     1      -3.841  50.747 -23.290  1.00  0.00     0.098 A 
HETATM    5  N2  UNL     1      -4.530  50.172 -22.288  1.00  0.00    -0.342 N 
ATOM      6  H2  UNL     1      -4.563  50.585 -21.355  1.00  0.00     0.167 HD
HETATM    7  C13 UNL     1      -5.169  49.036 -22.574  1.00  0.00     0.182 A 
HETATM    8  N3  UNL     1      -5.202  48.425 -23.763  1.00  0.00    -0.351 N 
ATOM      9  H3  UNL     1      -5.723  47.561 -23.906  1.00  0.00     0.166 HD
HETATM   10  C14 UNL     1      -4.517  49.004 -24.754  1.00  0.00     0.049 A 
HETATM   11  C15 UNL     1      -4.524  48.403 -26.002  1.00  0.00     0.070 A 
HETATM   12  C16 UNL     1      -3.806  48.943 -27.073  1.00  0.00     0.104 A 
ENDROOT
BRANCH   4  13
HETATM   13  N1  UNL     1      -3.186  51.987 -23.051  1.00  0.00    -0.241 NA
HETATM   14  H5  UNL     1      -3.736  52.502 -22.364  1.00  0.00     0.135 HD
BRANCH  13  15
HETATM   15  C6  UNL     1      -1.804  52.136 -22.780  1.00  0.00     0.072 A 
HETATM   16  C7  UNL     1      -1.251  51.722 -21.550  1.00  0.00     0.058 A 
HETATM   17 CL1  UNL     1      -2.258  50.990 -20.344  1.00  0.00    -0.082 Cl
HETATM   18  C8  UNL     1       0.119  51.876 -21.264  1.00  0.00     0.028 A 
HETATM   19  C9  UNL     1       0.971  52.468 -22.198  1.00  0.00     0.041 A 
HETATM   20  C10 UNL     1       0.417  52.894 -23.386  1.00  0.00     0.106 A 
HETATM   21  C11 UNL     1      -0.924  52.742 -23.670  1.00  0.00     0.128 A 
HETATM   22  O3  UNL     1       1.099  53.516 -24.386  1.00  0.00    -0.323 OA
HETATM   23  O2  UNL     1      -1.245  53.291 -24.879  1.00  0.00    -0.321 OA
HETATM   24  C12 UNL     1       0.046  53.721 -25.347  1.00  0.00     0.352 A 
ENDBRANCH  13  15
ENDBRANCH   4  13
BRANCH   1  25
HETATM   25  O1  UNL     1      -2.441  50.593 -28.046  1.00  0.00    -0.353 OA
HETATM   26  C1  UNL     1      -1.320  51.445 -27.853  1.00  0.00     0.210 C 
ENDBRANCH   1  25
BRANCH  12  27
HETATM   27  O4  UNL     1      -3.897  48.298 -28.280  1.00  0.00    -0.348 OA
BRANCH  27  28
HETATM   28  C17 UNL     1      -5.271  48.080 -28.630  1.00  0.00     0.180 C 
BRANCH  28  29
HETATM   29  C18 UNL     1      -5.328  47.356 -29.984  1.00  0.00     0.013 C 
HETATM   30  C19 UNL     1      -5.446  48.365 -31.142  1.00  0.00     0.037 C 
HETATM   31  C20 UNL     1      -6.061  47.716 -32.379  1.00  0.00     0.272 C 
HETATM   32  N4  UNL     1      -7.408  47.174 -32.150  1.00  0.00     0.084 N 
HETATM   33  C21 UNL     1      -8.447  48.036 -32.710  1.00  0.00     0.309 C 
HETATM   34  C22 UNL     1      -7.694  46.862 -30.743  1.00  0.00     0.272 C 
HETATM   35  C23 UNL     1      -6.463  46.320 -30.019  1.00  0.00     0.037 C 
ENDBRANCH  28  29
ENDBRANCH  27  28
ENDBRANCH  12  27
TORSDOF 6
ENDMDL
MODEL 5
REMARK minimizedAffinity -8.43843937
REMARK  6 active torsions:
REMARK  status: ('A' for Active; 'I' for Inactive)
REMARK    1  A    between atoms: O1_2  and  C2_3 
REMARK    2  A    between atoms: C5_6  and  N1_7 
REMARK    3  A    between atoms: N1_7  and  C6_8 
REMARK    4  A    between atoms: C16_25  and  O4_26 
REMARK    5  A    between atoms: O4_26  and  C17_27 
REMARK    6  A    between atoms: C17_27  and  C18_28 
ROOT
HETATM    1  C2  UNL     1      -0.954  50.663 -21.842  1.00  0.00     0.102 A 
HETATM    2  C3  UNL     1      -0.594  51.588 -22.823  1.00  0.00     0.056 A 
HETATM    3  C4  UNL     1       0.253  52.689 -22.519  1.00  0.00     0.032 A 
HETATM    4  C5  UNL     1       0.663  53.669 -23.443  1.00  0.00     0.098 A 
HETATM    5  N2  UNL     1       1.476  54.685 -23.100  1.00  0.00    -0.342 N 
ATOM      6  H2  UNL     1       1.763  55.393 -23.776  1.00  0.00     0.167 HD
HETATM    7  C13 UNL     1       1.888  54.720 -21.831  1.00  0.00     0.182 A 
HETATM    8  N3  UNL     1       1.558  53.853 -20.868  1.00  0.00    -0.351 N 
ATOM      9  H3  UNL     1       1.906  53.953 -19.916  1.00  0.00     0.166 HD
HETATM   10  C14 UNL     1       0.748  52.849 -21.217  1.00  0.00     0.049 A 
HETATM   11  C15 UNL     1       0.382  51.928 -20.250  1.00  0.00     0.070 A 
HETATM   12  C16 UNL     1      -0.440  50.839 -20.556  1.00  0.00     0.104 A 
ENDROOT
BRANCH   4  13
HETATM   13  N1  UNL     1       0.154  53.616 -24.770  1.00  0.00    -0.241 NA
HETATM   14  H5  UNL     1       0.833  54.064 -25.384  1.00  0.00     0.135 HD
BRANCH  13  15
HETATM   15  C6  UNL     1      -0.373  52.457 -25.392  1.00  0.00     0.072 A 
HETATM   16  C7  UNL     1       0.467  51.538 -26.056  1.00  0.00     0.058 A 
HETATM   17 CL1  UNL     1       2.179  51.798 -26.102  1.00  0.00    -0.082 Cl
HETATM   18  C8  UNL     1      -0.045  50.389 -26.688  1.00  0.00     0.028 A 
HETATM   19  C9  UNL     1      -1.419  50.138 -26.687  1.00  0.00     0.041 A 
HETATM   20  C10 UNL     1      -2.234  51.055 -26.059  1.00  0.00     0.106 A 
HETATM   21  C11 UNL     1      -1.735  52.181 -25.438  1.00  0.00     0.128 A 
HETATM   22  O3  UNL     1      -3.591  50.977 -25.995  1.00  0.00    -0.323 OA
HETATM   23  O2  UNL     1      -2.738  52.963 -24.939  1.00  0.00    -0.321 OA
HETATM   24  C12 UNL     1      -3.896  52.166 -25.241  1.00  0.00     0.352 A 
ENDBRANCH  13  15
ENDBRANCH   4  13
BRANCH   1  25
HETATM   25  O1  UNL     1      -1.773  49.585 -22.033  1.00  0.00    -0.353 OA
HETATM   26  C1  UNL     1      -3.163  49.834 -22.195  1.00  0.00     0.210 C 
ENDBRANCH   1  25
BRANCH  12  27
HETATM   27  O4  UNL     1      -0.777  49.997 -19.527  1.00  0.00    -0.348 OA
BRANCH  27  28
HETATM   28  C17 UNL     1      -0.795  50.707 -18.281  1.00  0.00     0.180 C 
BRANCH  28  29
HETATM   29  C18 UNL     1       0.244  50.081 -17.340  1.00  0.00     0.013 C 
HETATM   30  C19 UNL     1      -0.383  48.950 -16.503  1.00  0.00     0.037 C 
HETATM   31  C20 UNL     1       0.406  48.711 -15.218  1.00  0.00     0.272 C 
HETATM   32  N4  UNL     1       0.479  49.891 -14.346  1.00  0.00     0.084 N 
HETATM   33  C21 UNL     1      -0.430  49.788 -13.207  1.00  0.00     0.309 C 
HETATM   34  C22 UNL     1       0.286  51.166 -15.050  1.00  0.00     0.272 C 
HETATM   35  C23 UNL     1       0.905  51.144 -16.446  1.00  0.00     0.037 C 
ENDBRANCH  28  29
ENDBRANCH  27  28
ENDBRANCH  12  27
TORSDOF 6
ENDMDL
MODEL 6
REMARK minimizedAffinity -8.36422539
REMARK  6 active torsions:
REMARK  status: ('A' for Active; 'I' for Inactive)
REMARK    1  A    between atoms: O1_2  and  C2_3 
REMARK    2  A    between atoms: C5_6  and  N1_7 
REMARK    3  A    between atoms: N1_7  and  C6_8 
REMARK    4  A    between atoms: C16_25  and  O4_26 
REMARK    5  A    between atoms: O4_26  and  C17_27 
REMARK    6  A    between atoms: C17_27  and  C18_28 
ROOT
HETATM    1  C2  UNL     1      -2.154  51.144 -20.599  1.00  0.00     0.102 A 
HETATM    2  C3  UNL     1      -2.299  51.454 -21.951  1.00  0.00     0.056 A 
HETATM    3  C4  UNL     1      -1.284  52.158 -22.656  1.00  0.00     0.032 A 
HETATM    4  C5  UNL     1      -1.348  52.513 -24.018  1.00  0.00     0.098 A 
HETATM    5  N2  UNL     1      -0.351  53.171 -24.635  1.00  0.00    -0.342 N 
ATOM      6  H2  UNL     1      -0.409  53.430 -25.621  1.00  0.00     0.167 HD
HETATM    7  C13 UNL     1       0.719  53.470 -23.895  1.00  0.00     0.182 A 
HETATM    8  N3  UNL     1       0.885  53.192 -22.598  1.00  0.00    -0.351 N 
ATOM      9  H3  UNL     1       1.731  53.464 -22.097  1.00  0.00     0.166 HD
HETATM   10  C14 UNL     1      -0.111  52.541 -21.991  1.00  0.00     0.049 A 
HETATM   11  C15 UNL     1       0.022  52.232 -20.647  1.00  0.00     0.070 A 
HETATM   12  C16 UNL     1      -0.972  51.528 -19.961  1.00  0.00     0.104 A 
ENDROOT
BRANCH   4  13
HETATM   13  N1  UNL     1      -2.532  52.218 -24.748  1.00  0.00    -0.241 NA
HETATM   14  H5  UNL     1      -2.557  52.830 -25.563  1.00  0.00     0.135 HD
BRANCH  13  15
HETATM   15  C6  UNL     1      -2.964  50.917 -25.104  1.00  0.00     0.072 A 
HETATM   16  C7  UNL     1      -2.213  50.113 -25.988  1.00  0.00     0.058 A 
HETATM   17 CL1  UNL     1      -0.719  50.698 -26.642  1.00  0.00    -0.082 Cl
HETATM   18  C8  UNL     1      -2.638  48.823 -26.359  1.00  0.00     0.028 A 
HETATM   19  C9  UNL     1      -3.838  48.309 -25.866  1.00  0.00     0.041 A 
HETATM   20  C10 UNL     1      -4.578  49.110 -25.024  1.00  0.00     0.106 A 
HETATM   21  C11 UNL     1      -4.164  50.374 -24.658  1.00  0.00     0.128 A 
HETATM   22  O3  UNL     1      -5.781  48.775 -24.484  1.00  0.00    -0.323 OA
HETATM   23  O2  UNL     1      -5.089  50.994 -23.866  1.00  0.00    -0.321 OA
HETATM   24  C12 UNL     1      -6.073  49.956 -23.714  1.00  0.00     0.352 A 
ENDBRANCH  13  15
ENDBRANCH   4  13
BRANCH   1  25
HETATM   25  O1  UNL     1      -3.077  50.486 -19.834  1.00  0.00    -0.353 OA
HETATM   26  C1  UNL     1      -4.421  50.464 -20.297  1.00  0.00     0.210 C 
ENDBRANCH   1  25
BRANCH  12  27
HETATM   27  O4  UNL     1      -0.770  51.295 -18.625  1.00  0.00    -0.348 OA
BRANCH  27  28
HETATM   28  C17 UNL     1       0.246  52.168 -18.111  1.00  0.00     0.180 C 
BRANCH  28  29
HETATM   29  C18 UNL     1       1.092  51.395 -17.089  1.00  0.00     0.013 C 
HETATM   30  C19 UNL     1       0.343  50.146 -16.588  1.00  0.00     0.037 C 
HETATM   31  C20 UNL     1       0.862  49.701 -15.224  1.00  0.00     0.272 C 
HETATM   32  N4  UNL     1       0.723  50.725 -14.179  1.00  0.00     0.084 N 
HETATM   33  C21 UNL     1      -0.393  50.442 -13.280  1.00  0.00     0.309 C 
HETATM   34  C22 UNL     1       0.639  52.097 -14.697  1.00  0.00     0.272 C 
HETATM   35  C23 UNL     1       1.527  52.298 -15.922  1.00  0.00     0.037 C 
ENDBRANCH  28  29
ENDBRANCH  27  28
ENDBRANCH  12  27
TORSDOF 6
ENDMDL
MODEL 7
REMARK minimizedAffinity -8.27935123
REMARK  6 active torsions:
REMARK  status: ('A' for Active; 'I' for Inactive)
REMARK    1  A    between atoms: O1_2  and  C2_3 
REMARK    2  A    between atoms: C5_6  and  N1_7 
REMARK    3  A    between atoms: N1_7  and  C6_8 
REMARK    4  A    between atoms: C16_25  and  O4_26 
REMARK    5  A    between atoms: O4_26  and  C17_27 
REMARK    6  A    between atoms: C17_27  and  C18_28 
ROOT
HETATM    1  C2  UNL     1      -0.458  52.183 -19.986  1.00  0.00     0.102 A 
HETATM    2  C3  UNL     1      -1.114  51.767 -21.145  1.00  0.00     0.056 A 
HETATM    3  C4  UNL     1      -1.428  50.397 -21.360  1.00  0.00     0.032 A 
HETATM    4  C5  UNL     1      -2.084  49.890 -22.499  1.00  0.00     0.098 A 
HETATM    5  N2  UNL     1      -2.364  48.582 -22.643  1.00  0.00    -0.342 N 
ATOM      6  H2  UNL     1      -2.835  48.224 -23.475  1.00  0.00     0.167 HD
HETATM    7  C13 UNL     1      -1.995  47.776 -21.646  1.00  0.00     0.182 A 
HETATM    8  N3  UNL     1      -1.361  48.143 -20.527  1.00  0.00    -0.351 N 
ATOM      9  H3  UNL     1      -1.102  47.463 -19.812  1.00  0.00     0.166 HD
HETATM   10  C14 UNL     1      -1.084  49.443 -20.392  1.00  0.00     0.049 A 
HETATM   11  C15 UNL     1      -0.430  49.865 -19.247  1.00  0.00     0.070 A 
HETATM   12  C16 UNL     1      -0.136  51.215 -19.033  1.00  0.00     0.104 A 
ENDROOT
BRANCH   4  13
HETATM   13  N1  UNL     1      -2.409  50.783 -23.557  1.00  0.00    -0.241 NA
HETATM   14  H5  UNL     1      -2.701  51.667 -23.141  1.00  0.00     0.135 HD
BRANCH  13  15
HETATM   15  C6  UNL     1      -1.599  51.024 -24.694  1.00  0.00     0.072 A 
HETATM   16  C7  UNL     1      -1.697  50.217 -25.847  1.00  0.00     0.058 A 
HETATM   17 CL1  UNL     1      -2.840  48.917 -25.905  1.00  0.00    -0.082 Cl
HETATM   18  C8  UNL     1      -0.888  50.440 -26.978  1.00  0.00     0.028 A 
HETATM   19  C9  UNL     1       0.054  51.469 -26.978  1.00  0.00     0.041 A 
HETATM   20  C10 UNL     1       0.162  52.236 -25.838  1.00  0.00     0.106 A 
HETATM   21  C11 UNL     1      -0.630  52.021 -24.729  1.00  0.00     0.128 A 
HETATM   22  O3  UNL     1       1.047  53.254 -25.663  1.00  0.00    -0.323 OA
HETATM   23  O2  UNL     1      -0.301  52.868 -23.708  1.00  0.00    -0.321 OA
HETATM   24  C12 UNL     1       0.713  53.678 -24.327  1.00  0.00     0.352 A 
ENDBRANCH  13  15
ENDBRANCH   4  13
BRANCH   1  25
HETATM   25  O1  UNL     1      -0.102  53.471 -19.697  1.00  0.00    -0.353 OA
HETATM   26  C1  UNL     1       0.969  54.040 -20.438  1.00  0.00     0.210 C 
ENDBRANCH   1  25
BRANCH  12  27
HETATM   27  O4  UNL     1       0.544  51.536 -17.885  1.00  0.00    -0.348 OA
BRANCH  27  28
HETATM   28  C17 UNL     1       0.284  50.568 -16.860  1.00  0.00     0.180 C 
BRANCH  28  29
HETATM   29  C18 UNL     1       0.757  51.135 -15.513  1.00  0.00     0.013 C 
HETATM   30  C19 UNL     1       2.187  51.697 -15.624  1.00  0.00     0.037 C 
HETATM   31  C20 UNL     1       2.875  51.731 -14.262  1.00  0.00     0.272 C 
HETATM   32  N4  UNL     1       2.987  50.410 -13.627  1.00  0.00     0.084 N 
HETATM   33  C21 UNL     1       4.339  49.866 -13.729  1.00  0.00     0.309 C 
HETATM   34  C22 UNL     1       1.997  49.434 -14.103  1.00  0.00     0.272 C 
HETATM   35  C23 UNL     1       0.648  50.088 -14.392  1.00  0.00     0.037 C 
ENDBRANCH  28  29
ENDBRANCH  27  28
ENDBRANCH  12  27
TORSDOF 6
ENDMDL
MODEL 8
REMARK minimizedAffinity -8.19697189
REMARK  6 active torsions:
REMARK  status: ('A' for Active; 'I' for Inactive)
REMARK    1  A    between atoms: O1_2  and  C2_3 
REMARK    2  A    between atoms: C5_6  and  N1_7 
REMARK    3  A    between atoms: N1_7  and  C6_8 
REMARK    4  A    between atoms: C16_25  and  O4_26 
REMARK    5  A    between atoms: O4_26  and  C17_27 
REMARK    6  A    between atoms: C17_27  and  C18_28 
ROOT
HETATM    1  C2  UNL     1      -2.120  51.448 -21.582  1.00  0.00     0.102 A 
HETATM    2  C3  UNL     1      -3.130  51.434 -22.543  1.00  0.00     0.056 A 
HETATM    3  C4  UNL     1      -4.463  51.075 -22.202  1.00  0.00     0.032 A 
HETATM    4  C5  UNL     1      -5.543  51.031 -23.106  1.00  0.00     0.098 A 
HETATM    5  N2  UNL     1      -6.787  50.693 -22.723  1.00  0.00    -0.342 N 
ATOM      6  H2  UNL     1      -7.561  50.659 -23.387  1.00  0.00     0.167 HD
HETATM    7  C13 UNL     1      -6.959  50.404 -21.432  1.00  0.00     0.182 A 
HETATM    8  N3  UNL     1      -6.011  50.404 -20.489  1.00  0.00    -0.351 N 
ATOM      9  H3  UNL     1      -6.219  50.161 -19.521  1.00  0.00     0.166 HD
HETATM   10  C14 UNL     1      -4.777  50.738 -20.878  1.00  0.00     0.049 A 
HETATM   11  C15 UNL     1      -3.765  50.751 -19.932  1.00  0.00     0.070 A 
HETATM   12  C16 UNL     1      -2.460  51.118 -20.269  1.00  0.00     0.104 A 
ENDROOT
BRANCH   4  13
HETATM   13  N1  UNL     1      -5.296  51.297 -24.482  1.00  0.00    -0.241 NA
HETATM   14  H5  UNL     1      -5.187  52.304 -24.591  1.00  0.00     0.135 HD
BRANCH  13  15
HETATM   15  C6  UNL     1      -4.346  50.616 -25.283  1.00  0.00     0.072 A 
HETATM   16  C7  UNL     1      -4.266  49.208 -25.285  1.00  0.00     0.058 A 
HETATM   17 CL1  UNL     1      -5.357  48.271 -24.318  1.00  0.00    -0.082 Cl
HETATM   18  C8  UNL     1      -3.318  48.520 -26.067  1.00  0.00     0.028 A 
HETATM   19  C9  UNL     1      -2.411  49.228 -26.857  1.00  0.00     0.041 A 
HETATM   20  C10 UNL     1      -2.478  50.604 -26.829  1.00  0.00     0.106 A 
HETATM   21  C11 UNL     1      -3.407  51.280 -26.064  1.00  0.00     0.128 A 
HETATM   22  O3  UNL     1      -1.651  51.440 -27.512  1.00  0.00    -0.323 OA
HETATM   23  O2  UNL     1      -3.241  52.633 -26.156  1.00  0.00    -0.321 OA
HETATM   24  C12 UNL     1      -2.173  52.723 -27.116  1.00  0.00     0.352 A 
ENDBRANCH  13  15
ENDBRANCH   4  13
BRANCH   1  25
HETATM   25  O1  UNL     1      -0.809  51.763 -21.816  1.00  0.00    -0.353 OA
HETATM   26  C1  UNL     1      -0.479  52.304 -23.088  1.00  0.00     0.210 C 
ENDBRANCH   1  25
BRANCH  12  27
HETATM   27  O4  UNL     1      -1.516  51.070 -19.274  1.00  0.00    -0.348 OA
BRANCH  27  28
HETATM   28  C17 UNL     1      -2.146  51.012 -17.987  1.00  0.00     0.180 C 
BRANCH  28  29
HETATM   29  C18 UNL     1      -1.258  50.194 -17.038  1.00  0.00     0.013 C 
HETATM   30  C19 UNL     1      -1.629  50.466 -15.567  1.00  0.00     0.037 C 
HETATM   31  C20 UNL     1      -0.462  50.150 -14.636  1.00  0.00     0.272 C 
HETATM   32  N4  UNL     1       0.747  50.937 -14.921  1.00  0.00     0.084 N 
HETATM   33  C21 UNL     1       0.934  52.020 -13.959  1.00  0.00     0.309 C 
HETATM   34  C22 UNL     1       0.816  51.446 -16.297  1.00  0.00     0.272 C 
HETATM   35  C23 UNL     1       0.234  50.453 -17.301  1.00  0.00     0.037 C 
ENDBRANCH  28  29
ENDBRANCH  27  28
ENDBRANCH  12  27
TORSDOF 6
ENDMDL
MODEL 9
REMARK minimizedAffinity -8.166008
REMARK  6 active torsions:
REMARK  status: ('A' for Active; 'I' for Inactive)
REMARK    1  A    between atoms: O1_2  and  C2_3 
REMARK    2  A    between atoms: C5_6  and  N1_7 
REMARK    3  A    between atoms: N1_7  and  C6_8 
REMARK    4  A    between atoms: C16_25  and  O4_26 
REMARK    5  A    between atoms: O4_26  and  C17_27 
REMARK    6  A    between atoms: C17_27  and  C18_28 
ROOT
HETATM    1  C2  UNL     1      -3.050  48.855 -23.884  1.00  0.00     0.102 A 
HETATM    2  C3  UNL     1      -3.395  48.582 -25.208  1.00  0.00     0.056 A 
HETATM    3  C4  UNL     1      -3.248  49.567 -26.223  1.00  0.00     0.032 A 
HETATM    4  C5  UNL     1      -3.573  49.379 -27.581  1.00  0.00     0.098 A 
HETATM    5  N2  UNL     1      -3.402  50.346 -28.500  1.00  0.00    -0.342 N 
ATOM      6  H2  UNL     1      -3.646  50.202 -29.481  1.00  0.00     0.167 HD
HETATM    7  C13 UNL     1      -2.899  51.504 -28.067  1.00  0.00     0.182 A 
HETATM    8  N3  UNL     1      -2.564  51.797 -26.806  1.00  0.00    -0.351 N 
ATOM      9  H3  UNL     1      -2.194  52.712 -26.550  1.00  0.00     0.166 HD
HETATM   10  C14 UNL     1      -2.739  50.832 -25.899  1.00  0.00     0.049 A 
HETATM   11  C15 UNL     1      -2.403  51.095 -24.581  1.00  0.00     0.070 A 
HETATM   12  C16 UNL     1      -2.536  50.120 -23.588  1.00  0.00     0.104 A 
ENDROOT
BRANCH   4  13
HETATM   13  N1  UNL     1      -4.155  48.145 -27.982  1.00  0.00    -0.241 NA
HETATM   14  H5  UNL     1      -4.076  47.495 -27.201  1.00  0.00     0.135 HD
BRANCH  13  15
HETATM   15  C6  UNL     1      -5.421  48.008 -28.603  1.00  0.00     0.072 A 
HETATM   16  C7  UNL     1      -6.586  47.769 -27.845  1.00  0.00     0.058 A 
HETATM   17 CL1  UNL     1      -6.495  47.664 -26.118  1.00  0.00    -0.082 Cl
HETATM   18  C8  UNL     1      -7.847  47.619 -28.451  1.00  0.00     0.028 A 
HETATM   19  C9  UNL     1      -7.973  47.687 -29.840  1.00  0.00     0.041 A 
HETATM   20  C10 UNL     1      -6.826  47.894 -30.575  1.00  0.00     0.106 A 
HETATM   21  C11 UNL     1      -5.589  48.043 -29.983  1.00  0.00     0.128 A 
HETATM   22  O3  UNL     1      -6.769  47.954 -31.933  1.00  0.00    -0.323 OA
HETATM   23  O2  UNL     1      -4.601  48.179 -30.917  1.00  0.00    -0.321 OA
HETATM   24  C12 UNL     1      -5.362  48.183 -32.137  1.00  0.00     0.352 A 
ENDBRANCH  13  15
ENDBRANCH   4  13
BRANCH   1  25
HETATM   25  O1  UNL     1      -3.169  47.982 -22.839  1.00  0.00    -0.353 OA
HETATM   26  C1  UNL     1      -4.477  47.716 -22.350  1.00  0.00     0.210 C 
ENDBRANCH   1  25
BRANCH  12  27
HETATM   27  O4  UNL     1      -2.211  50.479 -22.305  1.00  0.00    -0.348 OA
BRANCH  27  28
HETATM   28  C17 UNL     1      -0.895  51.049 -22.262  1.00  0.00     0.180 C 
BRANCH  28  29
HETATM   29  C18 UNL     1      -0.231  50.659 -20.933  1.00  0.00     0.013 C 
HETATM   30  C19 UNL     1      -1.072  49.605 -20.187  1.00  0.00     0.037 C 
HETATM   31  C20 UNL     1      -0.776  49.623 -18.689  1.00  0.00     0.272 C 
HETATM   32  N4  UNL     1      -1.055  50.917 -18.050  1.00  0.00     0.084 N 
HETATM   33  C21 UNL     1      -2.301  50.894 -17.289  1.00  0.00     0.309 C 
HETATM   34  C22 UNL     1      -1.033  52.056 -18.977  1.00  0.00     0.272 C 
HETATM   35  C23 UNL     1       0.037  51.892 -20.055  1.00  0.00     0.037 C 
ENDBRANCH  28  29
ENDBRANCH  27  28
ENDBRANCH  12  27
TORSDOF 6
ENDMDL
