MODEL 1
REMARK minimizedAffinity -10.7330751
REMARK  5 active torsions:
REMARK  status: ('A' for Active; 'I' for Inactive)
REMARK    1  A    between atoms: C3_4  and  C4_5 
REMARK    2  A    between atoms: C5_6  and  C6_7 
REMARK    3  A    between atoms: N2_9  and  C8_10 
REMARK    4  A    between atoms: N3_13  and  C11_14 
REMARK    5  A    between atoms: C11_14  and  C12_15 
ROOT
HETATM    1  C6  UNL     1      -0.238  52.100 -23.847  1.00  0.00     0.009 A 
HETATM    2  C7  UNL     1      -1.238  51.213 -23.513  1.00  0.00     0.105 A 
HETATM    3  N2  UNL     1      -1.629  50.547 -24.645  1.00  0.00    -0.350 N 
HETATM    4  C17 UNL     1      -0.908  51.023 -25.733  1.00  0.00     0.045 A 
HETATM    5  C18 UNL     1      -0.955  50.672 -27.094  1.00  0.00     0.030 A 
HETATM    6  C19 UNL     1      -0.088  51.318 -27.979  1.00  0.00     0.002 A 
HETATM    7  C20 UNL     1       0.792  52.291 -27.526  1.00  0.00     0.001 A 
HETATM    8  C21 UNL     1       0.833  52.639 -26.172  1.00  0.00     0.014 A 
HETATM    9  C22 UNL     1      -0.029  52.002 -25.254  1.00  0.00     0.003 A 
ENDROOT
BRANCH   1  10
HETATM   10  C5  UNL     1       0.441  52.921 -22.904  1.00  0.00     0.061 A 
HETATM   11  C4  UNL     1       0.634  52.756 -21.583  1.00  0.00     0.061 A 
HETATM   12  C24 UNL     1       1.391  53.940 -21.104  1.00  0.00     0.260 A 
HETATM   13  N4  UNL     1       1.573  54.760 -22.157  1.00  0.00    -0.289 N 
HETATM   14  O2  UNL     1       1.803  54.146 -19.978  1.00  0.00    -0.267 OA
HETATM   15  C23 UNL     1       1.072  54.213 -23.281  1.00  0.00     0.260 A 
HETATM   16  H26 UNL     1       2.092  55.622 -22.125  1.00  0.00     0.172 HD
HETATM   17  O1  UNL     1       1.138  54.701 -24.396  1.00  0.00    -0.267 OA
BRANCH  11  18
HETATM   18  C3  UNL     1       0.251  51.679 -20.737  1.00  0.00     0.009 A 
HETATM   19  C2  UNL     1      -0.280  50.486 -21.184  1.00  0.00     0.104 A 
HETATM   20  N1  UNL     1      -0.546  49.705 -20.091  1.00  0.00    -0.360 N 
HETATM   21  C1  UNL     1      -1.119  48.379 -20.153  1.00  0.00     0.156 C 
HETATM   22  C30 UNL     1      -0.207  50.369 -18.931  1.00  0.00     0.045 A 
HETATM   23  C25 UNL     1       0.308  51.615 -19.310  1.00  0.00     0.003 A 
HETATM   24  C29 UNL     1      -0.316  49.983 -17.584  1.00  0.00     0.030 A 
HETATM   25  C26 UNL     1       0.728  52.503 -18.296  1.00  0.00     0.014 A 
HETATM   26  C27 UNL     1       0.632  52.121 -16.951  1.00  0.00     0.001 A 
HETATM   27  C28 UNL     1       0.113  50.880 -16.603  1.00  0.00     0.002 A 
ENDBRANCH  11  18
ENDBRANCH   1  10
BRANCH   3  28
HETATM   28  C8  UNL     1      -2.658  49.505 -24.733  1.00  0.00     0.093 C 
HETATM   29  C9  UNL     1      -2.616  48.778 -26.089  1.00  0.00     0.056 C 
HETATM   30  C10 UNL     1      -3.803  49.151 -26.972  1.00  0.00     0.274 C 
HETATM   31  N3  UNL     1      -5.109  48.898 -26.352  1.00  0.00     0.088 N 
HETATM   32  C15 UNL     1      -5.097  48.942 -24.884  1.00  0.00     0.274 C 
HETATM   33  C16 UNL     1      -4.082  49.954 -24.361  1.00  0.00     0.056 C 
BRANCH  31  34
HETATM   34  C11 UNL     1      -5.788  47.689 -26.827  1.00  0.00     0.277 C 
BRANCH  34  35
HETATM   35  C12 UNL     1      -5.878  47.653 -28.326  1.00  0.00     0.014 A 
HETATM   36  C13 UNL     1      -6.687  46.581 -29.017  1.00  0.00     0.007 A 
HETATM   37  C14 UNL     1      -7.157  48.007 -29.045  1.00  0.00     0.007 A 
ENDBRANCH  34  35
ENDBRANCH  31  34
ENDBRANCH   3  28
TORSDOF 5
ENDMDL
MODEL 2
REMARK minimizedAffinity -10.6978807
REMARK  5 active torsions:
REMARK  status: ('A' for Active; 'I' for Inactive)
REMARK    1  A    between atoms: C3_4  and  C4_5 
REMARK    2  A    between atoms: C5_6  and  C6_7 
REMARK    3  A    between atoms: N2_9  and  C8_10 
REMARK    4  A    between atoms: N3_13  and  C11_14 
REMARK    5  A    between atoms: C11_14  and  C12_15 
ROOT
HETATM    1  C6  UNL     1      -0.141  52.267 -24.107  1.00  0.00     0.009 A 
HETATM    2  C7  UNL     1      -1.464  51.930 -24.295  1.00  0.00     0.105 A 
HETATM    3  N2  UNL     1      -1.613  51.435 -25.565  1.00  0.00    -0.350 N 
HETATM    4  C17 UNL     1      -0.392  51.480 -26.225  1.00  0.00     0.045 A 
HETATM    5  C18 UNL     1      -0.037  51.103 -27.532  1.00  0.00     0.030 A 
HETATM    6  C19 UNL     1       1.295  51.249 -27.929  1.00  0.00     0.002 A 
HETATM    7  C20 UNL     1       2.243  51.763 -27.056  1.00  0.00     0.001 A 
HETATM    8  C21 UNL     1       1.885  52.139 -25.757  1.00  0.00     0.014 A 
HETATM    9  C22 UNL     1       0.548  52.001 -25.327  1.00  0.00     0.003 A 
ENDROOT
BRANCH   1  10
HETATM   10  C5  UNL     1       0.384  52.762 -22.881  1.00  0.00     0.061 A 
HETATM   11  C4  UNL     1       0.338  52.244 -21.640  1.00  0.00     0.061 A 
HETATM   12  C24 UNL     1       1.031  53.205 -20.744  1.00  0.00     0.260 A 
HETATM   13  N4  UNL     1       1.417  54.255 -21.493  1.00  0.00    -0.289 N 
HETATM   14  O2  UNL     1       1.243  53.080 -19.552  1.00  0.00    -0.267 OA
HETATM   15  C23 UNL     1       1.105  54.058 -22.789  1.00  0.00     0.260 A 
HETATM   16  H26 UNL     1       1.944  55.038 -21.147  1.00  0.00     0.172 HD
HETATM   17  O1  UNL     1       1.379  54.813 -23.706  1.00  0.00    -0.267 OA
BRANCH  11  18
HETATM   18  C3  UNL     1      -0.217  51.015 -21.189  1.00  0.00     0.009 A 
HETATM   19  C2  UNL     1      -0.728  50.038 -22.018  1.00  0.00     0.104 A 
HETATM   20  N1  UNL     1      -1.191  49.015 -21.235  1.00  0.00    -0.360 N 
HETATM   21  C1  UNL     1      -1.807  47.810 -21.741  1.00  0.00     0.156 C 
HETATM   22  C30 UNL     1      -1.001  49.309 -19.900  1.00  0.00     0.045 A 
HETATM   23  C25 UNL     1      -0.378  50.562 -19.843  1.00  0.00     0.003 A 
HETATM   24  C29 UNL     1      -1.329  48.582 -18.742  1.00  0.00     0.030 A 
HETATM   25  C26 UNL     1      -0.077  51.102 -18.574  1.00  0.00     0.014 A 
HETATM   26  C27 UNL     1      -0.391  50.380 -17.415  1.00  0.00     0.001 A 
HETATM   27  C28 UNL     1      -1.013  49.140 -17.501  1.00  0.00     0.002 A 
ENDBRANCH  11  18
ENDBRANCH   1  10
BRANCH   3  28
HETATM   28  C8  UNL     1      -2.858  50.947 -26.170  1.00  0.00     0.093 C 
HETATM   29  C9  UNL     1      -3.857  50.465 -25.102  1.00  0.00     0.056 C 
HETATM   30  C10 UNL     1      -3.994  48.945 -25.097  1.00  0.00     0.274 C 
HETATM   31  N3  UNL     1      -4.392  48.377 -26.390  1.00  0.00     0.088 N 
HETATM   32  C15 UNL     1      -3.996  49.189 -27.550  1.00  0.00     0.274 C 
HETATM   33  C16 UNL     1      -2.680  49.919 -27.302  1.00  0.00     0.056 C 
BRANCH  31  34
HETATM   34  C11 UNL     1      -5.803  47.996 -26.484  1.00  0.00     0.277 C 
BRANCH  34  35
HETATM   35  C12 UNL     1      -6.191  47.642 -27.892  1.00  0.00     0.014 A 
HETATM   36  C13 UNL     1      -7.153  46.507 -28.155  1.00  0.00     0.007 A 
HETATM   37  C14 UNL     1      -7.578  47.923 -28.418  1.00  0.00     0.007 A 
ENDBRANCH  34  35
ENDBRANCH  31  34
ENDBRANCH   3  28
TORSDOF 5
ENDMDL
MODEL 3
REMARK minimizedAffinity -10.3315678
REMARK  5 active torsions:
REMARK  status: ('A' for Active; 'I' for Inactive)
REMARK    1  A    between atoms: C3_4  and  C4_5 
REMARK    2  A    between atoms: C5_6  and  C6_7 
REMARK    3  A    between atoms: N2_9  and  C8_10 
REMARK    4  A    between atoms: N3_13  and  C11_14 
REMARK    5  A    between atoms: C11_14  and  C12_15 
ROOT
HETATM    1  C6  UNL     1      -0.283  51.390 -21.205  1.00  0.00     0.009 A 
HETATM    2  C7  UNL     1      -1.082  50.579 -21.981  1.00  0.00     0.105 A 
HETATM    3  N2  UNL     1      -1.597  49.585 -21.189  1.00  0.00    -0.350 N 
HETATM    4  C17 UNL     1      -1.106  49.724 -19.897  1.00  0.00     0.045 A 
HETATM    5  C18 UNL     1      -1.326  48.954 -18.741  1.00  0.00     0.030 A 
HETATM    6  C19 UNL     1      -0.701  49.342 -17.553  1.00  0.00     0.002 A 
HETATM    7  C20 UNL     1       0.125  50.457 -17.518  1.00  0.00     0.001 A 
HETATM    8  C21 UNL     1       0.343  51.218 -18.671  1.00  0.00     0.014 A 
HETATM    9  C22 UNL     1      -0.276  50.852 -19.885  1.00  0.00     0.003 A 
ENDROOT
BRANCH   1  10
HETATM   10  C5  UNL     1       0.370  52.558 -21.691  1.00  0.00     0.061 A 
HETATM   11  C4  UNL     1       0.373  53.109 -22.918  1.00  0.00     0.061 A 
HETATM   12  C24 UNL     1       1.249  54.307 -22.852  1.00  0.00     0.260 A 
HETATM   13  N4  UNL     1       1.746  54.380 -21.603  1.00  0.00    -0.289 N 
HETATM   14  O2  UNL     1       1.474  55.104 -23.744  1.00  0.00    -0.267 OA
HETATM   15  C23 UNL     1       1.245  53.397 -20.831  1.00  0.00     0.260 A 
HETATM   16  H26 UNL     1       2.341  55.119 -21.270  1.00  0.00     0.172 HD
HETATM   17  O1  UNL     1       1.473  53.244 -19.643  1.00  0.00    -0.267 OA
BRANCH  11  18
HETATM   18  C3  UNL     1      -0.318  52.709 -24.095  1.00  0.00     0.009 A 
HETATM   19  C2  UNL     1      -1.692  52.652 -24.211  1.00  0.00     0.104 A 
HETATM   20  N1  UNL     1      -1.993  52.207 -25.470  1.00  0.00    -0.360 N 
HETATM   21  C1  UNL     1      -3.334  52.007 -25.970  1.00  0.00     0.156 C 
HETATM   22  C30 UNL     1      -0.837  51.961 -26.182  1.00  0.00     0.045 A 
HETATM   23  C25 UNL     1       0.236  52.279 -25.340  1.00  0.00     0.003 A 
HETATM   24  C29 UNL     1      -0.646  51.481 -27.489  1.00  0.00     0.030 A 
HETATM   25  C26 UNL     1       1.548  52.107 -25.833  1.00  0.00     0.014 A 
HETATM   26  C27 UNL     1       1.747  51.638 -27.138  1.00  0.00     0.001 A 
HETATM   27  C28 UNL     1       0.664  51.326 -27.950  1.00  0.00     0.002 A 
ENDBRANCH  11  18
ENDBRANCH   1  10
BRANCH   3  28
HETATM   28  C8  UNL     1      -2.508  48.517 -21.613  1.00  0.00     0.093 C 
HETATM   29  C9  UNL     1      -2.924  48.676 -23.086  1.00  0.00     0.056 C 
HETATM   30  C10 UNL     1      -4.378  49.119 -23.222  1.00  0.00     0.274 C 
HETATM   31  N3  UNL     1      -5.338  48.223 -22.566  1.00  0.00     0.088 N 
HETATM   32  C15 UNL     1      -4.781  47.473 -21.431  1.00  0.00     0.274 C 
HETATM   33  C16 UNL     1      -3.719  48.281 -20.692  1.00  0.00     0.056 C 
BRANCH  31  34
HETATM   34  C11 UNL     1      -6.058  47.326 -23.474  1.00  0.00     0.277 C 
BRANCH  34  35
HETATM   35  C12 UNL     1      -6.478  48.029 -24.733  1.00  0.00     0.014 A 
HETATM   36  C13 UNL     1      -7.281  47.298 -25.784  1.00  0.00     0.007 A 
HETATM   37  C14 UNL     1      -7.922  48.395 -24.983  1.00  0.00     0.007 A 
ENDBRANCH  34  35
ENDBRANCH  31  34
ENDBRANCH   3  28
TORSDOF 5
ENDMDL
MODEL 4
REMARK minimizedAffinity -10.2358017
REMARK  5 active torsions:
REMARK  status: ('A' for Active; 'I' for Inactive)
REMARK    1  A    between atoms: C3_4  and  C4_5 
REMARK    2  A    between atoms: C5_6  and  C6_7 
REMARK    3  A    between atoms: N2_9  and  C8_10 
REMARK    4  A    between atoms: N3_13  and  C11_14 
REMARK    5  A    between atoms: C11_14  and  C12_15 
ROOT
HETATM    1  C6  UNL     1      -0.191  51.330 -21.173  1.00  0.00     0.009 A 
HETATM    2  C7  UNL     1      -0.822  50.406 -21.977  1.00  0.00     0.105 A 
HETATM    3  N2  UNL     1      -1.354  49.425 -21.180  1.00  0.00    -0.350 N 
HETATM    4  C17 UNL     1      -1.041  49.687 -19.853  1.00  0.00     0.045 A 
HETATM    5  C18 UNL     1      -1.344  48.977 -18.678  1.00  0.00     0.030 A 
HETATM    6  C19 UNL     1      -0.905  49.493 -17.456  1.00  0.00     0.002 A 
HETATM    7  C20 UNL     1      -0.178  50.675 -17.404  1.00  0.00     0.001 A 
HETATM    8  C21 UNL     1       0.124  51.375 -18.576  1.00  0.00     0.014 A 
HETATM    9  C22 UNL     1      -0.309  50.881 -19.825  1.00  0.00     0.003 A 
ENDROOT
BRANCH   1  10
HETATM   10  C5  UNL     1       0.426  52.516 -21.662  1.00  0.00     0.061 A 
HETATM   11  C4  UNL     1       0.381  53.083 -22.881  1.00  0.00     0.061 A 
HETATM   12  C24 UNL     1       1.237  54.296 -22.826  1.00  0.00     0.260 A 
HETATM   13  N4  UNL     1       1.773  54.361 -21.592  1.00  0.00    -0.289 N 
HETATM   14  O2  UNL     1       1.421  55.109 -23.712  1.00  0.00    -0.267 OA
HETATM   15  C23 UNL     1       1.313  53.359 -20.819  1.00  0.00     0.260 A 
HETATM   16  H26 UNL     1       2.365  55.106 -21.267  1.00  0.00     0.172 HD
HETATM   17  O1  UNL     1       1.581  53.193 -19.641  1.00  0.00    -0.267 OA
BRANCH  11  18
HETATM   18  C3  UNL     1      -0.340  52.688 -24.041  1.00  0.00     0.009 A 
HETATM   19  C2  UNL     1      -1.716  52.622 -24.120  1.00  0.00     0.104 A 
HETATM   20  N1  UNL     1      -2.049  52.184 -25.374  1.00  0.00    -0.360 N 
HETATM   21  C1  UNL     1      -3.403  51.979 -25.837  1.00  0.00     0.156 C 
HETATM   22  C30 UNL     1      -0.912  51.951 -26.119  1.00  0.00     0.045 A 
HETATM   23  C25 UNL     1       0.182  52.271 -25.305  1.00  0.00     0.003 A 
HETATM   24  C29 UNL     1      -0.754  51.482 -27.434  1.00  0.00     0.030 A 
HETATM   25  C26 UNL     1       1.480  52.111 -25.835  1.00  0.00     0.014 A 
HETATM   26  C27 UNL     1       1.647  51.653 -27.148  1.00  0.00     0.001 A 
HETATM   27  C28 UNL     1       0.543  51.339 -27.933  1.00  0.00     0.002 A 
ENDBRANCH  11  18
ENDBRANCH   1  10
BRANCH   3  28
HETATM   28  C8  UNL     1      -2.120  48.257 -21.630  1.00  0.00     0.093 C 
HETATM   29  C9  UNL     1      -3.450  48.669 -22.286  1.00  0.00     0.056 C 
HETATM   30  C10 UNL     1      -4.648  48.336 -21.402  1.00  0.00     0.274 C 
HETATM   31  N3  UNL     1      -4.737  46.919 -21.028  1.00  0.00     0.088 N 
HETATM   32  C15 UNL     1      -3.444  46.222 -21.003  1.00  0.00     0.274 C 
HETATM   33  C16 UNL     1      -2.313  47.151 -20.576  1.00  0.00     0.056 C 
BRANCH  31  34
HETATM   34  C11 UNL     1      -5.726  46.147 -21.784  1.00  0.00     0.277 C 
BRANCH  34  35
HETATM   35  C12 UNL     1      -5.686  44.689 -21.426  1.00  0.00     0.014 A 
HETATM   36  C13 UNL     1      -6.824  44.060 -20.656  1.00  0.00     0.007 A 
HETATM   37  C14 UNL     1      -6.600  43.690 -22.094  1.00  0.00     0.007 A 
ENDBRANCH  34  35
ENDBRANCH  31  34
ENDBRANCH   3  28
TORSDOF 5
ENDMDL
MODEL 5
REMARK minimizedAffinity -10.1402245
REMARK  5 active torsions:
REMARK  status: ('A' for Active; 'I' for Inactive)
REMARK    1  A    between atoms: C3_4  and  C4_5 
REMARK    2  A    between atoms: C5_6  and  C6_7 
REMARK    3  A    between atoms: N2_9  and  C8_10 
REMARK    4  A    between atoms: N3_13  and  C11_14 
REMARK    5  A    between atoms: C11_14  and  C12_15 
ROOT
HETATM    1  C6  UNL     1       0.177  51.870 -21.267  1.00  0.00     0.009 A 
HETATM    2  C7  UNL     1      -0.324  50.630 -21.597  1.00  0.00     0.105 A 
HETATM    3  N2  UNL     1      -0.540  49.924 -20.441  1.00  0.00    -0.350 N 
HETATM    4  C17 UNL     1      -0.146  50.690 -19.352  1.00  0.00     0.045 A 
HETATM    5  C18 UNL     1      -0.156  50.406 -17.975  1.00  0.00     0.030 A 
HETATM    6  C19 UNL     1       0.295  51.388 -17.089  1.00  0.00     0.002 A 
HETATM    7  C20 UNL     1       0.751  52.613 -17.559  1.00  0.00     0.001 A 
HETATM    8  C21 UNL     1       0.762  52.889 -18.930  1.00  0.00     0.014 A 
HETATM    9  C22 UNL     1       0.310  51.917 -19.849  1.00  0.00     0.003 A 
ENDROOT
BRANCH   1  10
HETATM   10  C5  UNL     1       0.466  52.887 -22.220  1.00  0.00     0.061 A 
HETATM   11  C4  UNL     1       0.009  53.063 -23.473  1.00  0.00     0.061 A 
HETATM   12  C24 UNL     1       0.671  54.280 -24.008  1.00  0.00     0.260 A 
HETATM   13  N4  UNL     1       1.511  54.737 -23.060  1.00  0.00    -0.289 N 
HETATM   14  O2  UNL     1       0.489  54.802 -25.092  1.00  0.00    -0.267 OA
HETATM   15  C23 UNL     1       1.425  53.988 -21.944  1.00  0.00     0.260 A 
HETATM   16  H26 UNL     1       2.061  55.575 -23.143  1.00  0.00     0.172 HD
HETATM   17  O1  UNL     1       2.027  54.195 -20.905  1.00  0.00    -0.267 OA
BRANCH  11  18
HETATM   18  C3  UNL     1      -0.942  52.304 -24.208  1.00  0.00     0.009 A 
HETATM   19  C2  UNL     1      -0.670  51.649 -25.393  1.00  0.00     0.104 A 
HETATM   20  N1  UNL     1      -1.823  51.047 -25.819  1.00  0.00    -0.360 N 
HETATM   21  C1  UNL     1      -1.941  50.270 -27.032  1.00  0.00     0.156 C 
HETATM   22  C30 UNL     1      -2.853  51.303 -24.938  1.00  0.00     0.045 A 
HETATM   23  C25 UNL     1      -2.322  52.086 -23.905  1.00  0.00     0.003 A 
HETATM   24  C29 UNL     1      -4.204  50.917 -24.965  1.00  0.00     0.030 A 
HETATM   25  C26 UNL     1      -3.183  52.496 -22.865  1.00  0.00     0.014 A 
HETATM   26  C27 UNL     1      -4.529  52.108 -22.880  1.00  0.00     0.001 A 
HETATM   27  C28 UNL     1      -5.031  51.334 -23.918  1.00  0.00     0.002 A 
ENDBRANCH  11  18
ENDBRANCH   1  10
BRANCH   3  28
HETATM   28  C8  UNL     1      -1.081  48.564 -20.338  1.00  0.00     0.093 C 
HETATM   29  C9  UNL     1      -1.678  48.088 -21.675  1.00  0.00     0.056 C 
HETATM   30  C10 UNL     1      -3.202  48.029 -21.628  1.00  0.00     0.274 C 
HETATM   31  N3  UNL     1      -3.733  47.179 -20.557  1.00  0.00     0.088 N 
HETATM   32  C15 UNL     1      -2.844  47.050 -19.394  1.00  0.00     0.274 C 
HETATM   33  C16 UNL     1      -2.040  48.326 -19.158  1.00  0.00     0.056 C 
BRANCH  31  34
HETATM   34  C11 UNL     1      -4.203  45.862 -20.995  1.00  0.00     0.277 C 
BRANCH  34  35
HETATM   35  C12 UNL     1      -5.703  45.775 -20.986  1.00  0.00     0.014 A 
HETATM   36  C13 UNL     1      -6.494  46.101 -22.231  1.00  0.00     0.007 A 
HETATM   37  C14 UNL     1      -6.431  44.685 -21.736  1.00  0.00     0.007 A 
ENDBRANCH  34  35
ENDBRANCH  31  34
ENDBRANCH   3  28
TORSDOF 5
ENDMDL
MODEL 6
REMARK minimizedAffinity -10.1383867
REMARK  5 active torsions:
REMARK  status: ('A' for Active; 'I' for Inactive)
REMARK    1  A    between atoms: C3_4  and  C4_5 
REMARK    2  A    between atoms: C5_6  and  C6_7 
REMARK    3  A    between atoms: N2_9  and  C8_10 
REMARK    4  A    between atoms: N3_13  and  C11_14 
REMARK    5  A    between atoms: C11_14  and  C12_15 
ROOT
HETATM    1  C6  UNL     1      -2.696  51.631 -24.522  1.00  0.00     0.009 A 
HETATM    2  C7  UNL     1      -3.673  51.853 -23.576  1.00  0.00     0.105 A 
HETATM    3  N2  UNL     1      -4.607  50.854 -23.669  1.00  0.00    -0.350 N 
HETATM    4  C17 UNL     1      -4.262  49.993 -24.702  1.00  0.00     0.045 A 
HETATM    5  C18 UNL     1      -4.900  48.841 -25.194  1.00  0.00     0.030 A 
HETATM    6  C19 UNL     1      -4.307  48.152 -26.255  1.00  0.00     0.002 A 
HETATM    7  C20 UNL     1      -3.119  48.600 -26.817  1.00  0.00     0.001 A 
HETATM    8  C21 UNL     1      -2.490  49.748 -26.326  1.00  0.00     0.014 A 
HETATM    9  C22 UNL     1      -3.063  50.464 -25.254  1.00  0.00     0.003 A 
ENDROOT
BRANCH   1  10
HETATM   10  C5  UNL     1      -1.539  52.445 -24.672  1.00  0.00     0.061 A 
HETATM   11  C4  UNL     1      -0.572  52.757 -23.791  1.00  0.00     0.061 A 
HETATM   12  C24 UNL     1       0.374  53.665 -24.489  1.00  0.00     0.260 A 
HETATM   13  N4  UNL     1      -0.102  53.872 -25.732  1.00  0.00    -0.289 N 
HETATM   14  O2  UNL     1       1.408  54.133 -24.049  1.00  0.00    -0.267 OA
HETATM   15  C23 UNL     1      -1.221  53.152 -25.940  1.00  0.00     0.260 A 
HETATM   16  H26 UNL     1       0.363  54.420 -26.436  1.00  0.00     0.172 HD
HETATM   17  O1  UNL     1      -1.843  53.097 -26.988  1.00  0.00    -0.267 OA
BRANCH  11  18
HETATM   18  C3  UNL     1      -0.393  52.326 -22.448  1.00  0.00     0.009 A 
HETATM   19  C2  UNL     1       0.133  53.109 -21.441  1.00  0.00     0.104 A 
HETATM   20  N1  UNL     1       0.173  52.358 -20.297  1.00  0.00    -0.360 N 
HETATM   21  C1  UNL     1       0.671  52.830 -19.024  1.00  0.00     0.156 C 
HETATM   22  C30 UNL     1      -0.310  51.089 -20.538  1.00  0.00     0.045 A 
HETATM   23  C25 UNL     1      -0.684  51.044 -21.887  1.00  0.00     0.003 A 
HETATM   24  C29 UNL     1      -0.443  49.978 -19.687  1.00  0.00     0.030 A 
HETATM   25  C26 UNL     1      -1.210  49.837 -22.396  1.00  0.00     0.014 A 
HETATM   26  C27 UNL     1      -1.354  48.728 -21.553  1.00  0.00     0.001 A 
HETATM   27  C28 UNL     1      -0.971  48.799 -20.219  1.00  0.00     0.002 A 
ENDBRANCH  11  18
ENDBRANCH   1  10
BRANCH   3  28
HETATM   28  C8  UNL     1      -5.806  50.701 -22.837  1.00  0.00     0.093 C 
HETATM   29  C9  UNL     1      -5.446  50.511 -21.353  1.00  0.00     0.056 C 
HETATM   30  C10 UNL     1      -5.699  49.080 -20.885  1.00  0.00     0.274 C 
HETATM   31  N3  UNL     1      -7.077  48.620 -21.089  1.00  0.00     0.088 N 
HETATM   32  C15 UNL     1      -7.775  49.286 -22.197  1.00  0.00     0.274 C 
HETATM   33  C16 UNL     1      -6.817  49.649 -23.328  1.00  0.00     0.056 C 
BRANCH  31  34
HETATM   34  C11 UNL     1      -7.908  48.620 -19.881  1.00  0.00     0.277 C 
BRANCH  34  35
HETATM   35  C12 UNL     1      -9.269  48.041 -20.142  1.00  0.00     0.014 A 
HETATM   36  C13 UNL     1      -9.798  46.919 -19.280  1.00  0.00     0.007 A 
HETATM   37  C14 UNL     1     -10.420  48.283 -19.196  1.00  0.00     0.007 A 
ENDBRANCH  34  35
ENDBRANCH  31  34
ENDBRANCH   3  28
TORSDOF 5
ENDMDL
MODEL 7
REMARK minimizedAffinity -10.1352119
REMARK  5 active torsions:
REMARK  status: ('A' for Active; 'I' for Inactive)
REMARK    1  A    between atoms: C3_4  and  C4_5 
REMARK    2  A    between atoms: C5_6  and  C6_7 
REMARK    3  A    between atoms: N2_9  and  C8_10 
REMARK    4  A    between atoms: N3_13  and  C11_14 
REMARK    5  A    between atoms: C11_14  and  C12_15 
ROOT
HETATM    1  C6  UNL     1      -1.102  51.277 -22.517  1.00  0.00     0.009 A 
HETATM    2  C7  UNL     1      -2.048  51.437 -23.505  1.00  0.00     0.105 A 
HETATM    3  N2  UNL     1      -2.764  50.273 -23.618  1.00  0.00    -0.350 N 
HETATM    4  C17 UNL     1      -2.263  49.334 -22.726  1.00  0.00     0.045 A 
HETATM    5  C18 UNL     1      -2.645  48.004 -22.476  1.00  0.00     0.030 A 
HETATM    6  C19 UNL     1      -1.960  47.288 -21.492  1.00  0.00     0.002 A 
HETATM    7  C20 UNL     1      -0.920  47.872 -20.783  1.00  0.00     0.001 A 
HETATM    8  C21 UNL     1      -0.541  49.194 -21.037  1.00  0.00     0.014 A 
HETATM    9  C22 UNL     1      -1.216  49.944 -22.023  1.00  0.00     0.003 A 
ENDROOT
BRANCH   1  10
HETATM   10  C5  UNL     1      -0.216  52.307 -22.093  1.00  0.00     0.061 A 
HETATM   11  C4  UNL     1       0.449  53.233 -22.807  1.00  0.00     0.061 A 
HETATM   12  C24 UNL     1       1.246  54.033 -21.842  1.00  0.00     0.260 A 
HETATM   13  N4  UNL     1       1.040  53.516 -20.616  1.00  0.00    -0.289 N 
HETATM   14  O2  UNL     1       1.948  54.997 -22.087  1.00  0.00    -0.267 OA
HETATM   15  C23 UNL     1       0.150  52.507 -20.667  1.00  0.00     0.260 A 
HETATM   16  H26 UNL     1       1.429  53.891 -19.768  1.00  0.00     0.172 HD
HETATM   17  O1  UNL     1      -0.271  51.886 -19.706  1.00  0.00    -0.267 OA
BRANCH  11  18
HETATM   18  C3  UNL     1       0.431  53.487 -24.206  1.00  0.00     0.009 A 
HETATM   19  C2  UNL     1       0.104  54.702 -24.774  1.00  0.00     0.104 A 
HETATM   20  N1  UNL     1       0.174  54.566 -26.135  1.00  0.00    -0.360 N 
HETATM   21  C1  UNL     1      -0.109  55.623 -27.079  1.00  0.00     0.156 C 
HETATM   22  C30 UNL     1       0.532  53.277 -26.472  1.00  0.00     0.045 A 
HETATM   23  C25 UNL     1       0.711  52.577 -25.272  1.00  0.00     0.003 A 
HETATM   24  C29 UNL     1       0.708  52.669 -27.727  1.00  0.00     0.030 A 
HETATM   25  C26 UNL     1       1.079  51.216 -25.340  1.00  0.00     0.014 A 
HETATM   26  C27 UNL     1       1.265  50.604 -26.586  1.00  0.00     0.001 A 
HETATM   27  C28 UNL     1       1.077  51.322 -27.761  1.00  0.00     0.002 A 
ENDBRANCH  11  18
ENDBRANCH   1  10
BRANCH   3  28
HETATM   28  C8  UNL     1      -3.875  50.019 -24.541  1.00  0.00     0.093 C 
HETATM   29  C9  UNL     1      -5.234  50.059 -23.819  1.00  0.00     0.056 C 
HETATM   30  C10 UNL     1      -5.847  48.668 -23.683  1.00  0.00     0.274 C 
HETATM   31  N3  UNL     1      -6.025  47.967 -24.960  1.00  0.00     0.088 N 
HETATM   32  C15 UNL     1      -5.080  48.379 -26.008  1.00  0.00     0.274 C 
HETATM   33  C16 UNL     1      -3.725  48.766 -25.423  1.00  0.00     0.056 C 
BRANCH  31  34
HETATM   34  C11 UNL     1      -7.397  47.966 -25.473  1.00  0.00     0.277 C 
BRANCH  34  35
HETATM   35  C12 UNL     1      -7.645  46.808 -26.396  1.00  0.00     0.014 A 
HETATM   36  C13 UNL     1      -8.307  45.551 -25.882  1.00  0.00     0.007 A 
HETATM   37  C14 UNL     1      -9.041  46.443 -26.841  1.00  0.00     0.007 A 
ENDBRANCH  34  35
ENDBRANCH  31  34
ENDBRANCH   3  28
TORSDOF 5
ENDMDL
MODEL 8
REMARK minimizedAffinity -9.9143734
REMARK  5 active torsions:
REMARK  status: ('A' for Active; 'I' for Inactive)
REMARK    1  A    between atoms: C3_4  and  C4_5 
REMARK    2  A    between atoms: C5_6  and  C6_7 
REMARK    3  A    between atoms: N2_9  and  C8_10 
REMARK    4  A    between atoms: N3_13  and  C11_14 
REMARK    5  A    between atoms: C11_14  and  C12_15 
ROOT
HETATM    1  C6  UNL     1      -2.611  51.184 -23.805  1.00  0.00     0.009 A 
HETATM    2  C7  UNL     1      -3.733  51.328 -23.019  1.00  0.00     0.105 A 
HETATM    3  N2  UNL     1      -4.697  50.464 -23.471  1.00  0.00    -0.350 N 
HETATM    4  C17 UNL     1      -4.219  49.776 -24.578  1.00  0.00     0.045 A 
HETATM    5  C18 UNL     1      -4.827  48.804 -25.393  1.00  0.00     0.030 A 
HETATM    6  C19 UNL     1      -4.089  48.263 -26.449  1.00  0.00     0.002 A 
HETATM    7  C20 UNL     1      -2.788  48.682 -26.694  1.00  0.00     0.001 A 
HETATM    8  C21 UNL     1      -2.189  49.651 -25.882  1.00  0.00     0.014 A 
HETATM    9  C22 UNL     1      -2.908  50.214 -24.807  1.00  0.00     0.003 A 
ENDROOT
BRANCH   1  10
HETATM   10  C5  UNL     1      -1.394  51.888 -23.586  1.00  0.00     0.061 A 
HETATM   11  C4  UNL     1      -0.539  51.850 -22.548  1.00  0.00     0.061 A 
HETATM   12  C24 UNL     1       0.550  52.815 -22.848  1.00  0.00     0.260 A 
HETATM   13  N4  UNL     1       0.262  53.400 -24.026  1.00  0.00    -0.289 N 
HETATM   14  O2  UNL     1       1.541  53.039 -22.179  1.00  0.00    -0.267 OA
HETATM   15  C23 UNL     1      -0.861  52.879 -24.556  1.00  0.00     0.260 A 
HETATM   16  H26 UNL     1       0.853  54.070 -24.488  1.00  0.00     0.172 HD
HETATM   17  O1  UNL     1      -1.335  53.174 -25.640  1.00  0.00    -0.267 OA
BRANCH  11  18
HETATM   18  C3  UNL     1      -0.574  51.053 -21.371  1.00  0.00     0.009 A 
HETATM   19  C2  UNL     1      -1.060  49.762 -21.316  1.00  0.00     0.104 A 
HETATM   20  N1  UNL     1      -0.954  49.324 -20.024  1.00  0.00    -0.360 N 
HETATM   21  C1  UNL     1      -1.370  48.017 -19.566  1.00  0.00     0.156 C 
HETATM   22  C30 UNL     1      -0.416  50.310 -19.224  1.00  0.00     0.045 A 
HETATM   23  C25 UNL     1      -0.157  51.410 -20.051  1.00  0.00     0.003 A 
HETATM   24  C29 UNL     1      -0.141  50.329 -17.845  1.00  0.00     0.030 A 
HETATM   25  C26 UNL     1       0.398  52.570 -19.469  1.00  0.00     0.014 A 
HETATM   26  C27 UNL     1       0.683  52.594 -18.097  1.00  0.00     0.001 A 
HETATM   27  C28 UNL     1       0.412  51.490 -17.299  1.00  0.00     0.002 A 
ENDBRANCH  11  18
ENDBRANCH   1  10
BRANCH   3  28
HETATM   28  C8  UNL     1      -6.041  50.285 -22.909  1.00  0.00     0.093 C 
HETATM   29  C9  UNL     1      -6.005  50.187 -21.373  1.00  0.00     0.056 C 
HETATM   30  C10 UNL     1      -6.291  48.768 -20.888  1.00  0.00     0.274 C 
HETATM   31  N3  UNL     1      -7.571  48.224 -21.355  1.00  0.00     0.088 N 
HETATM   32  C15 UNL     1      -8.039  48.796 -22.626  1.00  0.00     0.274 C 
HETATM   33  C16 UNL     1      -6.874  49.157 -23.543  1.00  0.00     0.056 C 
BRANCH  31  34
HETATM   34  C11 UNL     1      -8.643  48.237 -20.357  1.00  0.00     0.277 C 
BRANCH  34  35
HETATM   35  C12 UNL     1      -8.200  48.875 -19.072  1.00  0.00     0.014 A 
HETATM   36  C13 UNL     1      -9.204  49.179 -17.985  1.00  0.00     0.007 A 
HETATM   37  C14 UNL     1      -8.181  48.100 -17.776  1.00  0.00     0.007 A 
ENDBRANCH  34  35
ENDBRANCH  31  34
ENDBRANCH   3  28
TORSDOF 5
ENDMDL
MODEL 9
REMARK minimizedAffinity -9.85463047
REMARK  5 active torsions:
REMARK  status: ('A' for Active; 'I' for Inactive)
REMARK    1  A    between atoms: C3_4  and  C4_5 
REMARK    2  A    between atoms: C5_6  and  C6_7 
REMARK    3  A    between atoms: N2_9  and  C8_10 
REMARK    4  A    between atoms: N3_13  and  C11_14 
REMARK    5  A    between atoms: C11_14  and  C12_15 
ROOT
HETATM    1  C6  UNL     1      -1.123  51.165 -22.525  1.00  0.00     0.009 A 
HETATM    2  C7  UNL     1      -2.056  51.330 -23.524  1.00  0.00     0.105 A 
HETATM    3  N2  UNL     1      -2.763  50.163 -23.660  1.00  0.00    -0.350 N 
HETATM    4  C17 UNL     1      -2.269  49.218 -22.771  1.00  0.00     0.045 A 
HETATM    5  C18 UNL     1      -2.647  47.883 -22.542  1.00  0.00     0.030 A 
HETATM    6  C19 UNL     1      -1.971  47.159 -21.556  1.00  0.00     0.002 A 
HETATM    7  C20 UNL     1      -0.944  47.742 -20.826  1.00  0.00     0.001 A 
HETATM    8  C21 UNL     1      -0.569  49.069 -21.060  1.00  0.00     0.014 A 
HETATM    9  C22 UNL     1      -1.235  49.826 -22.048  1.00  0.00     0.003 A 
ENDROOT
BRANCH   1  10
HETATM   10  C5  UNL     1      -0.249  52.196 -22.077  1.00  0.00     0.061 A 
HETATM   11  C4  UNL     1       0.029  52.624 -20.833  1.00  0.00     0.061 A 
HETATM   12  C24 UNL     1       0.994  53.745 -20.967  1.00  0.00     0.260 A 
HETATM   13  N4  UNL     1       1.206  53.946 -22.281  1.00  0.00    -0.289 N 
HETATM   14  O2  UNL     1       1.527  54.370 -20.068  1.00  0.00    -0.267 OA
HETATM   15  C23 UNL     1       0.533  53.040 -23.017  1.00  0.00     0.260 A 
HETATM   16  H26 UNL     1       1.848  54.622 -22.657  1.00  0.00     0.172 HD
HETATM   17  O1  UNL     1       0.576  52.942 -24.231  1.00  0.00    -0.267 OA
BRANCH  11  18
HETATM   18  C3  UNL     1      -0.437  52.139 -19.580  1.00  0.00     0.009 A 
HETATM   19  C2  UNL     1      -1.731  51.727 -19.335  1.00  0.00     0.104 A 
HETATM   20  N1  UNL     1      -1.815  51.350 -18.022  1.00  0.00    -0.360 N 
HETATM   21  C1  UNL     1      -3.018  50.865 -17.384  1.00  0.00     0.156 C 
HETATM   22  C30 UNL     1      -0.598  51.518 -17.395  1.00  0.00     0.045 A 
HETATM   23  C25 UNL     1       0.294  52.006 -18.359  1.00  0.00     0.003 A 
HETATM   24  C29 UNL     1      -0.209  51.288 -16.064  1.00  0.00     0.030 A 
HETATM   25  C26 UNL     1       1.623  52.272 -17.967  1.00  0.00     0.014 A 
HETATM   26  C27 UNL     1       2.022  52.036 -16.645  1.00  0.00     0.001 A 
HETATM   27  C28 UNL     1       1.115  51.555 -15.708  1.00  0.00     0.002 A 
ENDBRANCH  11  18
ENDBRANCH   1  10
BRANCH   3  28
HETATM   28  C8  UNL     1      -3.861  49.913 -24.601  1.00  0.00     0.093 C 
HETATM   29  C9  UNL     1      -5.235  50.050 -23.920  1.00  0.00     0.056 C 
HETATM   30  C10 UNL     1      -5.915  48.697 -23.734  1.00  0.00     0.274 C 
HETATM   31  N3  UNL     1      -6.091  47.941 -24.979  1.00  0.00     0.088 N 
HETATM   32  C15 UNL     1      -5.101  48.257 -26.019  1.00  0.00     0.274 C 
HETATM   33  C16 UNL     1      -3.745  48.611 -25.415  1.00  0.00     0.056 C 
BRANCH  31  34
HETATM   34  C11 UNL     1      -7.448  47.976 -25.531  1.00  0.00     0.277 C 
BRANCH  34  35
HETATM   35  C12 UNL     1      -7.680  46.858 -26.507  1.00  0.00     0.014 A 
HETATM   36  C13 UNL     1      -9.041  46.663 -27.134  1.00  0.00     0.007 A 
HETATM   37  C14 UNL     1      -7.889  47.129 -27.977  1.00  0.00     0.007 A 
ENDBRANCH  34  35
ENDBRANCH  31  34
ENDBRANCH   3  28
TORSDOF 5
ENDMDL
