MODEL 1
REMARK minimizedAffinity -8.87996101
REMARK CNNscore 0.905686796
REMARK CNNaffinity 8.17852879
REMARK  11 active torsions:
REMARK  status: ('A' for Active; 'I' for Inactive)
REMARK    1  A    between atoms: C2_2  and  O1_3 
REMARK    2  A    between atoms: O1_3  and  C3_4 
REMARK    3  A    between atoms: C3_4  and  C4_6 
REMARK    4  A    between atoms: C4_6  and  N1_7 
REMARK    5  A    between atoms: N2_10  and  C7_11 
REMARK    6  A    between atoms: C7_11  and  C8_12 
REMARK    7  A    between atoms: C8_12  and  C9_13 
REMARK    8  A    between atoms: C9_13  and  C10_14 
REMARK    9  A    between atoms: C11_15  and  C12_16 
REMARK   10  A    between atoms: C18_24  and  S1_25 
REMARK   11  A    between atoms: S1_25  and  N4_28 
ROOT
HETATM    1  C10 UNL     1      -7.663   6.980  14.832  1.00  0.00    -0.023 A 
HETATM    2  C11 UNL     1      -7.497   6.123  13.738  1.00  0.00     0.040 A 
HETATM    3  N5  UNL     1      -8.716   6.038  13.103  1.00  0.00    -0.359 N 
HETATM    4  C22 UNL     1      -9.640   6.795  13.762  1.00  0.00     0.016 A 
HETATM    5  C23 UNL     1      -9.027   7.397  14.837  1.00  0.00    -0.027 A 
HETATM    6  C24 UNL     1      -9.772   8.280  15.784  1.00  0.00     0.041 C 
HETATM    7  C25 UNL     1     -11.119   8.730  15.183  1.00  0.00     0.005 C 
HETATM    8  C26 UNL     1     -11.870   7.570  14.505  1.00  0.00     0.006 C 
HETATM    9  C27 UNL     1     -11.061   6.950  13.350  1.00  0.00     0.057 C 
HETATM   10  H27 UNL     1      -8.913   5.490  12.272  1.00  0.00     0.166 HD
ENDROOT
BRANCH   2  11
HETATM   11  C12 UNL     1      -6.347   5.424  13.270  1.00  0.00     0.048 C 
HETATM   12  C13 UNL     1      -6.233   4.169  12.805  1.00  0.00     0.047 A 
HETATM   13  C14 UNL     1      -7.260   3.077  12.615  1.00  0.00     0.257 A 
HETATM   14  C21 UNL     1      -4.943   3.595  12.369  1.00  0.00     0.008 A 
HETATM   15  O3  UNL     1      -8.456   3.116  12.831  1.00  0.00    -0.267 OA
HETATM   16  N3  UNL     1      -6.556   1.988  12.130  1.00  0.00    -0.322 N 
HETATM   17  C15 UNL     1      -5.207   2.276  11.981  1.00  0.00     0.046 A 
HETATM   18  H19 UNL     1      -7.002   1.112  11.905  1.00  0.00     0.169 HD
HETATM   19  C16 UNL     1      -4.229   1.419  11.513  1.00  0.00     0.032 A 
HETATM   20  C17 UNL     1      -2.926   1.912  11.432  1.00  0.00     0.027 A 
HETATM   21  C18 UNL     1      -2.649   3.240  11.816  1.00  0.00     0.080 A 
HETATM   22  C20 UNL     1      -3.656   4.099  12.284  1.00  0.00     0.040 A 
BRANCH  21  23
HETATM   23  S1  UNL     1      -0.990   3.863  11.697  1.00  0.00     0.258 S 
HETATM   24  O4  UNL     1      -1.041   5.056  10.883  1.00  0.00    -0.201 OA
HETATM   25  O5  UNL     1      -0.096   2.768  11.404  1.00  0.00    -0.201 OA
BRANCH  23  26
HETATM   26  N4  UNL     1      -0.692   4.370  13.270  1.00  0.00    -0.320 N 
HETATM   27  C19 UNL     1       0.481   5.200  13.520  1.00  0.00     0.159 C 
HETATM   28  H22 UNL     1      -1.550   4.592  13.774  1.00  0.00     0.171 HD
ENDBRANCH  23  26
ENDBRANCH  21  23
ENDBRANCH   2  11
BRANCH   1  29
HETATM   29  C9  UNL     1      -6.626   7.387  15.837  1.00  0.00     0.043 C 
BRANCH  29  30
HETATM   30  C8  UNL     1      -5.218   7.533  15.250  1.00  0.00     0.035 C 
BRANCH  30  31
HETATM   31  C7  UNL     1      -5.032   8.835  14.459  1.00  0.00     0.273 C 
BRANCH  31  32
HETATM   32  N2  UNL     1      -3.723   8.909  13.791  1.00  0.00     0.091 N 
HETATM   33  C6  UNL     1      -3.016   7.610  13.785  1.00  0.00     0.302 C 
HETATM   34  C5  UNL     1      -1.474   7.720  13.633  1.00  0.00     0.303 C 
HETATM   35  N1  UNL     1      -0.990   8.935  12.946  1.00  0.00     0.101 N 
HETATM   36  C29 UNL     1      -1.523  10.125  13.652  1.00  0.00     0.303 C 
HETATM   37  C28 UNL     1      -2.871   9.939  14.403  1.00  0.00     0.302 C 
BRANCH  35  38
HETATM   38  C4  UNL     1      -1.401   8.960  11.521  1.00  0.00     0.383 C 
BRANCH  38  39
HETATM   39  C3  UNL     1      -0.252   8.606  10.585  1.00  0.00     0.287 C 
HETATM   40  O2  UNL     1      -0.189   8.952   9.411  1.00  0.00    -0.263 OA
BRANCH  39  41
HETATM   41  O1  UNL     1       0.689   7.854  11.228  1.00  0.00    -0.321 OA
BRANCH  41  42
HETATM   42  C2  UNL     1       1.958   7.812  10.571  1.00  0.00     0.174 C 
HETATM   43  C1  UNL     1       2.190   6.397  10.078  1.00  0.00     0.034 C 
ENDBRANCH  41  42
ENDBRANCH  39  41
ENDBRANCH  38  39
ENDBRANCH  35  38
ENDBRANCH  31  32
ENDBRANCH  30  31
ENDBRANCH  29  30
ENDBRANCH   1  29
TORSDOF 11
ENDMDL
MODEL 2
REMARK minimizedAffinity -8.47760201
REMARK CNNscore 0.816772521
REMARK CNNaffinity 8.00246525
REMARK  11 active torsions:
REMARK  status: ('A' for Active; 'I' for Inactive)
REMARK    1  A    between atoms: C2_2  and  O1_3 
REMARK    2  A    between atoms: O1_3  and  C3_4 
REMARK    3  A    between atoms: C3_4  and  C4_6 
REMARK    4  A    between atoms: C4_6  and  N1_7 
REMARK    5  A    between atoms: N2_10  and  C7_11 
REMARK    6  A    between atoms: C7_11  and  C8_12 
REMARK    7  A    between atoms: C8_12  and  C9_13 
REMARK    8  A    between atoms: C9_13  and  C10_14 
REMARK    9  A    between atoms: C11_15  and  C12_16 
REMARK   10  A    between atoms: C18_24  and  S1_25 
REMARK   11  A    between atoms: S1_25  and  N4_28 
ROOT
HETATM    1  C10 UNL     1      -7.899   7.104  14.920  1.00  0.00    -0.023 A 
HETATM    2  C11 UNL     1      -7.711   6.253  13.826  1.00  0.00     0.040 A 
HETATM    3  N5  UNL     1      -8.928   6.131  13.194  1.00  0.00    -0.359 N 
HETATM    4  C22 UNL     1      -9.872   6.862  13.855  1.00  0.00     0.016 A 
HETATM    5  C23 UNL     1      -9.274   7.482  14.928  1.00  0.00    -0.027 A 
HETATM    6  C24 UNL     1     -10.043   8.343  15.876  1.00  0.00     0.041 C 
HETATM    7  C25 UNL     1     -11.403   8.753  15.279  1.00  0.00     0.005 C 
HETATM    8  C26 UNL     1     -12.122   7.572  14.603  1.00  0.00     0.006 C 
HETATM    9  C27 UNL     1     -11.297   6.975  13.446  1.00  0.00     0.057 C 
HETATM   10  H27 UNL     1      -9.111   5.578  12.363  1.00  0.00     0.166 HD
ENDROOT
BRANCH   2  11
HETATM   11  C12 UNL     1      -6.542   5.587  13.355  1.00  0.00     0.048 C 
HETATM   12  C13 UNL     1      -6.396   4.343  12.870  1.00  0.00     0.047 A 
HETATM   13  C14 UNL     1      -7.397   3.232  12.655  1.00  0.00     0.257 A 
HETATM   14  C21 UNL     1      -5.090   3.804  12.435  1.00  0.00     0.008 A 
HETATM   15  O3  UNL     1      -8.596   3.240  12.863  1.00  0.00    -0.267 OA
HETATM   16  N3  UNL     1      -6.666   2.166  12.158  1.00  0.00    -0.322 N 
HETATM   17  C15 UNL     1      -5.323   2.487  12.024  1.00  0.00     0.046 A 
HETATM   18  H19 UNL     1      -7.091   1.284  11.915  1.00  0.00     0.169 HD
HETATM   19  C16 UNL     1      -4.322   1.659  11.550  1.00  0.00     0.032 A 
HETATM   20  C17 UNL     1      -3.030   2.182  11.487  1.00  0.00     0.027 A 
HETATM   21  C18 UNL     1      -2.785   3.510  11.894  1.00  0.00     0.080 A 
HETATM   22  C20 UNL     1      -3.815   4.339  12.369  1.00  0.00     0.040 A 
BRANCH  21  23
HETATM   23  S1  UNL     1      -1.140   4.171  11.798  1.00  0.00     0.258 S 
HETATM   24  O4  UNL     1      -0.978   4.717  10.470  1.00  0.00    -0.201 OA
HETATM   25  O5  UNL     1      -0.214   3.213  12.355  1.00  0.00    -0.201 OA
BRANCH  23  26
HETATM   26  N4  UNL     1      -1.226   5.481  12.846  1.00  0.00    -0.320 N 
HETATM   27  C19 UNL     1      -0.674   5.333  14.188  1.00  0.00     0.159 C 
HETATM   28  H22 UNL     1      -1.083   6.369  12.366  1.00  0.00     0.171 HD
ENDBRANCH  23  26
ENDBRANCH  21  23
ENDBRANCH   2  11
BRANCH   1  29
HETATM   29  C9  UNL     1      -6.871   7.542  15.922  1.00  0.00     0.043 C 
BRANCH  29  30
HETATM   30  C8  UNL     1      -5.834   8.519  15.360  1.00  0.00     0.035 C 
BRANCH  30  31
HETATM   31  C7  UNL     1      -4.473   7.860  15.098  1.00  0.00     0.273 C 
BRANCH  31  32
HETATM   32  N2  UNL     1      -3.344   8.750  15.409  1.00  0.00     0.091 N 
HETATM   33  C6  UNL     1      -3.667   9.723  16.475  1.00  0.00     0.302 C 
HETATM   34  C5  UNL     1      -2.789  11.005  16.461  1.00  0.00     0.303 C 
HETATM   35  N1  UNL     1      -1.452  10.851  15.852  1.00  0.00     0.101 N 
HETATM   36  C29 UNL     1      -1.615  10.325  14.476  1.00  0.00     0.303 C 
HETATM   37  C28 UNL     1      -2.880   9.461  14.208  1.00  0.00     0.302 C 
BRANCH  35  38
HETATM   38  C4  UNL     1      -0.588   9.944  16.646  1.00  0.00     0.383 C 
BRANCH  38  39
HETATM   39  C3  UNL     1       0.634  10.660  17.207  1.00  0.00     0.287 C 
HETATM   40  O2  UNL     1       1.334  11.435  16.564  1.00  0.00    -0.263 OA
BRANCH  39  41
HETATM   41  O1  UNL     1       0.843  10.321  18.513  1.00  0.00    -0.321 OA
BRANCH  41  42
HETATM   42  C2  UNL     1       0.059  11.069  19.447  1.00  0.00     0.174 C 
HETATM   43  C1  UNL     1       1.002  11.880  20.315  1.00  0.00     0.034 C 
ENDBRANCH  41  42
ENDBRANCH  39  41
ENDBRANCH  38  39
ENDBRANCH  35  38
ENDBRANCH  31  32
ENDBRANCH  30  31
ENDBRANCH  29  30
ENDBRANCH   1  29
TORSDOF 11
ENDMDL
MODEL 3
REMARK minimizedAffinity -9.02779579
REMARK CNNscore 0.422362417
REMARK CNNaffinity 7.81281042
REMARK  11 active torsions:
REMARK  status: ('A' for Active; 'I' for Inactive)
REMARK    1  A    between atoms: C2_2  and  O1_3 
REMARK    2  A    between atoms: O1_3  and  C3_4 
REMARK    3  A    between atoms: C3_4  and  C4_6 
REMARK    4  A    between atoms: C4_6  and  N1_7 
REMARK    5  A    between atoms: N2_10  and  C7_11 
REMARK    6  A    between atoms: C7_11  and  C8_12 
REMARK    7  A    between atoms: C8_12  and  C9_13 
REMARK    8  A    between atoms: C9_13  and  C10_14 
REMARK    9  A    between atoms: C11_15  and  C12_16 
REMARK   10  A    between atoms: C18_24  and  S1_25 
REMARK   11  A    between atoms: S1_25  and  N4_28 
ROOT
HETATM    1  C10 UNL     1      -0.026   6.217  13.142  1.00  0.00    -0.023 A 
HETATM    2  C11 UNL     1      -0.814   5.614  12.156  1.00  0.00     0.040 A 
HETATM    3  N5  UNL     1      -0.106   5.678  10.978  1.00  0.00    -0.359 N 
HETATM    4  C22 UNL     1       1.087   6.307  11.183  1.00  0.00     0.016 A 
HETATM    5  C23 UNL     1       1.176   6.654  12.512  1.00  0.00    -0.027 A 
HETATM    6  C24 UNL     1       2.357   7.384  13.064  1.00  0.00     0.041 C 
HETATM    7  C25 UNL     1       3.556   7.316  12.099  1.00  0.00     0.005 C 
HETATM    8  C26 UNL     1       3.143   7.573  10.638  1.00  0.00     0.006 C 
HETATM    9  C27 UNL     1       2.115   6.542  10.135  1.00  0.00     0.057 C 
HETATM   10  H27 UNL     1      -0.417   5.320  10.080  1.00  0.00     0.166 HD
ENDROOT
BRANCH   2  11
HETATM   11  C12 UNL     1      -2.105   5.014  12.234  1.00  0.00     0.048 C 
HETATM   12  C13 UNL     1      -2.512   3.793  11.850  1.00  0.00     0.047 A 
HETATM   13  C14 UNL     1      -1.763   2.646  11.213  1.00  0.00     0.257 A 
HETATM   14  C21 UNL     1      -3.910   3.336  11.996  1.00  0.00     0.008 A 
HETATM   15  O3  UNL     1      -0.583   2.577  10.926  1.00  0.00    -0.267 OA
HETATM   16  N3  UNL     1      -2.707   1.653  11.015  1.00  0.00    -0.322 N 
HETATM   17  C15 UNL     1      -3.960   2.041  11.467  1.00  0.00     0.046 A 
HETATM   18  H19 UNL     1      -2.476   0.760  10.606  1.00  0.00     0.169 HD
HETATM   19  C16 UNL     1      -5.119   1.289  11.429  1.00  0.00     0.032 A 
HETATM   20  C17 UNL     1      -6.278   1.866  11.946  1.00  0.00     0.027 A 
HETATM   21  C18 UNL     1      -6.239   3.169  12.485  1.00  0.00     0.080 A 
HETATM   22  C20 UNL     1      -5.052   3.918  12.521  1.00  0.00     0.040 A 
BRANCH  21  23
HETATM   23  S1  UNL     1      -7.717   3.891  13.154  1.00  0.00     0.258 S 
HETATM   24  O4  UNL     1      -7.475   4.132  14.558  1.00  0.00    -0.201 OA
HETATM   25  O5  UNL     1      -8.860   3.141  12.687  1.00  0.00    -0.201 OA
BRANCH  23  26
HETATM   26  N4  UNL     1      -7.742   5.395  12.408  1.00  0.00    -0.320 N 
HETATM   27  C19 UNL     1      -8.867   5.720  11.539  1.00  0.00     0.159 C 
HETATM   28  H22 UNL     1      -7.376   6.131  13.012  1.00  0.00     0.171 HD
ENDBRANCH  23  26
ENDBRANCH  21  23
ENDBRANCH   2  11
BRANCH   1  29
HETATM   29  C9  UNL     1      -0.362   6.399  14.594  1.00  0.00     0.043 C 
BRANCH  29  30
HETATM   30  C8  UNL     1      -0.718   7.840  14.971  1.00  0.00     0.035 C 
BRANCH  30  31
HETATM   31  C7  UNL     1      -1.761   7.924  16.095  1.00  0.00     0.273 C 
BRANCH  31  32
HETATM   32  N2  UNL     1      -3.140   7.957  15.585  1.00  0.00     0.091 N 
HETATM   33  C6  UNL     1      -3.768   6.618  15.563  1.00  0.00     0.302 C 
HETATM   34  C5  UNL     1      -4.942   6.477  14.554  1.00  0.00     0.303 C 
HETATM   35  N1  UNL     1      -5.646   7.732  14.221  1.00  0.00     0.101 N 
HETATM   36  C29 UNL     1      -4.655   8.715  13.722  1.00  0.00     0.303 C 
HETATM   37  C28 UNL     1      -3.199   8.559  14.245  1.00  0.00     0.302 C 
BRANCH  35  38
HETATM   38  C4  UNL     1      -6.366   8.285  15.394  1.00  0.00     0.383 C 
BRANCH  38  39
HETATM   39  C3  UNL     1      -7.848   8.497  15.110  1.00  0.00     0.287 C 
HETATM   40  O2  UNL     1      -8.432   9.565  15.262  1.00  0.00    -0.263 OA
BRANCH  39  41
HETATM   41  O1  UNL     1      -8.432   7.344  14.671  1.00  0.00    -0.321 OA
BRANCH  41  42
HETATM   42  C2  UNL     1      -9.803   7.198  15.049  1.00  0.00     0.174 C 
HETATM   43  C1  UNL     1     -10.666   7.757  13.935  1.00  0.00     0.034 C 
ENDBRANCH  41  42
ENDBRANCH  39  41
ENDBRANCH  38  39
ENDBRANCH  35  38
ENDBRANCH  31  32
ENDBRANCH  30  31
ENDBRANCH  29  30
ENDBRANCH   1  29
TORSDOF 11
ENDMDL
MODEL 4
REMARK minimizedAffinity -9.3518095
REMARK CNNscore 0.239327967
REMARK CNNaffinity 7.18274736
REMARK  11 active torsions:
REMARK  status: ('A' for Active; 'I' for Inactive)
REMARK    1  A    between atoms: C2_2  and  O1_3 
REMARK    2  A    between atoms: O1_3  and  C3_4 
REMARK    3  A    between atoms: C3_4  and  C4_6 
REMARK    4  A    between atoms: C4_6  and  N1_7 
REMARK    5  A    between atoms: N2_10  and  C7_11 
REMARK    6  A    between atoms: C7_11  and  C8_12 
REMARK    7  A    between atoms: C8_12  and  C9_13 
REMARK    8  A    between atoms: C9_13  and  C10_14 
REMARK    9  A    between atoms: C11_15  and  C12_16 
REMARK   10  A    between atoms: C18_24  and  S1_25 
REMARK   11  A    between atoms: S1_25  and  N4_28 
ROOT
HETATM    1  C10 UNL     1      -0.359   6.701  12.593  1.00  0.00    -0.023 A 
HETATM    2  C11 UNL     1      -0.898   5.551  12.004  1.00  0.00     0.040 A 
HETATM    3  N5  UNL     1       0.101   4.975  11.253  1.00  0.00    -0.359 N 
HETATM    4  C22 UNL     1       1.239   5.724  11.337  1.00  0.00     0.016 A 
HETATM    5  C23 UNL     1       0.997   6.799  12.160  1.00  0.00    -0.027 A 
HETATM    6  C24 UNL     1       2.038   7.833  12.443  1.00  0.00     0.041 C 
HETATM    7  C25 UNL     1       3.443   7.329  12.058  1.00  0.00     0.005 C 
HETATM    8  C26 UNL     1       3.453   6.623  10.690  1.00  0.00     0.006 C 
HETATM    9  C27 UNL     1       2.524   5.394  10.663  1.00  0.00     0.057 C 
HETATM   10  H27 UNL     1       0.015   4.124  10.706  1.00  0.00     0.166 HD
ENDROOT
BRANCH   2  11
HETATM   11  C12 UNL     1      -2.203   4.986  12.093  1.00  0.00     0.048 C 
HETATM   12  C13 UNL     1      -2.623   3.741  11.811  1.00  0.00     0.047 A 
HETATM   13  C14 UNL     1      -1.877   2.526  11.312  1.00  0.00     0.257 A 
HETATM   14  C21 UNL     1      -4.034   3.326  11.949  1.00  0.00     0.008 A 
HETATM   15  O3  UNL     1      -0.691   2.408  11.075  1.00  0.00    -0.267 OA
HETATM   16  N3  UNL     1      -2.836   1.535  11.175  1.00  0.00    -0.322 N 
HETATM   17  C15 UNL     1      -4.094   1.987  11.544  1.00  0.00     0.046 A 
HETATM   18  H19 UNL     1      -2.610   0.604  10.860  1.00  0.00     0.169 HD
HETATM   19  C16 UNL     1      -5.267   1.256  11.535  1.00  0.00     0.032 A 
HETATM   20  C17 UNL     1      -6.431   1.901  11.955  1.00  0.00     0.027 A 
HETATM   21  C18 UNL     1      -6.382   3.248  12.370  1.00  0.00     0.080 A 
HETATM   22  C20 UNL     1      -5.180   3.975  12.377  1.00  0.00     0.040 A 
BRANCH  21  23
HETATM   23  S1  UNL     1      -7.865   4.056  12.915  1.00  0.00     0.258 S 
HETATM   24  O4  UNL     1      -8.961   3.146  12.670  1.00  0.00    -0.201 OA
HETATM   25  O5  UNL     1      -7.869   5.415  12.424  1.00  0.00    -0.201 OA
BRANCH  23  26
HETATM   26  N4  UNL     1      -7.648   4.106  14.579  1.00  0.00    -0.320 N 
HETATM   27  C19 UNL     1      -7.351   5.390  15.202  1.00  0.00     0.159 C 
HETATM   28  H22 UNL     1      -8.278   3.471  15.069  1.00  0.00     0.171 HD
ENDBRANCH  23  26
ENDBRANCH  21  23
ENDBRANCH   2  11
BRANCH   1  29
HETATM   29  C9  UNL     1      -1.054   7.674  13.499  1.00  0.00     0.043 C 
BRANCH  29  30
HETATM   30  C8  UNL     1      -0.680   7.522  14.976  1.00  0.00     0.035 C 
BRANCH  30  31
HETATM   31  C7  UNL     1      -1.291   8.615  15.864  1.00  0.00     0.273 C 
BRANCH  31  32
HETATM   32  N2  UNL     1      -0.275   9.361  16.624  1.00  0.00     0.091 N 
HETATM   33  C6  UNL     1      -0.490  10.823  16.573  1.00  0.00     0.302 C 
HETATM   34  C5  UNL     1       0.787  11.668  16.839  1.00  0.00     0.303 C 
HETATM   35  N1  UNL     1       1.826  11.007  17.654  1.00  0.00     0.101 N 
HETATM   36  C29 UNL     1       2.186   9.720  17.012  1.00  0.00     0.303 C 
HETATM   37  C28 UNL     1       1.081   9.038  16.157  1.00  0.00     0.302 C 
BRANCH  35  38
HETATM   38  C4  UNL     1       1.366  10.772  19.045  1.00  0.00     0.383 C 
BRANCH  38  39
HETATM   39  C3  UNL     1       2.505  10.346  19.963  1.00  0.00     0.287 C 
HETATM   40  O2  UNL     1       3.676  10.673  19.803  1.00  0.00    -0.263 OA
BRANCH  39  41
HETATM   41  O1  UNL     1       2.047   9.555  20.976  1.00  0.00    -0.321 OA
BRANCH  41  42
HETATM   42  C2  UNL     1       2.998   9.326  22.020  1.00  0.00     0.174 C 
HETATM   43  C1  UNL     1       2.421   8.296  22.970  1.00  0.00     0.034 C 
ENDBRANCH  41  42
ENDBRANCH  39  41
ENDBRANCH  38  39
ENDBRANCH  35  38
ENDBRANCH  31  32
ENDBRANCH  30  31
ENDBRANCH  29  30
ENDBRANCH   1  29
TORSDOF 11
ENDMDL
MODEL 5
REMARK minimizedAffinity -8.41914749
REMARK CNNscore 0.232344106
REMARK CNNaffinity 7.08461714
REMARK  11 active torsions:
REMARK  status: ('A' for Active; 'I' for Inactive)
REMARK    1  A    between atoms: C2_2  and  O1_3 
REMARK    2  A    between atoms: O1_3  and  C3_4 
REMARK    3  A    between atoms: C3_4  and  C4_6 
REMARK    4  A    between atoms: C4_6  and  N1_7 
REMARK    5  A    between atoms: N2_10  and  C7_11 
REMARK    6  A    between atoms: C7_11  and  C8_12 
REMARK    7  A    between atoms: C8_12  and  C9_13 
REMARK    8  A    between atoms: C9_13  and  C10_14 
REMARK    9  A    between atoms: C11_15  and  C12_16 
REMARK   10  A    between atoms: C18_24  and  S1_25 
REMARK   11  A    between atoms: S1_25  and  N4_28 
ROOT
HETATM    1  C10 UNL     1       0.320   6.589  12.513  1.00  0.00    -0.023 A 
HETATM    2  C11 UNL     1      -0.418   5.610  11.839  1.00  0.00     0.040 A 
HETATM    3  N5  UNL     1       0.419   5.044  10.905  1.00  0.00    -0.359 N 
HETATM    4  C22 UNL     1       1.647   5.637  10.958  1.00  0.00     0.016 A 
HETATM    5  C23 UNL     1       1.627   6.597  11.944  1.00  0.00    -0.027 A 
HETATM    6  C24 UNL     1       2.816   7.451  12.243  1.00  0.00     0.041 C 
HETATM    7  C25 UNL     1       4.099   6.854  11.632  1.00  0.00     0.005 C 
HETATM    8  C26 UNL     1       3.883   6.366  10.188  1.00  0.00     0.006 C 
HETATM    9  C27 UNL     1       2.805   5.269  10.101  1.00  0.00     0.057 C 
HETATM   10  H27 UNL     1       0.170   4.300  10.260  1.00  0.00     0.166 HD
ENDROOT
BRANCH   2  11
HETATM   11  C12 UNL     1      -1.771   5.190  12.000  1.00  0.00     0.048 C 
HETATM   12  C13 UNL     1      -2.339   4.000  11.743  1.00  0.00     0.047 A 
HETATM   13  C14 UNL     1      -1.760   2.713  11.204  1.00  0.00     0.257 A 
HETATM   14  C21 UNL     1      -3.777   3.740  11.960  1.00  0.00     0.008 A 
HETATM   15  O3  UNL     1      -0.608   2.469  10.901  1.00  0.00    -0.267 OA
HETATM   16  N3  UNL     1      -2.826   1.834  11.120  1.00  0.00    -0.322 N 
HETATM   17  C15 UNL     1      -4.006   2.419  11.559  1.00  0.00     0.046 A 
HETATM   18  H19 UNL     1      -2.722   0.886  10.794  1.00  0.00     0.169 HD
HETATM   19  C16 UNL     1      -5.250   1.820  11.615  1.00  0.00     0.032 A 
HETATM   20  C17 UNL     1      -6.311   2.585  12.099  1.00  0.00     0.027 A 
HETATM   21  C18 UNL     1      -6.092   3.917  12.510  1.00  0.00     0.080 A 
HETATM   22  C20 UNL     1      -4.820   4.508  12.450  1.00  0.00     0.040 A 
BRANCH  21  23
HETATM   23  S1  UNL     1      -7.447   4.879  13.136  1.00  0.00     0.258 S 
HETATM   24  O4  UNL     1      -8.642   4.415  12.470  1.00  0.00    -0.201 OA
HETATM   25  O5  UNL     1      -7.067   6.272  13.153  1.00  0.00    -0.201 OA
BRANCH  23  26
HETATM   26  N4  UNL     1      -7.549   4.349  14.727  1.00  0.00    -0.320 N 
HETATM   27  C19 UNL     1      -7.470   5.340  15.794  1.00  0.00     0.159 C 
HETATM   28  H22 UNL     1      -8.211   3.581  14.835  1.00  0.00     0.171 HD
ENDBRANCH  23  26
ENDBRANCH  21  23
ENDBRANCH   2  11
BRANCH   1  29
HETATM   29  C9  UNL     1      -0.151   7.488  13.619  1.00  0.00     0.043 C 
BRANCH  29  30
HETATM   30  C8  UNL     1      -1.433   8.259  13.287  1.00  0.00     0.035 C 
BRANCH  30  31
HETATM   31  C7  UNL     1      -1.300   9.770  13.525  1.00  0.00     0.273 C 
BRANCH  31  32
HETATM   32  N2  UNL     1      -1.394  10.128  14.949  1.00  0.00     0.091 N 
HETATM   33  C6  UNL     1      -0.067  10.329  15.571  1.00  0.00     0.302 C 
HETATM   34  C5  UNL     1      -0.048  10.144  17.114  1.00  0.00     0.303 C 
HETATM   35  N1  UNL     1      -1.334  10.391  17.798  1.00  0.00     0.101 N 
HETATM   36  C29 UNL     1      -2.369   9.522  17.189  1.00  0.00     0.303 C 
HETATM   37  C28 UNL     1      -2.152   9.120  15.703  1.00  0.00     0.302 C 
BRANCH  35  38
HETATM   38  C4  UNL     1      -1.742  11.814  17.703  1.00  0.00     0.383 C 
BRANCH  38  39
HETATM   39  C3  UNL     1      -1.287  12.623  18.912  1.00  0.00     0.287 C 
HETATM   40  O2  UNL     1      -1.686  13.752  19.174  1.00  0.00    -0.263 OA
BRANCH  39  41
HETATM   41  O1  UNL     1      -0.379  11.925  19.654  1.00  0.00    -0.321 OA
BRANCH  41  42
HETATM   42  C2  UNL     1       0.721  12.707  20.127  1.00  0.00     0.174 C 
HETATM   43  C1  UNL     1       1.810  11.762  20.594  1.00  0.00     0.034 C 
ENDBRANCH  41  42
ENDBRANCH  39  41
ENDBRANCH  38  39
ENDBRANCH  35  38
ENDBRANCH  31  32
ENDBRANCH  30  31
ENDBRANCH  29  30
ENDBRANCH   1  29
TORSDOF 11
ENDMDL
MODEL 6
REMARK minimizedAffinity -7.31465483
REMARK CNNscore 0.225831822
REMARK CNNaffinity 6.84223318
REMARK  11 active torsions:
REMARK  status: ('A' for Active; 'I' for Inactive)
REMARK    1  A    between atoms: C2_2  and  O1_3 
REMARK    2  A    between atoms: O1_3  and  C3_4 
REMARK    3  A    between atoms: C3_4  and  C4_6 
REMARK    4  A    between atoms: C4_6  and  N1_7 
REMARK    5  A    between atoms: N2_10  and  C7_11 
REMARK    6  A    between atoms: C7_11  and  C8_12 
REMARK    7  A    between atoms: C8_12  and  C9_13 
REMARK    8  A    between atoms: C9_13  and  C10_14 
REMARK    9  A    between atoms: C11_15  and  C12_16 
REMARK   10  A    between atoms: C18_24  and  S1_25 
REMARK   11  A    between atoms: S1_25  and  N4_28 
ROOT
HETATM    1  C10 UNL     1      -9.788   8.491  14.890  1.00  0.00    -0.023 A 
HETATM    2  C11 UNL     1      -9.154   7.290  14.555  1.00  0.00     0.040 A 
HETATM    3  N5  UNL     1     -10.144   6.360  14.328  1.00  0.00    -0.359 N 
HETATM    4  C22 UNL     1     -11.370   6.928  14.519  1.00  0.00     0.016 A 
HETATM    5  C23 UNL     1     -11.192   8.248  14.865  1.00  0.00    -0.027 A 
HETATM    6  C24 UNL     1     -12.344   9.150  15.169  1.00  0.00     0.041 C 
HETATM    7  C25 UNL     1     -13.670   8.553  14.658  1.00  0.00     0.005 C 
HETATM    8  C26 UNL     1     -13.797   7.054  14.985  1.00  0.00     0.006 C 
HETATM    9  C27 UNL     1     -12.668   6.222  14.348  1.00  0.00     0.057 C 
HETATM   10  H27 UNL     1      -9.996   5.391  14.064  1.00  0.00     0.166 HD
ENDROOT
BRANCH   2  11
HETATM   11  C12 UNL     1      -7.770   6.969  14.436  1.00  0.00     0.048 C 
HETATM   12  C13 UNL     1      -7.172   5.978  13.756  1.00  0.00     0.047 A 
HETATM   13  C14 UNL     1      -7.739   4.874  12.894  1.00  0.00     0.257 A 
HETATM   14  C21 UNL     1      -5.706   5.784  13.754  1.00  0.00     0.008 A 
HETATM   15  O3  UNL     1      -8.900   4.659  12.606  1.00  0.00    -0.267 OA
HETATM   16  N3  UNL     1      -6.647   4.130  12.480  1.00  0.00    -0.322 N 
HETATM   17  C15 UNL     1      -5.458   4.650  12.972  1.00  0.00     0.046 A 
HETATM   18  H19 UNL     1      -6.737   3.326  11.878  1.00  0.00     0.169 HD
HETATM   19  C16 UNL     1      -4.187   4.157  12.743  1.00  0.00     0.032 A 
HETATM   20  C17 UNL     1      -3.119   4.837  13.328  1.00  0.00     0.027 A 
HETATM   21  C18 UNL     1      -3.356   5.983  14.115  1.00  0.00     0.080 A 
HETATM   22  C20 UNL     1      -4.654   6.473  14.333  1.00  0.00     0.040 A 
BRANCH  21  23
HETATM   23  S1  UNL     1      -1.989   6.849  14.845  1.00  0.00     0.258 S 
HETATM   24  O4  UNL     1      -1.805   8.067  14.089  1.00  0.00    -0.201 OA
HETATM   25  O5  UNL     1      -0.911   5.917  15.078  1.00  0.00    -0.201 OA
BRANCH  23  26
HETATM   26  N4  UNL     1      -2.615   7.303  16.336  1.00  0.00    -0.320 N 
HETATM   27  C19 UNL     1      -2.679   8.724  16.657  1.00  0.00     0.159 C 
HETATM   28  H22 UNL     1      -3.395   6.712  16.622  1.00  0.00     0.171 HD
ENDBRANCH  23  26
ENDBRANCH  21  23
ENDBRANCH   2  11
BRANCH   1  29
HETATM   29  C9  UNL     1      -9.139   9.801  15.231  1.00  0.00     0.043 C 
BRANCH  29  30
HETATM   30  C8  UNL     1     -10.019  10.727  16.077  1.00  0.00     0.035 C 
BRANCH  30  31
HETATM   31  C7  UNL     1     -10.239  12.100  15.427  1.00  0.00     0.273 C 
BRANCH  31  32
HETATM   32  N2  UNL     1      -9.092  13.003  15.612  1.00  0.00     0.091 N 
HETATM   33  C6  UNL     1      -8.973  13.490  17.004  1.00  0.00     0.302 C 
HETATM   34  C5  UNL     1      -8.192  14.825  17.152  1.00  0.00     0.303 C 
HETATM   35  N1  UNL     1      -7.211  15.107  16.085  1.00  0.00     0.101 N 
HETATM   36  C29 UNL     1      -7.905  15.061  14.776  1.00  0.00     0.303 C 
HETATM   37  C28 UNL     1      -9.159  14.145  14.688  1.00  0.00     0.302 C 
BRANCH  35  38
HETATM   38  C4  UNL     1      -6.088  14.138  16.101  1.00  0.00     0.383 C 
BRANCH  38  39
HETATM   39  C3  UNL     1      -4.761  14.802  16.446  1.00  0.00     0.287 C 
HETATM   40  O2  UNL     1      -4.192  14.684  17.526  1.00  0.00    -0.263 OA
BRANCH  39  41
HETATM   41  O1  UNL     1      -4.297  15.541  15.396  1.00  0.00    -0.321 OA
BRANCH  41  42
HETATM   42  C2  UNL     1      -4.137  14.803  14.182  1.00  0.00     0.174 C 
HETATM   43  C1  UNL     1      -2.722  14.262  14.137  1.00  0.00     0.034 C 
ENDBRANCH  41  42
ENDBRANCH  39  41
ENDBRANCH  38  39
ENDBRANCH  35  38
ENDBRANCH  31  32
ENDBRANCH  30  31
ENDBRANCH  29  30
ENDBRANCH   1  29
TORSDOF 11
ENDMDL
MODEL 7
REMARK minimizedAffinity -8.33456421
REMARK CNNscore 0.118605837
REMARK CNNaffinity 6.90693808
REMARK  11 active torsions:
REMARK  status: ('A' for Active; 'I' for Inactive)
REMARK    1  A    between atoms: C2_2  and  O1_3 
REMARK    2  A    between atoms: O1_3  and  C3_4 
REMARK    3  A    between atoms: C3_4  and  C4_6 
REMARK    4  A    between atoms: C4_6  and  N1_7 
REMARK    5  A    between atoms: N2_10  and  C7_11 
REMARK    6  A    between atoms: C7_11  and  C8_12 
REMARK    7  A    between atoms: C8_12  and  C9_13 
REMARK    8  A    between atoms: C9_13  and  C10_14 
REMARK    9  A    between atoms: C11_15  and  C12_16 
REMARK   10  A    between atoms: C18_24  and  S1_25 
REMARK   11  A    between atoms: S1_25  and  N4_28 
ROOT
HETATM    1  C10 UNL     1       0.395   6.276  12.814  1.00  0.00    -0.023 A 
HETATM    2  C11 UNL     1      -0.500   5.735  11.885  1.00  0.00     0.040 A 
HETATM    3  N5  UNL     1       0.152   5.694  10.673  1.00  0.00    -0.359 N 
HETATM    4  C22 UNL     1       1.413   6.197  10.804  1.00  0.00     0.016 A 
HETATM    5  C23 UNL     1       1.604   6.566  12.116  1.00  0.00    -0.027 A 
HETATM    6  C24 UNL     1       2.881   7.180  12.590  1.00  0.00     0.041 C 
HETATM    7  C25 UNL     1       4.017   6.960  11.572  1.00  0.00     0.005 C 
HETATM    8  C26 UNL     1       3.562   7.222  10.125  1.00  0.00     0.006 C 
HETATM    9  C27 UNL     1       2.407   6.294   9.702  1.00  0.00     0.057 C 
HETATM   10  H27 UNL     1      -0.239   5.349   9.802  1.00  0.00     0.166 HD
ENDROOT
BRANCH   2  11
HETATM   11  C12 UNL     1      -1.841   5.279  12.041  1.00  0.00     0.048 C 
HETATM   12  C13 UNL     1      -2.380   4.080  11.768  1.00  0.00     0.047 A 
HETATM   13  C14 UNL     1      -1.769   2.815  11.211  1.00  0.00     0.257 A 
HETATM   14  C21 UNL     1      -3.811   3.781  11.982  1.00  0.00     0.008 A 
HETATM   15  O3  UNL     1      -0.612   2.603  10.904  1.00  0.00    -0.267 OA
HETATM   16  N3  UNL     1      -2.814   1.911  11.116  1.00  0.00    -0.322 N 
HETATM   17  C15 UNL     1      -4.007   2.460  11.563  1.00  0.00     0.046 A 
HETATM   18  H19 UNL     1      -2.686   0.970  10.777  1.00  0.00     0.169 HD
HETATM   19  C16 UNL     1      -5.236   1.829  11.613  1.00  0.00     0.032 A 
HETATM   20  C17 UNL     1      -6.316   2.562  12.107  1.00  0.00     0.027 A 
HETATM   21  C18 UNL     1      -6.129   3.893  12.537  1.00  0.00     0.080 A 
HETATM   22  C20 UNL     1      -4.873   4.516  12.484  1.00  0.00     0.040 A 
BRANCH  21  23
HETATM   23  S1  UNL     1      -7.506   4.812  13.176  1.00  0.00     0.258 S 
HETATM   24  O4  UNL     1      -8.695   4.303  12.531  1.00  0.00    -0.201 OA
HETATM   25  O5  UNL     1      -7.174   6.218  13.178  1.00  0.00    -0.201 OA
BRANCH  23  26
HETATM   26  N4  UNL     1      -7.567   4.291  14.772  1.00  0.00    -0.320 N 
HETATM   27  C19 UNL     1      -7.487   5.290  15.831  1.00  0.00     0.159 C 
HETATM   28  H22 UNL     1      -8.211   3.510  14.898  1.00  0.00     0.171 HD
ENDBRANCH  23  26
ENDBRANCH  21  23
ENDBRANCH   2  11
BRANCH   1  29
HETATM   29  C9  UNL     1       0.153   6.530  14.273  1.00  0.00     0.043 C 
BRANCH  29  30
HETATM   30  C8  UNL     1      -0.547   7.862  14.562  1.00  0.00     0.035 C 
BRANCH  30  31
HETATM   31  C7  UNL     1       0.004   8.569  15.809  1.00  0.00     0.273 C 
BRANCH  31  32
HETATM   32  N2  UNL     1       1.326   9.172  15.579  1.00  0.00     0.091 N 
HETATM   33  C6  UNL     1       1.991   9.575  16.837  1.00  0.00     0.302 C 
HETATM   34  C5  UNL     1       3.065  10.686  16.668  1.00  0.00     0.303 C 
HETATM   35  N1  UNL     1       3.692  10.763  15.332  1.00  0.00     0.101 N 
HETATM   36  C29 UNL     1       2.626  10.920  14.315  1.00  0.00     0.303 C 
HETATM   37  C28 UNL     1       1.234  10.326  14.671  1.00  0.00     0.302 C 
BRANCH  35  38
HETATM   38  C4  UNL     1       4.505   9.557  15.038  1.00  0.00     0.383 C 
BRANCH  38  39
HETATM   39  C3  UNL     1       5.941   9.700  15.526  1.00  0.00     0.287 C 
HETATM   40  O2  UNL     1       6.566  10.755  15.528  1.00  0.00    -0.263 OA
BRANCH  39  41
HETATM   41  O1  UNL     1       6.434   8.501  15.954  1.00  0.00    -0.321 OA
BRANCH  41  42
HETATM   42  C2  UNL     1       7.535   8.009  15.186  1.00  0.00     0.174 C 
HETATM   43  C1  UNL     1       8.782   8.080  16.044  1.00  0.00     0.034 C 
ENDBRANCH  41  42
ENDBRANCH  39  41
ENDBRANCH  38  39
ENDBRANCH  35  38
ENDBRANCH  31  32
ENDBRANCH  30  31
ENDBRANCH  29  30
ENDBRANCH   1  29
TORSDOF 11
ENDMDL
MODEL 8
REMARK minimizedAffinity -8.3181591
REMARK CNNscore 0.110342748
REMARK CNNaffinity 6.90380526
REMARK  11 active torsions:
REMARK  status: ('A' for Active; 'I' for Inactive)
REMARK    1  A    between atoms: C2_2  and  O1_3 
REMARK    2  A    between atoms: O1_3  and  C3_4 
REMARK    3  A    between atoms: C3_4  and  C4_6 
REMARK    4  A    between atoms: C4_6  and  N1_7 
REMARK    5  A    between atoms: N2_10  and  C7_11 
REMARK    6  A    between atoms: C7_11  and  C8_12 
REMARK    7  A    between atoms: C8_12  and  C9_13 
REMARK    8  A    between atoms: C9_13  and  C10_14 
REMARK    9  A    between atoms: C11_15  and  C12_16 
REMARK   10  A    between atoms: C18_24  and  S1_25 
REMARK   11  A    between atoms: S1_25  and  N4_28 
ROOT
HETATM    1  C10 UNL     1       0.829   6.081  12.664  1.00  0.00    -0.023 A 
HETATM    2  C11 UNL     1      -0.147   5.698  11.737  1.00  0.00     0.040 A 
HETATM    3  N5  UNL     1       0.431   5.767  10.490  1.00  0.00    -0.359 N 
HETATM    4  C22 UNL     1       1.724   6.191  10.597  1.00  0.00     0.016 A 
HETATM    5  C23 UNL     1       2.009   6.393  11.928  1.00  0.00    -0.027 A 
HETATM    6  C24 UNL     1       3.343   6.884  12.387  1.00  0.00     0.041 C 
HETATM    7  C25 UNL     1       4.406   6.730  11.281  1.00  0.00     0.005 C 
HETATM    8  C26 UNL     1       3.883   7.183   9.905  1.00  0.00     0.006 C 
HETATM    9  C27 UNL     1       2.657   6.368   9.452  1.00  0.00     0.057 C 
HETATM   10  H27 UNL     1      -0.028   5.547   9.611  1.00  0.00     0.166 HD
ENDROOT
BRANCH   2  11
HETATM   11  C12 UNL     1      -1.500   5.292  11.925  1.00  0.00     0.048 C 
HETATM   12  C13 UNL     1      -2.081   4.101  11.703  1.00  0.00     0.047 A 
HETATM   13  C14 UNL     1      -1.518   2.797  11.187  1.00  0.00     0.257 A 
HETATM   14  C21 UNL     1      -3.518   3.858  11.943  1.00  0.00     0.008 A 
HETATM   15  O3  UNL     1      -0.372   2.537  10.875  1.00  0.00    -0.267 OA
HETATM   16  N3  UNL     1      -2.592   1.925  11.137  1.00  0.00    -0.322 N 
HETATM   17  C15 UNL     1      -3.762   2.529  11.577  1.00  0.00     0.046 A 
HETATM   18  H19 UNL     1      -2.499   0.969  10.832  1.00  0.00     0.169 HD
HETATM   19  C16 UNL     1      -5.010   1.942  11.663  1.00  0.00     0.032 A 
HETATM   20  C17 UNL     1      -6.059   2.727  12.141  1.00  0.00     0.027 A 
HETATM   21  C18 UNL     1      -5.825   4.066  12.518  1.00  0.00     0.080 A 
HETATM   22  C20 UNL     1      -4.549   4.645  12.429  1.00  0.00     0.040 A 
BRANCH  21  23
HETATM   23  S1  UNL     1      -7.163   5.053  13.138  1.00  0.00     0.258 S 
HETATM   24  O4  UNL     1      -8.318   4.768  12.317  1.00  0.00    -0.201 OA
HETATM   25  O5  UNL     1      -6.691   6.399  13.362  1.00  0.00    -0.201 OA
BRANCH  23  26
HETATM   26  N4  UNL     1      -7.456   4.349  14.635  1.00  0.00    -0.320 N 
HETATM   27  C19 UNL     1      -7.549   5.217  15.803  1.00  0.00     0.159 C 
HETATM   28  H22 UNL     1      -8.101   3.562  14.572  1.00  0.00     0.171 HD
ENDBRANCH  23  26
ENDBRANCH  21  23
ENDBRANCH   2  11
BRANCH   1  29
HETATM   29  C9  UNL     1       0.684   6.174  14.155  1.00  0.00     0.043 C 
BRANCH  29  30
HETATM   30  C8  UNL     1       0.864   7.591  14.708  1.00  0.00     0.035 C 
BRANCH  30  31
HETATM   31  C7  UNL     1      -0.037   7.879  15.917  1.00  0.00     0.273 C 
BRANCH  31  32
HETATM   32  N2  UNL     1      -0.918   9.037  15.703  1.00  0.00     0.091 N 
HETATM   33  C6  UNL     1      -2.321   8.761  16.082  1.00  0.00     0.302 C 
HETATM   34  C5  UNL     1      -3.367   9.673  15.384  1.00  0.00     0.303 C 
HETATM   35  N1  UNL     1      -2.867  10.994  14.951  1.00  0.00     0.101 N 
HETATM   36  C29 UNL     1      -1.691  10.792  14.070  1.00  0.00     0.303 C 
HETATM   37  C28 UNL     1      -0.861   9.499  14.308  1.00  0.00     0.302 C 
BRANCH  35  38
HETATM   38  C4  UNL     1      -2.497  11.847  16.106  1.00  0.00     0.383 C 
BRANCH  38  39
HETATM   39  C3  UNL     1      -3.700  12.581  16.686  1.00  0.00     0.287 C 
HETATM   40  O2  UNL     1      -4.831  12.526  16.217  1.00  0.00    -0.263 OA
BRANCH  39  41
HETATM   41  O1  UNL     1      -3.348  13.303  17.789  1.00  0.00    -0.321 OA
BRANCH  41  42
HETATM   42  C2  UNL     1      -3.853  12.781  19.021  1.00  0.00     0.174 C 
HETATM   43  C1  UNL     1      -3.713  11.271  18.990  1.00  0.00     0.034 C 
ENDBRANCH  41  42
ENDBRANCH  39  41
ENDBRANCH  38  39
ENDBRANCH  35  38
ENDBRANCH  31  32
ENDBRANCH  30  31
ENDBRANCH  29  30
ENDBRANCH   1  29
TORSDOF 11
ENDMDL
MODEL 9
REMARK minimizedAffinity -8.72530079
REMARK CNNscore 0.0903155357
REMARK CNNaffinity 7.08141375
REMARK  11 active torsions:
REMARK  status: ('A' for Active; 'I' for Inactive)
REMARK    1  A    between atoms: C2_2  and  O1_3 
REMARK    2  A    between atoms: O1_3  and  C3_4 
REMARK    3  A    between atoms: C3_4  and  C4_6 
REMARK    4  A    between atoms: C4_6  and  N1_7 
REMARK    5  A    between atoms: N2_10  and  C7_11 
REMARK    6  A    between atoms: C7_11  and  C8_12 
REMARK    7  A    between atoms: C8_12  and  C9_13 
REMARK    8  A    between atoms: C9_13  and  C10_14 
REMARK    9  A    between atoms: C11_15  and  C12_16 
REMARK   10  A    between atoms: C18_24  and  S1_25 
REMARK   11  A    between atoms: S1_25  and  N4_28 
ROOT
HETATM    1  C10 UNL     1       0.443   6.523  12.813  1.00  0.00    -0.023 A 
HETATM    2  C11 UNL     1      -0.541   5.919  12.023  1.00  0.00     0.040 A 
HETATM    3  N5  UNL     1       0.026   5.668  10.794  1.00  0.00    -0.359 N 
HETATM    4  C22 UNL     1       1.319   6.103  10.778  1.00  0.00     0.016 A 
HETATM    5  C23 UNL     1       1.617   6.635  12.012  1.00  0.00    -0.027 A 
HETATM    6  C24 UNL     1       2.955   7.226  12.319  1.00  0.00     0.041 C 
HETATM    7  C25 UNL     1       4.007   6.794  11.279  1.00  0.00     0.005 C 
HETATM    8  C26 UNL     1       3.472   6.884   9.838  1.00  0.00     0.006 C 
HETATM    9  C27 UNL     1       2.242   5.982   9.618  1.00  0.00     0.057 C 
HETATM   10  H27 UNL     1      -0.441   5.232  10.004  1.00  0.00     0.166 HD
ENDROOT
BRANCH   2  11
HETATM   11  C12 UNL     1      -1.892   5.576  12.319  1.00  0.00     0.048 C 
HETATM   12  C13 UNL     1      -2.614   4.510  11.936  1.00  0.00     0.047 A 
HETATM   13  C14 UNL     1      -2.258   3.321  11.074  1.00  0.00     0.257 A 
HETATM   14  C21 UNL     1      -4.025   4.319  12.332  1.00  0.00     0.008 A 
HETATM   15  O3  UNL     1      -1.195   3.059  10.546  1.00  0.00    -0.267 OA
HETATM   16  N3  UNL     1      -3.412   2.560  11.000  1.00  0.00    -0.322 N 
HETATM   17  C15 UNL     1      -4.447   3.129  11.729  1.00  0.00     0.046 A 
HETATM   18  H19 UNL     1      -3.457   1.693  10.486  1.00  0.00     0.169 HD
HETATM   19  C16 UNL     1      -5.726   2.625  11.872  1.00  0.00     0.032 A 
HETATM   20  C17 UNL     1      -6.619   3.352  12.660  1.00  0.00     0.027 A 
HETATM   21  C18 UNL     1      -6.204   4.550  13.277  1.00  0.00     0.080 A 
HETATM   22  C20 UNL     1      -4.899   5.045  13.124  1.00  0.00     0.040 A 
BRANCH  21  23
HETATM   23  S1  UNL     1      -7.343   5.462  14.287  1.00  0.00     0.258 S 
HETATM   24  O4  UNL     1      -6.953   6.852  14.221  1.00  0.00    -0.201 OA
HETATM   25  O5  UNL     1      -7.517   4.770  15.543  1.00  0.00    -0.201 OA
BRANCH  23  26
HETATM   26  N4  UNL     1      -8.773   5.325  13.417  1.00  0.00    -0.320 N 
HETATM   27  C19 UNL     1      -9.711   6.442  13.444  1.00  0.00     0.159 C 
HETATM   28  H22 UNL     1      -8.641   4.832  12.534  1.00  0.00     0.171 HD
ENDBRANCH  23  26
ENDBRANCH  21  23
ENDBRANCH   2  11
BRANCH   1  29
HETATM   29  C9  UNL     1       0.312   6.991  14.233  1.00  0.00     0.043 C 
BRANCH  29  30
HETATM   30  C8  UNL     1      -0.138   8.449  14.366  1.00  0.00     0.035 C 
BRANCH  30  31
HETATM   31  C7  UNL     1      -0.800   8.750  15.718  1.00  0.00     0.273 C 
BRANCH  31  32
HETATM   32  N2  UNL     1       0.048   9.576  16.592  1.00  0.00     0.091 N 
HETATM   33  C6  UNL     1      -0.740  10.374  17.556  1.00  0.00     0.302 C 
HETATM   34  C5  UNL     1      -0.011  11.639  18.089  1.00  0.00     0.303 C 
HETATM   35  N1  UNL     1       1.465  11.574  18.071  1.00  0.00     0.101 N 
HETATM   36  C29 UNL     1       1.910  11.267  16.691  1.00  0.00     0.303 C 
HETATM   37  C28 UNL     1       0.919  10.461  15.805  1.00  0.00     0.302 C 
BRANCH  35  38
HETATM   38  C4  UNL     1       1.980  10.551  19.013  1.00  0.00     0.383 C 
BRANCH  38  39
HETATM   39  C3  UNL     1       2.384  11.155  20.353  1.00  0.00     0.287 C 
HETATM   40  O2  UNL     1       3.006  12.204  20.475  1.00  0.00    -0.263 OA
BRANCH  39  41
HETATM   41  O1  UNL     1       1.962  10.373  21.389  1.00  0.00    -0.321 OA
BRANCH  41  42
HETATM   42  C2  UNL     1       2.862   9.315  21.731  1.00  0.00     0.174 C 
HETATM   43  C1  UNL     1       2.105   8.299  22.564  1.00  0.00     0.034 C 
ENDBRANCH  41  42
ENDBRANCH  39  41
ENDBRANCH  38  39
ENDBRANCH  35  38
ENDBRANCH  31  32
ENDBRANCH  30  31
ENDBRANCH  29  30
ENDBRANCH   1  29
TORSDOF 11
ENDMDL
