MODEL 1
REMARK minimizedAffinity -11.1171713
REMARK  4 active torsions:
REMARK  status: ('A' for Active; 'I' for Inactive)
REMARK    1  A    between atoms: C2_2  and  N1_3 
REMARK    2  A    between atoms: C5_6  and  N2_7 
REMARK    3  A    between atoms: C7_9  and  C8_10 
REMARK    4  A    between atoms: C9_11  and  C10_12 
ROOT
HETATM    1  C8  UNL     1       0.412  52.939 -22.799  1.00  0.00     0.061 A 
HETATM    2  C9  UNL     1       0.637  52.773 -21.483  1.00  0.00     0.061 A 
HETATM    3  C19 UNL     1       1.416  53.951 -21.024  1.00  0.00     0.260 A 
HETATM    4  O1  UNL     1       1.792  54.187 -19.890  1.00  0.00    -0.267 OA
HETATM    5  N4  UNL     1       1.641  54.732 -22.098  1.00  0.00    -0.289 N 
HETATM    6  C20 UNL     1       1.079  54.203 -23.200  1.00  0.00     0.260 A 
HETATM    7  O2  UNL     1       1.120  54.690 -24.315  1.00  0.00    -0.267 OA
HETATM    8  H20 UNL     1       2.151  55.598 -22.077  1.00  0.00     0.172 HD
ENDROOT
BRANCH   1   9
HETATM    9  C7  UNL     1      -0.310  52.127 -23.717  1.00  0.00     0.009 A 
HETATM   10  C6  UNL     1      -1.400  51.360 -23.373  1.00  0.00     0.105 A 
HETATM   11  N2  UNL     1      -1.869  50.736 -24.504  1.00  0.00    -0.350 N 
HETATM   12  C26 UNL     1      -1.070  51.064 -25.585  1.00  0.00     0.045 A 
HETATM   13  C21 UNL     1      -0.077  51.936 -25.113  1.00  0.00     0.003 A 
HETATM   14  C25 UNL     1      -1.121  50.674 -26.936  1.00  0.00     0.030 A 
HETATM   15  C22 UNL     1       0.891  52.414 -26.025  1.00  0.00     0.014 A 
HETATM   16  C23 UNL     1       0.840  52.030 -27.367  1.00  0.00     0.001 A 
HETATM   17  C24 UNL     1      -0.155  51.171 -27.815  1.00  0.00     0.002 A 
BRANCH  11  18
HETATM   18  C5  UNL     1      -3.058  49.884 -24.505  1.00  0.00     0.093 C 
HETATM   19  C4  UNL     1      -3.045  48.816 -25.611  1.00  0.00     0.056 C 
HETATM   20  C3  UNL     1      -4.452  48.482 -26.114  1.00  0.00     0.274 C 
HETATM   21  N1  UNL     1      -5.377  48.434 -24.982  1.00  0.00     0.088 N 
HETATM   22  C28 UNL     1      -5.576  49.768 -24.386  1.00  0.00     0.274 C 
HETATM   23  C27 UNL     1      -4.359  50.691 -24.497  1.00  0.00     0.056 C 
BRANCH  21  24
HETATM   24  C2  UNL     1      -6.672  47.820 -25.306  1.00  0.00     0.268 C 
HETATM   25  C1  UNL     1      -6.792  47.427 -26.774  1.00  0.00     0.037 C 
ENDBRANCH  21  24
ENDBRANCH  11  18
ENDBRANCH   1   9
BRANCH   2  26
HETATM   26  C10 UNL     1       0.258  51.715 -20.610  1.00  0.00     0.009 A 
HETATM   27  C11 UNL     1      -0.310  50.532 -21.037  1.00  0.00     0.104 A 
HETATM   28  N3  UNL     1      -0.536  49.749 -19.937  1.00  0.00    -0.360 N 
HETATM   29  C12 UNL     1      -1.125  48.430 -19.976  1.00  0.00     0.156 C 
HETATM   30  C13 UNL     1      -0.140  50.406 -18.791  1.00  0.00     0.045 A 
HETATM   31  C14 UNL     1      -0.185  50.009 -17.443  1.00  0.00     0.030 A 
HETATM   32  C18 UNL     1       0.359  51.653 -19.185  1.00  0.00     0.003 A 
HETATM   33  C15 UNL     1       0.283  50.903 -16.476  1.00  0.00     0.002 A 
HETATM   34  C16 UNL     1       0.773  52.152 -16.837  1.00  0.00     0.001 A 
HETATM   35  C17 UNL     1       0.811  52.539 -18.181  1.00  0.00     0.014 A 
ENDBRANCH   2  26
TORSDOF 4
ENDMDL
MODEL 2
REMARK minimizedAffinity -10.6042519
REMARK  4 active torsions:
REMARK  status: ('A' for Active; 'I' for Inactive)
REMARK    1  A    between atoms: C2_2  and  N1_3 
REMARK    2  A    between atoms: C5_6  and  N2_7 
REMARK    3  A    between atoms: C7_9  and  C8_10 
REMARK    4  A    between atoms: C9_11  and  C10_12 
ROOT
HETATM    1  C8  UNL     1       0.406  52.930 -22.388  1.00  0.00     0.061 A 
HETATM    2  C9  UNL     1      -0.125  52.863 -23.621  1.00  0.00     0.061 A 
HETATM    3  C19 UNL     1       0.536  53.914 -24.436  1.00  0.00     0.260 A 
HETATM    4  O1  UNL     1       0.350  54.155 -25.616  1.00  0.00    -0.267 OA
HETATM    5  N4  UNL     1       1.395  54.569 -23.633  1.00  0.00    -0.289 N 
HETATM    6  C20 UNL     1       1.381  54.049 -22.391  1.00  0.00     0.260 A 
HETATM    7  O2  UNL     1       2.055  54.440 -21.456  1.00  0.00    -0.267 OA
HETATM    8  H20 UNL     1       1.976  55.337 -23.924  1.00  0.00     0.172 HD
ENDROOT
BRANCH   1   9
HETATM    9  C7  UNL     1       0.156  52.134 -21.235  1.00  0.00     0.009 A 
HETATM   10  C6  UNL     1       0.452  52.529 -19.950  1.00  0.00     0.105 A 
HETATM   11  N2  UNL     1       0.052  51.538 -19.086  1.00  0.00    -0.350 N 
HETATM   12  C26 UNL     1      -0.476  50.478 -19.801  1.00  0.00     0.045 A 
HETATM   13  C21 UNL     1      -0.416  50.828 -21.159  1.00  0.00     0.003 A 
HETATM   14  C25 UNL     1      -1.000  49.240 -19.387  1.00  0.00     0.030 A 
HETATM   15  C22 UNL     1      -0.884  49.900 -22.117  1.00  0.00     0.014 A 
HETATM   16  C23 UNL     1      -1.406  48.671 -21.706  1.00  0.00     0.001 A 
HETATM   17  C24 UNL     1      -1.463  48.348 -20.357  1.00  0.00     0.002 A 
BRANCH  11  18
HETATM   18  C5  UNL     1       0.169  51.658 -17.633  1.00  0.00     0.093 C 
HETATM   19  C4  UNL     1       1.275  52.627 -17.186  1.00  0.00     0.056 C 
HETATM   20  C3  UNL     1       1.909  52.214 -15.855  1.00  0.00     0.274 C 
HETATM   21  N1  UNL     1       0.869  51.731 -14.947  1.00  0.00     0.088 N 
HETATM   22  C28 UNL     1       0.286  50.460 -15.414  1.00  0.00     0.274 C 
HETATM   23  C27 UNL     1       0.277  50.298 -16.938  1.00  0.00     0.056 C 
BRANCH  21  24
HETATM   24  C2  UNL     1       1.315  51.607 -13.553  1.00  0.00     0.268 C 
HETATM   25  C1  UNL     1       2.834  51.609 -13.414  1.00  0.00     0.037 C 
ENDBRANCH  21  24
ENDBRANCH  11  18
ENDBRANCH   1   9
BRANCH   2  26
HETATM   26  C10 UNL     1      -1.130  52.003 -24.146  1.00  0.00     0.009 A 
HETATM   27  C11 UNL     1      -0.904  51.075 -25.143  1.00  0.00     0.104 A 
HETATM   28  N3  UNL     1      -2.082  50.424 -25.392  1.00  0.00    -0.360 N 
HETATM   29  C12 UNL     1      -2.249  49.381 -26.377  1.00  0.00     0.156 C 
HETATM   30  C13 UNL     1      -3.084  50.921 -24.586  1.00  0.00     0.045 A 
HETATM   31  C14 UNL     1      -4.443  50.577 -24.494  1.00  0.00     0.030 A 
HETATM   32  C18 UNL     1      -2.514  51.924 -23.794  1.00  0.00     0.003 A 
HETATM   33  C15 UNL     1      -5.240  51.271 -23.579  1.00  0.00     0.002 A 
HETATM   34  C16 UNL     1      -4.703  52.279 -22.787  1.00  0.00     0.001 A 
HETATM   35  C17 UNL     1      -3.349  52.617 -22.889  1.00  0.00     0.014 A 
ENDBRANCH   2  26
TORSDOF 4
ENDMDL
MODEL 3
REMARK minimizedAffinity -10.451622
REMARK  4 active torsions:
REMARK  status: ('A' for Active; 'I' for Inactive)
REMARK    1  A    between atoms: C2_2  and  N1_3 
REMARK    2  A    between atoms: C5_6  and  N2_7 
REMARK    3  A    between atoms: C7_9  and  C8_10 
REMARK    4  A    between atoms: C9_11  and  C10_12 
ROOT
HETATM    1  C8  UNL     1       0.429  52.797 -21.909  1.00  0.00     0.061 A 
HETATM    2  C9  UNL     1       0.062  52.912 -23.197  1.00  0.00     0.061 A 
HETATM    3  C19 UNL     1       0.812  54.063 -23.761  1.00  0.00     0.260 A 
HETATM    4  O1  UNL     1       0.777  54.472 -24.908  1.00  0.00    -0.267 OA
HETATM    5  N4  UNL     1       1.554  54.589 -22.769  1.00  0.00    -0.289 N 
HETATM    6  C20 UNL     1       1.385  53.897 -21.627  1.00  0.00     0.260 A 
HETATM    7  O2  UNL     1       1.930  54.144 -20.566  1.00  0.00    -0.267 OA
HETATM    8  H20 UNL     1       2.160  55.385 -22.870  1.00  0.00     0.172 HD
ENDROOT
BRANCH   1   9
HETATM    9  C7  UNL     1       0.041  51.847 -20.923  1.00  0.00     0.009 A 
HETATM   10  C6  UNL     1      -0.699  50.717 -21.194  1.00  0.00     0.105 A 
HETATM   11  N2  UNL     1      -0.862  50.013 -20.025  1.00  0.00    -0.350 N 
HETATM   12  C26 UNL     1      -0.260  50.692 -18.981  1.00  0.00     0.045 A 
HETATM   13  C21 UNL     1       0.311  51.855 -19.521  1.00  0.00     0.003 A 
HETATM   14  C25 UNL     1      -0.165  50.399 -17.608  1.00  0.00     0.030 A 
HETATM   15  C22 UNL     1       0.982  52.744 -18.652  1.00  0.00     0.014 A 
HETATM   16  C23 UNL     1       1.079  52.453 -17.289  1.00  0.00     0.001 A 
HETATM   17  C24 UNL     1       0.512  51.294 -16.776  1.00  0.00     0.002 A 
BRANCH  11  18
HETATM   18  C5  UNL     1      -1.556  48.726 -19.965  1.00  0.00     0.093 C 
HETATM   19  C4  UNL     1      -1.264  47.817 -21.170  1.00  0.00     0.056 C 
HETATM   20  C3  UNL     1      -2.454  46.919 -21.524  1.00  0.00     0.274 C 
HETATM   21  N1  UNL     1      -3.075  46.426 -20.295  1.00  0.00     0.088 N 
HETATM   22  C28 UNL     1      -3.727  47.512 -19.542  1.00  0.00     0.274 C 
HETATM   23  C27 UNL     1      -3.057  48.880 -19.707  1.00  0.00     0.056 C 
BRANCH  21  24
HETATM   24  C2  UNL     1      -4.016  45.320 -20.515  1.00  0.00     0.268 C 
HETATM   25  C1  UNL     1      -5.270  45.748 -21.270  1.00  0.00     0.037 C 
ENDBRANCH  21  24
ENDBRANCH  11  18
ENDBRANCH   1   9
BRANCH   2  26
HETATM   26  C10 UNL     1      -0.859  52.145 -23.965  1.00  0.00     0.009 A 
HETATM   27  C11 UNL     1      -0.499  51.375 -25.052  1.00  0.00     0.104 A 
HETATM   28  N3  UNL     1      -1.629  50.775 -25.540  1.00  0.00    -0.360 N 
HETATM   29  C12 UNL     1      -1.659  49.891 -26.682  1.00  0.00     0.156 C 
HETATM   30  C13 UNL     1      -2.729  51.151 -24.799  1.00  0.00     0.045 A 
HETATM   31  C14 UNL     1      -4.085  50.803 -24.928  1.00  0.00     0.030 A 
HETATM   32  C18 UNL     1      -2.275  52.021 -23.802  1.00  0.00     0.003 A 
HETATM   33  C15 UNL     1      -4.997  51.356 -24.026  1.00  0.00     0.002 A 
HETATM   34  C16 UNL     1      -4.576  52.232 -23.033  1.00  0.00     0.001 A 
HETATM   35  C17 UNL     1      -3.225  52.575 -22.914  1.00  0.00     0.014 A 
ENDBRANCH   2  26
TORSDOF 4
ENDMDL
MODEL 4
REMARK minimizedAffinity -10.4077854
REMARK  4 active torsions:
REMARK  status: ('A' for Active; 'I' for Inactive)
REMARK    1  A    between atoms: C2_2  and  N1_3 
REMARK    2  A    between atoms: C5_6  and  N2_7 
REMARK    3  A    between atoms: C7_9  and  C8_10 
REMARK    4  A    between atoms: C9_11  and  C10_12 
ROOT
HETATM    1  C8  UNL     1      -0.410  52.124 -22.279  1.00  0.00     0.061 A 
HETATM    2  C9  UNL     1       0.047  52.767 -23.368  1.00  0.00     0.061 A 
HETATM    3  C19 UNL     1       0.935  53.857 -22.888  1.00  0.00     0.260 A 
HETATM    4  O1  UNL     1       1.564  54.646 -23.570  1.00  0.00    -0.267 OA
HETATM    5  N4  UNL     1       0.928  53.823 -21.542  1.00  0.00    -0.289 N 
HETATM    6  C20 UNL     1       0.150  52.821 -21.093  1.00  0.00     0.260 A 
HETATM    7  O2  UNL     1      -0.046  52.551 -19.922  1.00  0.00    -0.267 OA
HETATM    8  H20 UNL     1       1.442  54.454 -20.952  1.00  0.00     0.172 HD
ENDROOT
BRANCH   1   9
HETATM    9  C7  UNL     1      -1.261  50.990 -22.171  1.00  0.00     0.009 A 
HETATM   10  C6  UNL     1      -2.222  50.659 -23.100  1.00  0.00     0.105 A 
HETATM   11  N2  UNL     1      -2.832  49.494 -22.700  1.00  0.00    -0.350 N 
HETATM   12  C26 UNL     1      -2.299  49.076 -21.494  1.00  0.00     0.045 A 
HETATM   13  C21 UNL     1      -1.310  50.006 -21.137  1.00  0.00     0.003 A 
HETATM   14  C25 UNL     1      -2.592  47.969 -20.676  1.00  0.00     0.030 A 
HETATM   15  C22 UNL     1      -0.613  49.818 -19.922  1.00  0.00     0.014 A 
HETATM   16  C23 UNL     1      -0.901  48.717 -19.111  1.00  0.00     0.001 A 
HETATM   17  C24 UNL     1      -1.879  47.805 -19.486  1.00  0.00     0.002 A 
BRANCH  11  18
HETATM   18  C5  UNL     1      -3.868  48.830 -23.491  1.00  0.00     0.093 C 
HETATM   19  C4  UNL     1      -3.414  48.472 -24.915  1.00  0.00     0.056 C 
HETATM   20  C3  UNL     1      -4.567  48.519 -25.922  1.00  0.00     0.274 C 
HETATM   21  N1  UNL     1      -5.771  47.957 -25.313  1.00  0.00     0.088 N 
HETATM   22  C28 UNL     1      -6.282  48.812 -24.227  1.00  0.00     0.274 C 
HETATM   23  C27 UNL     1      -5.195  49.593 -23.481  1.00  0.00     0.056 C 
BRANCH  21  24
HETATM   24  C2  UNL     1      -6.839  47.666 -26.279  1.00  0.00     0.268 C 
HETATM   25  C1  UNL     1      -6.343  47.637 -27.721  1.00  0.00     0.037 C 
ENDBRANCH  21  24
ENDBRANCH  11  18
ENDBRANCH   1   9
BRANCH   2  26
HETATM   26  C10 UNL     1      -0.211  52.539 -24.748  1.00  0.00     0.009 A 
HETATM   27  C11 UNL     1      -1.463  52.634 -25.322  1.00  0.00     0.104 A 
HETATM   28  N3  UNL     1      -1.340  52.359 -26.657  1.00  0.00    -0.360 N 
HETATM   29  C12 UNL     1      -2.436  52.355 -27.598  1.00  0.00     0.156 C 
HETATM   30  C13 UNL     1      -0.028  52.069 -26.968  1.00  0.00     0.045 A 
HETATM   31  C14 UNL     1       0.570  51.722 -28.191  1.00  0.00     0.030 A 
HETATM   32  C18 UNL     1       0.706  52.168 -25.780  1.00  0.00     0.003 A 
HETATM   33  C15 UNL     1       1.944  51.466 -28.205  1.00  0.00     0.002 A 
HETATM   34  C16 UNL     1       2.696  51.546 -27.040  1.00  0.00     0.001 A 
HETATM   35  C17 UNL     1       2.091  51.888 -25.826  1.00  0.00     0.014 A 
ENDBRANCH   2  26
TORSDOF 4
ENDMDL
MODEL 5
REMARK minimizedAffinity -10.2680454
REMARK  4 active torsions:
REMARK  status: ('A' for Active; 'I' for Inactive)
REMARK    1  A    between atoms: C2_2  and  N1_3 
REMARK    2  A    between atoms: C5_6  and  N2_7 
REMARK    3  A    between atoms: C7_9  and  C8_10 
REMARK    4  A    between atoms: C9_11  and  C10_12 
ROOT
HETATM    1  C8  UNL     1      -0.484  52.189 -22.643  1.00  0.00     0.061 A 
HETATM    2  C9  UNL     1      -1.334  52.159 -23.684  1.00  0.00     0.061 A 
HETATM    3  C19 UNL     1      -0.779  53.061 -24.725  1.00  0.00     0.260 A 
HETATM    4  O1  UNL     1      -1.242  53.283 -25.829  1.00  0.00    -0.267 OA
HETATM    5  N4  UNL     1       0.350  53.604 -24.231  1.00  0.00    -0.289 N 
HETATM    6  C20 UNL     1       0.601  53.140 -22.992  1.00  0.00     0.260 A 
HETATM    7  O2  UNL     1       1.553  53.456 -22.301  1.00  0.00    -0.267 OA
HETATM    8  H20 UNL     1       0.932  54.259 -24.724  1.00  0.00     0.172 HD
ENDROOT
BRANCH   1   9
HETATM    9  C7  UNL     1      -0.520  51.487 -21.406  1.00  0.00     0.009 A 
HETATM   10  C6  UNL     1      -0.130  52.031 -20.203  1.00  0.00     0.105 A 
HETATM   11  N2  UNL     1      -0.326  51.092 -19.217  1.00  0.00    -0.350 N 
HETATM   12  C26 UNL     1      -0.812  49.923 -19.774  1.00  0.00     0.045 A 
HETATM   13  C21 UNL     1      -0.937  50.145 -21.154  1.00  0.00     0.003 A 
HETATM   14  C25 UNL     1      -1.151  48.685 -19.197  1.00  0.00     0.030 A 
HETATM   15  C22 UNL     1      -1.404  49.088 -21.968  1.00  0.00     0.014 A 
HETATM   16  C23 UNL     1      -1.744  47.860 -21.397  1.00  0.00     0.001 A 
HETATM   17  C24 UNL     1      -1.619  47.663 -20.028  1.00  0.00     0.002 A 
BRANCH  11  18
HETATM   18  C5  UNL     1      -0.066  51.362 -17.803  1.00  0.00     0.093 C 
HETATM   19  C4  UNL     1       0.957  52.486 -17.573  1.00  0.00     0.056 C 
HETATM   20  C3  UNL     1       1.779  52.273 -16.298  1.00  0.00     0.274 C 
HETATM   21  N1  UNL     1       0.911  51.767 -15.236  1.00  0.00     0.088 N 
HETATM   22  C28 UNL     1       0.439  50.400 -15.525  1.00  0.00     0.274 C 
HETATM   23  C27 UNL     1       0.282  50.094 -17.018  1.00  0.00     0.056 C 
BRANCH  21  24
HETATM   24  C2  UNL     1       1.519  51.825 -13.901  1.00  0.00     0.268 C 
HETATM   25  C1  UNL     1       2.964  51.338 -13.885  1.00  0.00     0.037 C 
ENDBRANCH  21  24
ENDBRANCH  11  18
ENDBRANCH   1   9
BRANCH   2  26
HETATM   26  C10 UNL     1      -2.555  51.448 -23.857  1.00  0.00     0.009 A 
HETATM   27  C11 UNL     1      -3.699  51.696 -23.126  1.00  0.00     0.104 A 
HETATM   28  N3  UNL     1      -4.673  50.837 -23.558  1.00  0.00    -0.360 N 
HETATM   29  C12 UNL     1      -6.017  50.789 -23.030  1.00  0.00     0.156 C 
HETATM   30  C13 UNL     1      -4.183  50.016 -24.552  1.00  0.00     0.045 A 
HETATM   31  C14 UNL     1      -4.802  48.987 -25.281  1.00  0.00     0.030 A 
HETATM   32  C18 UNL     1      -2.845  50.374 -24.756  1.00  0.00     0.003 A 
HETATM   33  C15 UNL     1      -4.042  48.304 -26.234  1.00  0.00     0.002 A 
HETATM   34  C16 UNL     1      -2.709  48.630 -26.450  1.00  0.00     0.001 A 
HETATM   35  C17 UNL     1      -2.101  49.655 -25.717  1.00  0.00     0.014 A 
ENDBRANCH   2  26
TORSDOF 4
ENDMDL
MODEL 6
REMARK minimizedAffinity -10.1232443
REMARK  4 active torsions:
REMARK  status: ('A' for Active; 'I' for Inactive)
REMARK    1  A    between atoms: C2_2  and  N1_3 
REMARK    2  A    between atoms: C5_6  and  N2_7 
REMARK    3  A    between atoms: C7_9  and  C8_10 
REMARK    4  A    between atoms: C9_11  and  C10_12 
ROOT
HETATM    1  C8  UNL     1      -3.251  49.638 -25.545  1.00  0.00     0.061 A 
HETATM    2  C9  UNL     1      -4.230  49.084 -24.807  1.00  0.00     0.061 A 
HETATM    3  C19 UNL     1      -5.171  48.432 -25.754  1.00  0.00     0.260 A 
HETATM    4  O1  UNL     1      -6.173  47.798 -25.475  1.00  0.00    -0.267 OA
HETATM    5  N4  UNL     1      -4.720  48.667 -27.001  1.00  0.00    -0.289 N 
HETATM    6  C20 UNL     1      -3.579  49.381 -26.970  1.00  0.00     0.260 A 
HETATM    7  O2  UNL     1      -2.946  49.740 -27.946  1.00  0.00    -0.267 OA
HETATM    8  H20 UNL     1      -5.168  48.343 -27.840  1.00  0.00     0.172 HD
ENDROOT
BRANCH   1   9
HETATM    9  C7  UNL     1      -2.087  50.349 -25.142  1.00  0.00     0.009 A 
HETATM   10  C6  UNL     1      -1.759  50.606 -23.829  1.00  0.00     0.105 A 
HETATM   11  N2  UNL     1      -0.562  51.280 -23.803  1.00  0.00    -0.350 N 
HETATM   12  C26 UNL     1      -0.117  51.496 -25.096  1.00  0.00     0.045 A 
HETATM   13  C21 UNL     1      -1.065  50.923 -25.958  1.00  0.00     0.003 A 
HETATM   14  C25 UNL     1       1.028  52.145 -25.593  1.00  0.00     0.030 A 
HETATM   15  C22 UNL     1      -0.856  51.020 -27.352  1.00  0.00     0.014 A 
HETATM   16  C23 UNL     1       0.282  51.661 -27.847  1.00  0.00     0.001 A 
HETATM   17  C24 UNL     1       1.211  52.216 -26.977  1.00  0.00     0.002 A 
BRANCH  11  18
HETATM   18  C5  UNL     1       0.107  51.660 -22.559  1.00  0.00     0.093 C 
HETATM   19  C4  UNL     1      -0.429  50.918 -21.325  1.00  0.00     0.056 C 
HETATM   20  C3  UNL     1      -0.349  51.768 -20.053  1.00  0.00     0.274 C 
HETATM   21  N1  UNL     1       0.910  52.511 -20.042  1.00  0.00     0.088 N 
HETATM   22  C28 UNL     1       0.944  53.540 -21.097  1.00  0.00     0.274 C 
HETATM   23  C27 UNL     1       0.142  53.177 -22.351  1.00  0.00     0.056 C 
BRANCH  21  24
HETATM   24  C2  UNL     1       1.230  53.107 -18.737  1.00  0.00     0.268 C 
HETATM   25  C1  UNL     1       0.856  52.206 -17.566  1.00  0.00     0.037 C 
ENDBRANCH  21  24
ENDBRANCH  11  18
ENDBRANCH   1   9
BRANCH   2  26
HETATM   26  C10 UNL     1      -4.427  49.071 -23.398  1.00  0.00     0.009 A 
HETATM   27  C11 UNL     1      -5.455  49.734 -22.760  1.00  0.00     0.104 A 
HETATM   28  N3  UNL     1      -5.342  49.499 -21.416  1.00  0.00    -0.360 N 
HETATM   29  C12 UNL     1      -6.236  50.029 -20.413  1.00  0.00     0.156 C 
HETATM   30  C13 UNL     1      -4.245  48.704 -21.159  1.00  0.00     0.045 A 
HETATM   31  C14 UNL     1      -3.730  48.215 -19.946  1.00  0.00     0.030 A 
HETATM   32  C18 UNL     1      -3.643  48.424 -22.391  1.00  0.00     0.003 A 
HETATM   33  C15 UNL     1      -2.575  47.428 -19.989  1.00  0.00     0.002 A 
HETATM   34  C16 UNL     1      -1.951  47.144 -21.197  1.00  0.00     0.001 A 
HETATM   35  C17 UNL     1      -2.469  47.638 -22.398  1.00  0.00     0.014 A 
ENDBRANCH   2  26
TORSDOF 4
ENDMDL
MODEL 7
REMARK minimizedAffinity -9.92625713
REMARK  4 active torsions:
REMARK  status: ('A' for Active; 'I' for Inactive)
REMARK    1  A    between atoms: C2_2  and  N1_3 
REMARK    2  A    between atoms: C5_6  and  N2_7 
REMARK    3  A    between atoms: C7_9  and  C8_10 
REMARK    4  A    between atoms: C9_11  and  C10_12 
ROOT
HETATM    1  C8  UNL     1      -0.073  52.606 -21.926  1.00  0.00     0.061 A 
HETATM    2  C9  UNL     1      -0.065  52.400 -20.598  1.00  0.00     0.061 A 
HETATM    3  C19 UNL     1       0.931  53.336 -20.018  1.00  0.00     0.260 A 
HETATM    4  O1  UNL     1       1.211  53.476 -18.841  1.00  0.00    -0.267 OA
HETATM    5  N4  UNL     1       1.485  54.021 -21.037  1.00  0.00    -0.289 N 
HETATM    6  C20 UNL     1       0.946  53.648 -22.213  1.00  0.00     0.260 A 
HETATM    7  O2  UNL     1       1.252  54.097 -23.302  1.00  0.00    -0.267 OA
HETATM    8  H20 UNL     1       2.197  54.723 -20.933  1.00  0.00     0.172 HD
ENDROOT
BRANCH   1   9
HETATM    9  C7  UNL     1      -0.861  52.004 -22.946  1.00  0.00     0.009 A 
HETATM   10  C6  UNL     1      -2.178  51.635 -22.782  1.00  0.00     0.105 A 
HETATM   11  N2  UNL     1      -2.637  51.119 -23.970  1.00  0.00    -0.350 N 
HETATM   12  C26 UNL     1      -1.617  51.117 -24.905  1.00  0.00     0.045 A 
HETATM   13  C21 UNL     1      -0.485  51.665 -24.281  1.00  0.00     0.003 A 
HETATM   14  C25 UNL     1      -1.576  50.681 -26.243  1.00  0.00     0.030 A 
HETATM   15  C22 UNL     1       0.714  51.763 -25.022  1.00  0.00     0.014 A 
HETATM   16  C23 UNL     1       0.754  51.334 -26.351  1.00  0.00     0.001 A 
HETATM   17  C24 UNL     1      -0.379  50.800 -26.952  1.00  0.00     0.002 A 
BRANCH  11  18
HETATM   18  C5  UNL     1      -4.018  50.679 -24.163  1.00  0.00     0.093 C 
HETATM   19  C4  UNL     1      -5.022  51.399 -23.247  1.00  0.00     0.056 C 
HETATM   20  C3  UNL     1      -6.209  50.507 -22.870  1.00  0.00     0.274 C 
HETATM   21  N1  UNL     1      -6.622  49.725 -24.034  1.00  0.00     0.088 N 
HETATM   22  C28 UNL     1      -5.602  48.730 -24.411  1.00  0.00     0.274 C 
HETATM   23  C27 UNL     1      -4.165  49.157 -24.096  1.00  0.00     0.056 C 
BRANCH  21  24
HETATM   24  C2  UNL     1      -7.932  49.079 -23.874  1.00  0.00     0.268 C 
HETATM   25  C1  UNL     1      -8.060  48.313 -22.562  1.00  0.00     0.037 C 
ENDBRANCH  21  24
ENDBRANCH  11  18
ENDBRANCH   1   9
BRANCH   2  26
HETATM   26  C10 UNL     1      -0.813  51.487 -19.803  1.00  0.00     0.009 A 
HETATM   27  C11 UNL     1      -1.448  51.832 -18.627  1.00  0.00     0.104 A 
HETATM   28  N3  UNL     1      -2.071  50.716 -18.138  1.00  0.00    -0.360 N 
HETATM   29  C12 UNL     1      -2.840  50.676 -16.915  1.00  0.00     0.156 C 
HETATM   30  C13 UNL     1      -1.843  49.637 -18.966  1.00  0.00     0.045 A 
HETATM   31  C14 UNL     1      -2.266  48.300 -18.869  1.00  0.00     0.030 A 
HETATM   32  C18 UNL     1      -1.045  50.092 -20.022  1.00  0.00     0.003 A 
HETATM   33  C15 UNL     1      -1.864  47.407 -19.866  1.00  0.00     0.002 A 
HETATM   34  C16 UNL     1      -1.063  47.829 -20.921  1.00  0.00     0.001 A 
HETATM   35  C17 UNL     1      -0.645  49.161 -21.006  1.00  0.00     0.014 A 
ENDBRANCH   2  26
TORSDOF 4
ENDMDL
MODEL 8
REMARK minimizedAffinity -9.91548252
REMARK  4 active torsions:
REMARK  status: ('A' for Active; 'I' for Inactive)
REMARK    1  A    between atoms: C2_2  and  N1_3 
REMARK    2  A    between atoms: C5_6  and  N2_7 
REMARK    3  A    between atoms: C7_9  and  C8_10 
REMARK    4  A    between atoms: C9_11  and  C10_12 
ROOT
HETATM    1  C8  UNL     1       0.572  52.970 -21.825  1.00  0.00     0.061 A 
HETATM    2  C9  UNL     1       0.116  53.297 -23.047  1.00  0.00     0.061 A 
HETATM    3  C19 UNL     1       0.939  54.436 -23.528  1.00  0.00     0.260 A 
HETATM    4  O1  UNL     1       0.856  55.001 -24.603  1.00  0.00    -0.267 OA
HETATM    5  N4  UNL     1       1.813  54.745 -22.551  1.00  0.00    -0.289 N 
HETATM    6  C20 UNL     1       1.663  53.921 -21.497  1.00  0.00     0.260 A 
HETATM    7  O2  UNL     1       2.316  53.965 -20.470  1.00  0.00    -0.267 OA
HETATM    8  H20 UNL     1       2.493  55.484 -22.606  1.00  0.00     0.172 HD
ENDROOT
BRANCH   1   9
HETATM    9  C7  UNL     1       0.164  51.935 -20.938  1.00  0.00     0.009 A 
HETATM   10  C6  UNL     1      -0.490  50.792 -21.340  1.00  0.00     0.105 A 
HETATM   11  N2  UNL     1      -0.701  50.000 -20.236  1.00  0.00    -0.350 N 
HETATM   12  C26 UNL     1      -0.218  50.634 -19.106  1.00  0.00     0.045 A 
HETATM   13  C21 UNL     1       0.328  51.858 -19.522  1.00  0.00     0.003 A 
HETATM   14  C25 UNL     1      -0.210  50.251 -17.752  1.00  0.00     0.030 A 
HETATM   15  C22 UNL     1       0.882  52.717 -18.546  1.00  0.00     0.014 A 
HETATM   16  C23 UNL     1       0.893  52.337 -17.202  1.00  0.00     0.001 A 
HETATM   17  C24 UNL     1       0.353  51.118 -16.812  1.00  0.00     0.002 A 
BRANCH  11  18
HETATM   18  C5  UNL     1      -1.326  48.680 -20.316  1.00  0.00     0.093 C 
HETATM   19  C4  UNL     1      -1.873  48.345 -21.713  1.00  0.00     0.056 C 
HETATM   20  C3  UNL     1      -3.109  47.443 -21.654  1.00  0.00     0.274 C 
HETATM   21  N1  UNL     1      -2.926  46.431 -20.615  1.00  0.00     0.088 N 
HETATM   22  C28 UNL     1      -2.921  47.029 -19.267  1.00  0.00     0.274 C 
HETATM   23  C27 UNL     1      -2.371  48.458 -19.218  1.00  0.00     0.056 C 
BRANCH  21  24
HETATM   24  C2  UNL     1      -3.900  45.334 -20.683  1.00  0.00     0.268 C 
HETATM   25  C1  UNL     1      -5.209  45.743 -21.349  1.00  0.00     0.037 C 
ENDBRANCH  21  24
ENDBRANCH  11  18
ENDBRANCH   1   9
BRANCH   2  26
HETATM   26  C10 UNL     1      -0.942  52.737 -23.816  1.00  0.00     0.009 A 
HETATM   27  C11 UNL     1      -2.263  52.730 -23.415  1.00  0.00     0.104 A 
HETATM   28  N3  UNL     1      -3.000  52.121 -24.395  1.00  0.00    -0.360 N 
HETATM   29  C12 UNL     1      -4.430  51.920 -24.339  1.00  0.00     0.156 C 
HETATM   30  C13 UNL     1      -2.183  51.713 -25.428  1.00  0.00     0.045 A 
HETATM   31  C14 UNL     1      -2.483  51.046 -26.627  1.00  0.00     0.030 A 
HETATM   32  C18 UNL     1      -0.876  52.082 -25.086  1.00  0.00     0.003 A 
HETATM   33  C15 UNL     1      -1.430  50.744 -27.496  1.00  0.00     0.002 A 
HETATM   34  C16 UNL     1      -0.122  51.088 -27.177  1.00  0.00     0.001 A 
HETATM   35  C17 UNL     1       0.167  51.749 -25.979  1.00  0.00     0.014 A 
ENDBRANCH   2  26
TORSDOF 4
ENDMDL
MODEL 9
REMARK minimizedAffinity -9.89902306
REMARK  4 active torsions:
REMARK  status: ('A' for Active; 'I' for Inactive)
REMARK    1  A    between atoms: C2_2  and  N1_3 
REMARK    2  A    between atoms: C5_6  and  N2_7 
REMARK    3  A    between atoms: C7_9  and  C8_10 
REMARK    4  A    between atoms: C9_11  and  C10_12 
ROOT
HETATM    1  C8  UNL     1      -0.234  53.237 -23.563  1.00  0.00     0.061 A 
HETATM    2  C9  UNL     1       0.414  53.266 -22.385  1.00  0.00     0.061 A 
HETATM    3  C19 UNL     1       1.466  54.308 -22.493  1.00  0.00     0.260 A 
HETATM    4  O1  UNL     1       2.248  54.657 -21.627  1.00  0.00    -0.267 OA
HETATM    5  N4  UNL     1       1.408  54.814 -23.740  1.00  0.00    -0.289 N 
HETATM    6  C20 UNL     1       0.423  54.231 -24.448  1.00  0.00     0.260 A 
HETATM    7  O2  UNL     1       0.138  54.488 -25.604  1.00  0.00    -0.267 OA
HETATM    8  H20 UNL     1       2.013  55.537 -24.091  1.00  0.00     0.172 HD
ENDROOT
BRANCH   1   9
HETATM    9  C7  UNL     1      -1.343  52.451 -23.983  1.00  0.00     0.009 A 
HETATM   10  C6  UNL     1      -2.422  52.154 -23.181  1.00  0.00     0.105 A 
HETATM   11  N2  UNL     1      -3.316  51.409 -23.912  1.00  0.00    -0.350 N 
HETATM   12  C26 UNL     1      -2.813  51.187 -25.182  1.00  0.00     0.045 A 
HETATM   13  C21 UNL     1      -1.567  51.829 -25.249  1.00  0.00     0.003 A 
HETATM   14  C25 UNL     1      -3.332  50.478 -26.281  1.00  0.00     0.030 A 
HETATM   15  C22 UNL     1      -0.826  51.742 -26.449  1.00  0.00     0.014 A 
HETATM   16  C23 UNL     1      -1.341  51.041 -27.542  1.00  0.00     0.001 A 
HETATM   17  C24 UNL     1      -2.579  50.418 -27.457  1.00  0.00     0.002 A 
BRANCH  11  18
HETATM   18  C5  UNL     1      -4.605  50.969 -23.378  1.00  0.00     0.093 C 
HETATM   19  C4  UNL     1      -4.798  51.305 -21.891  1.00  0.00     0.056 C 
HETATM   20  C3  UNL     1      -5.665  50.271 -21.167  1.00  0.00     0.274 C 
HETATM   21  N1  UNL     1      -6.771  49.869 -22.035  1.00  0.00     0.088 N 
HETATM   22  C28 UNL     1      -6.296  49.104 -23.202  1.00  0.00     0.274 C 
HETATM   23  C27 UNL     1      -4.894  49.496 -23.679  1.00  0.00     0.056 C 
BRANCH  21  24
HETATM   24  C2  UNL     1      -7.829  49.128 -21.335  1.00  0.00     0.268 C 
HETATM   25  C1  UNL     1      -7.602  49.050 -19.829  1.00  0.00     0.037 C 
ENDBRANCH  21  24
ENDBRANCH  11  18
ENDBRANCH   1   9
BRANCH   2  26
HETATM   26  C10 UNL     1       0.219  52.492 -21.207  1.00  0.00     0.009 A 
HETATM   27  C11 UNL     1       0.474  52.954 -19.932  1.00  0.00     0.104 A 
HETATM   28  N3  UNL     1       0.170  51.954 -19.048  1.00  0.00    -0.360 N 
HETATM   29  C12 UNL     1       0.309  52.057 -17.614  1.00  0.00     0.156 C 
HETATM   30  C13 UNL     1      -0.266  50.834 -19.724  1.00  0.00     0.045 A 
HETATM   31  C14 UNL     1      -0.675  49.577 -19.248  1.00  0.00     0.030 A 
HETATM   32  C18 UNL     1      -0.239  51.142 -21.089  1.00  0.00     0.003 A 
HETATM   33  C15 UNL     1      -1.061  48.611 -20.182  1.00  0.00     0.002 A 
HETATM   34  C16 UNL     1      -1.033  48.885 -21.544  1.00  0.00     0.001 A 
HETATM   35  C17 UNL     1      -0.621  50.138 -22.008  1.00  0.00     0.014 A 
ENDBRANCH   2  26
TORSDOF 4
ENDMDL
