MODEL 1
REMARK minimizedAffinity -7.3837595
REMARK CNNscore 0.331046164
REMARK CNNaffinity 6.05597734
REMARK  6 active torsions:
REMARK  status: ('A' for Active; 'I' for Inactive)
REMARK    1  A    between atoms: C2_2  and  S1_3 
REMARK    2  A    between atoms: S1_3  and  C3_6 
REMARK    3  A    between atoms: C10_13  and  C11_14 
REMARK    4  A    between atoms: C14_18  and  C15_19 
REMARK    5  A    between atoms: C15_19  and  C16_20 
REMARK    6  A    between atoms: C16_20  and  C17_21 
REMARK       I    between atoms: C17_21  and  N2_23 
ROOT
HETATM    1  C11 UNL     1     -11.237   9.708  22.621  1.00  0.00     0.040 A 
HETATM    2  N1  UNL     1     -10.449  10.468  23.456  1.00  0.00    -0.359 N 
HETATM    3  C12 UNL     1      -9.964  11.550  22.779  1.00  0.00     0.016 A 
HETATM    4  C13 UNL     1     -10.436  11.507  21.488  1.00  0.00    -0.027 A 
HETATM    5  C14 UNL     1     -11.258  10.347  21.379  1.00  0.00    -0.023 A 
HETATM    6  C23 UNL     1     -10.109  12.561  20.483  1.00  0.00     0.041 C 
HETATM    7  C24 UNL     1      -8.923  13.427  20.949  1.00  0.00     0.005 C 
HETATM    8  C25 UNL     1      -9.031  13.814  22.435  1.00  0.00     0.006 C 
HETATM    9  C26 UNL     1      -9.062  12.581  23.357  1.00  0.00     0.057 C 
HETATM   10  H10 UNL     1     -10.262  10.272  24.435  1.00  0.00     0.166 HD
ENDROOT
BRANCH   1  11
HETATM   11  C10 UNL     1     -11.856   8.500  23.051  1.00  0.00     0.048 C 
HETATM   12  C9  UNL     1     -12.661   8.273  24.102  1.00  0.00     0.047 A 
HETATM   13  C7  UNL     1     -13.236   6.945  24.393  1.00  0.00     0.008 A 
HETATM   14  C27 UNL     1     -13.197   9.202  25.166  1.00  0.00     0.257 A 
HETATM   15  C6  UNL     1     -14.073   7.108  25.502  1.00  0.00     0.046 A 
HETATM   16  C8  UNL     1     -13.086   5.697  23.811  1.00  0.00     0.038 A 
HETATM   17  C5  UNL     1     -14.804   6.071  26.049  1.00  0.00     0.032 A 
HETATM   18  N4  UNL     1     -14.044   8.425  25.941  1.00  0.00    -0.322 N 
HETATM   19  C4  UNL     1     -14.672   4.811  25.460  1.00  0.00     0.026 A 
HETATM   20  C3  UNL     1     -13.801   4.627  24.368  1.00  0.00     0.060 A 
HETATM   21  H34 UNL     1     -14.546   8.797  26.733  1.00  0.00     0.169 HD
HETATM   22  O4  UNL     1     -12.949  10.379  25.339  1.00  0.00    -0.267 OA
BRANCH  20  23
HETATM   23  S1  UNL     1     -13.651   3.015  23.624  1.00  0.00     0.175 S 
HETATM   24  O1  UNL     1     -13.739   3.214  22.188  1.00  0.00    -0.223 OA
HETATM   25  O2  UNL     1     -14.579   2.134  24.306  1.00  0.00    -0.223 OA
BRANCH  23  26
HETATM   26  C2  UNL     1     -11.988   2.498  23.990  1.00  0.00     0.141 C 
HETATM   27  C1  UNL     1     -11.899   1.425  25.056  1.00  0.00     0.021 C 
ENDBRANCH  23  26
ENDBRANCH  20  23
ENDBRANCH   1  11
BRANCH   5  28
HETATM   28  C15 UNL     1     -12.001   9.927  20.145  1.00  0.00     0.051 C 
BRANCH  28  29
HETATM   29  C16 UNL     1     -11.421  10.548  18.880  1.00  0.00     0.107 C 
BRANCH  29  30
HETATM   30  C17 UNL     1     -10.833   9.468  17.996  1.00  0.00     0.220 C 
HETATM   31  O3  UNL     1     -10.249   8.513  18.512  1.00  0.00    -0.273 OA
HETATM   32  N2  UNL     1     -10.947   9.604  16.624  1.00  0.00    -0.349 N 
HETATM   33  C18 UNL     1     -11.604  10.715  15.926  1.00  0.00     0.156 C 
HETATM   34  C22 UNL     1     -10.408   8.544  15.765  1.00  0.00     0.156 C 
HETATM   35  C19 UNL     1     -11.145  10.848  14.461  1.00  0.00     0.291 C 
HETATM   36  N3  UNL     1     -11.263   9.621  13.651  1.00  0.00     0.087 N 
HETATM   37  C20 UNL     1     -12.441   9.644  12.790  1.00  0.00     0.310 C 
HETATM   38  C21 UNL     1     -11.228   8.393  14.472  1.00  0.00     0.291 C 
ENDBRANCH  29  30
ENDBRANCH  28  29
ENDBRANCH   5  28
TORSDOF 6
ENDMDL
MODEL 2
REMARK minimizedAffinity -9.66854286
REMARK CNNscore 0.304430246
REMARK CNNaffinity 7.26075935
REMARK  6 active torsions:
REMARK  status: ('A' for Active; 'I' for Inactive)
REMARK    1  A    between atoms: C2_2  and  S1_3 
REMARK    2  A    between atoms: S1_3  and  C3_6 
REMARK    3  A    between atoms: C10_13  and  C11_14 
REMARK    4  A    between atoms: C14_18  and  C15_19 
REMARK    5  A    between atoms: C15_19  and  C16_20 
REMARK    6  A    between atoms: C16_20  and  C17_21 
REMARK       I    between atoms: C17_21  and  N2_23 
ROOT
HETATM    1  C11 UNL     1      -0.723   5.479  12.205  1.00  0.00     0.040 A 
HETATM    2  N1  UNL     1       0.120   5.207  11.150  1.00  0.00    -0.359 N 
HETATM    3  C12 UNL     1       1.303   5.865  11.320  1.00  0.00     0.016 A 
HETATM    4  C13 UNL     1       1.246   6.575  12.497  1.00  0.00    -0.027 A 
HETATM    5  C14 UNL     1      -0.033   6.326  13.076  1.00  0.00    -0.023 A 
HETATM    6  C23 UNL     1       2.393   7.391  12.994  1.00  0.00     0.041 C 
HETATM    7  C24 UNL     1       3.428   7.635  11.879  1.00  0.00     0.005 C 
HETATM    8  C25 UNL     1       3.712   6.364  11.058  1.00  0.00     0.006 C 
HETATM    9  C26 UNL     1       2.446   5.821  10.369  1.00  0.00     0.057 C 
HETATM   10  H10 UNL     1      -0.091   4.598  10.365  1.00  0.00     0.166 HD
ENDROOT
BRANCH   1  11
HETATM   11  C10 UNL     1      -2.042   4.948  12.281  1.00  0.00     0.048 C 
HETATM   12  C9  UNL     1      -2.523   3.775  11.838  1.00  0.00     0.047 A 
HETATM   13  C7  UNL     1      -3.931   3.372  12.020  1.00  0.00     0.008 A 
HETATM   14  C27 UNL     1      -1.848   2.623  11.133  1.00  0.00     0.257 A 
HETATM   15  C6  UNL     1      -4.044   2.076  11.507  1.00  0.00     0.046 A 
HETATM   16  C8  UNL     1      -5.040   4.010  12.551  1.00  0.00     0.038 A 
HETATM   17  C5  UNL     1      -5.227   1.361  11.527  1.00  0.00     0.032 A 
HETATM   18  N4  UNL     1      -2.825   1.650  10.996  1.00  0.00    -0.322 N 
HETATM   19  C4  UNL     1      -6.348   1.989  12.075  1.00  0.00     0.026 A 
HETATM   20  C3  UNL     1      -6.255   3.309  12.558  1.00  0.00     0.060 A 
HETATM   21  H34 UNL     1      -2.646   0.761  10.555  1.00  0.00     0.169 HD
HETATM   22  O4  UNL     1      -0.699   2.541  10.743  1.00  0.00    -0.267 OA
BRANCH  20  23
HETATM   23  S1  UNL     1      -7.693   4.092  13.261  1.00  0.00     0.175 S 
HETATM   24  O1  UNL     1      -7.415   4.273  14.674  1.00  0.00    -0.223 OA
HETATM   25  O2  UNL     1      -8.853   3.338  12.827  1.00  0.00    -0.223 OA
BRANCH  23  26
HETATM   26  C2  UNL     1      -7.742   5.707  12.515  1.00  0.00     0.141 C 
HETATM   27  C1  UNL     1      -8.856   5.884  11.505  1.00  0.00     0.021 C 
ENDBRANCH  23  26
ENDBRANCH  20  23
ENDBRANCH   1  11
BRANCH   5  28
HETATM   28  C15 UNL     1      -0.512   6.881  14.385  1.00  0.00     0.051 C 
BRANCH  28  29
HETATM   29  C16 UNL     1      -1.800   6.218  14.859  1.00  0.00     0.107 C 
BRANCH  29  30
HETATM   30  C17 UNL     1      -2.905   7.248  14.960  1.00  0.00     0.220 C 
HETATM   31  O3  UNL     1      -3.988   7.031  14.412  1.00  0.00    -0.273 OA
HETATM   32  N2  UNL     1      -2.652   8.423  15.645  1.00  0.00    -0.349 N 
HETATM   33  C18 UNL     1      -1.389   8.773  16.306  1.00  0.00     0.156 C 
HETATM   34  C22 UNL     1      -3.731   9.409  15.774  1.00  0.00     0.156 C 
HETATM   35  C19 UNL     1      -1.241  10.289  16.535  1.00  0.00     0.291 C 
HETATM   36  N3  UNL     1      -2.362  10.930  17.248  1.00  0.00     0.087 N 
HETATM   37  C20 UNL     1      -2.055  11.165  18.655  1.00  0.00     0.310 C 
HETATM   38  C21 UNL     1      -3.630  10.187  17.097  1.00  0.00     0.291 C 
ENDBRANCH  29  30
ENDBRANCH  28  29
ENDBRANCH   5  28
TORSDOF 6
ENDMDL
MODEL 3
REMARK minimizedAffinity -9.59639263
REMARK CNNscore 0.156286418
REMARK CNNaffinity 6.98669958
REMARK  6 active torsions:
REMARK  status: ('A' for Active; 'I' for Inactive)
REMARK    1  A    between atoms: C2_2  and  S1_3 
REMARK    2  A    between atoms: S1_3  and  C3_6 
REMARK    3  A    between atoms: C10_13  and  C11_14 
REMARK    4  A    between atoms: C14_18  and  C15_19 
REMARK    5  A    between atoms: C15_19  and  C16_20 
REMARK    6  A    between atoms: C16_20  and  C17_21 
REMARK       I    between atoms: C17_21  and  N2_23 
ROOT
HETATM    1  C11 UNL     1      -0.673   5.442  12.048  1.00  0.00     0.040 A 
HETATM    2  N1  UNL     1       0.167   5.199  10.984  1.00  0.00    -0.359 N 
HETATM    3  C12 UNL     1       1.364   5.823  11.187  1.00  0.00     0.016 A 
HETATM    4  C13 UNL     1       1.316   6.481  12.393  1.00  0.00    -0.027 A 
HETATM    5  C14 UNL     1       0.031   6.235  12.957  1.00  0.00    -0.023 A 
HETATM    6  C23 UNL     1       2.478   7.251  12.929  1.00  0.00     0.041 C 
HETATM    7  C24 UNL     1       3.524   7.521  11.830  1.00  0.00     0.005 C 
HETATM    8  C25 UNL     1       3.784   6.282  10.955  1.00  0.00     0.006 C 
HETATM    9  C26 UNL     1       2.509   5.797  10.238  1.00  0.00     0.057 C 
HETATM   10  H10 UNL     1      -0.053   4.629  10.173  1.00  0.00     0.166 HD
ENDROOT
BRANCH   1  11
HETATM   11  C10 UNL     1      -2.004   4.936  12.096  1.00  0.00     0.048 C 
HETATM   12  C9  UNL     1      -2.477   3.727  11.753  1.00  0.00     0.047 A 
HETATM   13  C7  UNL     1      -3.900   3.361  11.887  1.00  0.00     0.008 A 
HETATM   14  C27 UNL     1      -1.779   2.497  11.221  1.00  0.00     0.257 A 
HETATM   15  C6  UNL     1      -4.003   2.018  11.510  1.00  0.00     0.046 A 
HETATM   16  C8  UNL     1      -5.029   4.064  12.273  1.00  0.00     0.038 A 
HETATM   17  C5  UNL     1      -5.197   1.322  11.532  1.00  0.00     0.032 A 
HETATM   18  N4  UNL     1      -2.762   1.526  11.128  1.00  0.00    -0.322 N 
HETATM   19  C4  UNL     1      -6.339   2.017  11.936  1.00  0.00     0.026 A 
HETATM   20  C3  UNL     1      -6.254   3.382  12.278  1.00  0.00     0.060 A 
HETATM   21  H34 UNL     1      -2.571   0.592  10.798  1.00  0.00     0.169 HD
HETATM   22  O4  UNL     1      -0.609   2.362  10.917  1.00  0.00    -0.267 OA
BRANCH  20  23
HETATM   23  S1  UNL     1      -7.719   4.251  12.798  1.00  0.00     0.175 S 
HETATM   24  O1  UNL     1      -8.715   3.238  13.099  1.00  0.00    -0.223 OA
HETATM   25  O2  UNL     1      -7.986   5.281  11.813  1.00  0.00    -0.223 OA
BRANCH  23  26
HETATM   26  C2  UNL     1      -7.266   5.026  14.335  1.00  0.00     0.141 C 
HETATM   27  C1  UNL     1      -7.051   6.522  14.229  1.00  0.00     0.021 C 
ENDBRANCH  23  26
ENDBRANCH  20  23
ENDBRANCH   1  11
BRANCH   5  28
HETATM   28  C15 UNL     1      -0.442   6.743  14.287  1.00  0.00     0.051 C 
BRANCH  28  29
HETATM   29  C16 UNL     1      -0.524   8.264  14.332  1.00  0.00     0.107 C 
BRANCH  29  30
HETATM   30  C17 UNL     1      -0.702   8.732  15.760  1.00  0.00     0.220 C 
HETATM   31  O3  UNL     1       0.138   8.424  16.609  1.00  0.00    -0.273 OA
HETATM   32  N2  UNL     1      -1.828   9.472  16.077  1.00  0.00    -0.349 N 
HETATM   33  C18 UNL     1      -2.886   9.863  15.139  1.00  0.00     0.156 C 
HETATM   34  C22 UNL     1      -1.988   9.955  17.453  1.00  0.00     0.156 C 
HETATM   35  C19 UNL     1      -4.204  10.225  15.850  1.00  0.00     0.291 C 
HETATM   36  N3  UNL     1      -4.087  11.243  16.910  1.00  0.00     0.087 N 
HETATM   37  C20 UNL     1      -4.520  12.561  16.456  1.00  0.00     0.310 C 
HETATM   38  C21 UNL     1      -2.731  11.301  17.495  1.00  0.00     0.291 C 
ENDBRANCH  29  30
ENDBRANCH  28  29
ENDBRANCH   5  28
TORSDOF 6
ENDMDL
MODEL 4
REMARK minimizedAffinity -9.52122879
REMARK CNNscore 0.140971303
REMARK CNNaffinity 6.82034302
REMARK  6 active torsions:
REMARK  status: ('A' for Active; 'I' for Inactive)
REMARK    1  A    between atoms: C2_2  and  S1_3 
REMARK    2  A    between atoms: S1_3  and  C3_6 
REMARK    3  A    between atoms: C10_13  and  C11_14 
REMARK    4  A    between atoms: C14_18  and  C15_19 
REMARK    5  A    between atoms: C15_19  and  C16_20 
REMARK    6  A    between atoms: C16_20  and  C17_21 
REMARK       I    between atoms: C17_21  and  N2_23 
ROOT
HETATM    1  C11 UNL     1      -0.772   5.556  12.207  1.00  0.00     0.040 A 
HETATM    2  N1  UNL     1       0.138   5.275  11.212  1.00  0.00    -0.359 N 
HETATM    3  C12 UNL     1       1.301   5.951  11.443  1.00  0.00     0.016 A 
HETATM    4  C13 UNL     1       1.161   6.682  12.600  1.00  0.00    -0.027 A 
HETATM    5  C14 UNL     1      -0.149   6.428  13.102  1.00  0.00    -0.023 A 
HETATM    6  C23 UNL     1       2.264   7.522  13.152  1.00  0.00     0.041 C 
HETATM    7  C24 UNL     1       3.366   7.758  12.101  1.00  0.00     0.005 C 
HETATM    8  C25 UNL     1       3.716   6.476  11.324  1.00  0.00     0.006 C 
HETATM    9  C26 UNL     1       2.502   5.904  10.567  1.00  0.00     0.057 C 
HETATM   10  H10 UNL     1      -0.016   4.649  10.427  1.00  0.00     0.166 HD
ENDROOT
BRANCH   1  11
HETATM   11  C10 UNL     1      -2.087   5.009  12.210  1.00  0.00     0.048 C 
HETATM   12  C9  UNL     1      -2.515   3.796  11.823  1.00  0.00     0.047 A 
HETATM   13  C7  UNL     1      -3.929   3.384  11.913  1.00  0.00     0.008 A 
HETATM   14  C27 UNL     1      -1.768   2.603  11.276  1.00  0.00     0.257 A 
HETATM   15  C6  UNL     1      -3.983   2.049  11.499  1.00  0.00     0.046 A 
HETATM   16  C8  UNL     1      -5.088   4.043  12.290  1.00  0.00     0.038 A 
HETATM   17  C5  UNL     1      -5.155   1.318  11.473  1.00  0.00     0.032 A 
HETATM   18  N4  UNL     1      -2.719   1.605  11.133  1.00  0.00    -0.322 N 
HETATM   19  C4  UNL     1      -6.327   1.968  11.868  1.00  0.00     0.026 A 
HETATM   20  C3  UNL     1      -6.291   3.324  12.248  1.00  0.00     0.060 A 
HETATM   21  H34 UNL     1      -2.492   0.687  10.784  1.00  0.00     0.169 HD
HETATM   22  O4  UNL     1      -0.588   2.511  10.997  1.00  0.00    -0.267 OA
BRANCH  20  23
HETATM   23  S1  UNL     1      -7.794   4.135  12.756  1.00  0.00     0.175 S 
HETATM   24  O1  UNL     1      -8.791   3.092  12.919  1.00  0.00    -0.223 OA
HETATM   25  O2  UNL     1      -8.022   5.239  11.843  1.00  0.00    -0.223 OA
BRANCH  23  26
HETATM   26  C2  UNL     1      -7.435   4.788  14.372  1.00  0.00     0.141 C 
HETATM   27  C1  UNL     1      -7.328   6.299  14.415  1.00  0.00     0.021 C 
ENDBRANCH  23  26
ENDBRANCH  20  23
ENDBRANCH   1  11
BRANCH   5  28
HETATM   28  C15 UNL     1      -0.716   7.001  14.367  1.00  0.00     0.051 C 
BRANCH  28  29
HETATM   29  C16 UNL     1       0.359   7.602  15.265  1.00  0.00     0.107 C 
BRANCH  29  30
HETATM   30  C17 UNL     1      -0.241   8.678  16.144  1.00  0.00     0.220 C 
HETATM   31  O3  UNL     1      -1.467   8.787  16.218  1.00  0.00    -0.273 OA
HETATM   32  N2  UNL     1       0.614   9.531  16.820  1.00  0.00    -0.349 N 
HETATM   33  C18 UNL     1       2.079   9.488  16.773  1.00  0.00     0.156 C 
HETATM   34  C22 UNL     1       0.036  10.554  17.699  1.00  0.00     0.156 C 
HETATM   35  C19 UNL     1       2.725  10.820  17.199  1.00  0.00     0.291 C 
HETATM   36  N3  UNL     1       2.291  11.338  18.509  1.00  0.00     0.087 N 
HETATM   37  C20 UNL     1       3.272  11.071  19.557  1.00  0.00     0.310 C 
HETATM   38  C21 UNL     1       0.952  10.850  18.898  1.00  0.00     0.291 C 
ENDBRANCH  29  30
ENDBRANCH  28  29
ENDBRANCH   5  28
TORSDOF 6
ENDMDL
MODEL 5
REMARK minimizedAffinity -8.10293293
REMARK CNNscore 0.119777597
REMARK CNNaffinity 5.94130278
REMARK  6 active torsions:
REMARK  status: ('A' for Active; 'I' for Inactive)
REMARK    1  A    between atoms: C2_2  and  S1_3 
REMARK    2  A    between atoms: S1_3  and  C3_6 
REMARK    3  A    between atoms: C10_13  and  C11_14 
REMARK    4  A    between atoms: C14_18  and  C15_19 
REMARK    5  A    between atoms: C15_19  and  C16_20 
REMARK    6  A    between atoms: C16_20  and  C17_21 
REMARK       I    between atoms: C17_21  and  N2_23 
ROOT
HETATM    1  C11 UNL     1      -2.528   9.187  16.371  1.00  0.00     0.040 A 
HETATM    2  N1  UNL     1      -3.886   9.273  16.588  1.00  0.00    -0.359 N 
HETATM    3  C12 UNL     1      -4.559   8.700  15.547  1.00  0.00     0.016 A 
HETATM    4  C13 UNL     1      -3.640   8.229  14.638  1.00  0.00    -0.027 A 
HETATM    5  C14 UNL     1      -2.346   8.520  15.158  1.00  0.00    -0.023 A 
HETATM    6  C23 UNL     1      -4.046   7.523  13.387  1.00  0.00     0.041 C 
HETATM    7  C24 UNL     1      -5.541   7.741  13.083  1.00  0.00     0.005 C 
HETATM    8  C25 UNL     1      -6.418   7.604  14.340  1.00  0.00     0.006 C 
HETATM    9  C26 UNL     1      -6.039   8.625  15.429  1.00  0.00     0.057 C 
HETATM   10  H10 UNL     1      -4.331   9.685  17.403  1.00  0.00     0.166 HD
ENDROOT
BRANCH   1  11
HETATM   11  C10 UNL     1      -1.578   9.728  17.283  1.00  0.00     0.048 C 
HETATM   12  C9  UNL     1      -1.438  10.985  17.736  1.00  0.00     0.047 A 
HETATM   13  C7  UNL     1      -0.396  11.372  18.705  1.00  0.00     0.008 A 
HETATM   14  C27 UNL     1      -2.233  12.239  17.455  1.00  0.00     0.257 A 
HETATM   15  C6  UNL     1      -0.604  12.724  18.997  1.00  0.00     0.046 A 
HETATM   16  C8  UNL     1       0.651  10.685  19.299  1.00  0.00     0.038 A 
HETATM   17  C5  UNL     1       0.177  13.427  19.893  1.00  0.00     0.032 A 
HETATM   18  N4  UNL     1      -1.677  13.216  18.266  1.00  0.00    -0.322 N 
HETATM   19  C4  UNL     1       1.225  12.740  20.511  1.00  0.00     0.026 A 
HETATM   20  C3  UNL     1       1.470  11.389  20.194  1.00  0.00     0.060 A 
HETATM   21  H34 UNL     1      -2.020  14.165  18.282  1.00  0.00     0.169 HD
HETATM   22  O4  UNL     1      -3.158  12.393  16.681  1.00  0.00    -0.267 OA
BRANCH  20  23
HETATM   23  S1  UNL     1       2.805  10.525  20.996  1.00  0.00     0.175 S 
HETATM   24  O1  UNL     1       3.922  10.538  20.068  1.00  0.00    -0.223 OA
HETATM   25  O2  UNL     1       2.274   9.271  21.495  1.00  0.00    -0.223 OA
BRANCH  23  26
HETATM   26  C2  UNL     1       3.247  11.555  22.378  1.00  0.00     0.141 C 
HETATM   27  C1  UNL     1       4.568  11.185  23.023  1.00  0.00     0.021 C 
ENDBRANCH  23  26
ENDBRANCH  20  23
ENDBRANCH   1  11
BRANCH   5  28
HETATM   28  C15 UNL     1      -1.047   8.156  14.500  1.00  0.00     0.051 C 
BRANCH  28  29
HETATM   29  C16 UNL     1      -1.249   7.292  13.260  1.00  0.00     0.107 C 
BRANCH  29  30
HETATM   30  C17 UNL     1      -0.656   7.979  12.048  1.00  0.00     0.220 C 
HETATM   31  O3  UNL     1      -1.197   8.992  11.600  1.00  0.00    -0.273 OA
HETATM   32  N2  UNL     1       0.468   7.426  11.461  1.00  0.00    -0.349 N 
HETATM   33  C18 UNL     1       1.162   6.215  11.912  1.00  0.00     0.156 C 
HETATM   34  C22 UNL     1       1.065   8.107  10.306  1.00  0.00     0.156 C 
HETATM   35  C19 UNL     1       2.033   5.584  10.809  1.00  0.00     0.291 C 
HETATM   36  N3  UNL     1       3.002   6.497  10.174  1.00  0.00     0.087 N 
HETATM   37  C20 UNL     1       4.353   6.309  10.692  1.00  0.00     0.310 C 
HETATM   38  C21 UNL     1       2.590   7.914  10.263  1.00  0.00     0.291 C 
ENDBRANCH  29  30
ENDBRANCH  28  29
ENDBRANCH   5  28
TORSDOF 6
ENDMDL
MODEL 6
REMARK minimizedAffinity -7.81170034
REMARK CNNscore 0.113599822
REMARK CNNaffinity 6.03674841
REMARK  6 active torsions:
REMARK  status: ('A' for Active; 'I' for Inactive)
REMARK    1  A    between atoms: C2_2  and  S1_3 
REMARK    2  A    between atoms: S1_3  and  C3_6 
REMARK    3  A    between atoms: C10_13  and  C11_14 
REMARK    4  A    between atoms: C14_18  and  C15_19 
REMARK    5  A    between atoms: C15_19  and  C16_20 
REMARK    6  A    between atoms: C16_20  and  C17_21 
REMARK       I    between atoms: C17_21  and  N2_23 
ROOT
HETATM    1  C11 UNL     1      -8.027   6.913  14.350  1.00  0.00     0.040 A 
HETATM    2  N1  UNL     1      -8.767   5.853  13.874  1.00  0.00    -0.359 N 
HETATM    3  C12 UNL     1      -7.934   4.877  13.410  1.00  0.00     0.016 A 
HETATM    4  C13 UNL     1      -6.633   5.291  13.583  1.00  0.00    -0.027 A 
HETATM    5  C14 UNL     1      -6.680   6.579  14.193  1.00  0.00    -0.023 A 
HETATM    6  C23 UNL     1      -5.467   4.443  13.198  1.00  0.00     0.041 C 
HETATM    7  C24 UNL     1      -5.898   3.289  12.272  1.00  0.00     0.005 C 
HETATM    8  C25 UNL     1      -7.195   2.611  12.749  1.00  0.00     0.006 C 
HETATM    9  C26 UNL     1      -8.380   3.594  12.806  1.00  0.00     0.057 C 
HETATM   10  H10 UNL     1      -9.780   5.790  13.877  1.00  0.00     0.166 HD
ENDROOT
BRANCH   1  11
HETATM   11  C10 UNL     1      -8.634   8.090  14.873  1.00  0.00     0.048 C 
HETATM   12  C9  UNL     1      -9.934   8.399  15.010  1.00  0.00     0.047 A 
HETATM   13  C7  UNL     1     -10.393   9.673  15.597  1.00  0.00     0.008 A 
HETATM   14  C27 UNL     1     -11.184   7.618  14.681  1.00  0.00     0.257 A 
HETATM   15  C6  UNL     1     -11.789   9.609  15.647  1.00  0.00     0.046 A 
HETATM   16  C8  UNL     1      -9.731  10.803  16.047  1.00  0.00     0.038 A 
HETATM   17  C5  UNL     1     -12.569  10.626  16.163  1.00  0.00     0.032 A 
HETATM   18  N4  UNL     1     -12.237   8.408  15.114  1.00  0.00    -0.322 N 
HETATM   19  C4  UNL     1     -11.911  11.765  16.635  1.00  0.00     0.026 A 
HETATM   20  C3  UNL     1     -10.507  11.857  16.552  1.00  0.00     0.060 A 
HETATM   21  H34 UNL     1     -13.201   8.125  15.018  1.00  0.00     0.169 HD
HETATM   22  O4  UNL     1     -11.280   6.533  14.140  1.00  0.00    -0.267 OA
BRANCH  20  23
HETATM   23  S1  UNL     1      -9.684  13.312  17.165  1.00  0.00     0.175 S 
HETATM   24  O1  UNL     1     -10.549  14.437  16.856  1.00  0.00    -0.223 OA
HETATM   25  O2  UNL     1      -8.317  13.276  16.680  1.00  0.00    -0.223 OA
BRANCH  23  26
HETATM   26  C2  UNL     1      -9.674  13.118  18.934  1.00  0.00     0.141 C 
HETATM   27  C1  UNL     1      -8.396  13.589  19.597  1.00  0.00     0.021 C 
ENDBRANCH  23  26
ENDBRANCH  20  23
ENDBRANCH   1  11
BRANCH   5  28
HETATM   28  C15 UNL     1      -5.482   7.392  14.588  1.00  0.00     0.051 C 
BRANCH  28  29
HETATM   29  C16 UNL     1      -4.253   7.058  13.751  1.00  0.00     0.107 C 
BRANCH  29  30
HETATM   30  C17 UNL     1      -3.504   8.326  13.401  1.00  0.00     0.220 C 
HETATM   31  O3  UNL     1      -3.829   8.966  12.398  1.00  0.00    -0.273 OA
HETATM   32  N2  UNL     1      -2.450   8.714  14.209  1.00  0.00    -0.349 N 
HETATM   33  C18 UNL     1      -1.982   8.004  15.405  1.00  0.00     0.156 C 
HETATM   34  C22 UNL     1      -1.743   9.960  13.892  1.00  0.00     0.156 C 
HETATM   35  C19 UNL     1      -0.536   8.375  15.786  1.00  0.00     0.291 C 
HETATM   36  N3  UNL     1      -0.278   9.819  15.940  1.00  0.00     0.087 N 
HETATM   37  C20 UNL     1      -0.251  10.225  17.342  1.00  0.00     0.310 C 
HETATM   38  C21 UNL     1      -1.220  10.651  15.164  1.00  0.00     0.291 C 
ENDBRANCH  29  30
ENDBRANCH  28  29
ENDBRANCH   5  28
TORSDOF 6
ENDMDL
MODEL 7
REMARK minimizedAffinity -7.3300457
REMARK CNNscore 0.110375799
REMARK CNNaffinity 5.8422451
REMARK  6 active torsions:
REMARK  status: ('A' for Active; 'I' for Inactive)
REMARK    1  A    between atoms: C2_2  and  S1_3 
REMARK    2  A    between atoms: S1_3  and  C3_6 
REMARK    3  A    between atoms: C10_13  and  C11_14 
REMARK    4  A    between atoms: C14_18  and  C15_19 
REMARK    5  A    between atoms: C15_19  and  C16_20 
REMARK    6  A    between atoms: C16_20  and  C17_21 
REMARK       I    between atoms: C17_21  and  N2_23 
ROOT
HETATM    1  C11 UNL     1     -10.445   6.712  14.229  1.00  0.00     0.040 A 
HETATM    2  N1  UNL     1      -9.567   5.892  13.555  1.00  0.00    -0.359 N 
HETATM    3  C12 UNL     1      -8.282   6.235  13.863  1.00  0.00     0.016 A 
HETATM    4  C13 UNL     1      -8.310   7.287  14.749  1.00  0.00    -0.027 A 
HETATM    5  C14 UNL     1      -9.680   7.590  15.000  1.00  0.00    -0.023 A 
HETATM    6  C23 UNL     1      -7.065   7.894  15.307  1.00  0.00     0.041 C 
HETATM    7  C24 UNL     1      -5.826   7.470  14.495  1.00  0.00     0.005 C 
HETATM    8  C25 UNL     1      -5.840   5.970  14.148  1.00  0.00     0.006 C 
HETATM    9  C26 UNL     1      -7.069   5.579  13.307  1.00  0.00     0.057 C 
HETATM   10  H10 UNL     1      -9.825   5.132  12.932  1.00  0.00     0.166 HD
ENDROOT
BRANCH   1  11
HETATM   11  C10 UNL     1     -11.857   6.601  14.078  1.00  0.00     0.048 C 
HETATM   12  C9  UNL     1     -12.718   7.403  13.432  1.00  0.00     0.047 A 
HETATM   13  C7  UNL     1     -14.166   7.124  13.359  1.00  0.00     0.008 A 
HETATM   14  C27 UNL     1     -12.498   8.671  12.640  1.00  0.00     0.257 A 
HETATM   15  C6  UNL     1     -14.724   8.121  12.552  1.00  0.00     0.046 A 
HETATM   16  C8  UNL     1     -14.973   6.145  13.914  1.00  0.00     0.038 A 
HETATM   17  C5  UNL     1     -16.069   8.168  12.241  1.00  0.00     0.032 A 
HETATM   18  N4  UNL     1     -13.744   9.013  12.137  1.00  0.00    -0.322 N 
HETATM   19  C4  UNL     1     -16.890   7.175  12.781  1.00  0.00     0.026 A 
HETATM   20  C3  UNL     1     -16.345   6.190  13.630  1.00  0.00     0.060 A 
HETATM   21  H34 UNL     1     -13.890   9.828  11.562  1.00  0.00     0.169 HD
HETATM   22  O4  UNL     1     -11.466   9.290  12.472  1.00  0.00    -0.267 OA
BRANCH  20  23
HETATM   23  S1  UNL     1     -17.404   4.927  14.304  1.00  0.00     0.175 S 
HETATM   24  O1  UNL     1     -17.305   3.786  13.412  1.00  0.00    -0.223 OA
HETATM   25  O2  UNL     1     -18.689   5.539  14.581  1.00  0.00    -0.223 OA
BRANCH  23  26
HETATM   26  C2  UNL     1     -16.640   4.467  15.844  1.00  0.00     0.141 C 
HETATM   27  C1  UNL     1     -17.419   3.434  16.632  1.00  0.00     0.021 C 
ENDBRANCH  23  26
ENDBRANCH  20  23
ENDBRANCH   1  11
BRANCH   5  28
HETATM   28  C15 UNL     1     -10.173   8.657  15.933  1.00  0.00     0.051 C 
BRANCH  28  29
HETATM   29  C16 UNL     1      -9.831  10.059  15.443  1.00  0.00     0.107 C 
BRANCH  29  30
HETATM   30  C17 UNL     1     -11.073  10.924  15.438  1.00  0.00     0.220 C 
HETATM   31  O3  UNL     1     -12.167  10.415  15.690  1.00  0.00    -0.273 OA
HETATM   32  N2  UNL     1     -10.943  12.264  15.120  1.00  0.00    -0.349 N 
HETATM   33  C18 UNL     1      -9.687  12.946  14.786  1.00  0.00     0.156 C 
HETATM   34  C22 UNL     1     -12.139  13.113  15.146  1.00  0.00     0.156 C 
HETATM   35  C19 UNL     1      -9.913  14.259  14.012  1.00  0.00     0.291 C 
HETATM   36  N3  UNL     1     -10.837  15.215  14.652  1.00  0.00     0.087 N 
HETATM   37  C20 UNL     1     -10.126  16.292  15.334  1.00  0.00     0.310 C 
HETATM   38  C21 UNL     1     -11.799  14.555  15.558  1.00  0.00     0.291 C 
ENDBRANCH  29  30
ENDBRANCH  28  29
ENDBRANCH   5  28
TORSDOF 6
ENDMDL
MODEL 8
REMARK minimizedAffinity -7.32397318
REMARK CNNscore 0.108760752
REMARK CNNaffinity 5.68508005
REMARK  6 active torsions:
REMARK  status: ('A' for Active; 'I' for Inactive)
REMARK    1  A    between atoms: C2_2  and  S1_3 
REMARK    2  A    between atoms: S1_3  and  C3_6 
REMARK    3  A    between atoms: C10_13  and  C11_14 
REMARK    4  A    between atoms: C14_18  and  C15_19 
REMARK    5  A    between atoms: C15_19  and  C16_20 
REMARK    6  A    between atoms: C16_20  and  C17_21 
REMARK       I    between atoms: C17_21  and  N2_23 
ROOT
HETATM    1  C11 UNL     1     -10.097   6.960  14.471  1.00  0.00     0.040 A 
HETATM    2  N1  UNL     1      -9.123   6.092  14.029  1.00  0.00    -0.359 N 
HETATM    3  C12 UNL     1      -7.889   6.645  14.215  1.00  0.00     0.016 A 
HETATM    4  C13 UNL     1      -8.047   7.886  14.787  1.00  0.00    -0.027 A 
HETATM    5  C14 UNL     1      -9.446   8.092  14.968  1.00  0.00    -0.023 A 
HETATM    6  C23 UNL     1      -6.886   8.754  15.145  1.00  0.00     0.041 C 
HETATM    7  C24 UNL     1      -5.594   8.269  14.458  1.00  0.00     0.005 C 
HETATM    8  C25 UNL     1      -5.437   6.739  14.526  1.00  0.00     0.006 C 
HETATM    9  C26 UNL     1      -6.602   6.003  13.838  1.00  0.00     0.057 C 
HETATM   10  H10 UNL     1      -9.285   5.170  13.636  1.00  0.00     0.166 HD
ENDROOT
BRANCH   1  11
HETATM   11  C10 UNL     1     -11.485   6.657  14.376  1.00  0.00     0.048 C 
HETATM   12  C9  UNL     1     -12.457   7.282  13.691  1.00  0.00     0.047 A 
HETATM   13  C7  UNL     1     -13.857   6.816  13.690  1.00  0.00     0.008 A 
HETATM   14  C27 UNL     1     -12.419   8.491  12.786  1.00  0.00     0.257 A 
HETATM   15  C6  UNL     1     -14.556   7.656  12.817  1.00  0.00     0.046 A 
HETATM   16  C8  UNL     1     -14.518   5.795  14.353  1.00  0.00     0.038 A 
HETATM   17  C5  UNL     1     -15.902   7.503  12.547  1.00  0.00     0.032 A 
HETATM   18  N4  UNL     1     -13.708   8.625  12.296  1.00  0.00    -0.322 N 
HETATM   19  C4  UNL     1     -16.576   6.467  13.198  1.00  0.00     0.026 A 
HETATM   20  C3  UNL     1     -15.890   5.640  14.110  1.00  0.00     0.060 A 
HETATM   21  H34 UNL     1     -13.971   9.360  11.657  1.00  0.00     0.169 HD
HETATM   22  O4  UNL     1     -11.479   9.219  12.532  1.00  0.00    -0.267 OA
BRANCH  20  23
HETATM   23  S1  UNL     1     -16.762   4.318  14.925  1.00  0.00     0.175 S 
HETATM   24  O1  UNL     1     -15.766   3.322  15.277  1.00  0.00    -0.223 OA
HETATM   25  O2  UNL     1     -17.896   3.966  14.091  1.00  0.00    -0.223 OA
BRANCH  23  26
HETATM   26  C2  UNL     1     -17.360   5.034  16.440  1.00  0.00     0.141 C 
HETATM   27  C1  UNL     1     -16.632   6.297  16.852  1.00  0.00     0.021 C 
ENDBRANCH  23  26
ENDBRANCH  20  23
ENDBRANCH   1  11
BRANCH   5  28
HETATM   28  C15 UNL     1     -10.068   9.308  15.589  1.00  0.00     0.051 C 
BRANCH  28  29
HETATM   29  C16 UNL     1     -10.457   9.081  17.045  1.00  0.00     0.107 C 
BRANCH  29  30
HETATM   30  C17 UNL     1     -10.817  10.398  17.696  1.00  0.00     0.220 C 
HETATM   31  O3  UNL     1     -10.502  11.455  17.144  1.00  0.00    -0.273 OA
HETATM   32  N2  UNL     1     -11.469  10.375  18.917  1.00  0.00    -0.349 N 
HETATM   33  C18 UNL     1     -11.861   9.168  19.654  1.00  0.00     0.156 C 
HETATM   34  C22 UNL     1     -11.849  11.650  19.536  1.00  0.00     0.156 C 
HETATM   35  C19 UNL     1     -12.098   9.440  21.152  1.00  0.00     0.291 C 
HETATM   36  N3  UNL     1     -13.048  10.528  21.450  1.00  0.00     0.087 N 
HETATM   37  C20 UNL     1     -14.366  10.020  21.818  1.00  0.00     0.310 C 
HETATM   38  C21 UNL     1     -13.144  11.515  20.355  1.00  0.00     0.291 C 
ENDBRANCH  29  30
ENDBRANCH  28  29
ENDBRANCH   5  28
TORSDOF 6
ENDMDL
MODEL 9
REMARK minimizedAffinity -7.68038559
REMARK CNNscore 0.104446001
REMARK CNNaffinity 5.61603928
REMARK  6 active torsions:
REMARK  status: ('A' for Active; 'I' for Inactive)
REMARK    1  A    between atoms: C2_2  and  S1_3 
REMARK    2  A    between atoms: S1_3  and  C3_6 
REMARK    3  A    between atoms: C10_13  and  C11_14 
REMARK    4  A    between atoms: C14_18  and  C15_19 
REMARK    5  A    between atoms: C15_19  and  C16_20 
REMARK    6  A    between atoms: C16_20  and  C17_21 
REMARK       I    between atoms: C17_21  and  N2_23 
ROOT
HETATM    1  C11 UNL     1      -8.819   6.454  13.757  1.00  0.00     0.040 A 
HETATM    2  N1  UNL     1      -9.094   5.158  13.379  1.00  0.00    -0.359 N 
HETATM    3  C12 UNL     1      -7.932   4.501  13.095  1.00  0.00     0.016 A 
HETATM    4  C13 UNL     1      -6.881   5.366  13.290  1.00  0.00    -0.027 A 
HETATM    5  C14 UNL     1      -7.431   6.607  13.724  1.00  0.00    -0.023 A 
HETATM    6  C23 UNL     1      -5.460   4.954  13.087  1.00  0.00     0.041 C 
HETATM    7  C24 UNL     1      -5.369   3.636  12.294  1.00  0.00     0.005 C 
HETATM    8  C25 UNL     1      -6.392   2.592  12.777  1.00  0.00     0.006 C 
HETATM    9  C26 UNL     1      -7.843   3.089  12.636  1.00  0.00     0.057 C 
HETATM   10  H10 UNL     1     -10.018   4.739  13.329  1.00  0.00     0.166 HD
ENDROOT
BRANCH   1  11
HETATM   11  C10 UNL     1      -9.846   7.384  14.086  1.00  0.00     0.048 C 
HETATM   12  C9  UNL     1     -10.129   7.972  15.260  1.00  0.00     0.047 A 
HETATM   13  C7  UNL     1     -11.233   8.938  15.421  1.00  0.00     0.008 A 
HETATM   14  C27 UNL     1      -9.463   7.871  16.612  1.00  0.00     0.257 A 
HETATM   15  C6  UNL     1     -11.176   9.392  16.743  1.00  0.00     0.046 A 
HETATM   16  C8  UNL     1     -12.217   9.406  14.566  1.00  0.00     0.038 A 
HETATM   17  C5  UNL     1     -12.051  10.333  17.252  1.00  0.00     0.032 A 
HETATM   18  N4  UNL     1     -10.141   8.766  17.425  1.00  0.00    -0.322 N 
HETATM   19  C4  UNL     1     -13.038  10.824  16.393  1.00  0.00     0.026 A 
HETATM   20  C3  UNL     1     -13.130  10.343  15.072  1.00  0.00     0.060 A 
HETATM   21  H34 UNL     1      -9.900   8.907  18.394  1.00  0.00     0.169 HD
HETATM   22  O4  UNL     1      -8.539   7.158  16.950  1.00  0.00    -0.267 OA
BRANCH  20  23
HETATM   23  S1  UNL     1     -14.389  10.987  13.988  1.00  0.00     0.175 S 
HETATM   24  O1  UNL     1     -15.593  11.119  14.788  1.00  0.00    -0.223 OA
HETATM   25  O2  UNL     1     -14.385  10.174  12.787  1.00  0.00    -0.223 OA
BRANCH  23  26
HETATM   26  C2  UNL     1     -13.838  12.628  13.576  1.00  0.00     0.141 C 
HETATM   27  C1  UNL     1     -14.302  13.108  12.215  1.00  0.00     0.021 C 
ENDBRANCH  23  26
ENDBRANCH  20  23
ENDBRANCH   1  11
BRANCH   5  28
HETATM   28  C15 UNL     1      -6.636   7.828  14.080  1.00  0.00     0.051 C 
BRANCH  28  29
HETATM   29  C16 UNL     1      -5.250   7.482  14.614  1.00  0.00     0.107 C 
BRANCH  29  30
HETATM   30  C17 UNL     1      -4.199   8.294  13.889  1.00  0.00     0.220 C 
HETATM   31  O3  UNL     1      -4.427   8.703  12.748  1.00  0.00    -0.273 OA
HETATM   32  N2  UNL     1      -2.992   8.528  14.524  1.00  0.00    -0.349 N 
HETATM   33  C18 UNL     1      -2.627   8.062  15.867  1.00  0.00     0.156 C 
HETATM   34  C22 UNL     1      -1.982   9.342  13.838  1.00  0.00     0.156 C 
HETATM   35  C19 UNL     1      -1.103   8.037  16.091  1.00  0.00     0.291 C 
HETATM   36  N3  UNL     1      -0.405   9.304  15.805  1.00  0.00     0.087 N 
HETATM   37  C20 UNL     1      -0.097  10.049  17.022  1.00  0.00     0.310 C 
HETATM   38  C21 UNL     1      -1.134  10.148  14.836  1.00  0.00     0.291 C 
ENDBRANCH  29  30
ENDBRANCH  28  29
ENDBRANCH   5  28
TORSDOF 6
ENDMDL
