MODEL 1
REMARK minimizedAffinity -9.32252121
REMARK  7 active torsions:
REMARK  status: ('A' for Active; 'I' for Inactive)
REMARK    1  A    between atoms: C2_2  and  S1_4 
REMARK    2  A    between atoms: S1_4  and  C4_7 
REMARK    3  A    between atoms: C11_14  and  C12_15 
REMARK    4  A    between atoms: C15_19  and  C16_20 
REMARK    5  A    between atoms: C16_20  and  C17_21 
REMARK    6  A    between atoms: C17_21  and  C18_22 
REMARK    7  A    between atoms: C18_22  and  N2_23 
ROOT
HETATM    1  C4  UNL     1       2.701   6.952  11.710  1.00  0.00     0.060 A 
HETATM    2  C5  UNL     1       3.125   7.451  12.958  1.00  0.00     0.026 A 
HETATM    3  C6  UNL     1       2.327   7.277  14.093  1.00  0.00     0.032 A 
HETATM    4  C7  UNL     1       1.123   6.621  13.929  1.00  0.00     0.046 A 
HETATM    5  C8  UNL     1       0.682   6.141  12.692  1.00  0.00     0.008 A 
HETATM    6  C9  UNL     1       1.462   6.310  11.561  1.00  0.00     0.038 A 
HETATM    7  C10 UNL     1      -0.640   5.526  12.928  1.00  0.00     0.047 A 
HETATM    8  C11 UNL     1      -1.359   4.954  11.948  1.00  0.00     0.048 C 
HETATM    9  C25 UNL     1      -0.921   5.696  14.402  1.00  0.00     0.257 A 
HETATM   10  O3  UNL     1      -1.899   5.339  15.033  1.00  0.00    -0.267 OA
HETATM   11  N3  UNL     1       0.183   6.354  14.916  1.00  0.00    -0.322 N 
HETATM   12  H33 UNL     1       0.260   6.603  15.890  1.00  0.00     0.169 HD
ENDROOT
BRANCH   8  13
HETATM   13  C12 UNL     1      -2.641   4.337  11.995  1.00  0.00     0.040 A 
HETATM   14  N1  UNL     1      -2.844   3.028  11.617  1.00  0.00    -0.359 N 
HETATM   15  C13 UNL     1      -4.158   2.698  11.771  1.00  0.00     0.016 A 
HETATM   16  H12 UNL     1      -2.128   2.393  11.276  1.00  0.00     0.166 HD
HETATM   17  C14 UNL     1      -4.834   3.797  12.251  1.00  0.00    -0.027 A 
HETATM   18  C24 UNL     1      -4.735   1.357  11.490  1.00  0.00     0.057 C 
HETATM   19  C15 UNL     1      -3.878   4.844  12.404  1.00  0.00    -0.023 A 
HETATM   20  C21 UNL     1      -6.304   3.775  12.508  1.00  0.00     0.041 C 
HETATM   21  C22 UNL     1      -6.842   2.330  12.557  1.00  0.00     0.005 C 
HETATM   22  C23 UNL     1      -6.271   1.457  11.425  1.00  0.00     0.006 C 
BRANCH  19  23
HETATM   23  C16 UNL     1      -4.168   6.229  12.904  1.00  0.00     0.043 C 
BRANCH  23  24
HETATM   24  C17 UNL     1      -5.626   6.442  13.330  1.00  0.00     0.035 C 
BRANCH  24  25
HETATM   25  C18 UNL     1      -5.795   6.493  14.856  1.00  0.00     0.271 C 
BRANCH  25  26
HETATM   26  N2  UNL     1      -7.148   6.235  15.376  1.00  0.00     0.080 N 
HETATM   27  C19 UNL     1      -7.410   6.943  16.627  1.00  0.00     0.309 C 
HETATM   28  C20 UNL     1      -8.200   6.490  14.399  1.00  0.00     0.309 C 
ENDBRANCH  25  26
ENDBRANCH  24  25
ENDBRANCH  23  24
ENDBRANCH  19  23
ENDBRANCH   8  13
BRANCH   1  29
HETATM   29  S1  UNL     1       3.715   7.222  10.268  1.00  0.00     0.178 S 
HETATM   30  O1  UNL     1       4.305   8.541  10.417  1.00  0.00    -0.222 OA
HETATM   31  O2  UNL     1       4.572   6.059  10.132  1.00  0.00    -0.222 OA
BRANCH  29  32
HETATM   32  C2  UNL     1       2.591   7.259   8.872  1.00  0.00     0.105 C 
HETATM   33  C1  UNL     1       2.681   5.997   8.020  1.00  0.00     0.026 C 
HETATM   34  C3  UNL     1       2.770   8.509   8.017  1.00  0.00     0.026 C 
ENDBRANCH  29  32
ENDBRANCH   1  29
TORSDOF 7
ENDMDL
MODEL 2
REMARK minimizedAffinity -9.17763042
REMARK  7 active torsions:
REMARK  status: ('A' for Active; 'I' for Inactive)
REMARK    1  A    between atoms: C2_2  and  S1_4 
REMARK    2  A    between atoms: S1_4  and  C4_7 
REMARK    3  A    between atoms: C11_14  and  C12_15 
REMARK    4  A    between atoms: C15_19  and  C16_20 
REMARK    5  A    between atoms: C16_20  and  C17_21 
REMARK    6  A    between atoms: C17_21  and  C18_22 
REMARK    7  A    between atoms: C18_22  and  N2_23 
ROOT
HETATM    1  C4  UNL     1       2.191   6.469  10.919  1.00  0.00     0.060 A 
HETATM    2  C5  UNL     1       2.926   6.892  12.045  1.00  0.00     0.026 A 
HETATM    3  C6  UNL     1       2.352   6.842  13.318  1.00  0.00     0.032 A 
HETATM    4  C7  UNL     1       1.053   6.384  13.413  1.00  0.00     0.046 A 
HETATM    5  C8  UNL     1       0.307   5.983  12.300  1.00  0.00     0.008 A 
HETATM    6  C9  UNL     1       0.863   6.030  11.034  1.00  0.00     0.038 A 
HETATM    7  C10 UNL     1      -1.021   5.583  12.809  1.00  0.00     0.047 A 
HETATM    8  C11 UNL     1      -1.999   5.134  12.006  1.00  0.00     0.048 C 
HETATM    9  C25 UNL     1      -0.975   5.790  14.304  1.00  0.00     0.257 A 
HETATM   10  O3  UNL     1      -1.850   5.589  15.125  1.00  0.00    -0.267 OA
HETATM   11  N3  UNL     1       0.298   6.265  14.572  1.00  0.00    -0.322 N 
HETATM   12  H33 UNL     1       0.605   6.496  15.505  1.00  0.00     0.169 HD
ENDROOT
BRANCH   8  13
HETATM   13  C12 UNL     1      -3.327   4.726  12.322  1.00  0.00     0.040 A 
HETATM   14  N1  UNL     1      -3.868   3.551  11.851  1.00  0.00    -0.359 N 
HETATM   15  C13 UNL     1      -5.144   3.408  12.313  1.00  0.00     0.016 A 
HETATM   16  H12 UNL     1      -3.397   2.880  11.251  1.00  0.00     0.166 HD
HETATM   17  C14 UNL     1      -5.452   4.498  13.094  1.00  0.00    -0.027 A 
HETATM   18  C24 UNL     1      -6.023   2.242  12.033  1.00  0.00     0.057 C 
HETATM   19  C15 UNL     1      -4.302   5.341  13.112  1.00  0.00    -0.023 A 
HETATM   20  C21 UNL     1      -6.790   4.662  13.736  1.00  0.00     0.041 C 
HETATM   21  C22 UNL     1      -7.571   3.333  13.747  1.00  0.00     0.005 C 
HETATM   22  C23 UNL     1      -7.478   2.591  12.401  1.00  0.00     0.006 C 
BRANCH  19  23
HETATM   23  C16 UNL     1      -4.184   6.647  13.844  1.00  0.00     0.043 C 
BRANCH  23  24
HETATM   24  C17 UNL     1      -3.839   7.835  12.938  1.00  0.00     0.035 C 
BRANCH  24  25
HETATM   25  C18 UNL     1      -3.134   8.971  13.696  1.00  0.00     0.271 C 
BRANCH  25  26
HETATM   26  N2  UNL     1      -1.965   9.574  13.035  1.00  0.00     0.080 N 
HETATM   27  C19 UNL     1      -0.804   9.656  13.919  1.00  0.00     0.309 C 
HETATM   28  C20 UNL     1      -1.618   8.929  11.773  1.00  0.00     0.309 C 
ENDBRANCH  25  26
ENDBRANCH  24  25
ENDBRANCH  23  24
ENDBRANCH  19  23
ENDBRANCH   8  13
BRANCH   1  29
HETATM   29  S1  UNL     1       2.928   6.582   9.299  1.00  0.00     0.178 S 
HETATM   30  O1  UNL     1       4.289   7.049   9.493  1.00  0.00    -0.222 OA
HETATM   31  O2  UNL     1       2.688   5.311   8.638  1.00  0.00    -0.222 OA
BRANCH  29  32
HETATM   32  C2  UNL     1       2.012   7.851   8.425  1.00  0.00     0.105 C 
HETATM   33  C1  UNL     1       0.675   8.164   9.088  1.00  0.00     0.026 C 
HETATM   34  C3  UNL     1       1.825   7.518   6.948  1.00  0.00     0.026 C 
ENDBRANCH  29  32
ENDBRANCH   1  29
TORSDOF 7
ENDMDL
MODEL 3
REMARK minimizedAffinity -9.11151218
REMARK  7 active torsions:
REMARK  status: ('A' for Active; 'I' for Inactive)
REMARK    1  A    between atoms: C2_2  and  S1_4 
REMARK    2  A    between atoms: S1_4  and  C4_7 
REMARK    3  A    between atoms: C11_14  and  C12_15 
REMARK    4  A    between atoms: C15_19  and  C16_20 
REMARK    5  A    between atoms: C16_20  and  C17_21 
REMARK    6  A    between atoms: C17_21  and  C18_22 
REMARK    7  A    between atoms: C18_22  and  N2_23 
ROOT
HETATM    1  C4  UNL     1       2.132   6.813  11.204  1.00  0.00     0.060 A 
HETATM    2  C5  UNL     1       2.935   7.358  12.227  1.00  0.00     0.026 A 
HETATM    3  C6  UNL     1       2.390   7.610  13.489  1.00  0.00     0.032 A 
HETATM    4  C7  UNL     1       1.053   7.322  13.674  1.00  0.00     0.046 A 
HETATM    5  C8  UNL     1       0.241   6.801  12.660  1.00  0.00     0.008 A 
HETATM    6  C9  UNL     1       0.769   6.550  11.405  1.00  0.00     0.038 A 
HETATM    7  C10 UNL     1      -1.109   6.650  13.240  1.00  0.00     0.047 A 
HETATM    8  C11 UNL     1      -2.148   6.167  12.541  1.00  0.00     0.048 C 
HETATM    9  C25 UNL     1      -1.004   7.128  14.669  1.00  0.00     0.257 A 
HETATM   10  O3  UNL     1      -1.876   7.181  15.517  1.00  0.00    -0.267 OA
HETATM   11  N3  UNL     1       0.317   7.505  14.838  1.00  0.00    -0.322 N 
HETATM   12  H33 UNL     1       0.670   7.872  15.709  1.00  0.00     0.169 HD
ENDROOT
BRANCH   8  13
HETATM   13  C12 UNL     1      -3.503   5.971  12.934  1.00  0.00     0.040 A 
HETATM   14  N1  UNL     1      -4.277   6.989  13.443  1.00  0.00    -0.359 N 
HETATM   15  C13 UNL     1      -5.528   6.525  13.726  1.00  0.00     0.016 A 
HETATM   16  H12 UNL     1      -3.974   7.947  13.588  1.00  0.00     0.166 HD
HETATM   17  C14 UNL     1      -5.584   5.188  13.404  1.00  0.00    -0.027 A 
HETATM   18  C24 UNL     1      -6.641   7.355  14.261  1.00  0.00     0.057 C 
HETATM   19  C15 UNL     1      -4.303   4.825  12.894  1.00  0.00    -0.023 A 
HETATM   20  C21 UNL     1      -6.815   4.371  13.616  1.00  0.00     0.041 C 
HETATM   21  C22 UNL     1      -8.051   5.268  13.833  1.00  0.00     0.005 C 
HETATM   22  C23 UNL     1      -7.761   6.439  14.790  1.00  0.00     0.006 C 
BRANCH  19  23
HETATM   23  C16 UNL     1      -3.905   3.459  12.415  1.00  0.00     0.043 C 
BRANCH  23  24
HETATM   24  C17 UNL     1      -3.779   3.349  10.891  1.00  0.00     0.035 C 
BRANCH  24  25
HETATM   25  C18 UNL     1      -2.324   3.180  10.429  1.00  0.00     0.271 C 
BRANCH  25  26
HETATM   26  N2  UNL     1      -1.441   2.398  11.311  1.00  0.00     0.080 N 
HETATM   27  C19 UNL     1      -1.101   1.094  10.746  1.00  0.00     0.309 C 
HETATM   28  C20 UNL     1      -0.242   3.123  11.716  1.00  0.00     0.309 C 
ENDBRANCH  25  26
ENDBRANCH  24  25
ENDBRANCH  23  24
ENDBRANCH  19  23
ENDBRANCH   8  13
BRANCH   1  29
HETATM   29  S1  UNL     1       2.837   6.539   9.589  1.00  0.00     0.178 S 
HETATM   30  O1  UNL     1       4.265   6.777   9.713  1.00  0.00    -0.222 OA
HETATM   31  O2  UNL     1       2.357   5.247   9.134  1.00  0.00    -0.222 OA
BRANCH  29  32
HETATM   32  C2  UNL     1       2.143   7.804   8.525  1.00  0.00     0.105 C 
HETATM   33  C1  UNL     1       0.791   8.303   9.020  1.00  0.00     0.026 C 
HETATM   34  C3  UNL     1       2.060   7.354   7.069  1.00  0.00     0.026 C 
ENDBRANCH  29  32
ENDBRANCH   1  29
TORSDOF 7
ENDMDL
MODEL 4
REMARK minimizedAffinity -9.0071125
REMARK  7 active torsions:
REMARK  status: ('A' for Active; 'I' for Inactive)
REMARK    1  A    between atoms: C2_2  and  S1_4 
REMARK    2  A    between atoms: S1_4  and  C4_7 
REMARK    3  A    between atoms: C11_14  and  C12_15 
REMARK    4  A    between atoms: C15_19  and  C16_20 
REMARK    5  A    between atoms: C16_20  and  C17_21 
REMARK    6  A    between atoms: C17_21  and  C18_22 
REMARK    7  A    between atoms: C18_22  and  N2_23 
ROOT
HETATM    1  C4  UNL     1      -5.833   3.613  12.437  1.00  0.00     0.060 A 
HETATM    2  C5  UNL     1      -5.778   2.359  11.795  1.00  0.00     0.026 A 
HETATM    3  C6  UNL     1      -4.552   1.840  11.371  1.00  0.00     0.032 A 
HETATM    4  C7  UNL     1      -3.426   2.607  11.590  1.00  0.00     0.046 A 
HETATM    5  C8  UNL     1      -3.471   3.863  12.206  1.00  0.00     0.008 A 
HETATM    6  C9  UNL     1      -4.680   4.388  12.629  1.00  0.00     0.038 A 
HETATM    7  C10 UNL     1      -2.081   4.363  12.240  1.00  0.00     0.047 A 
HETATM    8  C11 UNL     1      -1.752   5.551  12.772  1.00  0.00     0.048 C 
HETATM    9  C25 UNL     1      -1.237   3.292  11.591  1.00  0.00     0.257 A 
HETATM   10  O3  UNL     1      -0.034   3.284  11.405  1.00  0.00    -0.267 OA
HETATM   11  N3  UNL     1      -2.121   2.286  11.240  1.00  0.00    -0.322 N 
HETATM   12  H33 UNL     1      -1.824   1.439  10.779  1.00  0.00     0.169 HD
ENDROOT
BRANCH   8  13
HETATM   13  C12 UNL     1      -0.481   6.187  12.873  1.00  0.00     0.040 A 
HETATM   14  N1  UNL     1       0.170   6.346  14.076  1.00  0.00    -0.359 N 
HETATM   15  C13 UNL     1       1.363   6.977  13.879  1.00  0.00     0.016 A 
HETATM   16  H12 UNL     1      -0.176   6.041  14.981  1.00  0.00     0.166 HD
HETATM   17  C14 UNL     1       1.503   7.241  12.536  1.00  0.00    -0.027 A 
HETATM   18  C24 UNL     1       2.346   7.286  14.951  1.00  0.00     0.057 C 
HETATM   19  C15 UNL     1       0.339   6.738  11.885  1.00  0.00    -0.023 A 
HETATM   20  C21 UNL     1       2.698   7.949  11.987  1.00  0.00     0.041 C 
HETATM   21  C22 UNL     1       3.856   7.963  13.005  1.00  0.00     0.005 C 
HETATM   22  C23 UNL     1       3.378   8.303  14.428  1.00  0.00     0.006 C 
BRANCH  19  23
HETATM   23  C16 UNL     1       0.061   6.805  10.411  1.00  0.00     0.043 C 
BRANCH  23  24
HETATM   24  C17 UNL     1       0.168   8.217   9.824  1.00  0.00     0.035 C 
BRANCH  24  25
HETATM   25  C18 UNL     1       0.473   8.210   8.318  1.00  0.00     0.271 C 
BRANCH  25  26
HETATM   26  N2  UNL     1       1.741   7.585   7.907  1.00  0.00     0.080 N 
HETATM   27  C19 UNL     1       1.690   7.061   6.544  1.00  0.00     0.309 C 
HETATM   28  C20 UNL     1       2.899   8.453   8.092  1.00  0.00     0.309 C 
ENDBRANCH  25  26
ENDBRANCH  24  25
ENDBRANCH  23  24
ENDBRANCH  19  23
ENDBRANCH   8  13
BRANCH   1  29
HETATM   29  S1  UNL     1      -7.413   4.274  12.933  1.00  0.00     0.178 S 
HETATM   30  O1  UNL     1      -7.847   5.158  11.866  1.00  0.00    -0.222 OA
HETATM   31  O2  UNL     1      -8.240   3.145  13.317  1.00  0.00    -0.222 OA
BRANCH  29  32
HETATM   32  C2  UNL     1      -7.099   5.264  14.395  1.00  0.00     0.105 C 
HETATM   33  C1  UNL     1      -8.094   6.409  14.546  1.00  0.00     0.026 C 
HETATM   34  C3  UNL     1      -5.663   5.777  14.449  1.00  0.00     0.026 C 
ENDBRANCH  29  32
ENDBRANCH   1  29
TORSDOF 7
ENDMDL
MODEL 5
REMARK minimizedAffinity -8.84995365
REMARK  7 active torsions:
REMARK  status: ('A' for Active; 'I' for Inactive)
REMARK    1  A    between atoms: C2_2  and  S1_4 
REMARK    2  A    between atoms: S1_4  and  C4_7 
REMARK    3  A    between atoms: C11_14  and  C12_15 
REMARK    4  A    between atoms: C15_19  and  C16_20 
REMARK    5  A    between atoms: C16_20  and  C17_21 
REMARK    6  A    between atoms: C17_21  and  C18_22 
REMARK    7  A    between atoms: C18_22  and  N2_23 
ROOT
HETATM    1  C4  UNL     1      -6.223   3.416  12.331  1.00  0.00     0.060 A 
HETATM    2  C5  UNL     1      -6.327   2.084  11.881  1.00  0.00     0.026 A 
HETATM    3  C6  UNL     1      -5.184   1.388  11.477  1.00  0.00     0.032 A 
HETATM    4  C7  UNL     1      -3.979   2.061  11.523  1.00  0.00     0.046 A 
HETATM    5  C8  UNL     1      -3.868   3.389  11.947  1.00  0.00     0.008 A 
HETATM    6  C9  UNL     1      -4.993   4.090  12.348  1.00  0.00     0.038 A 
HETATM    7  C10 UNL     1      -2.439   3.746  11.836  1.00  0.00     0.047 A 
HETATM    8  C11 UNL     1      -1.967   4.958  12.169  1.00  0.00     0.048 C 
HETATM    9  C25 UNL     1      -1.741   2.513  11.312  1.00  0.00     0.257 A 
HETATM   10  O3  UNL     1      -0.559   2.356  11.069  1.00  0.00    -0.267 OA
HETATM   11  N3  UNL     1      -2.736   1.562  11.159  1.00  0.00    -0.322 N 
HETATM   12  H33 UNL     1      -2.549   0.633  10.815  1.00  0.00     0.169 HD
ENDROOT
BRANCH   8  13
HETATM   13  C12 UNL     1      -0.639   5.470  12.110  1.00  0.00     0.040 A 
HETATM   14  N1  UNL     1       0.145   5.358  10.984  1.00  0.00    -0.359 N 
HETATM   15  C13 UNL     1       1.360   5.939  11.203  1.00  0.00     0.016 A 
HETATM   16  H12 UNL     1      -0.130   4.914  10.113  1.00  0.00     0.166 HD
HETATM   17  C14 UNL     1       1.383   6.437  12.486  1.00  0.00    -0.027 A 
HETATM   18  C24 UNL     1       2.449   6.035  10.195  1.00  0.00     0.057 C 
HETATM   19  C15 UNL     1       0.116   6.150  13.072  1.00  0.00    -0.023 A 
HETATM   20  C21 UNL     1       2.586   7.117  13.051  1.00  0.00     0.041 C 
HETATM   21  C22 UNL     1       3.571   7.528  11.938  1.00  0.00     0.005 C 
HETATM   22  C23 UNL     1       3.769   6.413  10.894  1.00  0.00     0.006 C 
BRANCH  19  23
HETATM   23  C16 UNL     1      -0.309   6.512  14.465  1.00  0.00     0.043 C 
BRANCH  23  24
HETATM   24  C17 UNL     1      -1.788   6.232  14.755  1.00  0.00     0.035 C 
BRANCH  24  25
HETATM   25  C18 UNL     1      -2.625   7.517  14.850  1.00  0.00     0.271 C 
BRANCH  25  26
HETATM   26  N2  UNL     1      -2.709   8.338  13.631  1.00  0.00     0.080 N 
HETATM   27  C19 UNL     1      -4.055   8.360  13.064  1.00  0.00     0.309 C 
HETATM   28  C20 UNL     1      -2.193   9.691  13.810  1.00  0.00     0.309 C 
ENDBRANCH  25  26
ENDBRANCH  24  25
ENDBRANCH  23  24
ENDBRANCH  19  23
ENDBRANCH   8  13
BRANCH   1  29
HETATM   29  S1  UNL     1      -7.699   4.298  12.803  1.00  0.00     0.178 S 
HETATM   30  O1  UNL     1      -8.020   5.190  11.702  1.00  0.00    -0.222 OA
HETATM   31  O2  UNL     1      -8.666   3.303  13.231  1.00  0.00    -0.222 OA
BRANCH  29  32
HETATM   32  C2  UNL     1      -7.249   5.293  14.224  1.00  0.00     0.105 C 
HETATM   33  C1  UNL     1      -7.597   4.612  15.544  1.00  0.00     0.026 C 
HETATM   34  C3  UNL     1      -7.844   6.697  14.161  1.00  0.00     0.026 C 
ENDBRANCH  29  32
ENDBRANCH   1  29
TORSDOF 7
ENDMDL
MODEL 6
REMARK minimizedAffinity -8.6628952
REMARK  7 active torsions:
REMARK  status: ('A' for Active; 'I' for Inactive)
REMARK    1  A    between atoms: C2_2  and  S1_4 
REMARK    2  A    between atoms: S1_4  and  C4_7 
REMARK    3  A    between atoms: C11_14  and  C12_15 
REMARK    4  A    between atoms: C15_19  and  C16_20 
REMARK    5  A    between atoms: C16_20  and  C17_21 
REMARK    6  A    between atoms: C17_21  and  C18_22 
REMARK    7  A    between atoms: C18_22  and  N2_23 
ROOT
HETATM    1  C4  UNL     1      -6.153   4.688  13.208  1.00  0.00     0.060 A 
HETATM    2  C5  UNL     1      -6.561   3.455  12.658  1.00  0.00     0.026 A 
HETATM    3  C6  UNL     1      -5.649   2.666  11.951  1.00  0.00     0.032 A 
HETATM    4  C7  UNL     1      -4.365   3.151  11.807  1.00  0.00     0.046 A 
HETATM    5  C8  UNL     1      -3.955   4.382  12.329  1.00  0.00     0.008 A 
HETATM    6  C9  UNL     1      -4.849   5.174  13.029  1.00  0.00     0.038 A 
HETATM    7  C10 UNL     1      -2.536   4.546  11.953  1.00  0.00     0.047 A 
HETATM    8  C11 UNL     1      -1.815   5.625  12.298  1.00  0.00     0.048 C 
HETATM    9  C25 UNL     1      -2.167   3.308  11.170  1.00  0.00     0.257 A 
HETATM   10  O3  UNL     1      -1.098   3.021  10.666  1.00  0.00    -0.267 OA
HETATM   11  N3  UNL     1      -3.315   2.535  11.138  1.00  0.00    -0.322 N 
HETATM   12  H33 UNL     1      -3.355   1.643  10.669  1.00  0.00     0.169 HD
ENDROOT
BRANCH   8  13
HETATM   13  C12 UNL     1      -0.458   5.948  12.010  1.00  0.00     0.040 A 
HETATM   14  N1  UNL     1       0.236   5.360  10.976  1.00  0.00    -0.359 N 
HETATM   15  C13 UNL     1       1.505   5.859  10.925  1.00  0.00     0.016 A 
HETATM   16  H12 UNL     1      -0.132   4.660  10.339  1.00  0.00     0.166 HD
HETATM   17  C14 UNL     1       1.654   6.783  11.933  1.00  0.00    -0.027 A 
HETATM   18  C24 UNL     1       2.527   5.476   9.915  1.00  0.00     0.057 C 
HETATM   19  C15 UNL     1       0.411   6.853  12.627  1.00  0.00    -0.023 A 
HETATM   20  C21 UNL     1       2.942   7.502  12.167  1.00  0.00     0.041 C 
HETATM   21  C22 UNL     1       3.878   7.383  10.948  1.00  0.00     0.005 C 
HETATM   22  C23 UNL     1       3.916   5.952  10.380  1.00  0.00     0.006 C 
BRANCH  19  23
HETATM   23  C16 UNL     1       0.112   7.736  13.804  1.00  0.00     0.043 C 
BRANCH  23  24
HETATM   24  C17 UNL     1      -0.336   6.969  15.055  1.00  0.00     0.035 C 
BRANCH  24  25
HETATM   25  C18 UNL     1      -0.827   7.900  16.174  1.00  0.00     0.271 C 
BRANCH  25  26
HETATM   26  N2  UNL     1      -2.283   8.099  16.272  1.00  0.00     0.080 N 
HETATM   27  C19 UNL     1      -2.706   9.392  15.738  1.00  0.00     0.309 C 
HETATM   28  C20 UNL     1      -3.055   7.011  15.683  1.00  0.00     0.309 C 
ENDBRANCH  25  26
ENDBRANCH  24  25
ENDBRANCH  23  24
ENDBRANCH  19  23
ENDBRANCH   8  13
BRANCH   1  29
HETATM   29  S1  UNL     1      -7.343   5.698  14.070  1.00  0.00     0.178 S 
HETATM   30  O1  UNL     1      -7.577   5.061  15.354  1.00  0.00    -0.222 OA
HETATM   31  O2  UNL     1      -6.851   7.063  14.020  1.00  0.00    -0.222 OA
BRANCH  29  32
HETATM   32  C2  UNL     1      -8.855   5.611  13.110  1.00  0.00     0.105 C 
HETATM   33  C1  UNL     1      -8.612   5.835  11.622  1.00  0.00     0.026 C 
HETATM   34  C3  UNL     1      -9.931   6.555  13.636  1.00  0.00     0.026 C 
ENDBRANCH  29  32
ENDBRANCH   1  29
TORSDOF 7
ENDMDL
MODEL 7
REMARK minimizedAffinity -8.64760399
REMARK  7 active torsions:
REMARK  status: ('A' for Active; 'I' for Inactive)
REMARK    1  A    between atoms: C2_2  and  S1_4 
REMARK    2  A    between atoms: S1_4  and  C4_7 
REMARK    3  A    between atoms: C11_14  and  C12_15 
REMARK    4  A    between atoms: C15_19  and  C16_20 
REMARK    5  A    between atoms: C16_20  and  C17_21 
REMARK    6  A    between atoms: C17_21  and  C18_22 
REMARK    7  A    between atoms: C18_22  and  N2_23 
ROOT
HETATM    1  C4  UNL     1      -2.620   3.309  11.803  1.00  0.00     0.060 A 
HETATM    2  C5  UNL     1      -2.922   1.978  11.451  1.00  0.00     0.026 A 
HETATM    3  C6  UNL     1      -4.234   1.505  11.551  1.00  0.00     0.032 A 
HETATM    4  C7  UNL     1      -5.192   2.381  12.019  1.00  0.00     0.046 A 
HETATM    5  C8  UNL     1      -4.900   3.698  12.392  1.00  0.00     0.008 A 
HETATM    6  C9  UNL     1      -3.605   4.177  12.299  1.00  0.00     0.038 A 
HETATM    7  C10 UNL     1      -6.172   4.296  12.847  1.00  0.00     0.047 A 
HETATM    8  C11 UNL     1      -6.262   5.565  13.277  1.00  0.00     0.048 C 
HETATM    9  C25 UNL     1      -7.216   3.214  12.706  1.00  0.00     0.257 A 
HETATM   10  O3  UNL     1      -8.403   3.267  12.966  1.00  0.00    -0.267 OA
HETATM   11  N3  UNL     1      -6.542   2.113  12.204  1.00  0.00    -0.322 N 
HETATM   12  H33 UNL     1      -7.003   1.236  12.014  1.00  0.00     0.169 HD
ENDROOT
BRANCH   8  13
HETATM   13  C12 UNL     1      -7.390   6.289  13.760  1.00  0.00     0.040 A 
HETATM   14  N1  UNL     1      -8.653   6.119  13.238  1.00  0.00    -0.359 N 
HETATM   15  C13 UNL     1      -9.537   6.927  13.890  1.00  0.00     0.016 A 
HETATM   16  H12 UNL     1      -8.902   5.487  12.483  1.00  0.00     0.166 HD
HETATM   17  C14 UNL     1      -8.856   7.641  14.849  1.00  0.00    -0.027 A 
HETATM   18  C24 UNL     1     -10.998   6.985  13.614  1.00  0.00     0.057 C 
HETATM   19  C15 UNL     1      -7.490   7.239  14.780  1.00  0.00    -0.023 A 
HETATM   20  C21 UNL     1      -9.534   8.640  15.727  1.00  0.00     0.041 C 
HETATM   21  C22 UNL     1     -11.066   8.461  15.697  1.00  0.00     0.005 C 
HETATM   22  C23 UNL     1     -11.599   8.242  14.269  1.00  0.00     0.006 C 
BRANCH  19  23
HETATM   23  C16 UNL     1      -6.378   7.758  15.646  1.00  0.00     0.043 C 
BRANCH  23  24
HETATM   24  C17 UNL     1      -5.490   8.800  14.955  1.00  0.00     0.035 C 
BRANCH  24  25
HETATM   25  C18 UNL     1      -4.447   9.410  15.904  1.00  0.00     0.271 C 
BRANCH  25  26
HETATM   26  N2  UNL     1      -3.041   9.325  15.477  1.00  0.00     0.080 N 
HETATM   27  C19 UNL     1      -2.273   8.369  16.272  1.00  0.00     0.309 C 
HETATM   28  C20 UNL     1      -2.886   9.063  14.050  1.00  0.00     0.309 C 
ENDBRANCH  25  26
ENDBRANCH  24  25
ENDBRANCH  23  24
ENDBRANCH  19  23
ENDBRANCH   8  13
BRANCH   1  29
HETATM   29  S1  UNL     1      -0.933   3.880  11.707  1.00  0.00     0.178 S 
HETATM   30  O1  UNL     1      -0.101   2.696  11.586  1.00  0.00    -0.222 OA
HETATM   31  O2  UNL     1      -0.892   4.899  10.675  1.00  0.00    -0.222 OA
BRANCH  29  32
HETATM   32  C2  UNL     1      -0.584   4.660  13.283  1.00  0.00     0.105 C 
HETATM   33  C1  UNL     1      -1.790   5.405  13.842  1.00  0.00     0.026 C 
HETATM   34  C3  UNL     1       0.640   5.569  13.220  1.00  0.00     0.026 C 
ENDBRANCH  29  32
ENDBRANCH   1  29
TORSDOF 7
ENDMDL
MODEL 8
REMARK minimizedAffinity -8.45600033
REMARK  7 active torsions:
REMARK  status: ('A' for Active; 'I' for Inactive)
REMARK    1  A    between atoms: C2_2  and  S1_4 
REMARK    2  A    between atoms: S1_4  and  C4_7 
REMARK    3  A    between atoms: C11_14  and  C12_15 
REMARK    4  A    between atoms: C15_19  and  C16_20 
REMARK    5  A    between atoms: C16_20  and  C17_21 
REMARK    6  A    between atoms: C17_21  and  C18_22 
REMARK    7  A    between atoms: C18_22  and  N2_23 
ROOT
HETATM    1  C4  UNL     1     -11.221   8.257  14.383  1.00  0.00     0.060 A 
HETATM    2  C5  UNL     1     -11.185   8.687  15.725  1.00  0.00     0.026 A 
HETATM    3  C6  UNL     1     -10.088   8.372  16.533  1.00  0.00     0.032 A 
HETATM    4  C7  UNL     1      -9.076   7.622  15.969  1.00  0.00     0.046 A 
HETATM    5  C8  UNL     1      -9.112   7.172  14.645  1.00  0.00     0.008 A 
HETATM    6  C9  UNL     1     -10.193   7.475  13.835  1.00  0.00     0.038 A 
HETATM    7  C10 UNL     1      -7.871   6.400  14.430  1.00  0.00     0.047 A 
HETATM    8  C11 UNL     1      -7.571   5.822  13.256  1.00  0.00     0.048 C 
HETATM    9  C25 UNL     1      -7.122   6.444  15.741  1.00  0.00     0.257 A 
HETATM   10  O3  UNL     1      -6.049   5.940  16.019  1.00  0.00    -0.267 OA
HETATM   11  N3  UNL     1      -7.912   7.194  16.595  1.00  0.00    -0.322 N 
HETATM   12  H33 UNL     1      -7.652   7.382  17.551  1.00  0.00     0.169 HD
ENDROOT
BRANCH   8  13
HETATM   13  C12 UNL     1      -6.441   5.039  12.885  1.00  0.00     0.040 A 
HETATM   14  N1  UNL     1      -6.557   3.741  12.441  1.00  0.00    -0.359 N 
HETATM   15  C13 UNL     1      -5.323   3.237  12.149  1.00  0.00     0.016 A 
HETATM   16  H12 UNL     1      -7.427   3.226  12.338  1.00  0.00     0.166 HD
HETATM   17  C14 UNL     1      -4.381   4.206  12.405  1.00  0.00    -0.027 A 
HETATM   18  C24 UNL     1      -5.068   1.873  11.614  1.00  0.00     0.057 C 
HETATM   19  C15 UNL     1      -5.080   5.360  12.868  1.00  0.00    -0.023 A 
HETATM   20  C21 UNL     1      -2.921   3.965  12.211  1.00  0.00     0.041 C 
HETATM   21  C22 UNL     1      -2.671   2.714  11.345  1.00  0.00     0.005 C 
HETATM   22  C23 UNL     1      -3.573   1.534  11.753  1.00  0.00     0.006 C 
BRANCH  19  23
HETATM   23  C16 UNL     1      -4.452   6.664  13.266  1.00  0.00     0.043 C 
BRANCH  23  24
HETATM   24  C17 UNL     1      -2.940   6.578  13.501  1.00  0.00     0.035 C 
BRANCH  24  25
HETATM   25  C18 UNL     1      -2.409   7.730  14.367  1.00  0.00     0.271 C 
BRANCH  25  26
HETATM   26  N2  UNL     1      -2.695   9.094  13.893  1.00  0.00     0.080 N 
HETATM   27  C19 UNL     1      -3.507   9.855  14.840  1.00  0.00     0.309 C 
HETATM   28  C20 UNL     1      -1.498   9.837  13.513  1.00  0.00     0.309 C 
ENDBRANCH  25  26
ENDBRANCH  24  25
ENDBRANCH  23  24
ENDBRANCH  19  23
ENDBRANCH   8  13
BRANCH   1  29
HETATM   29  S1  UNL     1     -12.648   8.634  13.382  1.00  0.00     0.178 S 
HETATM   30  O1  UNL     1     -13.529   9.446  14.202  1.00  0.00    -0.222 OA
HETATM   31  O2  UNL     1     -12.152   9.154  12.121  1.00  0.00    -0.222 OA
BRANCH  29  32
HETATM   32  C2  UNL     1     -13.458   7.066  13.063  1.00  0.00     0.105 C 
HETATM   33  C1  UNL     1     -14.853   7.242  12.472  1.00  0.00     0.026 C 
HETATM   34  C3  UNL     1     -13.497   6.173  14.299  1.00  0.00     0.026 C 
ENDBRANCH  29  32
ENDBRANCH   1  29
TORSDOF 7
ENDMDL
MODEL 9
REMARK minimizedAffinity -8.43266678
REMARK  7 active torsions:
REMARK  status: ('A' for Active; 'I' for Inactive)
REMARK    1  A    between atoms: C2_2  and  S1_4 
REMARK    2  A    between atoms: S1_4  and  C4_7 
REMARK    3  A    between atoms: C11_14  and  C12_15 
REMARK    4  A    between atoms: C15_19  and  C16_20 
REMARK    5  A    between atoms: C16_20  and  C17_21 
REMARK    6  A    between atoms: C17_21  and  C18_22 
REMARK    7  A    between atoms: C18_22  and  N2_23 
ROOT
HETATM    1  C4  UNL     1       2.153   7.362  10.964  1.00  0.00     0.060 A 
HETATM    2  C5  UNL     1       2.917   8.373  11.583  1.00  0.00     0.026 A 
HETATM    3  C6  UNL     1       2.376   9.116  12.637  1.00  0.00     0.032 A 
HETATM    4  C7  UNL     1       1.082   8.829  13.020  1.00  0.00     0.046 A 
HETATM    5  C8  UNL     1       0.307   7.843  12.398  1.00  0.00     0.008 A 
HETATM    6  C9  UNL     1       0.830   7.102  11.352  1.00  0.00     0.038 A 
HETATM    7  C10 UNL     1      -1.006   7.853  13.075  1.00  0.00     0.047 A 
HETATM    8  C11 UNL     1      -2.003   7.022  12.733  1.00  0.00     0.048 C 
HETATM    9  C25 UNL     1      -0.921   8.927  14.133  1.00  0.00     0.257 A 
HETATM   10  O3  UNL     1      -1.774   9.280  14.926  1.00  0.00    -0.267 OA
HETATM   11  N3  UNL     1       0.357   9.450  14.028  1.00  0.00    -0.322 N 
HETATM   12  H33 UNL     1       0.688  10.196  14.621  1.00  0.00     0.169 HD
ENDROOT
BRANCH   8  13
HETATM   13  C12 UNL     1      -3.321   6.909  13.262  1.00  0.00     0.040 A 
HETATM   14  N1  UNL     1      -4.021   7.996  13.735  1.00  0.00    -0.359 N 
HETATM   15  C13 UNL     1      -5.252   7.602  14.172  1.00  0.00     0.016 A 
HETATM   16  H12 UNL     1      -3.683   8.953  13.758  1.00  0.00     0.166 HD
HETATM   17  C14 UNL     1      -5.368   6.243  13.990  1.00  0.00    -0.027 A 
HETATM   18  C24 UNL     1      -6.290   8.515  14.720  1.00  0.00     0.057 C 
HETATM   19  C15 UNL     1      -4.148   5.791  13.406  1.00  0.00    -0.023 A 
HETATM   20  C21 UNL     1      -6.594   5.490  14.390  1.00  0.00     0.041 C 
HETATM   21  C22 UNL     1      -7.783   6.444  14.626  1.00  0.00     0.005 C 
HETATM   22  C23 UNL     1      -7.379   7.691  15.434  1.00  0.00     0.006 C 
BRANCH  19  23
HETATM   23  C16 UNL     1      -3.829   4.373  13.030  1.00  0.00     0.043 C 
BRANCH  23  24
HETATM   24  C17 UNL     1      -3.739   4.139  11.518  1.00  0.00     0.035 C 
BRANCH  24  25
HETATM   25  C18 UNL     1      -4.976   3.419  10.957  1.00  0.00     0.271 C 
BRANCH  25  26
HETATM   26  N2  UNL     1      -5.643   2.463  11.856  1.00  0.00     0.080 N 
HETATM   27  C19 UNL     1      -6.976   2.910  12.255  1.00  0.00     0.309 C 
HETATM   28  C20 UNL     1      -5.683   1.104  11.327  1.00  0.00     0.309 C 
ENDBRANCH  25  26
ENDBRANCH  24  25
ENDBRANCH  23  24
ENDBRANCH  19  23
ENDBRANCH   8  13
BRANCH   1  29
HETATM   29  S1  UNL     1       2.848   6.455   9.594  1.00  0.00     0.178 S 
HETATM   30  O1  UNL     1       4.288   6.456   9.782  1.00  0.00    -0.222 OA
HETATM   31  O2  UNL     1       2.130   5.196   9.517  1.00  0.00    -0.222 OA
BRANCH  29  32
HETATM   32  C2  UNL     1       2.468   7.410   8.125  1.00  0.00     0.105 C 
HETATM   33  C1  UNL     1       1.277   8.341   8.329  1.00  0.00     0.026 C 
HETATM   34  C3  UNL     1       2.268   6.527   6.897  1.00  0.00     0.026 C 
ENDBRANCH  29  32
ENDBRANCH   1  29
TORSDOF 7
ENDMDL
