MODEL 1
REMARK minimizedAffinity -8.37207127
REMARK CNNscore 0.347025752
REMARK CNNaffinity 7.10962486
REMARK  16 active torsions:
REMARK  status: ('A' for Active; 'I' for Inactive)
REMARK    1  A    between atoms: O1_2  and  C2_3 
REMARK    2  A    between atoms: C6_7  and  C7_8 
REMARK    3  A    between atoms: N1_10  and  C9_11 
REMARK    4  A    between atoms: C12_14  and  C13_15 
REMARK    5  A    between atoms: C13_15  and  C14_16 
REMARK    6  A    between atoms: C14_16  and  N2_17 
REMARK    7  A    between atoms: N2_17  and  C16_19 
REMARK    8  A    between atoms: C16_19  and  C17_20 
REMARK    9  A    between atoms: C17_20  and  O2_21 
REMARK   10  A    between atoms: O2_21  and  P1_22 
REMARK   11  A    between atoms: P1_22  and  O4_24 
REMARK   12  A    between atoms: P1_22  and  C18_25 
REMARK   13  A    between atoms: C18_25  and  P2_26 
REMARK   14  A    between atoms: P2_26  and  O6_28 
REMARK   15  A    between atoms: P2_26  and  O7_29 
REMARK   16  A    between atoms: C23_38  and  N5_39 
ROOT
HETATM    1  C9  UNL     1       0.128  51.589 -19.657  1.00  0.00     0.040 A 
HETATM    2  C10 UNL     1       0.690  52.499 -18.753  1.00  0.00     0.030 A 
HETATM    3  C11 UNL     1       0.792  52.185 -17.392  1.00  0.00     0.009 A 
HETATM    4  C12 UNL     1       0.331  50.958 -16.905  1.00  0.00    -0.056 A 
HETATM    5  C19 UNL     1      -0.236  50.049 -17.802  1.00  0.00     0.009 A 
HETATM    6  C20 UNL     1      -0.331  50.356 -19.164  1.00  0.00     0.030 A 
ENDROOT
BRANCH   1   7
HETATM    7  N1  UNL     1       0.030  51.891 -21.057  1.00  0.00    -0.307 N 
HETATM    8  C8  UNL     1      -0.686  51.141 -21.978  1.00  0.00     0.112 A 
HETATM    9  C7  UNL     1      -0.542  51.692 -23.233  1.00  0.00     0.007 A 
HETATM   10  C24 UNL     1       0.271  52.848 -23.100  1.00  0.00     0.059 A 
HETATM   11  C21 UNL     1       0.619  52.950 -21.755  1.00  0.00     0.127 A 
HETATM   12  C23 UNL     1       0.763  53.839 -23.968  1.00  0.00     0.093 A 
HETATM   13  N3  UNL     1       1.374  53.939 -21.231  1.00  0.00    -0.337 N 
HETATM   14  C22 UNL     1       1.787  54.821 -22.151  1.00  0.00     0.183 A 
ATOM     15  H3  UNL     1       1.606  54.007 -20.241  1.00  0.00     0.168 HD
HETATM   16  N4  UNL     1       1.536  54.821 -23.468  1.00  0.00    -0.343 N 
ATOM     17  H4  UNL     1       1.920  55.544 -24.075  1.00  0.00     0.167 HD
BRANCH   9  18
HETATM   18  C6  UNL     1      -1.134  51.100 -24.411  1.00  0.00    -0.021 A 
HETATM   19  C5  UNL     1      -0.388  50.963 -25.584  1.00  0.00     0.012 A 
HETATM   20  C4  UNL     1      -0.967  50.375 -26.708  1.00  0.00     0.004 A 
HETATM   21  C3  UNL     1      -2.289  49.921 -26.665  1.00  0.00     0.037 A 
HETATM   22  C2  UNL     1      -3.041  50.057 -25.496  1.00  0.00     0.069 A 
HETATM   23  C25 UNL     1      -2.458  50.646 -24.371  1.00  0.00     0.049 A 
BRANCH  22  24
HETATM   24  O1  UNL     1      -4.337  49.656 -25.322  1.00  0.00    -0.356 OA
HETATM   25  C1  UNL     1      -4.707  48.405 -25.889  1.00  0.00     0.210 C 
ENDBRANCH  22  24
ENDBRANCH   9  18
BRANCH  12  26
HETATM   26  N5  UNL     1       0.504  53.882 -25.328  1.00  0.00    -0.288 NA
HETATM   27  H29 UNL     1       0.270  52.998 -25.760  1.00  0.00     0.125 HD
HETATM   28  H30 UNL     1       1.171  54.467 -25.814  1.00  0.00     0.125 HD
ENDBRANCH  12  26
ENDBRANCH   1   7
BRANCH   4  29
HETATM   29  C13 UNL     1       0.422  50.635 -15.432  1.00  0.00     0.068 C 
BRANCH  29  30
HETATM   30  C14 UNL     1      -0.917  50.112 -14.882  1.00  0.00     0.276 C 
BRANCH  30  31
HETATM   31  N2  UNL     1      -1.440  50.919 -13.756  1.00  0.00     0.086 N 
HETATM   32  C15 UNL     1      -2.835  51.304 -13.993  1.00  0.00     0.310 C 
BRANCH  31  33
HETATM   33  C16 UNL     1      -0.587  52.113 -13.568  1.00  0.00     0.298 C 
BRANCH  33  34
HETATM   34  C17 UNL     1      -0.268  52.425 -12.099  1.00  0.00     0.208 C 
BRANCH  34  35
HETATM   35  O2  UNL     1      -1.299  53.252 -11.573  1.00  0.00    -0.317 OA
BRANCH  35  36
HETATM   36  P1  UNL     1      -1.006  54.047 -10.200  1.00  0.00     0.249 P 
HETATM   37  O3  UNL     1      -1.271  55.513 -10.293  1.00  0.00    -0.653 OA
BRANCH  36  38
HETATM   38  O4  UNL     1      -2.041  53.306  -9.223  1.00  0.00    -0.329 OA
HETATM   39  H21 UNL     1      -2.953  53.630  -9.351  1.00  0.00     0.220 HD
ENDBRANCH  36  38
BRANCH  36  40
HETATM   40  C18 UNL     1       0.608  53.516  -9.687  1.00  0.00     0.249 C 
BRANCH  40  41
HETATM   41  P2  UNL     1       1.946  54.678  -9.648  1.00  0.00     0.247 P 
HETATM   42  O5  UNL     1       3.307  54.178  -9.309  1.00  0.00    -0.653 OA
BRANCH  41  43
HETATM   43  O6  UNL     1       1.893  55.439 -11.062  1.00  0.00    -0.329 OA
HETATM   44  H24 UNL     1       1.011  55.555 -11.458  1.00  0.00     0.220 HD
ENDBRANCH  41  43
BRANCH  41  45
HETATM   45  O7  UNL     1       1.470  55.880  -8.705  1.00  0.00    -0.329 OA
HETATM   46  H25 UNL     1       2.206  56.499  -8.525  1.00  0.00     0.220 HD
ENDBRANCH  41  45
ENDBRANCH  40  41
ENDBRANCH  36  40
ENDBRANCH  35  36
ENDBRANCH  34  35
ENDBRANCH  33  34
ENDBRANCH  31  33
ENDBRANCH  30  31
ENDBRANCH  29  30
ENDBRANCH   4  29
TORSDOF 16
ENDMDL
MODEL 2
REMARK minimizedAffinity -8.44534874
REMARK CNNscore 0.311988205
REMARK CNNaffinity 7.18763971
REMARK  16 active torsions:
REMARK  status: ('A' for Active; 'I' for Inactive)
REMARK    1  A    between atoms: O1_2  and  C2_3 
REMARK    2  A    between atoms: C6_7  and  C7_8 
REMARK    3  A    between atoms: N1_10  and  C9_11 
REMARK    4  A    between atoms: C12_14  and  C13_15 
REMARK    5  A    between atoms: C13_15  and  C14_16 
REMARK    6  A    between atoms: C14_16  and  N2_17 
REMARK    7  A    between atoms: N2_17  and  C16_19 
REMARK    8  A    between atoms: C16_19  and  C17_20 
REMARK    9  A    between atoms: C17_20  and  O2_21 
REMARK   10  A    between atoms: O2_21  and  P1_22 
REMARK   11  A    between atoms: P1_22  and  O4_24 
REMARK   12  A    between atoms: P1_22  and  C18_25 
REMARK   13  A    between atoms: C18_25  and  P2_26 
REMARK   14  A    between atoms: P2_26  and  O6_28 
REMARK   15  A    between atoms: P2_26  and  O7_29 
REMARK   16  A    between atoms: C23_38  and  N5_39 
ROOT
HETATM    1  C9  UNL     1       0.312  51.793 -19.535  1.00  0.00     0.040 A 
HETATM    2  C10 UNL     1       1.020  52.716 -18.756  1.00  0.00     0.030 A 
HETATM    3  C11 UNL     1       1.185  52.514 -17.380  1.00  0.00     0.009 A 
HETATM    4  C12 UNL     1       0.643  51.388 -16.753  1.00  0.00    -0.056 A 
HETATM    5  C19 UNL     1      -0.070  50.467 -17.525  1.00  0.00     0.009 A 
HETATM    6  C20 UNL     1      -0.229  50.662 -18.902  1.00  0.00     0.030 A 
ENDROOT
BRANCH   1   7
HETATM    7  N1  UNL     1       0.147  51.980 -20.949  1.00  0.00    -0.307 N 
HETATM    8  C8  UNL     1      -0.580  51.138 -21.777  1.00  0.00     0.112 A 
HETATM    9  C7  UNL     1      -0.506  51.592 -23.075  1.00  0.00     0.007 A 
HETATM   10  C24 UNL     1       0.273  52.778 -23.069  1.00  0.00     0.059 A 
HETATM   11  C21 UNL     1       0.671  52.997 -21.752  1.00  0.00     0.127 A 
HETATM   12  C23 UNL     1       0.696  53.711 -24.031  1.00  0.00     0.093 A 
HETATM   13  N3  UNL     1       1.414  54.047 -21.340  1.00  0.00    -0.337 N 
HETATM   14  C22 UNL     1       1.759  54.865 -22.343  1.00  0.00     0.183 A 
ATOM     15  H3  UNL     1       1.684  54.201 -20.369  1.00  0.00     0.168 HD
HETATM   16  N4  UNL     1       1.456  54.752 -23.644  1.00  0.00    -0.343 N 
ATOM     17  H4  UNL     1       1.791  55.437 -24.322  1.00  0.00     0.167 HD
BRANCH   9  18
HETATM   18  C6  UNL     1      -1.125  50.890 -24.177  1.00  0.00    -0.021 A 
HETATM   19  C5  UNL     1      -0.609  51.007 -25.470  1.00  0.00     0.012 A 
HETATM   20  C4  UNL     1      -1.206  50.312 -26.520  1.00  0.00     0.004 A 
HETATM   21  C3  UNL     1      -2.319  49.498 -26.285  1.00  0.00     0.037 A 
HETATM   22  C2  UNL     1      -2.841  49.377 -24.995  1.00  0.00     0.069 A 
HETATM   23  C25 UNL     1      -2.240  50.075 -23.945  1.00  0.00     0.049 A 
BRANCH  22  24
HETATM   24  O1  UNL     1      -3.919  48.617 -24.631  1.00  0.00    -0.356 OA
HETATM   25  C1  UNL     1      -4.918  48.401 -25.619  1.00  0.00     0.210 C 
ENDBRANCH  22  24
ENDBRANCH   9  18
BRANCH  12  26
HETATM   26  N5  UNL     1       0.380  53.638 -25.378  1.00  0.00    -0.288 NA
HETATM   27  H29 UNL     1       0.159  52.716 -25.730  1.00  0.00     0.125 HD
HETATM   28  H30 UNL     1       1.008  54.203 -25.937  1.00  0.00     0.125 HD
ENDBRANCH  12  26
ENDBRANCH   1   7
BRANCH   4  29
HETATM   29  C13 UNL     1       0.804  51.187 -15.264  1.00  0.00     0.068 C 
BRANCH  29  30
HETATM   30  C14 UNL     1       0.229  49.834 -14.808  1.00  0.00     0.276 C 
BRANCH  30  31
HETATM   31  N2  UNL     1      -0.566  49.929 -13.563  1.00  0.00     0.086 N 
HETATM   32  C15 UNL     1       0.214  49.466 -12.410  1.00  0.00     0.310 C 
BRANCH  31  33
HETATM   33  C16 UNL     1      -1.809  49.141 -13.710  1.00  0.00     0.298 C 
BRANCH  33  34
HETATM   34  C17 UNL     1      -3.090  49.987 -13.680  1.00  0.00     0.208 C 
BRANCH  34  35
HETATM   35  O2  UNL     1      -3.377  50.335 -12.331  1.00  0.00    -0.317 OA
BRANCH  35  36
HETATM   36  P1  UNL     1      -3.384  51.899 -11.939  1.00  0.00     0.249 P 
HETATM   37  O3  UNL     1      -3.578  52.806 -13.109  1.00  0.00    -0.653 OA
BRANCH  36  38
HETATM   38  O4  UNL     1      -4.637  51.930 -10.937  1.00  0.00    -0.329 OA
HETATM   39  H21 UNL     1      -5.485  51.928 -11.419  1.00  0.00     0.220 HD
ENDBRANCH  36  38
BRANCH  36  40
HETATM   40  C18 UNL     1      -1.947  52.135 -10.925  1.00  0.00     0.249 C 
BRANCH  40  41
HETATM   41  P2  UNL     1      -1.586  53.740 -10.267  1.00  0.00     0.247 P 
HETATM   42  O5  UNL     1      -1.263  53.856  -8.818  1.00  0.00    -0.653 OA
BRANCH  41  43
HETATM   43  O6  UNL     1      -0.435  54.340 -11.215  1.00  0.00    -0.329 OA
HETATM   44  H24 UNL     1      -0.457  54.068 -12.149  1.00  0.00     0.220 HD
ENDBRANCH  41  43
BRANCH  41  45
HETATM   45  O7  UNL     1      -2.793  54.691 -10.716  1.00  0.00    -0.329 OA
HETATM   46  H25 UNL     1      -2.734  55.565 -10.278  1.00  0.00     0.220 HD
ENDBRANCH  41  45
ENDBRANCH  40  41
ENDBRANCH  36  40
ENDBRANCH  35  36
ENDBRANCH  34  35
ENDBRANCH  33  34
ENDBRANCH  31  33
ENDBRANCH  30  31
ENDBRANCH  29  30
ENDBRANCH   4  29
TORSDOF 16
ENDMDL
MODEL 3
REMARK minimizedAffinity -7.72318363
REMARK CNNscore 0.298132181
REMARK CNNaffinity 7.15620041
REMARK  16 active torsions:
REMARK  status: ('A' for Active; 'I' for Inactive)
REMARK    1  A    between atoms: O1_2  and  C2_3 
REMARK    2  A    between atoms: C6_7  and  C7_8 
REMARK    3  A    between atoms: N1_10  and  C9_11 
REMARK    4  A    between atoms: C12_14  and  C13_15 
REMARK    5  A    between atoms: C13_15  and  C14_16 
REMARK    6  A    between atoms: C14_16  and  N2_17 
REMARK    7  A    between atoms: N2_17  and  C16_19 
REMARK    8  A    between atoms: C16_19  and  C17_20 
REMARK    9  A    between atoms: C17_20  and  O2_21 
REMARK   10  A    between atoms: O2_21  and  P1_22 
REMARK   11  A    between atoms: P1_22  and  O4_24 
REMARK   12  A    between atoms: P1_22  and  C18_25 
REMARK   13  A    between atoms: C18_25  and  P2_26 
REMARK   14  A    between atoms: P2_26  and  O6_28 
REMARK   15  A    between atoms: P2_26  and  O7_29 
REMARK   16  A    between atoms: C23_38  and  N5_39 
ROOT
HETATM    1  C9  UNL     1      -1.536  50.440 -20.306  1.00  0.00     0.040 A 
HETATM    2  C10 UNL     1      -2.812  50.690 -19.786  1.00  0.00     0.030 A 
HETATM    3  C11 UNL     1      -3.302  49.949 -18.704  1.00  0.00     0.009 A 
HETATM    4  C12 UNL     1      -2.531  48.939 -18.121  1.00  0.00    -0.056 A 
HETATM    5  C19 UNL     1      -1.259  48.682 -18.639  1.00  0.00     0.009 A 
HETATM    6  C20 UNL     1      -0.763  49.427 -19.715  1.00  0.00     0.030 A 
ENDROOT
BRANCH   1   7
HETATM    7  N1  UNL     1      -1.015  51.202 -21.405  1.00  0.00    -0.307 N 
HETATM    8  C8  UNL     1      -1.345  50.993 -22.736  1.00  0.00     0.112 A 
HETATM    9  C7  UNL     1      -0.644  51.876 -23.528  1.00  0.00     0.007 A 
HETATM   10  C24 UNL     1       0.138  52.692 -22.670  1.00  0.00     0.059 A 
HETATM   11  C21 UNL     1      -0.099  52.257 -21.367  1.00  0.00     0.127 A 
HETATM   12  C23 UNL     1       1.031  53.765 -22.836  1.00  0.00     0.093 A 
HETATM   13  N3  UNL     1       0.453  52.806 -20.264  1.00  0.00    -0.337 N 
HETATM   14  C22 UNL     1       1.286  53.815 -20.546  1.00  0.00     0.183 A 
ATOM     15  H3  UNL     1       0.256  52.485 -19.316  1.00  0.00     0.168 HD
HETATM   16  N4  UNL     1       1.608  54.310 -21.750  1.00  0.00    -0.343 N 
ATOM     17  H4  UNL     1       2.272  55.079 -21.841  1.00  0.00     0.167 HD
BRANCH   9  18
HETATM   18  C6  UNL     1      -0.741  51.866 -24.971  1.00  0.00    -0.021 A 
HETATM   19  C5  UNL     1      -1.986  51.975 -25.595  1.00  0.00     0.012 A 
HETATM   20  C4  UNL     1      -2.064  51.980 -26.987  1.00  0.00     0.004 A 
HETATM   21  C3  UNL     1      -0.902  51.878 -27.760  1.00  0.00     0.037 A 
HETATM   22  C2  UNL     1       0.345  51.767 -27.141  1.00  0.00     0.069 A 
HETATM   23  C25 UNL     1       0.420  51.762 -25.746  1.00  0.00     0.049 A 
BRANCH  22  24
HETATM   24  O1  UNL     1       1.552  51.662 -27.777  1.00  0.00    -0.356 OA
HETATM   25  C1  UNL     1       2.699  51.484 -26.956  1.00  0.00     0.210 C 
ENDBRANCH  22  24
ENDBRANCH   9  18
BRANCH  12  26
HETATM   26  N5  UNL     1       1.366  54.315 -24.062  1.00  0.00    -0.288 NA
HETATM   27  H29 UNL     1       1.258  53.707 -24.863  1.00  0.00     0.125 HD
HETATM   28  H30 UNL     1       2.224  54.850 -24.006  1.00  0.00     0.125 HD
ENDBRANCH  12  26
ENDBRANCH   1   7
BRANCH   4  29
HETATM   29  C13 UNL     1      -3.075  48.127 -16.969  1.00  0.00     0.068 C 
BRANCH  29  30
HETATM   30  C14 UNL     1      -2.338  48.442 -15.655  1.00  0.00     0.276 C 
BRANCH  30  31
HETATM   31  N2  UNL     1      -2.311  47.299 -14.714  1.00  0.00     0.086 N 
HETATM   32  C15 UNL     1      -3.631  46.667 -14.622  1.00  0.00     0.310 C 
BRANCH  31  33
HETATM   33  C16 UNL     1      -1.854  47.763 -13.387  1.00  0.00     0.298 C 
BRANCH  33  34
HETATM   34  C17 UNL     1      -2.996  48.134 -12.430  1.00  0.00     0.208 C 
BRANCH  34  35
HETATM   35  O2  UNL     1      -3.331  49.502 -12.625  1.00  0.00    -0.317 OA
BRANCH  35  36
HETATM   36  P1  UNL     1      -2.474  50.612 -11.828  1.00  0.00     0.249 P 
HETATM   37  O3  UNL     1      -1.333  50.041 -11.053  1.00  0.00    -0.653 OA
BRANCH  36  38
HETATM   38  O4  UNL     1      -1.977  51.515 -13.058  1.00  0.00    -0.329 OA
HETATM   39  H21 UNL     1      -1.226  51.104 -13.527  1.00  0.00     0.220 HD
ENDBRANCH  36  38
BRANCH  36  40
HETATM   40  C18 UNL     1      -3.670  51.594 -10.959  1.00  0.00     0.249 C 
BRANCH  40  41
HETATM   41  P2  UNL     1      -3.655  53.358 -11.131  1.00  0.00     0.247 P 
HETATM   42  O5  UNL     1      -4.323  54.177 -10.082  1.00  0.00    -0.653 OA
BRANCH  41  43
HETATM   43  O6  UNL     1      -2.112  53.752 -11.345  1.00  0.00    -0.329 OA
HETATM   44  H24 UNL     1      -1.560  53.102 -11.812  1.00  0.00     0.220 HD
ENDBRANCH  41  43
BRANCH  41  45
HETATM   45  O7  UNL     1      -4.194  53.670 -12.605  1.00  0.00    -0.329 OA
HETATM   46  H25 UNL     1      -4.342  54.630 -12.730  1.00  0.00     0.220 HD
ENDBRANCH  41  45
ENDBRANCH  40  41
ENDBRANCH  36  40
ENDBRANCH  35  36
ENDBRANCH  34  35
ENDBRANCH  33  34
ENDBRANCH  31  33
ENDBRANCH  30  31
ENDBRANCH  29  30
ENDBRANCH   4  29
TORSDOF 16
ENDMDL
MODEL 4
REMARK minimizedAffinity -7.93091011
REMARK CNNscore 0.265598953
REMARK CNNaffinity 7.03378725
REMARK  16 active torsions:
REMARK  status: ('A' for Active; 'I' for Inactive)
REMARK    1  A    between atoms: O1_2  and  C2_3 
REMARK    2  A    between atoms: C6_7  and  C7_8 
REMARK    3  A    between atoms: N1_10  and  C9_11 
REMARK    4  A    between atoms: C12_14  and  C13_15 
REMARK    5  A    between atoms: C13_15  and  C14_16 
REMARK    6  A    between atoms: C14_16  and  N2_17 
REMARK    7  A    between atoms: N2_17  and  C16_19 
REMARK    8  A    between atoms: C16_19  and  C17_20 
REMARK    9  A    between atoms: C17_20  and  O2_21 
REMARK   10  A    between atoms: O2_21  and  P1_22 
REMARK   11  A    between atoms: P1_22  and  O4_24 
REMARK   12  A    between atoms: P1_22  and  C18_25 
REMARK   13  A    between atoms: C18_25  and  P2_26 
REMARK   14  A    between atoms: P2_26  and  O6_28 
REMARK   15  A    between atoms: P2_26  and  O7_29 
REMARK   16  A    between atoms: C23_38  and  N5_39 
ROOT
HETATM    1  C9  UNL     1      -0.391  50.938 -19.833  1.00  0.00     0.040 A 
HETATM    2  C10 UNL     1      -0.027  51.571 -18.637  1.00  0.00     0.030 A 
HETATM    3  C11 UNL     1      -0.091  50.888 -17.417  1.00  0.00     0.009 A 
HETATM    4  C12 UNL     1      -0.525  49.560 -17.363  1.00  0.00    -0.056 A 
HETATM    5  C19 UNL     1      -0.895  48.925 -18.552  1.00  0.00     0.009 A 
HETATM    6  C20 UNL     1      -0.823  49.603 -19.775  1.00  0.00     0.030 A 
ENDROOT
BRANCH   1   7
HETATM    7  N1  UNL     1      -0.316  51.622 -21.092  1.00  0.00    -0.307 N 
HETATM    8  C8  UNL     1      -1.044  51.277 -22.222  1.00  0.00     0.112 A 
HETATM    9  C7  UNL     1      -0.709  52.118 -23.260  1.00  0.00     0.007 A 
HETATM   10  C24 UNL     1       0.245  53.046 -22.767  1.00  0.00     0.059 A 
HETATM   11  C21 UNL     1       0.479  52.720 -21.433  1.00  0.00     0.127 A 
HETATM   12  C23 UNL     1       0.950  54.142 -23.294  1.00  0.00     0.093 A 
HETATM   13  N3  UNL     1       1.317  53.393 -20.615  1.00  0.00    -0.337 N 
HETATM   14  C22 UNL     1       1.933  54.412 -21.227  1.00  0.00     0.183 A 
ATOM     15  H3  UNL     1       1.464  53.150 -19.636  1.00  0.00     0.168 HD
HETATM   16  N4  UNL     1       1.806  54.811 -22.500  1.00  0.00    -0.343 N 
ATOM     17  H4  UNL     1       2.344  55.601 -22.859  1.00  0.00     0.167 HD
BRANCH   9  18
HETATM   18  C6  UNL     1      -1.269  51.972 -24.585  1.00  0.00    -0.021 A 
HETATM   19  C5  UNL     1      -2.630  52.201 -24.805  1.00  0.00     0.012 A 
HETATM   20  C4  UNL     1      -3.154  52.073 -26.090  1.00  0.00     0.004 A 
HETATM   21  C3  UNL     1      -2.325  51.718 -27.159  1.00  0.00     0.037 A 
HETATM   22  C2  UNL     1      -0.964  51.486 -26.945  1.00  0.00     0.069 A 
HETATM   23  C25 UNL     1      -0.442  51.616 -25.656  1.00  0.00     0.049 A 
BRANCH  22  24
HETATM   24  O1  UNL     1      -0.048  51.136 -27.899  1.00  0.00    -0.356 OA
HETATM   25  C1  UNL     1       1.018  52.047 -28.133  1.00  0.00     0.210 C 
ENDBRANCH  22  24
ENDBRANCH   9  18
BRANCH  12  26
HETATM   26  N5  UNL     1       0.825  54.595 -24.597  1.00  0.00    -0.288 NA
HETATM   27  H29 UNL     1       0.509  53.912 -25.273  1.00  0.00     0.125 HD
HETATM   28  H30 UNL     1       1.611  55.174 -24.865  1.00  0.00     0.125 HD
ENDBRANCH  12  26
ENDBRANCH   1   7
BRANCH   4  29
HETATM   29  C13 UNL     1      -0.615  48.835 -16.040  1.00  0.00     0.068 C 
BRANCH  29  30
HETATM   30  C14 UNL     1      -1.209  49.733 -14.940  1.00  0.00     0.276 C 
BRANCH  30  31
HETATM   31  N2  UNL     1      -0.299  49.921 -13.787  1.00  0.00     0.086 N 
HETATM   32  C15 UNL     1      -0.003  48.638 -13.142  1.00  0.00     0.310 C 
BRANCH  31  33
HETATM   33  C16 UNL     1      -0.909  50.867 -12.828  1.00  0.00     0.298 C 
BRANCH  33  34
HETATM   34  C17 UNL     1      -1.733  50.190 -11.724  1.00  0.00     0.208 C 
BRANCH  34  35
HETATM   35  O2  UNL     1      -3.110  50.470 -11.943  1.00  0.00    -0.317 OA
BRANCH  35  36
HETATM   36  P1  UNL     1      -4.115  50.357 -10.687  1.00  0.00     0.249 P 
HETATM   37  O3  UNL     1      -3.415  50.189  -9.378  1.00  0.00    -0.653 OA
BRANCH  36  38
HETATM   38  O4  UNL     1      -4.858  51.775 -10.796  1.00  0.00    -0.329 OA
HETATM   39  H21 UNL     1      -4.309  52.499 -10.441  1.00  0.00     0.220 HD
ENDBRANCH  36  38
BRANCH  36  40
HETATM   40  C18 UNL     1      -5.319  49.141 -11.156  1.00  0.00     0.249 C 
BRANCH  40  41
HETATM   41  P2  UNL     1      -6.766  48.903 -10.161  1.00  0.00     0.247 P 
HETATM   42  O5  UNL     1      -7.685  47.783 -10.504  1.00  0.00    -0.653 OA
BRANCH  41  43
HETATM   43  O6  UNL     1      -6.235  48.836  -8.646  1.00  0.00    -0.329 OA
HETATM   44  H24 UNL     1      -5.448  49.370  -8.439  1.00  0.00     0.220 HD
ENDBRANCH  41  43
BRANCH  41  45
HETATM   45  O7  UNL     1      -7.506  50.322 -10.099  1.00  0.00    -0.329 OA
HETATM   46  H25 UNL     1      -8.385  50.241  -9.678  1.00  0.00     0.220 HD
ENDBRANCH  41  45
ENDBRANCH  40  41
ENDBRANCH  36  40
ENDBRANCH  35  36
ENDBRANCH  34  35
ENDBRANCH  33  34
ENDBRANCH  31  33
ENDBRANCH  30  31
ENDBRANCH  29  30
ENDBRANCH   4  29
TORSDOF 16
ENDMDL
MODEL 5
REMARK minimizedAffinity -8.78075981
REMARK CNNscore 0.188210368
REMARK CNNaffinity 7.13620996
REMARK  16 active torsions:
REMARK  status: ('A' for Active; 'I' for Inactive)
REMARK    1  A    between atoms: O1_2  and  C2_3 
REMARK    2  A    between atoms: C6_7  and  C7_8 
REMARK    3  A    between atoms: N1_10  and  C9_11 
REMARK    4  A    between atoms: C12_14  and  C13_15 
REMARK    5  A    between atoms: C13_15  and  C14_16 
REMARK    6  A    between atoms: C14_16  and  N2_17 
REMARK    7  A    between atoms: N2_17  and  C16_19 
REMARK    8  A    between atoms: C16_19  and  C17_20 
REMARK    9  A    between atoms: C17_20  and  O2_21 
REMARK   10  A    between atoms: O2_21  and  P1_22 
REMARK   11  A    between atoms: P1_22  and  O4_24 
REMARK   12  A    between atoms: P1_22  and  C18_25 
REMARK   13  A    between atoms: C18_25  and  P2_26 
REMARK   14  A    between atoms: P2_26  and  O6_28 
REMARK   15  A    between atoms: P2_26  and  O7_29 
REMARK   16  A    between atoms: C23_38  and  N5_39 
ROOT
HETATM    1  C9  UNL     1       0.126  51.554 -19.604  1.00  0.00     0.040 A 
HETATM    2  C10 UNL     1       0.727  52.463 -18.723  1.00  0.00     0.030 A 
HETATM    3  C11 UNL     1       0.857  52.160 -17.363  1.00  0.00     0.009 A 
HETATM    4  C12 UNL     1       0.387  50.947 -16.851  1.00  0.00    -0.056 A 
HETATM    5  C19 UNL     1      -0.219  50.040 -17.725  1.00  0.00     0.009 A 
HETATM    6  C20 UNL     1      -0.342  50.335 -19.088  1.00  0.00     0.030 A 
ENDROOT
BRANCH   1   7
HETATM    7  N1  UNL     1      -0.001  51.845 -21.004  1.00  0.00    -0.307 N 
HETATM    8  C8  UNL     1      -0.757  51.101 -21.899  1.00  0.00     0.112 A 
HETATM    9  C7  UNL     1      -0.633  51.637 -23.162  1.00  0.00     0.007 A 
HETATM   10  C24 UNL     1       0.208  52.775 -23.063  1.00  0.00     0.059 A 
HETATM   11  C21 UNL     1       0.593  52.883 -21.728  1.00  0.00     0.127 A 
HETATM   12  C23 UNL     1       0.699  53.746 -23.953  1.00  0.00     0.093 A 
HETATM   13  N3  UNL     1       1.383  53.861 -21.234  1.00  0.00    -0.337 N 
HETATM   14  C22 UNL     1       1.790  54.724 -22.174  1.00  0.00     0.183 A 
ATOM     15  H3  UNL     1       1.641  53.933 -20.251  1.00  0.00     0.168 HD
HETATM   16  N4  UNL     1       1.506  54.716 -23.484  1.00  0.00    -0.343 N 
ATOM     17  H4  UNL     1       1.890  55.425 -24.108  1.00  0.00     0.167 HD
BRANCH   9  18
HETATM   18  C6  UNL     1      -1.268  51.045 -24.319  1.00  0.00    -0.021 A 
HETATM   19  C5  UNL     1      -0.549  50.859 -25.502  1.00  0.00     0.012 A 
HETATM   20  C4  UNL     1      -1.169  50.273 -26.604  1.00  0.00     0.004 A 
HETATM   21  C3  UNL     1      -2.506  49.870 -26.530  1.00  0.00     0.037 A 
HETATM   22  C2  UNL     1      -3.231  50.055 -25.351  1.00  0.00     0.069 A 
HETATM   23  C25 UNL     1      -2.607  50.642 -24.248  1.00  0.00     0.049 A 
BRANCH  22  24
HETATM   24  O1  UNL     1      -4.538  49.706 -25.147  1.00  0.00    -0.356 OA
HETATM   25  C1  UNL     1      -5.104  50.038 -23.885  1.00  0.00     0.210 C 
ENDBRANCH  22  24
ENDBRANCH   9  18
BRANCH  12  26
HETATM   26  N5  UNL     1       0.406  53.782 -25.306  1.00  0.00    -0.288 NA
HETATM   27  H29 UNL     1       0.143  52.898 -25.723  1.00  0.00     0.125 HD
HETATM   28  H30 UNL     1       1.073  54.347 -25.816  1.00  0.00     0.125 HD
ENDBRANCH  12  26
ENDBRANCH   1   7
BRANCH   4  29
HETATM   29  C13 UNL     1       0.508  50.636 -15.378  1.00  0.00     0.068 C 
BRANCH  29  30
HETATM   30  C14 UNL     1       1.340  51.701 -14.640  1.00  0.00     0.276 C 
BRANCH  30  31
HETATM   31  N2  UNL     1       2.279  51.124 -13.651  1.00  0.00     0.086 N 
HETATM   32  C15 UNL     1       1.715  49.916 -13.039  1.00  0.00     0.310 C 
BRANCH  31  33
HETATM   33  C16 UNL     1       2.595  52.138 -12.622  1.00  0.00     0.298 C 
BRANCH  33  34
HETATM   34  C17 UNL     1       1.578  52.199 -11.474  1.00  0.00     0.208 C 
BRANCH  34  35
HETATM   35  O2  UNL     1       0.501  53.044 -11.860  1.00  0.00    -0.317 OA
BRANCH  35  36
HETATM   36  P1  UNL     1      -0.742  53.198 -10.843  1.00  0.00     0.249 P 
HETATM   37  O3  UNL     1      -0.466  52.657  -9.479  1.00  0.00    -0.653 OA
BRANCH  36  38
HETATM   38  O4  UNL     1      -0.902  54.795 -10.839  1.00  0.00    -0.329 OA
HETATM   39  H21 UNL     1      -0.234  55.223 -10.271  1.00  0.00     0.220 HD
ENDBRANCH  36  38
BRANCH  36  40
HETATM   40  C18 UNL     1      -2.149  52.573 -11.725  1.00  0.00     0.249 C 
BRANCH  40  41
HETATM   41  P2  UNL     1      -3.757  53.248 -11.411  1.00  0.00     0.247 P 
HETATM   42  O5  UNL     1      -3.893  54.295 -10.360  1.00  0.00    -0.653 OA
BRANCH  41  43
HETATM   43  O6  UNL     1      -4.308  53.723 -12.843  1.00  0.00    -0.329 OA
HETATM   44  H24 UNL     1      -4.018  53.203 -13.613  1.00  0.00     0.220 HD
ENDBRANCH  41  43
BRANCH  41  45
HETATM   45  O7  UNL     1      -4.731  51.999 -11.176  1.00  0.00    -0.329 OA
HETATM   46  H25 UNL     1      -5.610  52.292 -10.864  1.00  0.00     0.220 HD
ENDBRANCH  41  45
ENDBRANCH  40  41
ENDBRANCH  36  40
ENDBRANCH  35  36
ENDBRANCH  34  35
ENDBRANCH  33  34
ENDBRANCH  31  33
ENDBRANCH  30  31
ENDBRANCH  29  30
ENDBRANCH   4  29
TORSDOF 16
ENDMDL
MODEL 6
REMARK minimizedAffinity -7.70977592
REMARK CNNscore 0.177660301
REMARK CNNaffinity 6.62482452
REMARK  16 active torsions:
REMARK  status: ('A' for Active; 'I' for Inactive)
REMARK    1  A    between atoms: O1_2  and  C2_3 
REMARK    2  A    between atoms: C6_7  and  C7_8 
REMARK    3  A    between atoms: N1_10  and  C9_11 
REMARK    4  A    between atoms: C12_14  and  C13_15 
REMARK    5  A    between atoms: C13_15  and  C14_16 
REMARK    6  A    between atoms: C14_16  and  N2_17 
REMARK    7  A    between atoms: N2_17  and  C16_19 
REMARK    8  A    between atoms: C16_19  and  C17_20 
REMARK    9  A    between atoms: C17_20  and  O2_21 
REMARK   10  A    between atoms: O2_21  and  P1_22 
REMARK   11  A    between atoms: P1_22  and  O4_24 
REMARK   12  A    between atoms: P1_22  and  C18_25 
REMARK   13  A    between atoms: C18_25  and  P2_26 
REMARK   14  A    between atoms: P2_26  and  O6_28 
REMARK   15  A    between atoms: P2_26  and  O7_29 
REMARK   16  A    between atoms: C23_38  and  N5_39 
ROOT
HETATM    1  C9  UNL     1      -1.456  50.932 -19.465  1.00  0.00     0.040 A 
HETATM    2  C10 UNL     1      -2.564  51.376 -18.732  1.00  0.00     0.030 A 
HETATM    3  C11 UNL     1      -2.909  50.769 -17.518  1.00  0.00     0.009 A 
HETATM    4  C12 UNL     1      -2.159  49.703 -17.013  1.00  0.00    -0.056 A 
HETATM    5  C19 UNL     1      -1.056  49.252 -17.743  1.00  0.00     0.009 A 
HETATM    6  C20 UNL     1      -0.703  49.863 -18.953  1.00  0.00     0.030 A 
ENDROOT
BRANCH   1   7
HETATM    7  N1  UNL     1      -1.082  51.554 -20.703  1.00  0.00    -0.307 N 
HETATM    8  C8  UNL     1      -1.669  51.285 -21.931  1.00  0.00     0.112 A 
HETATM    9  C7  UNL     1      -1.051  52.031 -22.910  1.00  0.00     0.007 A 
HETATM   10  C24 UNL     1      -0.055  52.822 -22.281  1.00  0.00     0.059 A 
HETATM   11  C21 UNL     1      -0.085  52.509 -20.923  1.00  0.00     0.127 A 
HETATM   12  C23 UNL     1       0.883  53.782 -22.698  1.00  0.00     0.093 A 
HETATM   13  N3  UNL     1       0.708  53.076 -19.989  1.00  0.00    -0.337 N 
HETATM   14  C22 UNL     1       1.561  53.971 -20.504  1.00  0.00     0.183 A 
ATOM     15  H3  UNL     1       0.662  52.847 -18.996  1.00  0.00     0.168 HD
HETATM   16  N4  UNL     1       1.697  54.342 -21.785  1.00  0.00    -0.343 N 
ATOM     17  H4  UNL     1       2.398  55.029 -22.061  1.00  0.00     0.167 HD
BRANCH   9  18
HETATM   18  C6  UNL     1      -1.414  51.927 -24.306  1.00  0.00    -0.021 A 
HETATM   19  C5  UNL     1      -2.692  52.296 -24.733  1.00  0.00     0.012 A 
HETATM   20  C4  UNL     1      -3.024  52.206 -26.084  1.00  0.00     0.004 A 
HETATM   21  C3  UNL     1      -2.083  51.750 -27.012  1.00  0.00     0.037 A 
HETATM   22  C2  UNL     1      -0.804  51.377 -26.592  1.00  0.00     0.069 A 
HETATM   23  C25 UNL     1      -0.475  51.469 -25.237  1.00  0.00     0.049 A 
BRANCH  22  24
HETATM   24  O1  UNL     1       0.204  50.918 -27.394  1.00  0.00    -0.356 OA
HETATM   25  C1  UNL     1       0.778  51.847 -28.304  1.00  0.00     0.210 C 
ENDBRANCH  22  24
ENDBRANCH   9  18
BRANCH  12  26
HETATM   26  N5  UNL     1       1.033  54.205 -24.009  1.00  0.00    -0.288 NA
HETATM   27  H29 UNL     1       0.725  53.555 -24.720  1.00  0.00     0.125 HD
HETATM   28  H30 UNL     1       1.930  54.650 -24.154  1.00  0.00     0.125 HD
ENDBRANCH  12  26
ENDBRANCH   1   7
BRANCH   4  29
HETATM   29  C13 UNL     1      -2.550  49.036 -15.715  1.00  0.00     0.068 C 
BRANCH  29  30
HETATM   30  C14 UNL     1      -1.915  49.739 -14.502  1.00  0.00     0.276 C 
BRANCH  30  31
HETATM   31  N2  UNL     1      -2.912  50.370 -13.607  1.00  0.00     0.086 N 
HETATM   32  C15 UNL     1      -3.080  51.790 -13.933  1.00  0.00     0.310 C 
BRANCH  31  33
HETATM   33  C16 UNL     1      -2.491  50.197 -12.200  1.00  0.00     0.298 C 
BRANCH  33  34
HETATM   34  C17 UNL     1      -1.268  51.039 -11.808  1.00  0.00     0.208 C 
BRANCH  34  35
HETATM   35  O2  UNL     1      -1.594  51.815 -10.662  1.00  0.00    -0.317 OA
BRANCH  35  36
HETATM   36  P1  UNL     1      -1.199  53.378 -10.669  1.00  0.00     0.249 P 
HETATM   37  O3  UNL     1      -0.069  53.703 -11.590  1.00  0.00    -0.653 OA
BRANCH  36  38
HETATM   38  O4  UNL     1      -2.585  54.014 -11.168  1.00  0.00    -0.329 OA
HETATM   39  H21 UNL     1      -2.700  53.919 -12.132  1.00  0.00     0.220 HD
ENDBRANCH  36  38
BRANCH  36  40
HETATM   40  C18 UNL     1      -1.045  53.831  -8.960  1.00  0.00     0.249 C 
BRANCH  40  41
HETATM   41  P2  UNL     1       0.010  55.177  -8.497  1.00  0.00     0.247 P 
HETATM   42  O5  UNL     1      -0.617  56.486  -8.162  1.00  0.00    -0.653 OA
BRANCH  41  43
HETATM   43  O6  UNL     1       0.936  54.606  -7.314  1.00  0.00    -0.329 OA
HETATM   44  H24 UNL     1       1.158  53.659  -7.357  1.00  0.00     0.220 HD
ENDBRANCH  41  43
BRANCH  41  45
HETATM   45  O7  UNL     1       1.121  55.292  -9.644  1.00  0.00    -0.329 OA
HETATM   46  H25 UNL     1       1.663  56.099  -9.529  1.00  0.00     0.220 HD
ENDBRANCH  41  45
ENDBRANCH  40  41
ENDBRANCH  36  40
ENDBRANCH  35  36
ENDBRANCH  34  35
ENDBRANCH  33  34
ENDBRANCH  31  33
ENDBRANCH  30  31
ENDBRANCH  29  30
ENDBRANCH   4  29
TORSDOF 16
ENDMDL
MODEL 7
REMARK minimizedAffinity -9.93580437
REMARK CNNscore 0.177187949
REMARK CNNaffinity 6.43745995
REMARK  16 active torsions:
REMARK  status: ('A' for Active; 'I' for Inactive)
REMARK    1  A    between atoms: O1_2  and  C2_3 
REMARK    2  A    between atoms: C6_7  and  C7_8 
REMARK    3  A    between atoms: N1_10  and  C9_11 
REMARK    4  A    between atoms: C12_14  and  C13_15 
REMARK    5  A    between atoms: C13_15  and  C14_16 
REMARK    6  A    between atoms: C14_16  and  N2_17 
REMARK    7  A    between atoms: N2_17  and  C16_19 
REMARK    8  A    between atoms: C16_19  and  C17_20 
REMARK    9  A    between atoms: C17_20  and  O2_21 
REMARK   10  A    between atoms: O2_21  and  P1_22 
REMARK   11  A    between atoms: P1_22  and  O4_24 
REMARK   12  A    between atoms: P1_22  and  C18_25 
REMARK   13  A    between atoms: C18_25  and  P2_26 
REMARK   14  A    between atoms: P2_26  and  O6_28 
REMARK   15  A    between atoms: P2_26  and  O7_29 
REMARK   16  A    between atoms: C23_38  and  N5_39 
ROOT
HETATM    1  C9  UNL     1      -2.580  50.500 -25.998  1.00  0.00     0.040 A 
HETATM    2  C10 UNL     1      -3.173  49.416 -25.339  1.00  0.00     0.030 A 
HETATM    3  C11 UNL     1      -4.010  48.530 -26.028  1.00  0.00     0.009 A 
HETATM    4  C12 UNL     1      -4.275  48.709 -27.389  1.00  0.00    -0.056 A 
HETATM    5  C19 UNL     1      -3.690  49.792 -28.050  1.00  0.00     0.009 A 
HETATM    6  C20 UNL     1      -2.847  50.675 -27.366  1.00  0.00     0.030 A 
ENDROOT
BRANCH   1   7
HETATM    7  N1  UNL     1      -1.709  51.408 -25.308  1.00  0.00    -0.307 N 
HETATM    8  C8  UNL     1      -1.340  51.288 -23.976  1.00  0.00     0.112 A 
HETATM    9  C7  UNL     1      -0.524  52.342 -23.628  1.00  0.00     0.007 A 
HETATM   10  C24 UNL     1      -0.346  53.145 -24.784  1.00  0.00     0.059 A 
HETATM   11  C21 UNL     1      -1.088  52.557 -25.807  1.00  0.00     0.127 A 
HETATM   12  C23 UNL     1       0.366  54.315 -25.099  1.00  0.00     0.093 A 
HETATM   13  N3  UNL     1      -1.153  53.023 -27.072  1.00  0.00    -0.337 N 
HETATM   14  C22 UNL     1      -0.439  54.141 -27.252  1.00  0.00     0.183 A 
ATOM     15  H3  UNL     1      -1.689  52.571 -27.813  1.00  0.00     0.168 HD
HETATM   16  N4  UNL     1       0.296  54.807 -26.350  1.00  0.00    -0.343 N 
ATOM     17  H4  UNL     1       0.789  55.663 -26.603  1.00  0.00     0.167 HD
BRANCH   9  18
HETATM   18  C6  UNL     1      -0.018  52.518 -22.285  1.00  0.00    -0.021 A 
HETATM   19  C5  UNL     1       1.009  53.429 -22.031  1.00  0.00     0.012 A 
HETATM   20  C4  UNL     1       1.477  53.601 -20.728  1.00  0.00     0.004 A 
HETATM   21  C3  UNL     1       0.921  52.865 -19.676  1.00  0.00     0.037 A 
HETATM   22  C2  UNL     1      -0.106  51.951 -19.924  1.00  0.00     0.069 A 
HETATM   23  C25 UNL     1      -0.572  51.782 -21.230  1.00  0.00     0.049 A 
BRANCH  22  24
HETATM   24  O1  UNL     1      -0.733  51.174 -18.990  1.00  0.00    -0.356 OA
HETATM   25  C1  UNL     1      -0.268  51.274 -17.650  1.00  0.00     0.210 C 
ENDBRANCH  22  24
ENDBRANCH   9  18
BRANCH  12  26
HETATM   26  N5  UNL     1       1.154  55.014 -24.199  1.00  0.00    -0.288 NA
HETATM   27  H29 UNL     1       0.919  54.893 -23.222  1.00  0.00     0.125 HD
HETATM   28  H30 UNL     1       1.327  55.960 -24.514  1.00  0.00     0.125 HD
ENDBRANCH  12  26
ENDBRANCH   1   7
BRANCH   4  29
HETATM   29  C13 UNL     1      -5.197  47.763 -28.122  1.00  0.00     0.068 C 
BRANCH  29  30
HETATM   30  C14 UNL     1      -5.288  48.106 -29.620  1.00  0.00     0.276 C 
BRANCH  30  31
HETATM   31  N2  UNL     1      -6.478  47.521 -30.280  1.00  0.00     0.086 N 
HETATM   32  C15 UNL     1      -6.087  46.460 -31.214  1.00  0.00     0.310 C 
BRANCH  31  33
HETATM   33  C16 UNL     1      -7.229  48.588 -30.976  1.00  0.00     0.298 C 
BRANCH  33  34
HETATM   34  C17 UNL     1      -8.576  48.929 -30.323  1.00  0.00     0.208 C 
BRANCH  34  35
HETATM   35  O2  UNL     1      -9.413  47.780 -30.373  1.00  0.00    -0.317 OA
BRANCH  35  36
HETATM   36  P1  UNL     1     -10.385  47.497 -29.118  1.00  0.00     0.249 P 
HETATM   37  O3  UNL     1     -11.695  48.209 -29.206  1.00  0.00    -0.653 OA
BRANCH  36  38
HETATM   38  O4  UNL     1     -10.553  45.907 -29.247  1.00  0.00    -0.329 OA
HETATM   39  H21 UNL     1     -11.191  45.667 -29.945  1.00  0.00     0.220 HD
ENDBRANCH  36  38
BRANCH  36  40
HETATM   40  C18 UNL     1      -9.382  47.763 -27.678  1.00  0.00     0.249 C 
BRANCH  40  41
HETATM   41  P2  UNL     1     -10.047  48.642 -26.290  1.00  0.00     0.247 P 
HETATM   42  O5  UNL     1      -9.934  48.023 -24.940  1.00  0.00    -0.653 OA
BRANCH  41  43
HETATM   43  O6  UNL     1      -9.397  50.109 -26.363  1.00  0.00    -0.329 OA
HETATM   44  H24 UNL     1      -9.205  50.454 -27.253  1.00  0.00     0.220 HD
ENDBRANCH  41  43
BRANCH  41  45
HETATM   45  O7  UNL     1     -11.553  49.021 -26.679  1.00  0.00    -0.329 OA
HETATM   46  H25 UNL     1     -12.032  49.392 -25.910  1.00  0.00     0.220 HD
ENDBRANCH  41  45
ENDBRANCH  40  41
ENDBRANCH  36  40
ENDBRANCH  35  36
ENDBRANCH  34  35
ENDBRANCH  33  34
ENDBRANCH  31  33
ENDBRANCH  30  31
ENDBRANCH  29  30
ENDBRANCH   4  29
TORSDOF 16
ENDMDL
MODEL 8
REMARK minimizedAffinity -9.58838844
REMARK CNNscore 0.161951452
REMARK CNNaffinity 6.39618301
REMARK  16 active torsions:
REMARK  status: ('A' for Active; 'I' for Inactive)
REMARK    1  A    between atoms: O1_2  and  C2_3 
REMARK    2  A    between atoms: C6_7  and  C7_8 
REMARK    3  A    between atoms: N1_10  and  C9_11 
REMARK    4  A    between atoms: C12_14  and  C13_15 
REMARK    5  A    between atoms: C13_15  and  C14_16 
REMARK    6  A    between atoms: C14_16  and  N2_17 
REMARK    7  A    between atoms: N2_17  and  C16_19 
REMARK    8  A    between atoms: C16_19  and  C17_20 
REMARK    9  A    between atoms: C17_20  and  O2_21 
REMARK   10  A    between atoms: O2_21  and  P1_22 
REMARK   11  A    between atoms: P1_22  and  O4_24 
REMARK   12  A    between atoms: P1_22  and  C18_25 
REMARK   13  A    between atoms: C18_25  and  P2_26 
REMARK   14  A    between atoms: P2_26  and  O6_28 
REMARK   15  A    between atoms: P2_26  and  O7_29 
REMARK   16  A    between atoms: C23_38  and  N5_39 
ROOT
HETATM    1  C9  UNL     1      -2.345  50.599 -26.119  1.00  0.00     0.040 A 
HETATM    2  C10 UNL     1      -2.749  50.877 -27.431  1.00  0.00     0.030 A 
HETATM    3  C11 UNL     1      -3.553  49.975 -28.139  1.00  0.00     0.009 A 
HETATM    4  C12 UNL     1      -3.966  48.775 -27.555  1.00  0.00    -0.056 A 
HETATM    5  C19 UNL     1      -3.561  48.489 -26.248  1.00  0.00     0.009 A 
HETATM    6  C20 UNL     1      -2.765  49.393 -25.534  1.00  0.00     0.030 A 
ENDROOT
BRANCH   1   7
HETATM    7  N1  UNL     1      -1.533  51.521 -25.377  1.00  0.00    -0.307 N 
HETATM    8  C8  UNL     1      -1.209  51.383 -24.035  1.00  0.00     0.112 A 
HETATM    9  C7  UNL     1      -0.445  52.456 -23.633  1.00  0.00     0.007 A 
HETATM   10  C24 UNL     1      -0.254  53.292 -24.764  1.00  0.00     0.059 A 
HETATM   11  C21 UNL     1      -0.937  52.702 -25.826  1.00  0.00     0.127 A 
HETATM   12  C23 UNL     1       0.426  54.494 -25.026  1.00  0.00     0.093 A 
HETATM   13  N3  UNL     1      -0.973  53.196 -27.083  1.00  0.00    -0.337 N 
HETATM   14  C22 UNL     1      -0.294  54.343 -27.211  1.00  0.00     0.183 A 
ATOM     15  H3  UNL     1      -1.465  52.743 -27.852  1.00  0.00     0.168 HD
HETATM   16  N4  UNL     1       0.383  55.013 -26.267  1.00  0.00    -0.343 N 
ATOM     17  H4  UNL     1       0.853  55.892 -26.483  1.00  0.00     0.167 HD
BRANCH   9  18
HETATM   18  C6  UNL     1       0.005  52.618 -22.269  1.00  0.00    -0.021 A 
HETATM   19  C5  UNL     1       1.108  53.426 -21.980  1.00  0.00     0.012 A 
HETATM   20  C4  UNL     1       1.521  53.586 -20.658  1.00  0.00     0.004 A 
HETATM   21  C3  UNL     1       0.837  52.943 -19.622  1.00  0.00     0.037 A 
HETATM   22  C2  UNL     1      -0.265  52.132 -19.904  1.00  0.00     0.069 A 
HETATM   23  C25 UNL     1      -0.677  51.974 -21.230  1.00  0.00     0.049 A 
BRANCH  22  24
HETATM   24  O1  UNL     1      -1.018  51.451 -18.988  1.00  0.00    -0.356 OA
HETATM   25  C1  UNL     1      -0.323  50.591 -18.093  1.00  0.00     0.210 C 
ENDBRANCH  22  24
ENDBRANCH   9  18
BRANCH  12  26
HETATM   26  N5  UNL     1       1.154  55.198 -24.082  1.00  0.00    -0.288 NA
HETATM   27  H29 UNL     1       0.889  55.046 -23.117  1.00  0.00     0.125 HD
HETATM   28  H30 UNL     1       1.304  56.157 -24.369  1.00  0.00     0.125 HD
ENDBRANCH  12  26
ENDBRANCH   1   7
BRANCH   4  29
HETATM   29  C13 UNL     1      -4.814  47.794 -28.332  1.00  0.00     0.068 C 
BRANCH  29  30
HETATM   30  C14 UNL     1      -6.261  47.756 -27.809  1.00  0.00     0.276 C 
BRANCH  30  31
HETATM   31  N2  UNL     1      -7.168  46.958 -28.664  1.00  0.00     0.086 N 
HETATM   32  C15 UNL     1      -7.336  47.589 -29.978  1.00  0.00     0.310 C 
BRANCH  31  33
HETATM   33  C16 UNL     1      -8.472  46.797 -27.985  1.00  0.00     0.298 C 
BRANCH  33  34
HETATM   34  C17 UNL     1      -9.352  48.054 -28.020  1.00  0.00     0.208 C 
BRANCH  34  35
HETATM   35  O2  UNL     1     -10.700  47.663 -28.249  1.00  0.00    -0.317 OA
BRANCH  35  36
HETATM   36  P1  UNL     1     -11.723  47.706 -27.003  1.00  0.00     0.249 P 
HETATM   37  O3  UNL     1     -11.052  47.942 -25.690  1.00  0.00    -0.653 OA
BRANCH  36  38
HETATM   38  O4  UNL     1     -12.644  48.944 -27.441  1.00  0.00    -0.329 OA
HETATM   39  H21 UNL     1     -12.209  49.799 -27.263  1.00  0.00     0.220 HD
ENDBRANCH  36  38
BRANCH  36  40
HETATM   40  C18 UNL     1     -12.738  46.261 -27.179  1.00  0.00     0.249 C 
BRANCH  40  41
HETATM   41  P2  UNL     1     -13.137  45.656 -28.796  1.00  0.00     0.247 P 
HETATM   42  O5  UNL     1     -12.347  44.517 -29.340  1.00  0.00    -0.653 OA
BRANCH  41  43
HETATM   43  O6  UNL     1     -14.717  45.364 -28.764  1.00  0.00    -0.329 OA
HETATM   44  H24 UNL     1     -15.253  45.942 -28.193  1.00  0.00     0.220 HD
ENDBRANCH  41  43
BRANCH  41  45
HETATM   45  O7  UNL     1     -13.143  46.931 -29.764  1.00  0.00    -0.329 OA
HETATM   46  H25 UNL     1     -13.224  46.661 -30.701  1.00  0.00     0.220 HD
ENDBRANCH  41  45
ENDBRANCH  40  41
ENDBRANCH  36  40
ENDBRANCH  35  36
ENDBRANCH  34  35
ENDBRANCH  33  34
ENDBRANCH  31  33
ENDBRANCH  30  31
ENDBRANCH  29  30
ENDBRANCH   4  29
TORSDOF 16
ENDMDL
MODEL 9
REMARK minimizedAffinity -8.61258793
REMARK CNNscore 0.15361625
REMARK CNNaffinity 5.84288073
REMARK  16 active torsions:
REMARK  status: ('A' for Active; 'I' for Inactive)
REMARK    1  A    between atoms: O1_2  and  C2_3 
REMARK    2  A    between atoms: C6_7  and  C7_8 
REMARK    3  A    between atoms: N1_10  and  C9_11 
REMARK    4  A    between atoms: C12_14  and  C13_15 
REMARK    5  A    between atoms: C13_15  and  C14_16 
REMARK    6  A    between atoms: C14_16  and  N2_17 
REMARK    7  A    between atoms: N2_17  and  C16_19 
REMARK    8  A    between atoms: C16_19  and  C17_20 
REMARK    9  A    between atoms: C17_20  and  O2_21 
REMARK   10  A    between atoms: O2_21  and  P1_22 
REMARK   11  A    between atoms: P1_22  and  O4_24 
REMARK   12  A    between atoms: P1_22  and  C18_25 
REMARK   13  A    between atoms: C18_25  and  P2_26 
REMARK   14  A    between atoms: P2_26  and  O6_28 
REMARK   15  A    between atoms: P2_26  and  O7_29 
REMARK   16  A    between atoms: C23_38  and  N5_39 
ROOT
HETATM    1  C9  UNL     1      -2.812  49.129 -24.594  1.00  0.00     0.040 A 
HETATM    2  C10 UNL     1      -2.095  49.321 -25.781  1.00  0.00     0.030 A 
HETATM    3  C11 UNL     1      -2.678  49.040 -27.023  1.00  0.00     0.009 A 
HETATM    4  C12 UNL     1      -3.987  48.557 -27.105  1.00  0.00    -0.056 A 
HETATM    5  C19 UNL     1      -4.705  48.357 -25.922  1.00  0.00     0.009 A 
HETATM    6  C20 UNL     1      -4.127  48.646 -24.680  1.00  0.00     0.030 A 
ENDROOT
BRANCH   1   7
HETATM    7  N1  UNL     1      -2.231  49.426 -23.315  1.00  0.00    -0.307 N 
HETATM    8  C8  UNL     1      -1.496  50.567 -23.029  1.00  0.00     0.112 A 
HETATM    9  C7  UNL     1      -1.063  50.520 -21.722  1.00  0.00     0.007 A 
HETATM   10  C24 UNL     1      -1.562  49.321 -21.149  1.00  0.00     0.059 A 
HETATM   11  C21 UNL     1      -2.274  48.659 -22.148  1.00  0.00     0.127 A 
HETATM   12  C23 UNL     1      -1.502  48.705 -19.887  1.00  0.00     0.093 A 
HETATM   13  N3  UNL     1      -2.918  47.484 -21.978  1.00  0.00    -0.337 N 
HETATM   14  C22 UNL     1      -2.787  46.993 -20.740  1.00  0.00     0.183 A 
ATOM     15  H3  UNL     1      -3.448  47.020 -22.716  1.00  0.00     0.168 HD
HETATM   16  N4  UNL     1      -2.119  47.523 -19.706  1.00  0.00    -0.343 N 
ATOM     17  H4  UNL     1      -2.079  47.045 -18.806  1.00  0.00     0.167 HD
BRANCH   9  18
HETATM   18  C6  UNL     1      -0.227  51.550 -21.146  1.00  0.00    -0.021 A 
HETATM   19  C5  UNL     1       0.536  52.382 -21.969  1.00  0.00     0.012 A 
HETATM   20  C4  UNL     1       1.325  53.382 -21.401  1.00  0.00     0.004 A 
HETATM   21  C3  UNL     1       1.354  53.555 -20.014  1.00  0.00     0.037 A 
HETATM   22  C2  UNL     1       0.595  52.725 -19.186  1.00  0.00     0.069 A 
HETATM   23  C25 UNL     1      -0.195  51.725 -19.757  1.00  0.00     0.049 A 
BRANCH  22  24
HETATM   24  O1  UNL     1       0.534  52.789 -17.821  1.00  0.00    -0.356 OA
HETATM   25  C1  UNL     1       1.723  52.474 -17.107  1.00  0.00     0.210 C 
ENDBRANCH  22  24
ENDBRANCH   9  18
BRANCH  12  26
HETATM   26  N5  UNL     1      -0.841  49.237 -18.792  1.00  0.00    -0.288 NA
HETATM   27  H29 UNL     1      -0.091  49.883 -19.001  1.00  0.00     0.125 HD
HETATM   28  H30 UNL     1      -0.654  48.530 -18.093  1.00  0.00     0.125 HD
ENDBRANCH  12  26
ENDBRANCH   1   7
BRANCH   4  29
HETATM   29  C13 UNL     1      -4.604  48.233 -28.446  1.00  0.00     0.068 C 
BRANCH  29  30
HETATM   30  C14 UNL     1      -6.054  47.738 -28.299  1.00  0.00     0.276 C 
BRANCH  30  31
HETATM   31  N2  UNL     1      -6.613  47.192 -29.557  1.00  0.00     0.086 N 
HETATM   32  C15 UNL     1      -5.563  47.036 -30.569  1.00  0.00     0.310 C 
BRANCH  31  33
HETATM   33  C16 UNL     1      -7.689  48.081 -30.045  1.00  0.00     0.298 C 
BRANCH  33  34
HETATM   34  C17 UNL     1      -9.089  47.694 -29.547  1.00  0.00     0.208 C 
BRANCH  34  35
HETATM   35  O2  UNL     1      -8.959  46.966 -28.332  1.00  0.00    -0.317 OA
BRANCH  35  36
HETATM   36  P1  UNL     1     -10.015  45.783 -28.042  1.00  0.00     0.249 P 
HETATM   37  O3  UNL     1      -9.857  44.606 -28.948  1.00  0.00    -0.653 OA
BRANCH  36  38
HETATM   38  O4  UNL     1      -9.631  45.432 -26.524  1.00  0.00    -0.329 OA
HETATM   39  H21 UNL     1      -8.826  44.883 -26.473  1.00  0.00     0.220 HD
ENDBRANCH  36  38
BRANCH  36  40
HETATM   40  C18 UNL     1     -11.601  46.577 -27.969  1.00  0.00     0.249 C 
BRANCH  40  41
HETATM   41  P2  UNL     1     -11.907  47.823 -26.747  1.00  0.00     0.247 P 
HETATM   42  O5  UNL     1     -12.462  47.403 -25.431  1.00  0.00    -0.653 OA
BRANCH  41  43
HETATM   43  O6  UNL     1     -10.528  48.638 -26.614  1.00  0.00    -0.329 OA
HETATM   44  H24 UNL     1      -9.989  48.711 -27.420  1.00  0.00     0.220 HD
ENDBRANCH  41  43
BRANCH  41  45
HETATM   45  O7  UNL     1     -12.788  48.950 -27.466  1.00  0.00    -0.329 OA
HETATM   46  H25 UNL     1     -13.112  49.609 -26.819  1.00  0.00     0.220 HD
ENDBRANCH  41  45
ENDBRANCH  40  41
ENDBRANCH  36  40
ENDBRANCH  35  36
ENDBRANCH  34  35
ENDBRANCH  33  34
ENDBRANCH  31  33
ENDBRANCH  30  31
ENDBRANCH  29  30
ENDBRANCH   4  29
TORSDOF 16
ENDMDL
