MODEL 1
REMARK minimizedAffinity -9.98764133
REMARK  4 active torsions:
REMARK  status: ('A' for Active; 'I' for Inactive)
REMARK    1  A    between atoms: CL1_1  and  C16_22 
REMARK    2  A    between atoms: C4_5  and  C5_6 
REMARK    3  A    between atoms: C9_10  and  N1_11 
REMARK    4  A    between atoms: N1_11  and  C10_12 
ROOT
HETATM    1  C10 UNL     1       0.287  52.825 -25.380  1.00  0.00     0.117 A 
HETATM    2  N2  UNL     1       0.572  54.093 -25.725  1.00  0.00    -0.338 N 
ATOM      3  H2  UNL     1       1.264  54.613 -25.187  1.00  0.00     0.168 HD
HETATM    4  C11 UNL     1      -0.045  54.697 -26.780  1.00  0.00     0.182 A 
HETATM    5  N3  UNL     1      -0.972  54.036 -27.519  1.00  0.00    -0.352 N 
ATOM      6  H3  UNL     1      -1.426  54.502 -28.305  1.00  0.00     0.166 HD
HETATM    7  C12 UNL     1      -1.296  52.746 -27.207  1.00  0.00     0.047 A 
HETATM    8  C13 UNL     1      -2.234  52.038 -27.931  1.00  0.00     0.069 A 
HETATM    9  C14 UNL     1      -2.540  50.740 -27.587  1.00  0.00     0.102 A 
HETATM   10  C15 UNL     1      -1.891  50.155 -26.508  1.00  0.00     0.101 A 
HETATM   11  C16 UNL     1      -0.958  50.821 -25.769  1.00  0.00     0.161 A 
HETATM   12  C17 UNL     1      -0.665  52.129 -26.130  1.00  0.00     0.036 A 
HETATM   13  O1  UNL     1      -2.230  48.855 -26.204  1.00  0.00    -0.349 OA
HETATM   14  C18 UNL     1      -3.524  48.320 -26.440  1.00  0.00     0.202 C 
HETATM   15  C19 UNL     1      -4.241  48.969 -27.586  1.00  0.00     0.202 C 
HETATM   16  O2  UNL     1      -3.462  49.959 -28.252  1.00  0.00    -0.346 OA
ENDROOT
BRANCH   1  17
HETATM   17  N1  UNL     1       0.897  52.150 -24.288  1.00  0.00    -0.342 N 
HETATM   18  H8  UNL     1       1.426  51.269 -24.539  1.00  0.00     0.167 HD
BRANCH  17  19
HETATM   19  C9  UNL     1       0.832  52.581 -22.947  1.00  0.00     0.034 A 
HETATM   20  C8  UNL     1       1.178  53.886 -22.631  1.00  0.00     0.029 A 
HETATM   21  C7  UNL     1       1.146  54.378 -21.343  1.00  0.00     0.003 A 
HETATM   22  C6  UNL     1       0.751  53.522 -20.338  1.00  0.00     0.012 A 
HETATM   23  C5  UNL     1       0.395  52.200 -20.624  1.00  0.00    -0.024 A 
HETATM   24  C20 UNL     1       0.446  51.764 -21.932  1.00  0.00     0.041 A 
BRANCH  23  25
HETATM   25  C4  UNL     1      -0.007  51.378 -19.505  1.00  0.00    -0.026 A 
HETATM   26  C3  UNL     1      -0.542  50.118 -19.616  1.00  0.00     0.012 A 
HETATM   27  C2  UNL     1      -0.906  49.386 -18.494  1.00  0.00     0.001 A 
HETATM   28  C1  UNL     1      -0.748  49.882 -17.216  1.00  0.00     0.000 A 
HETATM   29  C22 UNL     1      -0.212  51.146 -17.096  1.00  0.00     0.001 A 
HETATM   30  C21 UNL     1       0.147  51.868 -18.209  1.00  0.00     0.012 A 
ENDBRANCH  23  25
ENDBRANCH  17  19
ENDBRANCH   1  17
BRANCH  11  31
HETATM   31 CL1  UNL     1       0.606  50.855 -26.385  1.00  0.00    -0.219 Cl
HETATM   32  H1  UNL     1       1.980  50.875 -26.387  1.00  0.00     0.129 HD
ENDBRANCH  11  31
TORSDOF 4
ENDMDL
MODEL 2
REMARK minimizedAffinity -9.80808163
REMARK  4 active torsions:
REMARK  status: ('A' for Active; 'I' for Inactive)
REMARK    1  A    between atoms: CL1_1  and  C16_22 
REMARK    2  A    between atoms: C4_5  and  C5_6 
REMARK    3  A    between atoms: C9_10  and  N1_11 
REMARK    4  A    between atoms: N1_11  and  C10_12 
ROOT
HETATM    1  C10 UNL     1      -0.356  52.176 -20.612  1.00  0.00     0.117 A 
HETATM    2  N2  UNL     1       0.283  53.240 -21.130  1.00  0.00    -0.338 N 
ATOM      3  H2  UNL     1       0.092  53.516 -22.093  1.00  0.00     0.168 HD
HETATM    4  C11 UNL     1       1.179  53.956 -20.396  1.00  0.00     0.182 A 
HETATM    5  N3  UNL     1       1.459  53.618 -19.111  1.00  0.00    -0.352 N 
ATOM      6  H3  UNL     1       2.133  54.165 -18.574  1.00  0.00     0.166 HD
HETATM    7  C12 UNL     1       0.837  52.545 -18.540  1.00  0.00     0.047 A 
HETATM    8  C13 UNL     1       1.093  52.165 -17.238  1.00  0.00     0.069 A 
HETATM    9  C14 UNL     1       0.450  51.076 -16.694  1.00  0.00     0.102 A 
HETATM   10  C15 UNL     1      -0.459  50.369 -17.471  1.00  0.00     0.101 A 
HETATM   11  C16 UNL     1      -0.740  50.713 -18.760  1.00  0.00     0.161 A 
HETATM   12  C17 UNL     1      -0.080  51.813 -19.290  1.00  0.00     0.036 A 
HETATM   13  O1  UNL     1      -1.077  49.287 -16.882  1.00  0.00    -0.349 OA
HETATM   14  C18 UNL     1      -0.456  48.495 -15.881  1.00  0.00     0.202 C 
HETATM   15  C19 UNL     1       0.549  49.246 -15.059  1.00  0.00     0.202 C 
HETATM   16  O2  UNL     1       0.644  50.625 -15.404  1.00  0.00    -0.346 OA
ENDROOT
BRANCH   1  17
HETATM   17  N1  UNL     1      -1.295  51.392 -21.335  1.00  0.00    -0.342 N 
HETATM   18  H8  UNL     1      -1.785  50.641 -20.773  1.00  0.00     0.167 HD
BRANCH  17  19
HETATM   19  C9  UNL     1      -1.591  51.561 -22.703  1.00  0.00     0.034 A 
HETATM   20  C8  UNL     1      -2.907  51.740 -23.101  1.00  0.00     0.029 A 
HETATM   21  C7  UNL     1      -3.276  51.905 -24.419  1.00  0.00     0.003 A 
HETATM   22  C6  UNL     1      -2.279  51.889 -25.371  1.00  0.00     0.012 A 
HETATM   23  C5  UNL     1      -0.942  51.712 -25.002  1.00  0.00    -0.024 A 
HETATM   24  C20 UNL     1      -0.633  51.552 -23.667  1.00  0.00     0.041 A 
BRANCH  23  25
HETATM   25  C4  UNL     1       0.032  51.711 -26.071  1.00  0.00    -0.026 A 
HETATM   26  C3  UNL     1      -0.277  51.802 -27.407  1.00  0.00     0.012 A 
HETATM   27  C2  UNL     1       0.714  51.794 -28.379  1.00  0.00     0.001 A 
HETATM   28  C1  UNL     1       2.051  51.695 -28.057  1.00  0.00     0.000 A 
HETATM   29  C22 UNL     1       2.369  51.603 -26.719  1.00  0.00     0.001 A 
HETATM   30  C21 UNL     1       1.386  51.611 -25.759  1.00  0.00     0.012 A 
ENDBRANCH  23  25
ENDBRANCH  17  19
ENDBRANCH   1  17
BRANCH  11  31
HETATM   31 CL1  UNL     1      -1.868  51.940 -18.983  1.00  0.00    -0.219 Cl
HETATM   32  H1  UNL     1      -2.882  52.653 -19.575  1.00  0.00     0.129 HD
ENDBRANCH  11  31
TORSDOF 4
ENDMDL
MODEL 3
REMARK minimizedAffinity -9.69466877
REMARK  4 active torsions:
REMARK  status: ('A' for Active; 'I' for Inactive)
REMARK    1  A    between atoms: CL1_1  and  C16_22 
REMARK    2  A    between atoms: C4_5  and  C5_6 
REMARK    3  A    between atoms: C9_10  and  N1_11 
REMARK    4  A    between atoms: N1_11  and  C10_12 
ROOT
HETATM    1  C10 UNL     1      -2.727  49.230 -25.462  1.00  0.00     0.117 A 
HETATM    2  N2  UNL     1      -2.837  49.218 -24.122  1.00  0.00    -0.338 N 
ATOM      3  H2  UNL     1      -2.059  49.554 -23.555  1.00  0.00     0.168 HD
HETATM    4  C11 UNL     1      -3.965  48.765 -23.506  1.00  0.00     0.182 A 
HETATM    5  N3  UNL     1      -5.020  48.310 -24.228  1.00  0.00    -0.352 N 
ATOM      6  H3  UNL     1      -5.858  47.974 -23.752  1.00  0.00     0.166 HD
HETATM    7  C12 UNL     1      -4.957  48.302 -25.593  1.00  0.00     0.047 A 
HETATM    8  C13 UNL     1      -6.006  47.845 -26.365  1.00  0.00     0.069 A 
HETATM    9  C14 UNL     1      -5.908  47.849 -27.739  1.00  0.00     0.102 A 
HETATM   10  C15 UNL     1      -4.744  48.318 -28.334  1.00  0.00     0.101 A 
HETATM   11  C16 UNL     1      -3.687  48.777 -27.605  1.00  0.00     0.161 A 
HETATM   12  C17 UNL     1      -3.805  48.765 -26.222  1.00  0.00     0.036 A 
HETATM   13  O1  UNL     1      -4.694  48.301 -29.710  1.00  0.00    -0.349 OA
HETATM   14  C18 UNL     1      -5.377  47.335 -30.495  1.00  0.00     0.202 C 
HETATM   15  C19 UNL     1      -6.619  46.803 -29.844  1.00  0.00     0.202 C 
HETATM   16  O2  UNL     1      -6.904  47.411 -28.588  1.00  0.00    -0.346 OA
ENDROOT
BRANCH   1  17
HETATM   17  N1  UNL     1      -1.573  49.686 -26.154  1.00  0.00    -0.342 N 
HETATM   18  H8  UNL     1      -1.367  49.191 -27.066  1.00  0.00     0.167 HD
BRANCH  17  19
HETATM   19  C9  UNL     1      -0.729  50.722 -25.703  1.00  0.00     0.034 A 
HETATM   20  C8  UNL     1       0.092  51.378 -26.608  1.00  0.00     0.029 A 
HETATM   21  C7  UNL     1       0.948  52.395 -26.242  1.00  0.00     0.003 A 
HETATM   22  C6  UNL     1       0.976  52.764 -24.915  1.00  0.00     0.012 A 
HETATM   23  C5  UNL     1       0.160  52.124 -23.978  1.00  0.00    -0.024 A 
HETATM   24  C20 UNL     1      -0.677  51.112 -24.402  1.00  0.00     0.041 A 
BRANCH  23  25
HETATM   25  C4  UNL     1       0.259  52.581 -22.610  1.00  0.00    -0.026 A 
HETATM   26  C3  UNL     1       1.059  53.616 -22.190  1.00  0.00     0.012 A 
HETATM   27  C2  UNL     1       1.102  53.999 -20.856  1.00  0.00     0.001 A 
HETATM   28  C1  UNL     1       0.350  53.366 -19.889  1.00  0.00     0.000 A 
HETATM   29  C22 UNL     1      -0.455  52.326 -20.303  1.00  0.00     0.001 A 
HETATM   30  C21 UNL     1      -0.497  51.949 -21.623  1.00  0.00     0.012 A 
ENDBRANCH  23  25
ENDBRANCH  17  19
ENDBRANCH   1  17
BRANCH  11  31
HETATM   31 CL1  UNL     1      -3.774  50.371 -27.074  1.00  0.00    -0.219 Cl
HETATM   32  H1  UNL     1      -3.343  51.625 -26.715  1.00  0.00     0.129 HD
ENDBRANCH  11  31
TORSDOF 4
ENDMDL
MODEL 4
REMARK minimizedAffinity -9.66115475
REMARK  4 active torsions:
REMARK  status: ('A' for Active; 'I' for Inactive)
REMARK    1  A    between atoms: CL1_1  and  C16_22 
REMARK    2  A    between atoms: C4_5  and  C5_6 
REMARK    3  A    between atoms: C9_10  and  N1_11 
REMARK    4  A    between atoms: N1_11  and  C10_12 
ROOT
HETATM    1  C10 UNL     1      -4.069  49.427 -24.788  1.00  0.00     0.117 A 
HETATM    2  N2  UNL     1      -4.710  48.430 -25.421  1.00  0.00    -0.338 N 
ATOM      3  H2  UNL     1      -5.239  47.751 -24.874  1.00  0.00     0.168 HD
HETATM    4  C11 UNL     1      -4.668  48.307 -26.778  1.00  0.00     0.182 A 
HETATM    5  N3  UNL     1      -3.974  49.191 -27.538  1.00  0.00    -0.352 N 
ATOM      6  H3  UNL     1      -3.952  49.086 -28.553  1.00  0.00     0.166 HD
HETATM    7  C12 UNL     1      -3.305  50.222 -26.942  1.00  0.00     0.047 A 
HETATM    8  C13 UNL     1      -2.586  51.143 -27.676  1.00  0.00     0.069 A 
HETATM    9  C14 UNL     1      -1.921  52.168 -27.043  1.00  0.00     0.102 A 
HETATM   10  C15 UNL     1      -1.986  52.265 -25.659  1.00  0.00     0.101 A 
HETATM   11  C16 UNL     1      -2.686  51.376 -24.898  1.00  0.00     0.161 A 
HETATM   12  C17 UNL     1      -3.349  50.348 -25.556  1.00  0.00     0.036 A 
HETATM   13  O1  UNL     1      -1.304  53.307 -25.071  1.00  0.00    -0.349 OA
HETATM   14  C18 UNL     1      -0.115  53.857 -25.618  1.00  0.00     0.202 C 
HETATM   15  C19 UNL     1      -0.026  53.729 -27.110  1.00  0.00     0.202 C 
HETATM   16  O2  UNL     1      -1.178  53.131 -27.696  1.00  0.00    -0.346 OA
ENDROOT
BRANCH   1  17
HETATM   17  N1  UNL     1      -4.076  49.599 -23.378  1.00  0.00    -0.342 N 
HETATM   18  H8  UNL     1      -4.978  49.972 -22.971  1.00  0.00     0.167 HD
BRANCH  17  19
HETATM   19  C9  UNL     1      -2.985  49.307 -22.533  1.00  0.00     0.034 A 
HETATM   20  C8  UNL     1      -2.580  47.991 -22.369  1.00  0.00     0.029 A 
HETATM   21  C7  UNL     1      -1.527  47.626 -21.557  1.00  0.00     0.003 A 
HETATM   22  C6  UNL     1      -0.860  48.627 -20.885  1.00  0.00     0.012 A 
HETATM   23  C5  UNL     1      -1.242  49.963 -21.029  1.00  0.00    -0.024 A 
HETATM   24  C20 UNL     1      -2.303  50.268 -21.856  1.00  0.00     0.041 A 
BRANCH  23  25
HETATM   25  C4  UNL     1      -0.481  50.941 -20.284  1.00  0.00    -0.026 A 
HETATM   26  C3  UNL     1      -0.436  51.014 -18.913  1.00  0.00     0.012 A 
HETATM   27  C2  UNL     1       0.319  51.983 -18.266  1.00  0.00     0.001 A 
HETATM   28  C1  UNL     1       1.058  52.917 -18.961  1.00  0.00     0.000 A 
HETATM   29  C22 UNL     1       1.018  52.851 -20.337  1.00  0.00     0.001 A 
HETATM   30  C21 UNL     1       0.271  51.890 -20.975  1.00  0.00     0.012 A 
ENDBRANCH  23  25
ENDBRANCH  17  19
ENDBRANCH   1  17
BRANCH  11  31
HETATM   31 CL1  UNL     1      -4.340  51.646 -24.756  1.00  0.00    -0.219 Cl
HETATM   32  H1  UNL     1      -5.588  51.666 -24.182  1.00  0.00     0.129 HD
ENDBRANCH  11  31
TORSDOF 4
ENDMDL
MODEL 5
REMARK minimizedAffinity -9.60659981
REMARK  4 active torsions:
REMARK  status: ('A' for Active; 'I' for Inactive)
REMARK    1  A    between atoms: CL1_1  and  C16_22 
REMARK    2  A    between atoms: C4_5  and  C5_6 
REMARK    3  A    between atoms: C9_10  and  N1_11 
REMARK    4  A    between atoms: N1_11  and  C10_12 
ROOT
HETATM    1  C10 UNL     1      -0.127  52.067 -21.103  1.00  0.00     0.117 A 
HETATM    2  N2  UNL     1       0.371  53.175 -21.678  1.00  0.00    -0.338 N 
ATOM      3  H2  UNL     1       0.195  53.346 -22.668  1.00  0.00     0.168 HD
HETATM    4  C11 UNL     1       1.106  54.076 -20.966  1.00  0.00     0.182 A 
HETATM    5  N3  UNL     1       1.360  53.882 -19.647  1.00  0.00    -0.352 N 
ATOM      6  H3  UNL     1       1.912  54.566 -19.128  1.00  0.00     0.166 HD
HETATM    7  C12 UNL     1       0.877  52.771 -19.017  1.00  0.00     0.047 A 
HETATM    8  C13 UNL     1       1.113  52.534 -17.679  1.00  0.00     0.069 A 
HETATM    9  C14 UNL     1       0.613  51.402 -17.076  1.00  0.00     0.102 A 
HETATM   10  C15 UNL     1      -0.133  50.506 -17.831  1.00  0.00     0.101 A 
HETATM   11  C16 UNL     1      -0.389  50.704 -19.155  1.00  0.00     0.161 A 
HETATM   12  C17 UNL     1       0.125  51.851 -19.745  1.00  0.00     0.036 A 
HETATM   13  O1  UNL     1      -0.611  49.388 -17.183  1.00  0.00    -0.349 OA
HETATM   14  C18 UNL     1       0.065  48.779 -16.093  1.00  0.00     0.202 C 
HETATM   15  C19 UNL     1       0.895  49.737 -15.292  1.00  0.00     0.202 C 
HETATM   16  O2  UNL     1       0.800  51.084 -15.746  1.00  0.00    -0.346 OA
ENDROOT
BRANCH   1  17
HETATM   17  N1  UNL     1      -0.894  51.094 -21.799  1.00  0.00    -0.342 N 
HETATM   18  H8  UNL     1      -1.432  50.419 -21.187  1.00  0.00     0.167 HD
BRANCH  17  19
HETATM   19  C9  UNL     1      -0.969  50.993 -23.203  1.00  0.00     0.034 A 
HETATM   20  C8  UNL     1      -0.003  51.606 -23.986  1.00  0.00     0.029 A 
HETATM   21  C7  UNL     1      -0.012  51.555 -25.365  1.00  0.00     0.003 A 
HETATM   22  C6  UNL     1      -1.035  50.861 -25.974  1.00  0.00     0.012 A 
HETATM   23  C5  UNL     1      -2.024  50.232 -25.214  1.00  0.00    -0.024 A 
HETATM   24  C20 UNL     1      -1.963  50.316 -23.838  1.00  0.00     0.041 A 
BRANCH  23  25
HETATM   25  C4  UNL     1      -3.055  49.528 -25.943  1.00  0.00    -0.026 A 
HETATM   26  C3  UNL     1      -3.152  49.488 -27.313  1.00  0.00     0.012 A 
HETATM   27  C2  UNL     1      -4.172  48.791 -27.945  1.00  0.00     0.001 A 
HETATM   28  C1  UNL     1      -5.135  48.104 -27.235  1.00  0.00     0.000 A 
HETATM   29  C22 UNL     1      -5.045  48.139 -25.860  1.00  0.00     0.001 A 
HETATM   30  C21 UNL     1      -4.034  48.830 -25.238  1.00  0.00     0.012 A 
ENDBRANCH  23  25
ENDBRANCH  17  19
ENDBRANCH   1  17
BRANCH  11  31
HETATM   31 CL1  UNL     1      -1.675  51.721 -19.529  1.00  0.00    -0.219 Cl
HETATM   32  H1  UNL     1      -2.751  52.221 -20.222  1.00  0.00     0.129 HD
ENDBRANCH  11  31
TORSDOF 4
ENDMDL
MODEL 6
REMARK minimizedAffinity -9.55027485
REMARK  4 active torsions:
REMARK  status: ('A' for Active; 'I' for Inactive)
REMARK    1  A    between atoms: CL1_1  and  C16_22 
REMARK    2  A    between atoms: C4_5  and  C5_6 
REMARK    3  A    between atoms: C9_10  and  N1_11 
REMARK    4  A    between atoms: N1_11  and  C10_12 
ROOT
HETATM    1  C10 UNL     1      -0.054  52.040 -23.299  1.00  0.00     0.117 A 
HETATM    2  N2  UNL     1       0.404  52.961 -24.164  1.00  0.00    -0.338 N 
ATOM      3  H2  UNL     1       0.259  52.822 -25.164  1.00  0.00     0.168 HD
HETATM    4  C11 UNL     1       1.059  54.076 -23.734  1.00  0.00     0.182 A 
HETATM    5  N3  UNL     1       1.271  54.294 -22.411  1.00  0.00    -0.352 N 
ATOM      6  H3  UNL     1       1.763  55.133 -22.104  1.00  0.00     0.166 HD
HETATM    7  C12 UNL     1       0.825  53.387 -21.492  1.00  0.00     0.047 A 
HETATM    8  C13 UNL     1       1.021  53.568 -20.138  1.00  0.00     0.069 A 
HETATM    9  C14 UNL     1       0.561  52.632 -19.239  1.00  0.00     0.102 A 
HETATM   10  C15 UNL     1      -0.104  51.508 -19.713  1.00  0.00     0.101 A 
HETATM   11  C16 UNL     1      -0.318  51.293 -21.042  1.00  0.00     0.161 A 
HETATM   12  C17 UNL     1       0.155  52.248 -21.932  1.00  0.00     0.036 A 
HETATM   13  O1  UNL     1      -0.545  50.601 -18.775  1.00  0.00    -0.349 OA
HETATM   14  C18 UNL     1       0.120  50.383 -17.540  1.00  0.00     0.202 C 
HETATM   15  C19 UNL     1       0.863  51.585 -17.039  1.00  0.00     0.202 C 
HETATM   16  O2  UNL     1       0.712  52.731 -17.871  1.00  0.00    -0.346 OA
ENDROOT
BRANCH   1  17
HETATM   17  N1  UNL     1      -0.738  50.859 -23.694  1.00  0.00    -0.342 N 
HETATM   18  H8  UNL     1      -0.784  50.096 -22.962  1.00  0.00     0.167 HD
BRANCH  17  19
HETATM   19  C9  UNL     1      -1.333  50.665 -24.958  1.00  0.00     0.034 A 
HETATM   20  C8  UNL     1      -0.777  51.270 -26.075  1.00  0.00     0.029 A 
HETATM   21  C7  UNL     1      -1.304  51.132 -27.342  1.00  0.00     0.003 A 
HETATM   22  C6  UNL     1      -2.434  50.357 -27.486  1.00  0.00     0.012 A 
HETATM   23  C5  UNL     1      -3.019  49.733 -26.380  1.00  0.00    -0.024 A 
HETATM   24  C20 UNL     1      -2.447  49.907 -25.136  1.00  0.00     0.041 A 
BRANCH  23  25
HETATM   25  C4  UNL     1      -4.201  48.940 -26.630  1.00  0.00    -0.026 A 
HETATM   26  C3  UNL     1      -5.085  48.531 -25.661  1.00  0.00     0.012 A 
HETATM   27  C2  UNL     1      -6.201  47.770 -25.977  1.00  0.00     0.001 A 
HETATM   28  C1  UNL     1      -6.481  47.386 -27.272  1.00  0.00     0.000 A 
HETATM   29  C22 UNL     1      -5.599  47.792 -28.251  1.00  0.00     0.001 A 
HETATM   30  C21 UNL     1      -4.495  48.546 -27.935  1.00  0.00     0.012 A 
ENDBRANCH  23  25
ENDBRANCH  17  19
ENDBRANCH   1  17
BRANCH  11  31
HETATM   31 CL1  UNL     1      -1.643  52.071 -21.727  1.00  0.00    -0.219 Cl
HETATM   32  H1  UNL     1      -2.716  52.276 -22.560  1.00  0.00     0.129 HD
ENDBRANCH  11  31
TORSDOF 4
ENDMDL
MODEL 7
REMARK minimizedAffinity -9.32702065
REMARK  4 active torsions:
REMARK  status: ('A' for Active; 'I' for Inactive)
REMARK    1  A    between atoms: CL1_1  and  C16_22 
REMARK    2  A    between atoms: C4_5  and  C5_6 
REMARK    3  A    between atoms: C9_10  and  N1_11 
REMARK    4  A    between atoms: N1_11  and  C10_12 
ROOT
HETATM    1  C10 UNL     1      -3.330  49.719 -21.805  1.00  0.00     0.117 A 
HETATM    2  N2  UNL     1      -4.516  49.396 -21.261  1.00  0.00    -0.338 N 
ATOM      3  H2  UNL     1      -5.188  48.861 -21.811  1.00  0.00     0.168 HD
HETATM    4  C11 UNL     1      -4.839  49.768 -19.991  1.00  0.00     0.182 A 
HETATM    5  N3  UNL     1      -3.971  50.481 -19.230  1.00  0.00    -0.352 N 
ATOM      6  H3  UNL     1      -4.227  50.753 -18.280  1.00  0.00     0.166 HD
HETATM    7  C12 UNL     1      -2.753  50.835 -19.738  1.00  0.00     0.047 A 
HETATM    8  C13 UNL     1      -1.841  51.561 -18.999  1.00  0.00     0.069 A 
HETATM    9  C14 UNL     1      -0.623  51.903 -19.544  1.00  0.00     0.102 A 
HETATM   10  C15 UNL     1      -0.326  51.506 -20.841  1.00  0.00     0.101 A 
HETATM   11  C16 UNL     1      -1.200  50.787 -21.602  1.00  0.00     0.161 A 
HETATM   12  C17 UNL     1      -2.422  50.453 -21.036  1.00  0.00     0.036 A 
HETATM   13  O1  UNL     1       0.904  51.872 -21.341  1.00  0.00    -0.349 OA
HETATM   14  C18 UNL     1       1.574  53.061 -20.950  1.00  0.00     0.202 C 
HETATM   15  C19 UNL     1       1.233  53.510 -19.559  1.00  0.00     0.202 C 
HETATM   16  O2  UNL     1       0.347  52.626 -18.880  1.00  0.00    -0.346 OA
ENDROOT
BRANCH   1  17
HETATM   17  N1  UNL     1      -2.945  49.361 -23.125  1.00  0.00    -0.342 N 
HETATM   18  H8  UNL     1      -2.826  48.324 -23.297  1.00  0.00     0.167 HD
BRANCH  17  19
HETATM   19  C9  UNL     1      -2.724  50.282 -24.170  1.00  0.00     0.034 A 
HETATM   20  C8  UNL     1      -3.756  51.113 -24.578  1.00  0.00     0.029 A 
HETATM   21  C7  UNL     1      -3.619  52.035 -25.595  1.00  0.00     0.003 A 
HETATM   22  C6  UNL     1      -2.395  52.119 -26.223  1.00  0.00     0.012 A 
HETATM   23  C5  UNL     1      -1.334  51.296 -25.835  1.00  0.00    -0.024 A 
HETATM   24  C20 UNL     1      -1.530  50.393 -24.810  1.00  0.00     0.041 A 
BRANCH  23  25
HETATM   25  C4  UNL     1      -0.089  51.458 -26.552  1.00  0.00    -0.026 A 
HETATM   26  C3  UNL     1       0.007  51.701 -27.901  1.00  0.00     0.012 A 
HETATM   27  C2  UNL     1       1.240  51.845 -28.522  1.00  0.00     0.001 A 
HETATM   28  C1  UNL     1       2.426  51.755 -27.822  1.00  0.00     0.000 A 
HETATM   29  C22 UNL     1       2.338  51.512 -26.468  1.00  0.00     0.001 A 
HETATM   30  C21 UNL     1       1.116  51.369 -25.856  1.00  0.00     0.012 A 
ENDBRANCH  23  25
ENDBRANCH  17  19
ENDBRANCH   1  17
BRANCH  11  31
HETATM   31 CL1  UNL     1      -1.224  49.124 -21.354  1.00  0.00    -0.219 Cl
HETATM   32  H1  UNL     1      -1.347  47.788 -21.649  1.00  0.00     0.129 HD
ENDBRANCH  11  31
TORSDOF 4
ENDMDL
MODEL 8
REMARK minimizedAffinity -9.3229847
REMARK  4 active torsions:
REMARK  status: ('A' for Active; 'I' for Inactive)
REMARK    1  A    between atoms: CL1_1  and  C16_22 
REMARK    2  A    between atoms: C4_5  and  C5_6 
REMARK    3  A    between atoms: C9_10  and  N1_11 
REMARK    4  A    between atoms: N1_11  and  C10_12 
ROOT
HETATM    1  C10 UNL     1      -0.965  51.922 -19.885  1.00  0.00     0.117 A 
HETATM    2  N2  UNL     1      -0.417  52.107 -18.672  1.00  0.00    -0.338 N 
ATOM      3  H2  UNL     1      -0.855  51.680 -17.856  1.00  0.00     0.168 HD
HETATM    4  C11 UNL     1       0.712  52.853 -18.509  1.00  0.00     0.182 A 
HETATM    5  N3  UNL     1       1.322  53.437 -19.572  1.00  0.00    -0.352 N 
ATOM      6  H3  UNL     1       2.166  53.994 -19.434  1.00  0.00     0.166 HD
HETATM    7  C12 UNL     1       0.803  53.280 -20.825  1.00  0.00     0.047 A 
HETATM    8  C13 UNL     1       1.389  53.857 -21.933  1.00  0.00     0.069 A 
HETATM    9  C14 UNL     1       0.838  53.680 -23.182  1.00  0.00     0.102 A 
HETATM   10  C15 UNL     1      -0.312  52.912 -23.312  1.00  0.00     0.101 A 
HETATM   11  C16 UNL     1      -0.921  52.325 -22.242  1.00  0.00     0.161 A 
HETATM   12  C17 UNL     1      -0.350  52.516 -20.991  1.00  0.00     0.036 A 
HETATM   13  O1  UNL     1      -0.826  52.764 -24.581  1.00  0.00    -0.349 OA
HETATM   14  C18 UNL     1      -0.697  53.758 -25.586  1.00  0.00     0.202 C 
HETATM   15  C19 UNL     1       0.529  54.610 -25.434  1.00  0.00     0.202 C 
HETATM   16  O2  UNL     1       1.356  54.220 -24.342  1.00  0.00    -0.346 OA
ENDROOT
BRANCH   1  17
HETATM   17  N1  UNL     1      -2.142  51.159 -20.110  1.00  0.00    -0.342 N 
HETATM   18  H8  UNL     1      -3.024  51.546 -19.672  1.00  0.00     0.167 HD
BRANCH  17  19
HETATM   19  C9  UNL     1      -2.188  49.963 -20.856  1.00  0.00     0.034 A 
HETATM   20  C8  UNL     1      -1.625  48.809 -20.335  1.00  0.00     0.029 A 
HETATM   21  C7  UNL     1      -1.625  47.604 -21.007  1.00  0.00     0.003 A 
HETATM   22  C6  UNL     1      -2.216  47.565 -22.251  1.00  0.00     0.012 A 
HETATM   23  C5  UNL     1      -2.794  48.711 -22.805  1.00  0.00    -0.024 A 
HETATM   24  C20 UNL     1      -2.764  49.888 -22.086  1.00  0.00     0.041 A 
BRANCH  23  25
HETATM   25  C4  UNL     1      -3.390  48.570 -24.115  1.00  0.00    -0.026 A 
HETATM   26  C3  UNL     1      -2.690  48.607 -25.297  1.00  0.00     0.012 A 
HETATM   27  C2  UNL     1      -3.331  48.465 -26.520  1.00  0.00     0.001 A 
HETATM   28  C1  UNL     1      -4.695  48.280 -26.612  1.00  0.00     0.000 A 
HETATM   29  C22 UNL     1      -5.404  48.242 -25.431  1.00  0.00     0.001 A 
HETATM   30  C21 UNL     1      -4.766  48.383 -24.222  1.00  0.00     0.012 A 
ENDBRANCH  23  25
ENDBRANCH  17  19
ENDBRANCH   1  17
BRANCH  11  31
HETATM   31 CL1  UNL     1      -0.286  50.855 -21.728  1.00  0.00    -0.219 Cl
HETATM   32  H1  UNL     1      -0.260  49.586 -21.201  1.00  0.00     0.129 HD
ENDBRANCH  11  31
TORSDOF 4
ENDMDL
MODEL 9
REMARK minimizedAffinity -9.31527328
REMARK  4 active torsions:
REMARK  status: ('A' for Active; 'I' for Inactive)
REMARK    1  A    between atoms: CL1_1  and  C16_22 
REMARK    2  A    between atoms: C4_5  and  C5_6 
REMARK    3  A    between atoms: C9_10  and  N1_11 
REMARK    4  A    between atoms: N1_11  and  C10_12 
ROOT
HETATM    1  C10 UNL     1      -1.300  51.969 -22.707  1.00  0.00     0.117 A 
HETATM    2  N2  UNL     1      -2.611  52.100 -22.440  1.00  0.00    -0.338 N 
ATOM      3  H2  UNL     1      -2.942  51.971 -21.484  1.00  0.00     0.168 HD
HETATM    4  C11 UNL     1      -3.508  52.403 -23.421  1.00  0.00     0.182 A 
HETATM    5  N3  UNL     1      -3.106  52.582 -24.704  1.00  0.00    -0.352 N 
ATOM      6  H3  UNL     1      -3.789  52.809 -25.427  1.00  0.00     0.166 HD
HETATM    7  C12 UNL     1      -1.784  52.459 -25.026  1.00  0.00     0.047 A 
HETATM    8  C13 UNL     1      -1.332  52.630 -26.318  1.00  0.00     0.069 A 
HETATM    9  C14 UNL     1       0.008  52.495 -26.608  1.00  0.00     0.102 A 
HETATM   10  C15 UNL     1       0.894  52.188 -25.585  1.00  0.00     0.101 A 
HETATM   11  C16 UNL     1       0.487  52.011 -24.295  1.00  0.00     0.161 A 
HETATM   12  C17 UNL     1      -0.867  52.150 -24.024  1.00  0.00     0.036 A 
HETATM   13  O1  UNL     1       2.223  52.063 -25.924  1.00  0.00    -0.349 OA
HETATM   14  C18 UNL     1       2.655  51.608 -27.198  1.00  0.00     0.202 C 
HETATM   15  C19 UNL     1       1.687  51.912 -28.303  1.00  0.00     0.202 C 
HETATM   16  O2  UNL     1       0.547  52.648 -27.869  1.00  0.00    -0.346 OA
ENDROOT
BRANCH   1  17
HETATM   17  N1  UNL     1      -0.325  51.650 -21.725  1.00  0.00    -0.342 N 
HETATM   18  H8  UNL     1       0.657  51.502 -22.092  1.00  0.00     0.167 HD
BRANCH  17  19
HETATM   19  C9  UNL     1      -0.591  51.527 -20.345  1.00  0.00     0.034 A 
HETATM   20  C8  UNL     1      -1.888  51.290 -19.918  1.00  0.00     0.029 A 
HETATM   21  C7  UNL     1      -2.228  51.164 -18.587  1.00  0.00     0.003 A 
HETATM   22  C6  UNL     1      -1.220  51.281 -17.654  1.00  0.00     0.012 A 
HETATM   23  C5  UNL     1       0.099  51.518 -18.052  1.00  0.00    -0.024 A 
HETATM   24  C20 UNL     1       0.379  51.635 -19.398  1.00  0.00     0.041 A 
BRANCH  23  25
HETATM   25  C4  UNL     1       1.086  51.625 -17.002  1.00  0.00    -0.026 A 
HETATM   26  C3  UNL     1       1.048  50.921 -15.822  1.00  0.00     0.012 A 
HETATM   27  C2  UNL     1       2.033  51.076 -14.857  1.00  0.00     0.001 A 
HETATM   28  C1  UNL     1       3.096  51.938 -15.031  1.00  0.00     0.000 A 
HETATM   29  C22 UNL     1       3.142  52.647 -16.212  1.00  0.00     0.001 A 
HETATM   30  C21 UNL     1       2.165  52.491 -17.165  1.00  0.00     0.012 A 
ENDBRANCH  23  25
ENDBRANCH  17  19
ENDBRANCH   1  17
BRANCH  11  31
HETATM   31 CL1  UNL     1       0.279  53.402 -23.374  1.00  0.00    -0.219 Cl
HETATM   32  H1  UNL     1       0.268  54.212 -22.264  1.00  0.00     0.129 HD
ENDBRANCH  11  31
TORSDOF 4
ENDMDL
