MODEL 1
REMARK minimizedAffinity -8.38132477
REMARK  5 active torsions:
REMARK  status: ('A' for Active; 'I' for Inactive)
REMARK    1  A    between atoms: N1_2  and  C3_4 
REMARK    2  A    between atoms: C3_4  and  C4_5 
REMARK    3  A    between atoms: C4_5  and  C5_6 
REMARK    4  A    between atoms: C5_6  and  C6_7 
REMARK    5  A    between atoms: C7_8  and  C8_9 
ROOT
HETATM    1  C6  UNL     1      -7.835   7.132  14.751  1.00  0.00    -0.023 A 
HETATM    2  C7  UNL     1      -7.741   6.165  13.748  1.00  0.00     0.040 A 
HETATM    3  N3  UNL     1      -9.000   6.012  13.213  1.00  0.00    -0.359 N 
HETATM    4  C17 UNL     1      -9.878   6.846  13.842  1.00  0.00     0.016 A 
HETATM    5  C18 UNL     1      -9.194   7.561  14.797  1.00  0.00    -0.027 A 
HETATM    6  C19 UNL     1      -9.866   8.558  15.681  1.00  0.00     0.041 C 
HETATM    7  C20 UNL     1     -11.248   8.952  15.123  1.00  0.00     0.005 C 
HETATM    8  C21 UNL     1     -12.049   7.728  14.636  1.00  0.00     0.006 C 
HETATM    9  C22 UNL     1     -11.323   6.967  13.512  1.00  0.00     0.057 C 
HETATM   10  H18 UNL     1      -9.250   5.377  12.461  1.00  0.00     0.166 HD
ENDROOT
BRANCH   2  11
HETATM   11  C8  UNL     1      -6.619   5.419  13.283  1.00  0.00     0.048 C 
HETATM   12  C9  UNL     1      -6.555   4.154  12.832  1.00  0.00     0.047 A 
HETATM   13  C10 UNL     1      -7.626   3.103  12.657  1.00  0.00     0.257 A 
HETATM   14  C16 UNL     1      -5.292   3.525  12.395  1.00  0.00     0.009 A 
HETATM   15  O1  UNL     1      -8.819   3.188  12.883  1.00  0.00    -0.267 OA
HETATM   16  N2  UNL     1      -6.972   1.986  12.164  1.00  0.00    -0.322 N 
HETATM   17  C11 UNL     1      -5.613   2.219  12.006  1.00  0.00     0.046 A 
HETATM   18  H14 UNL     1      -7.454   1.127  11.950  1.00  0.00     0.169 HD
HETATM   19  C12 UNL     1      -4.672   1.324  11.533  1.00  0.00     0.033 A 
HETATM   20  C13 UNL     1      -3.353   1.769  11.454  1.00  0.00     0.044 A 
HETATM   21  C14 UNL     1      -3.023   3.076  11.842  1.00  0.00     0.117 A 
HETATM   22  F1  UNL     1      -1.746   3.476  11.758  1.00  0.00    -0.206 F 
HETATM   23  C15 UNL     1      -3.983   3.969  12.317  1.00  0.00     0.057 A 
ENDBRANCH   2  11
BRANCH   1  24
HETATM   24  C5  UNL     1      -6.733   7.646  15.634  1.00  0.00     0.043 C 
BRANCH  24  25
HETATM   25  C4  UNL     1      -5.432   6.863  15.434  1.00  0.00     0.035 C 
BRANCH  25  26
HETATM   26  C3  UNL     1      -4.196   7.769  15.363  1.00  0.00     0.271 C 
BRANCH  26  27
HETATM   27  N1  UNL     1      -2.949   7.144  15.836  1.00  0.00     0.080 N 
HETATM   28  C1  UNL     1      -2.422   6.238  14.812  1.00  0.00     0.309 C 
HETATM   29  C2  UNL     1      -1.933   8.140  16.183  1.00  0.00     0.309 C 
ENDBRANCH  26  27
ENDBRANCH  25  26
ENDBRANCH  24  25
ENDBRANCH   1  24
TORSDOF 5
ENDMDL
MODEL 2
REMARK minimizedAffinity -8.36271954
REMARK  5 active torsions:
REMARK  status: ('A' for Active; 'I' for Inactive)
REMARK    1  A    between atoms: N1_2  and  C3_4 
REMARK    2  A    between atoms: C3_4  and  C4_5 
REMARK    3  A    between atoms: C4_5  and  C5_6 
REMARK    4  A    between atoms: C5_6  and  C6_7 
REMARK    5  A    between atoms: C7_8  and  C8_9 
ROOT
HETATM    1  C6  UNL     1      -1.568   7.505  12.701  1.00  0.00    -0.023 A 
HETATM    2  C7  UNL     1      -1.831   6.137  12.601  1.00  0.00     0.040 A 
HETATM    3  N3  UNL     1      -0.627   5.509  12.373  1.00  0.00    -0.359 N 
HETATM    4  C17 UNL     1       0.378   6.430  12.328  1.00  0.00     0.016 A 
HETATM    5  C18 UNL     1      -0.163   7.678  12.533  1.00  0.00    -0.027 A 
HETATM    6  C19 UNL     1       0.668   8.918  12.530  1.00  0.00     0.041 C 
HETATM    7  C20 UNL     1       2.166   8.583  12.679  1.00  0.00     0.005 C 
HETATM    8  C21 UNL     1       2.589   7.400  11.787  1.00  0.00     0.006 C 
HETATM    9  C22 UNL     1       1.816   6.112  12.122  1.00  0.00     0.057 C 
HETATM   10  H18 UNL     1      -0.495   4.509  12.257  1.00  0.00     0.166 HD
ENDROOT
BRANCH   2  11
HETATM   11  C8  UNL     1      -3.059   5.421  12.697  1.00  0.00     0.048 C 
HETATM   12  C9  UNL     1      -3.445   4.290  12.082  1.00  0.00     0.047 A 
HETATM   13  C10 UNL     1      -2.729   3.396  11.097  1.00  0.00     0.257 A 
HETATM   14  C16 UNL     1      -4.775   3.681  12.290  1.00  0.00     0.009 A 
HETATM   15  O1  UNL     1      -1.604   3.510  10.647  1.00  0.00    -0.267 OA
HETATM   16  N2  UNL     1      -3.623   2.382  10.797  1.00  0.00    -0.322 N 
HETATM   17  C11 UNL     1      -4.817   2.536  11.487  1.00  0.00     0.046 A 
HETATM   18  H14 UNL     1      -3.400   1.635  10.158  1.00  0.00     0.169 HD
HETATM   19  C12 UNL     1      -5.919   1.703  11.424  1.00  0.00     0.033 A 
HETATM   20  C13 UNL     1      -7.022   2.046  12.206  1.00  0.00     0.044 A 
HETATM   21  C14 UNL     1      -6.987   3.192  13.014  1.00  0.00     0.117 A 
HETATM   22  F1  UNL     1      -8.063   3.498  13.753  1.00  0.00    -0.206 F 
HETATM   23  C15 UNL     1      -5.869   4.023  13.068  1.00  0.00     0.057 A 
ENDBRANCH   2  11
BRANCH   1  24
HETATM   24  C5  UNL     1      -2.555   8.612  12.940  1.00  0.00     0.043 C 
BRANCH  24  25
HETATM   25  C4  UNL     1      -4.000   8.108  12.884  1.00  0.00     0.035 C 
BRANCH  25  26
HETATM   26  C3  UNL     1      -4.877   8.685  14.003  1.00  0.00     0.271 C 
BRANCH  26  27
HETATM   27  N1  UNL     1      -5.940   7.783  14.476  1.00  0.00     0.080 N 
HETATM   28  C1  UNL     1      -5.383   6.789  15.398  1.00  0.00     0.309 C 
HETATM   29  C2  UNL     1      -7.026   8.512  15.135  1.00  0.00     0.309 C 
ENDBRANCH  26  27
ENDBRANCH  25  26
ENDBRANCH  24  25
ENDBRANCH   1  24
TORSDOF 5
ENDMDL
MODEL 3
REMARK minimizedAffinity -8.20649815
REMARK  5 active torsions:
REMARK  status: ('A' for Active; 'I' for Inactive)
REMARK    1  A    between atoms: N1_2  and  C3_4 
REMARK    2  A    between atoms: C3_4  and  C4_5 
REMARK    3  A    between atoms: C4_5  and  C5_6 
REMARK    4  A    between atoms: C5_6  and  C6_7 
REMARK    5  A    between atoms: C7_8  and  C8_9 
ROOT
HETATM    1  C6  UNL     1      -3.027   5.752  12.705  1.00  0.00    -0.023 A 
HETATM    2  C7  UNL     1      -4.333   5.373  13.024  1.00  0.00     0.040 A 
HETATM    3  N3  UNL     1      -4.451   4.034  12.726  1.00  0.00    -0.359 N 
HETATM    4  C17 UNL     1      -3.269   3.561  12.235  1.00  0.00     0.016 A 
HETATM    5  C18 UNL     1      -2.360   4.592  12.213  1.00  0.00    -0.027 A 
HETATM    6  C19 UNL     1      -0.964   4.416  11.714  1.00  0.00     0.041 C 
HETATM    7  C20 UNL     1      -0.588   2.922  11.634  1.00  0.00     0.005 C 
HETATM    8  C21 UNL     1      -1.714   2.071  11.015  1.00  0.00     0.006 C 
HETATM    9  C22 UNL     1      -3.019   2.152  11.828  1.00  0.00     0.057 C 
HETATM   10  H18 UNL     1      -5.287   3.471  12.850  1.00  0.00     0.166 HD
ENDROOT
BRANCH   2  11
HETATM   11  C8  UNL     1      -5.415   6.133  13.555  1.00  0.00     0.048 C 
HETATM   12  C9  UNL     1      -6.739   5.925  13.464  1.00  0.00     0.047 A 
HETATM   13  C10 UNL     1      -7.532   4.831  12.786  1.00  0.00     0.257 A 
HETATM   14  C16 UNL     1      -7.735   6.830  14.073  1.00  0.00     0.009 A 
HETATM   15  O1  UNL     1      -7.121   3.866  12.168  1.00  0.00    -0.267 OA
HETATM   16  N2  UNL     1      -8.862   5.140  13.016  1.00  0.00    -0.322 N 
HETATM   17  C11 UNL     1      -8.994   6.301  13.765  1.00  0.00     0.046 A 
HETATM   18  H14 UNL     1      -9.618   4.568  12.672  1.00  0.00     0.169 HD
HETATM   19  C12 UNL     1     -10.176   6.888  14.175  1.00  0.00     0.033 A 
HETATM   20  C13 UNL     1     -10.078   8.060  14.926  1.00  0.00     0.044 A 
HETATM   21  C14 UNL     1      -8.821   8.597  15.238  1.00  0.00     0.117 A 
HETATM   22  F1  UNL     1      -8.757   9.725  15.959  1.00  0.00    -0.206 F 
HETATM   23  C15 UNL     1      -7.636   7.993  14.819  1.00  0.00     0.057 A 
ENDBRANCH   2  11
BRANCH   1  24
HETATM   24  C5  UNL     1      -2.410   7.114  12.844  1.00  0.00     0.043 C 
BRANCH  24  25
HETATM   25  C4  UNL     1      -1.029   7.183  12.184  1.00  0.00     0.035 C 
BRANCH  25  26
HETATM   26  C3  UNL     1      -0.737   8.551  11.555  1.00  0.00     0.271 C 
BRANCH  26  27
HETATM   27  N1  UNL     1       0.316   8.540  10.525  1.00  0.00     0.080 N 
HETATM   28  C1  UNL     1       1.148   7.342  10.670  1.00  0.00     0.309 C 
HETATM   29  C2  UNL     1      -0.240   8.594   9.172  1.00  0.00     0.309 C 
ENDBRANCH  26  27
ENDBRANCH  25  26
ENDBRANCH  24  25
ENDBRANCH   1  24
TORSDOF 5
ENDMDL
MODEL 4
REMARK minimizedAffinity -8.18847942
REMARK  5 active torsions:
REMARK  status: ('A' for Active; 'I' for Inactive)
REMARK    1  A    between atoms: N1_2  and  C3_4 
REMARK    2  A    between atoms: C3_4  and  C4_5 
REMARK    3  A    between atoms: C4_5  and  C5_6 
REMARK    4  A    between atoms: C5_6  and  C6_7 
REMARK    5  A    between atoms: C7_8  and  C8_9 
ROOT
HETATM    1  C6  UNL     1      -0.835   5.895  12.922  1.00  0.00    -0.023 A 
HETATM    2  C7  UNL     1      -1.940   5.739  13.762  1.00  0.00     0.040 A 
HETATM    3  N3  UNL     1      -1.603   6.283  14.981  1.00  0.00    -0.359 N 
HETATM    4  C17 UNL     1      -0.331   6.774  14.935  1.00  0.00     0.016 A 
HETATM    5  C18 UNL     1       0.176   6.559  13.676  1.00  0.00    -0.027 A 
HETATM    6  C19 UNL     1       1.561   6.966  13.293  1.00  0.00     0.041 C 
HETATM    7  C20 UNL     1       2.145   7.971  14.306  1.00  0.00     0.005 C 
HETATM    8  C21 UNL     1       1.867   7.554  15.764  1.00  0.00     0.006 C 
HETATM    9  C22 UNL     1       0.360   7.454  16.064  1.00  0.00     0.057 C 
HETATM   10  H18 UNL     1      -2.204   6.320  15.798  1.00  0.00     0.166 HD
ENDROOT
BRANCH   2  11
HETATM   11  C8  UNL     1      -3.214   5.149  13.517  1.00  0.00     0.048 C 
HETATM   12  C9  UNL     1      -4.434   5.712  13.503  1.00  0.00     0.047 A 
HETATM   13  C10 UNL     1      -4.876   7.138  13.733  1.00  0.00     0.257 A 
HETATM   14  C16 UNL     1      -5.666   4.942  13.238  1.00  0.00     0.009 A 
HETATM   15  O1  UNL     1      -4.193   8.116  13.975  1.00  0.00    -0.267 OA
HETATM   16  N2  UNL     1      -6.255   7.124  13.604  1.00  0.00    -0.322 N 
HETATM   17  C11 UNL     1      -6.727   5.852  13.315  1.00  0.00     0.046 A 
HETATM   18  H14 UNL     1      -6.817   7.955  13.708  1.00  0.00     0.169 HD
HETATM   19  C12 UNL     1      -8.046   5.486  13.119  1.00  0.00     0.033 A 
HETATM   20  C13 UNL     1      -8.300   4.144  12.836  1.00  0.00     0.044 A 
HETATM   21  C14 UNL     1      -7.242   3.226  12.758  1.00  0.00     0.117 A 
HETATM   22  F1  UNL     1      -7.515   1.942  12.487  1.00  0.00    -0.206 F 
HETATM   23  C15 UNL     1      -5.916   3.609  12.957  1.00  0.00     0.057 A 
ENDBRANCH   2  11
BRANCH   1  24
HETATM   24  C5  UNL     1      -0.704   5.458  11.491  1.00  0.00     0.043 C 
BRANCH  24  25
HETATM   25  C4  UNL     1      -1.621   4.274  11.171  1.00  0.00     0.035 C 
BRANCH  25  26
HETATM   26  C3  UNL     1      -0.937   2.917  11.377  1.00  0.00     0.271 C 
BRANCH  26  27
HETATM   27  N1  UNL     1      -1.648   1.774  10.780  1.00  0.00     0.080 N 
HETATM   28  C1  UNL     1      -0.752   0.618  10.684  1.00  0.00     0.309 C 
HETATM   29  C2  UNL     1      -2.842   1.410  11.547  1.00  0.00     0.309 C 
ENDBRANCH  26  27
ENDBRANCH  25  26
ENDBRANCH  24  25
ENDBRANCH   1  24
TORSDOF 5
ENDMDL
MODEL 5
REMARK minimizedAffinity -8.17927361
REMARK  5 active torsions:
REMARK  status: ('A' for Active; 'I' for Inactive)
REMARK    1  A    between atoms: N1_2  and  C3_4 
REMARK    2  A    between atoms: C3_4  and  C4_5 
REMARK    3  A    between atoms: C4_5  and  C5_6 
REMARK    4  A    between atoms: C5_6  and  C6_7 
REMARK    5  A    between atoms: C7_8  and  C8_9 
ROOT
HETATM    1  C6  UNL     1       0.037   5.909  12.433  1.00  0.00    -0.023 A 
HETATM    2  C7  UNL     1      -1.084   5.529  13.174  1.00  0.00     0.040 A 
HETATM    3  N3  UNL     1      -0.936   6.061  14.436  1.00  0.00    -0.359 N 
HETATM    4  C17 UNL     1       0.235   6.759  14.512  1.00  0.00     0.016 A 
HETATM    5  C18 UNL     1       0.863   6.694  13.291  1.00  0.00    -0.027 A 
HETATM    6  C19 UNL     1       2.182   7.344  13.036  1.00  0.00     0.041 C 
HETATM    7  C20 UNL     1       2.510   8.380  14.130  1.00  0.00     0.005 C 
HETATM    8  C21 UNL     1       2.200   7.851  15.544  1.00  0.00     0.006 C 
HETATM    9  C22 UNL     1       0.715   7.486  15.717  1.00  0.00     0.057 C 
HETATM   10  H18 UNL     1      -1.593   5.957  15.203  1.00  0.00     0.166 HD
ENDROOT
BRANCH   2  11
HETATM   11  C8  UNL     1      -2.218   4.749  12.805  1.00  0.00     0.048 C 
HETATM   12  C9  UNL     1      -3.509   4.889  13.151  1.00  0.00     0.047 A 
HETATM   13  C10 UNL     1      -4.200   5.906  14.030  1.00  0.00     0.257 A 
HETATM   14  C16 UNL     1      -4.566   3.973  12.680  1.00  0.00     0.009 A 
HETATM   15  O1  UNL     1      -3.717   6.853  14.621  1.00  0.00    -0.267 OA
HETATM   16  N2  UNL     1      -5.538   5.547  14.030  1.00  0.00    -0.322 N 
HETATM   17  C11 UNL     1      -5.765   4.424  13.247  1.00  0.00     0.046 A 
HETATM   18  H14 UNL     1      -6.236   6.063  14.542  1.00  0.00     0.169 HD
HETATM   19  C12 UNL     1      -6.980   3.805  13.026  1.00  0.00     0.033 A 
HETATM   20  C13 UNL     1      -6.982   2.682  12.198  1.00  0.00     0.044 A 
HETATM   21  C14 UNL     1      -5.786   2.223  11.626  1.00  0.00     0.117 A 
HETATM   22  F1  UNL     1      -5.817   1.140  10.837  1.00  0.00    -0.206 F 
HETATM   23  C15 UNL     1      -4.566   2.858  11.858  1.00  0.00     0.057 A 
ENDBRANCH   2  11
BRANCH   1  24
HETATM   24  C5  UNL     1       0.346   5.572  11.002  1.00  0.00     0.043 C 
BRANCH  24  25
HETATM   25  C4  UNL     1       0.582   6.830  10.160  1.00  0.00     0.035 C 
BRANCH  25  26
HETATM   26  C3  UNL     1       1.800   6.708   9.235  1.00  0.00     0.271 C 
BRANCH  26  27
HETATM   27  N1  UNL     1       1.868   7.727   8.174  1.00  0.00     0.080 N 
HETATM   28  C1  UNL     1       3.128   8.469   8.271  1.00  0.00     0.309 C 
HETATM   29  C2  UNL     1       1.745   7.137   6.839  1.00  0.00     0.309 C 
ENDBRANCH  26  27
ENDBRANCH  25  26
ENDBRANCH  24  25
ENDBRANCH   1  24
TORSDOF 5
ENDMDL
MODEL 6
REMARK minimizedAffinity -8.16815853
REMARK  5 active torsions:
REMARK  status: ('A' for Active; 'I' for Inactive)
REMARK    1  A    between atoms: N1_2  and  C3_4 
REMARK    2  A    between atoms: C3_4  and  C4_5 
REMARK    3  A    between atoms: C4_5  and  C5_6 
REMARK    4  A    between atoms: C5_6  and  C6_7 
REMARK    5  A    between atoms: C7_8  and  C8_9 
ROOT
HETATM    1  C6  UNL     1      -0.333   6.275  13.093  1.00  0.00    -0.023 A 
HETATM    2  C7  UNL     1      -1.079   5.595  12.127  1.00  0.00     0.040 A 
HETATM    3  N3  UNL     1      -0.312   5.543  10.985  1.00  0.00    -0.359 N 
HETATM    4  C17 UNL     1       0.885   6.163  11.199  1.00  0.00     0.016 A 
HETATM    5  C18 UNL     1       0.913   6.624  12.494  1.00  0.00    -0.027 A 
HETATM    6  C19 UNL     1       2.082   7.367  13.051  1.00  0.00     0.041 C 
HETATM    7  C20 UNL     1       3.330   7.183  12.165  1.00  0.00     0.005 C 
HETATM    8  C21 UNL     1       3.005   7.322  10.665  1.00  0.00     0.006 C 
HETATM    9  C22 UNL     1       1.974   6.280  10.193  1.00  0.00     0.057 C 
HETATM   10  H18 UNL     1      -0.585   5.109  10.109  1.00  0.00     0.166 HD
ENDROOT
BRANCH   2  11
HETATM   11  C8  UNL     1      -2.383   5.026  12.196  1.00  0.00     0.048 C 
HETATM   12  C9  UNL     1      -2.805   3.797  11.852  1.00  0.00     0.047 A 
HETATM   13  C10 UNL     1      -2.060   2.610  11.288  1.00  0.00     0.257 A 
HETATM   14  C16 UNL     1      -4.213   3.370  11.981  1.00  0.00     0.009 A 
HETATM   15  O1  UNL     1      -0.875   2.508  11.030  1.00  0.00    -0.267 OA
HETATM   16  N2  UNL     1      -3.013   1.619  11.123  1.00  0.00    -0.322 N 
HETATM   17  C11 UNL     1      -4.270   2.048  11.523  1.00  0.00     0.046 A 
HETATM   18  H14 UNL     1      -2.787   0.706  10.759  1.00  0.00     0.169 HD
HETATM   19  C12 UNL     1      -5.440   1.314  11.496  1.00  0.00     0.033 A 
HETATM   20  C13 UNL     1      -6.599   1.944  11.948  1.00  0.00     0.044 A 
HETATM   21  C14 UNL     1      -6.550   3.268  12.408  1.00  0.00     0.117 A 
HETATM   22  F1  UNL     1      -7.680   3.850  12.835  1.00  0.00    -0.206 F 
HETATM   23  C15 UNL     1      -5.362   3.998  12.431  1.00  0.00     0.057 A 
ENDBRANCH   2  11
BRANCH   1  24
HETATM   24  C5  UNL     1      -0.736   6.595  14.504  1.00  0.00     0.043 C 
BRANCH  24  25
HETATM   25  C4  UNL     1      -2.174   6.157  14.797  1.00  0.00     0.035 C 
BRANCH  25  26
HETATM   26  C3  UNL     1      -2.951   7.183  15.632  1.00  0.00     0.271 C 
BRANCH  26  27
HETATM   27  N1  UNL     1      -4.291   7.507  15.114  1.00  0.00     0.080 N 
HETATM   28  C1  UNL     1      -4.208   7.869  13.697  1.00  0.00     0.309 C 
HETATM   29  C2  UNL     1      -5.228   6.395  15.284  1.00  0.00     0.309 C 
ENDBRANCH  26  27
ENDBRANCH  25  26
ENDBRANCH  24  25
ENDBRANCH   1  24
TORSDOF 5
ENDMDL
MODEL 7
REMARK minimizedAffinity -8.07510757
REMARK  5 active torsions:
REMARK  status: ('A' for Active; 'I' for Inactive)
REMARK    1  A    between atoms: N1_2  and  C3_4 
REMARK    2  A    between atoms: C3_4  and  C4_5 
REMARK    3  A    between atoms: C4_5  and  C5_6 
REMARK    4  A    between atoms: C5_6  and  C6_7 
REMARK    5  A    between atoms: C7_8  and  C8_9 
ROOT
HETATM    1  C6  UNL     1       0.710   6.815  11.786  1.00  0.00    -0.023 A 
HETATM    2  C7  UNL     1      -0.155   6.367  12.787  1.00  0.00     0.040 A 
HETATM    3  N3  UNL     1       0.459   6.615  13.994  1.00  0.00    -0.359 N 
HETATM    4  C17 UNL     1       1.673   7.202  13.787  1.00  0.00     0.016 A 
HETATM    5  C18 UNL     1       1.862   7.349  12.433  1.00  0.00    -0.027 A 
HETATM    6  C19 UNL     1       3.104   7.948  11.862  1.00  0.00     0.041 C 
HETATM    7  C20 UNL     1       3.900   8.711  12.940  1.00  0.00     0.005 C 
HETATM    8  C21 UNL     1       3.992   7.923  14.261  1.00  0.00     0.006 C 
HETATM    9  C22 UNL     1       2.605   7.631  14.863  1.00  0.00     0.057 C 
HETATM   10  H18 UNL     1       0.074   6.399  14.909  1.00  0.00     0.166 HD
ENDROOT
BRANCH   2  11
HETATM   11  C8  UNL     1      -1.440   5.757  12.696  1.00  0.00     0.048 C 
HETATM   12  C9  UNL     1      -1.788   4.551  12.217  1.00  0.00     0.047 A 
HETATM   13  C10 UNL     1      -0.957   3.438  11.622  1.00  0.00     0.257 A 
HETATM   14  C16 UNL     1      -3.186   4.076  12.188  1.00  0.00     0.009 A 
HETATM   15  O1  UNL     1       0.248   3.393  11.459  1.00  0.00    -0.267 OA
HETATM   16  N2  UNL     1      -1.858   2.438  11.293  1.00  0.00    -0.322 N 
HETATM   17  C11 UNL     1      -3.158   2.797  11.619  1.00  0.00     0.046 A 
HETATM   18  H14 UNL     1      -1.570   1.567  10.876  1.00  0.00     0.169 HD
HETATM   19  C12 UNL     1      -4.295   2.034  11.430  1.00  0.00     0.033 A 
HETATM   20  C13 UNL     1      -5.510   2.590  11.832  1.00  0.00     0.044 A 
HETATM   21  C14 UNL     1      -5.546   3.871  12.403  1.00  0.00     0.117 A 
HETATM   22  F1  UNL     1      -6.727   4.382  12.778  1.00  0.00    -0.206 F 
HETATM   23  C15 UNL     1      -4.390   4.630  12.588  1.00  0.00     0.057 A 
ENDBRANCH   2  11
BRANCH   1  24
HETATM   24  C5  UNL     1       0.496   6.762  10.300  1.00  0.00     0.043 C 
BRANCH  24  25
HETATM   25  C4  UNL     1       0.233   8.152   9.712  1.00  0.00     0.035 C 
BRANCH  25  26
HETATM   26  C3  UNL     1       0.556   8.237   8.215  1.00  0.00     0.271 C 
BRANCH  26  27
HETATM   27  N1  UNL     1       1.839   7.626   7.829  1.00  0.00     0.080 N 
HETATM   28  C1  UNL     1       1.773   7.151   6.444  1.00  0.00     0.309 C 
HETATM   29  C2  UNL     1       2.957   8.560   7.976  1.00  0.00     0.309 C 
ENDBRANCH  26  27
ENDBRANCH  25  26
ENDBRANCH  24  25
ENDBRANCH   1  24
TORSDOF 5
ENDMDL
MODEL 8
REMARK minimizedAffinity -8.05126476
REMARK  5 active torsions:
REMARK  status: ('A' for Active; 'I' for Inactive)
REMARK    1  A    between atoms: N1_2  and  C3_4 
REMARK    2  A    between atoms: C3_4  and  C4_5 
REMARK    3  A    between atoms: C4_5  and  C5_6 
REMARK    4  A    between atoms: C5_6  and  C6_7 
REMARK    5  A    between atoms: C7_8  and  C8_9 
ROOT
HETATM    1  C6  UNL     1      -6.415   4.758  13.612  1.00  0.00    -0.023 A 
HETATM    2  C7  UNL     1      -5.279   5.569  13.561  1.00  0.00     0.040 A 
HETATM    3  N3  UNL     1      -4.359   4.927  12.763  1.00  0.00    -0.359 N 
HETATM    4  C17 UNL     1      -4.877   3.747  12.312  1.00  0.00     0.016 A 
HETATM    5  C18 UNL     1      -6.151   3.610  12.811  1.00  0.00    -0.027 A 
HETATM    6  C19 UNL     1      -6.997   2.415  12.520  1.00  0.00     0.041 C 
HETATM    7  C20 UNL     1      -6.441   1.619  11.322  1.00  0.00     0.005 C 
HETATM    8  C21 UNL     1      -4.911   1.448  11.398  1.00  0.00     0.006 C 
HETATM    9  C22 UNL     1      -4.173   2.799  11.407  1.00  0.00     0.057 C 
HETATM   10  H18 UNL     1      -3.431   5.270  12.534  1.00  0.00     0.166 HD
ENDROOT
BRANCH   2  11
HETATM   11  C8  UNL     1      -5.010   6.827  14.172  1.00  0.00     0.048 C 
HETATM   12  C9  UNL     1      -3.965   7.213  14.924  1.00  0.00     0.047 A 
HETATM   13  C10 UNL     1      -2.730   6.466  15.372  1.00  0.00     0.257 A 
HETATM   14  C16 UNL     1      -3.849   8.570  15.495  1.00  0.00     0.009 A 
HETATM   15  O1  UNL     1      -2.404   5.320  15.126  1.00  0.00    -0.267 OA
HETATM   16  N2  UNL     1      -2.009   7.368  16.136  1.00  0.00    -0.322 N 
HETATM   17  C11 UNL     1      -2.649   8.597  16.215  1.00  0.00     0.046 A 
HETATM   18  H14 UNL     1      -1.127   7.131  16.565  1.00  0.00     0.169 HD
HETATM   19  C12 UNL     1      -2.203   9.716  16.892  1.00  0.00     0.033 A 
HETATM   20  C13 UNL     1      -3.008  10.855  16.838  1.00  0.00     0.044 A 
HETATM   21  C14 UNL     1      -4.212  10.837  16.119  1.00  0.00     0.117 A 
HETATM   22  F1  UNL     1      -4.966  11.944  16.087  1.00  0.00    -0.206 F 
HETATM   23  C15 UNL     1      -4.649   9.699  15.440  1.00  0.00     0.057 A 
ENDBRANCH   2  11
BRANCH   1  24
HETATM   24  C5  UNL     1      -7.692   5.019  14.360  1.00  0.00     0.043 C 
BRANCH  24  25
HETATM   25  C4  UNL     1      -8.552   6.079  13.665  1.00  0.00     0.035 C 
BRANCH  25  26
HETATM   26  C3  UNL     1      -8.998   7.200  14.613  1.00  0.00     0.271 C 
BRANCH  26  27
HETATM   27  N1  UNL     1     -10.400   7.619  14.450  1.00  0.00     0.080 N 
HETATM   28  C1  UNL     1     -10.510   9.073  14.599  1.00  0.00     0.309 C 
HETATM   29  C2  UNL     1     -10.946   7.214  13.153  1.00  0.00     0.309 C 
ENDBRANCH  26  27
ENDBRANCH  25  26
ENDBRANCH  24  25
ENDBRANCH   1  24
TORSDOF 5
ENDMDL
MODEL 9
REMARK minimizedAffinity -8.00263214
REMARK  5 active torsions:
REMARK  status: ('A' for Active; 'I' for Inactive)
REMARK    1  A    between atoms: N1_2  and  C3_4 
REMARK    2  A    between atoms: C3_4  and  C4_5 
REMARK    3  A    between atoms: C4_5  and  C5_6 
REMARK    4  A    between atoms: C5_6  and  C6_7 
REMARK    5  A    between atoms: C7_8  and  C8_9 
ROOT
HETATM    1  C6  UNL     1      -3.542   5.417  12.583  1.00  0.00    -0.023 A 
HETATM    2  C7  UNL     1      -4.792   4.818  12.756  1.00  0.00     0.040 A 
HETATM    3  N3  UNL     1      -4.651   3.486  12.437  1.00  0.00    -0.359 N 
HETATM    4  C17 UNL     1      -3.362   3.229  12.072  1.00  0.00     0.016 A 
HETATM    5  C18 UNL     1      -2.642   4.397  12.155  1.00  0.00    -0.027 A 
HETATM    6  C19 UNL     1      -1.192   4.468  11.808  1.00  0.00     0.041 C 
HETATM    7  C20 UNL     1      -0.564   3.060  11.757  1.00  0.00     0.005 C 
HETATM    8  C21 UNL     1      -1.460   2.050  11.014  1.00  0.00     0.006 C 
HETATM    9  C22 UNL     1      -2.838   1.892  11.683  1.00  0.00     0.057 C 
HETATM   10  H18 UNL     1      -5.389   2.789  12.466  1.00  0.00     0.166 HD
ENDROOT
BRANCH   2  11
HETATM   11  C8  UNL     1      -6.035   5.374  13.174  1.00  0.00     0.048 C 
HETATM   12  C9  UNL     1      -6.364   5.971  14.332  1.00  0.00     0.047 A 
HETATM   13  C10 UNL     1      -5.549   6.263  15.570  1.00  0.00     0.257 A 
HETATM   14  C16 UNL     1      -7.720   6.488  14.608  1.00  0.00     0.009 A 
HETATM   15  O1  UNL     1      -4.375   6.020  15.782  1.00  0.00    -0.267 OA
HETATM   16  N2  UNL     1      -6.418   6.888  16.448  1.00  0.00    -0.322 N 
HETATM   17  C11 UNL     1      -7.685   7.026  15.900  1.00  0.00     0.046 A 
HETATM   18  H14 UNL     1      -6.133   7.198  17.364  1.00  0.00     0.169 HD
HETATM   19  C12 UNL     1      -8.786   7.607  16.501  1.00  0.00     0.033 A 
HETATM   20  C13 UNL     1      -9.970   7.642  15.765  1.00  0.00     0.044 A 
HETATM   21  C14 UNL     1     -10.014   7.105  14.470  1.00  0.00     0.117 A 
HETATM   22  F1  UNL     1     -11.166   7.150  13.786  1.00  0.00    -0.206 F 
HETATM   23  C15 UNL     1      -8.895   6.522  13.875  1.00  0.00     0.057 A 
ENDBRANCH   2  11
BRANCH   1  24
HETATM   24  C5  UNL     1      -3.180   6.859  12.798  1.00  0.00     0.043 C 
BRANCH  24  25
HETATM   25  C4  UNL     1      -1.672   7.043  13.000  1.00  0.00     0.035 C 
BRANCH  25  26
HETATM   26  C3  UNL     1      -1.096   8.196  12.169  1.00  0.00     0.271 C 
BRANCH  26  27
HETATM   27  N1  UNL     1       0.281   7.980  11.693  1.00  0.00     0.080 N 
HETATM   28  C1  UNL     1       0.385   8.336  10.276  1.00  0.00     0.309 C 
HETATM   29  C2  UNL     1       1.255   8.753  12.467  1.00  0.00     0.309 C 
ENDBRANCH  26  27
ENDBRANCH  25  26
ENDBRANCH  24  25
ENDBRANCH   1  24
TORSDOF 5
ENDMDL
