MODEL 1
REMARK minimizedAffinity -9.02297783
REMARK CNNscore 0.659791827
REMARK CNNaffinity 7.74494553
REMARK  7 active torsions:
REMARK  status: ('A' for Active; 'I' for Inactive)
REMARK    1  A    between atoms: C2_2  and  C3_3 
REMARK    2  A    between atoms: C2_2  and  N4_22 
REMARK    3  A    between atoms: C7_7  and  C8_8 
REMARK    4  A    between atoms: C18_30  and  C19_31 
REMARK    5  A    between atoms: N9_35  and  C21_36 
REMARK    6  A    between atoms: C21_36  and  C22_37 
REMARK    7  A    between atoms: C22_37  and  O1_38 
ROOT
HETATM    1  N4  UNL     1      -7.506   4.891  13.391  1.00  0.00    -0.248 N 
HETATM    2  N5  UNL     1      -8.424   4.097  12.783  1.00  0.00    -0.016 NA
HETATM    3  N6  UNL     1      -7.761   3.144  12.128  1.00  0.00    -0.266 N 
ATOM      4  H6  UNL     1      -8.178   2.399  11.570  1.00  0.00     0.186 HD
HETATM    5  C16 UNL     1      -6.427   3.343  12.337  1.00  0.00     0.164 A 
HETATM    6  N7  UNL     1      -5.386   2.608  11.868  1.00  0.00    -0.346 N 
ATOM      7  H7  UNL     1      -5.492   1.786  11.273  1.00  0.00     0.167 HD
HETATM    8  C17 UNL     1      -4.184   3.095  12.284  1.00  0.00     0.120 A 
HETATM    9  C18 UNL     1      -4.009   4.219  13.103  1.00  0.00     0.062 A 
HETATM   10  N10 UNL     1      -5.054   4.954  13.572  1.00  0.00    -0.336 N 
ATOM     11  H10 UNL     1      -4.959   5.776  14.168  1.00  0.00     0.168 HD
HETATM   12  C24 UNL     1      -6.235   4.454  13.146  1.00  0.00     0.168 A 
ENDROOT
BRANCH   1  13
HETATM   13  C2  UNL     1      -7.902   6.032  14.208  1.00  0.00     0.140 C 
HETATM   14  C1  UNL     1      -9.193   6.691  13.709  1.00  0.00     0.039 C 
BRANCH  13  15
HETATM   15  C3  UNL     1      -6.755   7.018  14.338  1.00  0.00     0.005 A 
HETATM   16  C4  UNL     1      -5.627   6.976  13.505  1.00  0.00     0.026 A 
HETATM   17  C5  UNL     1      -4.580   7.906  13.657  1.00  0.00    -0.008 A 
HETATM   18  C6  UNL     1      -3.444   7.877  12.832  1.00  0.00     0.027 A 
HETATM   19  C13 UNL     1      -4.651   8.901  14.655  1.00  0.00     0.045 A 
HETATM   20  C7  UNL     1      -2.421   8.813  13.001  1.00  0.00    -0.007 A 
HETATM   21  C12 UNL     1      -2.599   9.750  14.012  1.00  0.00     0.100 A 
HETATM   22  N3  UNL     1      -3.680   9.809  14.829  1.00  0.00    -0.364 N 
ATOM     23  H3  UNL     1      -3.752  10.523  15.554  1.00  0.00     0.165 HD
HETATM   24  C14 UNL     1      -5.765   8.932  15.475  1.00  0.00     0.073 A 
HETATM   25  C15 UNL     1      -6.795   8.008  15.321  1.00  0.00     0.127 A 
HETATM   26  F1  UNL     1      -7.852   8.088  16.142  1.00  0.00    -0.205 F 
BRANCH  20  27
HETATM   27  C8  UNL     1      -1.234   8.822  12.167  1.00  0.00     0.009 A 
HETATM   28  C9  UNL     1       0.130   9.007  12.499  1.00  0.00     0.121 A 
HETATM   29  N1  UNL     1       0.937   8.931  11.438  1.00  0.00    -0.310 N 
HETATM   30  N2  UNL     1       0.095   8.694  10.418  1.00  0.00    -0.307 N 
ATOM     31  H1  UNL     1       1.953   9.029  11.410  1.00  0.00     0.186 HD
HETATM   32  C10 UNL     1       0.622   8.546   9.083  1.00  0.00     0.177 C 
HETATM   33  C11 UNL     1      -1.214   8.619  10.800  1.00  0.00     0.123 A 
ENDBRANCH  20  27
ENDBRANCH  13  15
ENDBRANCH   1  13
BRANCH   9  34
HETATM   34  C19 UNL     1      -2.698   4.691  13.513  1.00  0.00     0.026 A 
HETATM   35  C20 UNL     1      -2.279   5.167  14.778  1.00  0.00     0.122 A 
HETATM   36  N8  UNL     1      -0.989   5.515  14.800  1.00  0.00    -0.309 N 
HETATM   37  N9  UNL     1      -0.569   5.249  13.547  1.00  0.00    -0.301 N 
ATOM     38  H8  UNL     1      -0.451   5.893  15.580  1.00  0.00     0.186 HD
HETATM   39  C23 UNL     1      -1.556   4.756  12.737  1.00  0.00     0.125 A 
BRANCH  37  40
HETATM   40  C21 UNL     1       0.820   5.492  13.191  1.00  0.00     0.174 C 
BRANCH  40  41
HETATM   41  C22 UNL     1       1.071   5.277  11.701  1.00  0.00     0.185 C 
BRANCH  41  42
HETATM   42  O1  UNL     1       0.892   3.910  11.335  1.00  0.00    -0.399 OA
HETATM   43  H20 UNL     1       1.430   3.386  11.970  1.00  0.00     0.209 HD
ENDBRANCH  41  42
ENDBRANCH  40  41
ENDBRANCH  37  40
ENDBRANCH   9  34
TORSDOF 7
ENDMDL
MODEL 2
REMARK minimizedAffinity -8.17049313
REMARK CNNscore 0.536963701
REMARK CNNaffinity 6.75304794
REMARK  7 active torsions:
REMARK  status: ('A' for Active; 'I' for Inactive)
REMARK    1  A    between atoms: C2_2  and  C3_3 
REMARK    2  A    between atoms: C2_2  and  N4_22 
REMARK    3  A    between atoms: C7_7  and  C8_8 
REMARK    4  A    between atoms: C18_30  and  C19_31 
REMARK    5  A    between atoms: N9_35  and  C21_36 
REMARK    6  A    between atoms: C21_36  and  C22_37 
REMARK    7  A    between atoms: C22_37  and  O1_38 
ROOT
HETATM    1  N4  UNL     1     -13.825   3.511  24.420  1.00  0.00    -0.248 N 
HETATM    2  N5  UNL     1     -13.318   2.820  23.368  1.00  0.00    -0.016 NA
HETATM    3  N6  UNL     1     -12.497   1.890  23.855  1.00  0.00    -0.266 N 
ATOM      4  H6  UNL     1     -11.961   1.216  23.308  1.00  0.00     0.186 HD
HETATM    5  C16 UNL     1     -12.501   1.999  25.216  1.00  0.00     0.164 A 
HETATM    6  N7  UNL     1     -11.817   1.250  26.119  1.00  0.00    -0.346 N 
ATOM      7  H7  UNL     1     -11.190   0.487  25.867  1.00  0.00     0.167 HD
HETATM    8  C17 UNL     1     -12.067   1.637  27.401  1.00  0.00     0.120 A 
HETATM    9  C18 UNL     1     -12.927   2.679  27.776  1.00  0.00     0.062 A 
HETATM   10  N10 UNL     1     -13.611   3.428  26.869  1.00  0.00    -0.336 N 
ATOM     11  H10 UNL     1     -14.241   4.192  27.111  1.00  0.00     0.168 HD
HETATM   12  C24 UNL     1     -13.347   3.028  25.606  1.00  0.00     0.168 A 
ENDROOT
BRANCH   1  13
HETATM   13  C2  UNL     1     -14.776   4.601  24.234  1.00  0.00     0.140 C 
HETATM   14  C1  UNL     1     -16.197   4.097  23.953  1.00  0.00     0.039 C 
BRANCH  13  15
HETATM   15  C3  UNL     1     -14.278   5.569  23.176  1.00  0.00     0.005 A 
HETATM   16  C4  UNL     1     -13.467   6.671  23.484  1.00  0.00     0.026 A 
HETATM   17  C5  UNL     1     -13.027   7.550  22.475  1.00  0.00    -0.008 A 
HETATM   18  C6  UNL     1     -12.214   8.657  22.768  1.00  0.00     0.027 A 
HETATM   19  C13 UNL     1     -13.394   7.332  21.131  1.00  0.00     0.045 A 
HETATM   20  C7  UNL     1     -11.788   9.512  21.748  1.00  0.00    -0.007 A 
HETATM   21  C12 UNL     1     -12.207   9.199  20.461  1.00  0.00     0.100 A 
HETATM   22  N3  UNL     1     -12.991   8.140  20.139  1.00  0.00    -0.364 N 
ATOM     23  H3  UNL     1     -13.265   7.963  19.173  1.00  0.00     0.165 HD
HETATM   24  C14 UNL     1     -14.198   6.245  20.836  1.00  0.00     0.073 A 
HETATM   25  C15 UNL     1     -14.633   5.381  21.839  1.00  0.00     0.127 A 
HETATM   26  F1  UNL     1     -15.407   4.342  21.495  1.00  0.00    -0.205 F 
BRANCH  20  27
HETATM   27  C8  UNL     1     -10.944  10.664  22.006  1.00  0.00     0.009 A 
HETATM   28  C9  UNL     1     -10.415  11.639  21.127  1.00  0.00     0.121 A 
HETATM   29  N1  UNL     1      -9.685  12.564  21.756  1.00  0.00    -0.310 N 
HETATM   30  N2  UNL     1      -9.744  12.188  23.045  1.00  0.00    -0.307 N 
ATOM     31  H1  UNL     1      -9.199  13.365  21.353  1.00  0.00     0.186 HD
HETATM   32  C10 UNL     1      -9.059  12.971  24.044  1.00  0.00     0.177 C 
HETATM   33  C11 UNL     1     -10.486  11.059  23.248  1.00  0.00     0.123 A 
ENDBRANCH  20  27
ENDBRANCH  13  15
ENDBRANCH   1  13
BRANCH   9  34
HETATM   34  C19 UNL     1     -13.152   3.045  29.164  1.00  0.00     0.026 A 
HETATM   35  C20 UNL     1     -12.511   4.042  29.936  1.00  0.00     0.122 A 
HETATM   36  N8  UNL     1     -12.976   4.109  31.187  1.00  0.00    -0.309 N 
HETATM   37  N9  UNL     1     -13.932   3.160  31.219  1.00  0.00    -0.301 N 
ATOM     38  H8  UNL     1     -12.678   4.731  31.939  1.00  0.00     0.186 HD
HETATM   39  C23 UNL     1     -14.074   2.492  30.032  1.00  0.00     0.125 A 
BRANCH  37  40
HETATM   40  C21 UNL     1     -14.688   2.945  32.443  1.00  0.00     0.174 C 
BRANCH  40  41
HETATM   41  C22 UNL     1     -13.775   2.675  33.634  1.00  0.00     0.185 C 
BRANCH  41  42
HETATM   42  O1  UNL     1     -12.500   2.190  33.215  1.00  0.00    -0.399 OA
HETATM   43  H20 UNL     1     -12.682   1.445  32.600  1.00  0.00     0.209 HD
ENDBRANCH  41  42
ENDBRANCH  40  41
ENDBRANCH  37  40
ENDBRANCH   9  34
TORSDOF 7
ENDMDL
MODEL 3
REMARK minimizedAffinity -9.38261318
REMARK CNNscore 0.52626729
REMARK CNNaffinity 7.62097025
REMARK  7 active torsions:
REMARK  status: ('A' for Active; 'I' for Inactive)
REMARK    1  A    between atoms: C2_2  and  C3_3 
REMARK    2  A    between atoms: C2_2  and  N4_22 
REMARK    3  A    between atoms: C7_7  and  C8_8 
REMARK    4  A    between atoms: C18_30  and  C19_31 
REMARK    5  A    between atoms: N9_35  and  C21_36 
REMARK    6  A    between atoms: C21_36  and  C22_37 
REMARK    7  A    between atoms: C22_37  and  O1_38 
ROOT
HETATM    1  N4  UNL     1      -6.761   5.157  13.535  1.00  0.00    -0.248 N 
HETATM    2  N5  UNL     1      -7.985   4.597  13.354  1.00  0.00    -0.016 NA
HETATM    3  N6  UNL     1      -7.819   3.496  12.621  1.00  0.00    -0.266 N 
ATOM      4  H6  UNL     1      -8.558   2.863  12.315  1.00  0.00     0.186 HD
HETATM    5  C16 UNL     1      -6.487   3.367  12.353  1.00  0.00     0.164 A 
HETATM    6  N7  UNL     1      -5.864   2.389  11.647  1.00  0.00    -0.346 N 
ATOM      7  H7  UNL     1      -6.349   1.605  11.212  1.00  0.00     0.167 HD
HETATM    8  C17 UNL     1      -4.516   2.577  11.587  1.00  0.00     0.120 A 
HETATM    9  C18 UNL     1      -3.824   3.643  12.178  1.00  0.00     0.062 A 
HETATM   10  N10 UNL     1      -4.450   4.621  12.886  1.00  0.00    -0.336 N 
ATOM     11  H10 UNL     1      -3.974   5.409  13.326  1.00  0.00     0.168 HD
HETATM   12  C24 UNL     1      -5.784   4.416  12.931  1.00  0.00     0.168 A 
ENDROOT
BRANCH   1  13
HETATM   13  C2  UNL     1      -6.585   6.379  14.311  1.00  0.00     0.140 C 
HETATM   14  C1  UNL     1      -5.622   6.191  15.489  1.00  0.00     0.039 C 
BRANCH  13  15
HETATM   15  C3  UNL     1      -7.930   6.938  14.737  1.00  0.00     0.005 A 
HETATM   16  C4  UNL     1      -9.046   6.948  13.888  1.00  0.00     0.026 A 
HETATM   17  C5  UNL     1     -10.278   7.479  14.317  1.00  0.00    -0.008 A 
HETATM   18  C6  UNL     1     -11.404   7.497  13.478  1.00  0.00     0.027 A 
HETATM   19  C13 UNL     1     -10.410   8.009  15.618  1.00  0.00     0.045 A 
HETATM   20  C7  UNL     1     -12.615   8.026  13.930  1.00  0.00    -0.007 A 
HETATM   21  C12 UNL     1     -12.632   8.516  15.230  1.00  0.00     0.100 A 
HETATM   22  N3  UNL     1     -11.566   8.518  16.069  1.00  0.00    -0.364 N 
ATOM     23  H3  UNL     1     -11.642   8.893  17.014  1.00  0.00     0.165 HD
HETATM   24  C14 UNL     1      -9.303   7.999  16.448  1.00  0.00     0.073 A 
HETATM   25  C15 UNL     1      -8.087   7.476  16.016  1.00  0.00     0.127 A 
HETATM   26  F1  UNL     1      -7.048   7.489  16.864  1.00  0.00    -0.205 F 
BRANCH  20  27
HETATM   27  C8  UNL     1     -13.804   8.058  13.098  1.00  0.00     0.009 A 
HETATM   28  C9  UNL     1     -14.553   7.010  12.511  1.00  0.00     0.121 A 
HETATM   29  N1  UNL     1     -15.605   7.449  11.817  1.00  0.00    -0.310 N 
HETATM   30  N2  UNL     1     -15.539   8.784  11.955  1.00  0.00    -0.307 N 
ATOM     31  H1  UNL     1     -16.296   6.901  11.303  1.00  0.00     0.186 HD
HETATM   32  C10 UNL     1     -16.539   9.613  11.328  1.00  0.00     0.177 C 
HETATM   33  C11 UNL     1     -14.481   9.200  12.713  1.00  0.00     0.123 A 
ENDBRANCH  20  27
ENDBRANCH  13  15
ENDBRANCH   1  13
BRANCH   9  34
HETATM   34  C19 UNL     1      -2.382   3.788  12.078  1.00  0.00     0.026 A 
HETATM   35  C20 UNL     1      -1.421   2.849  11.633  1.00  0.00     0.122 A 
HETATM   36  N8  UNL     1      -0.174   3.326  11.667  1.00  0.00    -0.309 N 
HETATM   37  N9  UNL     1      -0.330   4.585  12.124  1.00  0.00    -0.301 N 
ATOM     38  H8  UNL     1       0.692   2.851  11.410  1.00  0.00     0.186 HD
HETATM   39  C23 UNL     1      -1.634   4.909  12.387  1.00  0.00     0.125 A 
BRANCH  37  40
HETATM   40  C21 UNL     1       0.836   5.440  12.283  1.00  0.00     0.174 C 
BRANCH  40  41
HETATM   41  C22 UNL     1       1.514   5.730  10.948  1.00  0.00     0.185 C 
BRANCH  41  42
HETATM   42  O1  UNL     1       2.032   4.539  10.357  1.00  0.00    -0.399 OA
HETATM   43  H20 UNL     1       2.566   4.099  11.056  1.00  0.00     0.209 HD
ENDBRANCH  41  42
ENDBRANCH  40  41
ENDBRANCH  37  40
ENDBRANCH   9  34
TORSDOF 7
ENDMDL
MODEL 4
REMARK minimizedAffinity -9.23084354
REMARK CNNscore 0.480434358
REMARK CNNaffinity 7.5049839
REMARK  7 active torsions:
REMARK  status: ('A' for Active; 'I' for Inactive)
REMARK    1  A    between atoms: C2_2  and  C3_3 
REMARK    2  A    between atoms: C2_2  and  N4_22 
REMARK    3  A    between atoms: C7_7  and  C8_8 
REMARK    4  A    between atoms: C18_30  and  C19_31 
REMARK    5  A    between atoms: N9_35  and  C21_36 
REMARK    6  A    between atoms: C21_36  and  C22_37 
REMARK    7  A    between atoms: C22_37  and  O1_38 
ROOT
HETATM    1  N4  UNL     1      -6.947   5.305  13.876  1.00  0.00    -0.248 N 
HETATM    2  N5  UNL     1      -8.055   4.630  13.476  1.00  0.00    -0.016 NA
HETATM    3  N6  UNL     1      -7.680   3.764  12.534  1.00  0.00    -0.266 N 
ATOM      4  H6  UNL     1      -8.292   3.118  12.036  1.00  0.00     0.186 HD
HETATM    5  C16 UNL     1      -6.333   3.896  12.356  1.00  0.00     0.164 A 
HETATM    6  N7  UNL     1      -5.529   3.209  11.505  1.00  0.00    -0.346 N 
ATOM      7  H7  UNL     1      -5.860   2.485  10.869  1.00  0.00     0.167 HD
HETATM    8  C17 UNL     1      -4.227   3.601  11.600  1.00  0.00     0.120 A 
HETATM    9  C18 UNL     1      -3.744   4.590  12.467  1.00  0.00     0.062 A 
HETATM   10  N10 UNL     1      -4.552   5.277  13.319  1.00  0.00    -0.336 N 
ATOM     11  H10 UNL     1      -4.230   6.003  13.960  1.00  0.00     0.168 HD
HETATM   12  C24 UNL     1      -5.837   4.875  13.207  1.00  0.00     0.168 A 
ENDROOT
BRANCH   1  13
HETATM   13  C2  UNL     1      -7.007   6.327  14.915  1.00  0.00     0.140 C 
HETATM   14  C1  UNL     1      -6.818   5.746  16.321  1.00  0.00     0.039 C 
BRANCH  13  15
HETATM   15  C3  UNL     1      -8.280   7.145  14.786  1.00  0.00     0.005 A 
HETATM   16  C4  UNL     1      -9.504   6.578  14.403  1.00  0.00     0.026 A 
HETATM   17  C5  UNL     1     -10.664   7.369  14.290  1.00  0.00    -0.008 A 
HETATM   18  C6  UNL     1     -11.897   6.817  13.908  1.00  0.00     0.027 A 
HETATM   19  C13 UNL     1     -10.612   8.752  14.565  1.00  0.00     0.045 A 
HETATM   20  C7  UNL     1     -13.033   7.622  13.807  1.00  0.00    -0.007 A 
HETATM   21  C12 UNL     1     -12.867   8.969  14.105  1.00  0.00     0.100 A 
HETATM   22  N3  UNL     1     -11.693   9.540  14.476  1.00  0.00    -0.364 N 
ATOM     23  H3  UNL     1     -11.636  10.537  14.682  1.00  0.00     0.165 HD
HETATM   24  C14 UNL     1      -9.399   9.303  14.936  1.00  0.00     0.073 A 
HETATM   25  C15 UNL     1      -8.255   8.516  15.043  1.00  0.00     0.127 A 
HETATM   26  F1  UNL     1      -7.107   9.104  15.412  1.00  0.00    -0.205 F 
BRANCH  20  27
HETATM   27  C8  UNL     1     -14.328   7.091  13.421  1.00  0.00     0.009 A 
HETATM   28  C9  UNL     1     -15.178   7.420  12.338  1.00  0.00     0.121 A 
HETATM   29  N1  UNL     1     -16.294   6.688  12.313  1.00  0.00    -0.310 N 
HETATM   30  N2  UNL     1     -16.166   5.883  13.381  1.00  0.00    -0.307 N 
ATOM     31  H1  UNL     1     -17.062   6.730  11.642  1.00  0.00     0.186 HD
HETATM   32  C10 UNL     1     -17.206   4.928  13.679  1.00  0.00     0.177 C 
HETATM   33  C11 UNL     1     -15.007   6.083  14.077  1.00  0.00     0.123 A 
ENDBRANCH  20  27
ENDBRANCH  13  15
ENDBRANCH   1  13
BRANCH   9  34
HETATM   34  C19 UNL     1      -2.341   4.964  12.521  1.00  0.00     0.026 A 
HETATM   35  C20 UNL     1      -1.356   4.874  11.508  1.00  0.00     0.122 A 
HETATM   36  N8  UNL     1      -0.161   5.317  11.906  1.00  0.00    -0.309 N 
HETATM   37  N9  UNL     1      -0.377   5.709  13.178  1.00  0.00    -0.301 N 
ATOM     38  H8  UNL     1       0.709   5.351  11.374  1.00  0.00     0.186 HD
HETATM   39  C23 UNL     1      -1.666   5.515  13.593  1.00  0.00     0.125 A 
BRANCH  37  40
HETATM   40  C21 UNL     1       0.719   6.275  13.949  1.00  0.00     0.174 C 
BRANCH  40  41
HETATM   41  C22 UNL     1       0.227   7.292  14.973  1.00  0.00     0.185 C 
BRANCH  41  42
HETATM   42  O1  UNL     1       0.238   6.751  16.293  1.00  0.00    -0.399 OA
HETATM   43  H20 UNL     1      -0.236   5.891  16.237  1.00  0.00     0.209 HD
ENDBRANCH  41  42
ENDBRANCH  40  41
ENDBRANCH  37  40
ENDBRANCH   9  34
TORSDOF 7
ENDMDL
MODEL 5
REMARK minimizedAffinity -8.32077503
REMARK CNNscore 0.38391304
REMARK CNNaffinity 7.57764816
REMARK  7 active torsions:
REMARK  status: ('A' for Active; 'I' for Inactive)
REMARK    1  A    between atoms: C2_2  and  C3_3 
REMARK    2  A    between atoms: C2_2  and  N4_22 
REMARK    3  A    between atoms: C7_7  and  C8_8 
REMARK    4  A    between atoms: C18_30  and  C19_31 
REMARK    5  A    between atoms: N9_35  and  C21_36 
REMARK    6  A    between atoms: C21_36  and  C22_37 
REMARK    7  A    between atoms: C22_37  and  O1_38 
ROOT
HETATM    1  N4  UNL     1      -5.827   4.803  13.231  1.00  0.00    -0.248 N 
HETATM    2  N5  UNL     1      -6.899   3.972  13.209  1.00  0.00    -0.016 NA
HETATM    3  N6  UNL     1      -6.525   2.847  12.602  1.00  0.00    -0.266 N 
ATOM      4  H6  UNL     1      -7.114   2.033  12.429  1.00  0.00     0.186 HD
HETATM    5  C16 UNL     1      -5.211   2.976  12.253  1.00  0.00     0.164 A 
HETATM    6  N7  UNL     1      -4.417   2.073  11.623  1.00  0.00    -0.346 N 
ATOM      7  H7  UNL     1      -4.733   1.152  11.321  1.00  0.00     0.167 HD
HETATM    8  C17 UNL     1      -3.150   2.540  11.441  1.00  0.00     0.120 A 
HETATM    9  C18 UNL     1      -2.689   3.800  11.848  1.00  0.00     0.062 A 
HETATM   10  N10 UNL     1      -3.487   4.703  12.479  1.00  0.00    -0.336 N 
ATOM     11  H10 UNL     1      -3.181   5.627  12.786  1.00  0.00     0.168 HD
HETATM   12  C24 UNL     1      -4.737   4.220  12.648  1.00  0.00     0.168 A 
ENDROOT
BRANCH   1  13
HETATM   13  C2  UNL     1      -5.895   6.126  13.842  1.00  0.00     0.140 C 
HETATM   14  C1  UNL     1      -5.125   6.201  15.166  1.00  0.00     0.039 C 
BRANCH  13  15
HETATM   15  C3  UNL     1      -7.338   6.577  13.977  1.00  0.00     0.005 A 
HETATM   16  C4  UNL     1      -7.801   7.300  15.086  1.00  0.00     0.026 A 
HETATM   17  C5  UNL     1      -9.149   7.699  15.179  1.00  0.00    -0.008 A 
HETATM   18  C6  UNL     1      -9.628   8.424  16.282  1.00  0.00     0.027 A 
HETATM   19  C13 UNL     1     -10.059   7.376  14.150  1.00  0.00     0.045 A 
HETATM   20  C7  UNL     1     -10.968   8.809  16.348  1.00  0.00    -0.007 A 
HETATM   21  C12 UNL     1     -11.773   8.442  15.278  1.00  0.00     0.100 A 
HETATM   22  N3  UNL     1     -11.348   7.742  14.196  1.00  0.00    -0.364 N 
ATOM     23  H3  UNL     1     -11.990   7.501  13.440  1.00  0.00     0.165 HD
HETATM   24  C14 UNL     1      -9.595   6.658  13.063  1.00  0.00     0.073 A 
HETATM   25  C15 UNL     1      -8.261   6.264  12.978  1.00  0.00     0.127 A 
HETATM   26  F1  UNL     1      -7.866   5.573  11.899  1.00  0.00    -0.205 F 
BRANCH  20  27
HETATM   27  C8  UNL     1     -11.502   9.563  17.468  1.00  0.00     0.009 A 
HETATM   28  C9  UNL     1     -12.370  10.681  17.501  1.00  0.00     0.121 A 
HETATM   29  N1  UNL     1     -12.647  11.087  18.742  1.00  0.00    -0.310 N 
HETATM   30  N2  UNL     1     -11.959  10.229  19.514  1.00  0.00    -0.307 N 
ATOM     31  H1  UNL     1     -13.241  11.864  19.035  1.00  0.00     0.186 HD
HETATM   32  C10 UNL     1     -12.020  10.361  20.950  1.00  0.00     0.177 C 
HETATM   33  C11 UNL     1     -11.258   9.298  18.801  1.00  0.00     0.123 A 
ENDBRANCH  20  27
ENDBRANCH  13  15
ENDBRANCH   1  13
BRANCH   9  34
HETATM   34  C19 UNL     1      -1.324   4.241  11.624  1.00  0.00     0.026 A 
HETATM   35  C20 UNL     1      -0.123   3.496  11.700  1.00  0.00     0.122 A 
HETATM   36  N8  UNL     1       0.960   4.226  11.424  1.00  0.00    -0.309 N 
HETATM   37  N9  UNL     1       0.457   5.448  11.154  1.00  0.00    -0.301 N 
ATOM     38  H8  UNL     1       1.937   3.931  11.419  1.00  0.00     0.186 HD
HETATM   39  C23 UNL     1      -0.906   5.509  11.263  1.00  0.00     0.125 A 
BRANCH  37  40
HETATM   40  C21 UNL     1       1.358   6.530  10.789  1.00  0.00     0.174 C 
BRANCH  40  41
HETATM   41  C22 UNL     1       1.779   6.448   9.325  1.00  0.00     0.185 C 
BRANCH  41  42
HETATM   42  O1  UNL     1       2.616   5.318   9.085  1.00  0.00    -0.399 OA
HETATM   43  H20 UNL     1       3.326   5.357   9.765  1.00  0.00     0.209 HD
ENDBRANCH  41  42
ENDBRANCH  40  41
ENDBRANCH  37  40
ENDBRANCH   9  34
TORSDOF 7
ENDMDL
MODEL 6
REMARK minimizedAffinity -8.98327923
REMARK CNNscore 0.233581915
REMARK CNNaffinity 7.18848467
REMARK  7 active torsions:
REMARK  status: ('A' for Active; 'I' for Inactive)
REMARK    1  A    between atoms: C2_2  and  C3_3 
REMARK    2  A    between atoms: C2_2  and  N4_22 
REMARK    3  A    between atoms: C7_7  and  C8_8 
REMARK    4  A    between atoms: C18_30  and  C19_31 
REMARK    5  A    between atoms: N9_35  and  C21_36 
REMARK    6  A    between atoms: C21_36  and  C22_37 
REMARK    7  A    between atoms: C22_37  and  O1_38 
ROOT
HETATM    1  N4  UNL     1      -8.579   5.355  12.946  1.00  0.00    -0.248 N 
HETATM    2  N5  UNL     1      -8.516   5.162  11.604  1.00  0.00    -0.016 NA
HETATM    3  N6  UNL     1      -9.357   6.025  11.033  1.00  0.00    -0.266 N 
ATOM      4  H6  UNL     1      -9.535   6.118  10.034  1.00  0.00     0.186 HD
HETATM    5  C16 UNL     1      -9.937   6.763  12.025  1.00  0.00     0.164 A 
HETATM    6  N7  UNL     1     -10.847   7.762  11.904  1.00  0.00    -0.346 N 
ATOM      7  H7  UNL     1     -11.222   8.086  11.012  1.00  0.00     0.167 HD
HETATM    8  C17 UNL     1     -11.203   8.283  13.112  1.00  0.00     0.120 A 
HETATM    9  C18 UNL     1     -10.703   7.860  14.351  1.00  0.00     0.062 A 
HETATM   10  N10 UNL     1      -9.789   6.859  14.470  1.00  0.00    -0.336 N 
ATOM     11  H10 UNL     1      -9.408   6.529  15.357  1.00  0.00     0.168 HD
HETATM   12  C24 UNL     1      -9.453   6.357  13.262  1.00  0.00     0.168 A 
ENDROOT
BRANCH   1  13
HETATM   13  C2  UNL     1      -7.765   4.573  13.871  1.00  0.00     0.140 C 
HETATM   14  C1  UNL     1      -7.454   5.335  15.164  1.00  0.00     0.039 C 
BRANCH  13  15
HETATM   15  C3  UNL     1      -6.516   4.059  13.178  1.00  0.00     0.005 A 
HETATM   16  C4  UNL     1      -5.274   4.701  13.289  1.00  0.00     0.026 A 
HETATM   17  C5  UNL     1      -4.137   4.197  12.629  1.00  0.00    -0.008 A 
HETATM   18  C6  UNL     1      -2.887   4.828  12.731  1.00  0.00     0.027 A 
HETATM   19  C13 UNL     1      -4.230   3.029  11.843  1.00  0.00     0.045 A 
HETATM   20  C7  UNL     1      -1.774   4.305  12.069  1.00  0.00    -0.007 A 
HETATM   21  C12 UNL     1      -1.979   3.149  11.326  1.00  0.00     0.100 A 
HETATM   22  N3  UNL     1      -3.171   2.511  11.203  1.00  0.00    -0.364 N 
ATOM     23  H3  UNL     1      -3.258   1.664  10.642  1.00  0.00     0.165 HD
HETATM   24  C14 UNL     1      -5.460   2.405  11.735  1.00  0.00     0.073 A 
HETATM   25  C15 UNL     1      -6.581   2.911  12.388  1.00  0.00     0.127 A 
HETATM   26  F1  UNL     1      -7.747   2.263  12.250  1.00  0.00    -0.205 F 
BRANCH  20  27
HETATM   27  C8  UNL     1      -0.463   4.923  12.151  1.00  0.00     0.009 A 
HETATM   28  C9  UNL     1       0.252   5.432  13.261  1.00  0.00     0.121 A 
HETATM   29  N1  UNL     1       1.452   5.915  12.929  1.00  0.00    -0.310 N 
HETATM   30  N2  UNL     1       1.515   5.716  11.602  1.00  0.00    -0.307 N 
ATOM     31  H1  UNL     1       2.154   6.335  13.539  1.00  0.00     0.186 HD
HETATM   32  C10 UNL     1       2.696   6.120  10.879  1.00  0.00     0.177 C 
HETATM   33  C11 UNL     1       0.396   5.124  11.088  1.00  0.00     0.123 A 
ENDBRANCH  20  27
ENDBRANCH  13  15
ENDBRANCH   1  13
BRANCH   9  34
HETATM   34  C19 UNL     1     -11.123   8.456  15.607  1.00  0.00     0.026 A 
HETATM   35  C20 UNL     1     -10.352   8.738  16.760  1.00  0.00     0.122 A 
HETATM   36  N8  UNL     1     -11.068   9.299  17.739  1.00  0.00    -0.309 N 
HETATM   37  N9  UNL     1     -12.305   9.392  17.211  1.00  0.00    -0.301 N 
ATOM     38  H8  UNL     1     -10.754   9.587  18.666  1.00  0.00     0.186 HD
HETATM   39  C23 UNL     1     -12.390   8.899  15.937  1.00  0.00     0.125 A 
BRANCH  37  40
HETATM   40  C21 UNL     1     -13.377   9.981  17.998  1.00  0.00     0.174 C 
BRANCH  40  41
HETATM   41  C22 UNL     1     -13.929   9.001  19.029  1.00  0.00     0.185 C 
BRANCH  41  42
HETATM   42  O1  UNL     1     -12.925   8.089  19.471  1.00  0.00    -0.399 OA
HETATM   43  H20 UNL     1     -12.519   7.716  18.656  1.00  0.00     0.209 HD
ENDBRANCH  41  42
ENDBRANCH  40  41
ENDBRANCH  37  40
ENDBRANCH   9  34
TORSDOF 7
ENDMDL
MODEL 7
REMARK minimizedAffinity -10.2677097
REMARK CNNscore 0.229747593
REMARK CNNaffinity 7.3492341
REMARK  7 active torsions:
REMARK  status: ('A' for Active; 'I' for Inactive)
REMARK    1  A    between atoms: C2_2  and  C3_3 
REMARK    2  A    between atoms: C2_2  and  N4_22 
REMARK    3  A    between atoms: C7_7  and  C8_8 
REMARK    4  A    between atoms: C18_30  and  C19_31 
REMARK    5  A    between atoms: N9_35  and  C21_36 
REMARK    6  A    between atoms: C21_36  and  C22_37 
REMARK    7  A    between atoms: C22_37  and  O1_38 
ROOT
HETATM    1  N4  UNL     1      -6.484   6.322  14.553  1.00  0.00    -0.248 N 
HETATM    2  N5  UNL     1      -7.774   6.311  14.975  1.00  0.00    -0.016 NA
HETATM    3  N6  UNL     1      -8.381   5.282  14.387  1.00  0.00    -0.266 N 
ATOM      4  H6  UNL     1      -9.359   5.017  14.502  1.00  0.00     0.186 HD
HETATM    5  C16 UNL     1      -7.462   4.645  13.602  1.00  0.00     0.164 A 
HETATM    6  N7  UNL     1      -7.639   3.543  12.830  1.00  0.00    -0.346 N 
ATOM      7  H7  UNL     1      -8.525   3.046  12.741  1.00  0.00     0.167 HD
HETATM    8  C17 UNL     1      -6.495   3.179  12.185  1.00  0.00     0.120 A 
HETATM    9  C18 UNL     1      -5.265   3.841  12.291  1.00  0.00     0.062 A 
HETATM   10  N10 UNL     1      -5.090   4.945  13.066  1.00  0.00    -0.336 N 
ATOM     11  H10 UNL     1      -4.208   5.449  13.162  1.00  0.00     0.168 HD
HETATM   12  C24 UNL     1      -6.236   5.289  13.694  1.00  0.00     0.168 A 
ENDROOT
BRANCH   1  13
HETATM   13  C2  UNL     1      -5.532   7.323  15.022  1.00  0.00     0.140 C 
HETATM   14  C1  UNL     1      -5.918   8.744  14.594  1.00  0.00     0.039 C 
BRANCH  13  15
HETATM   15  C3  UNL     1      -4.120   6.950  14.610  1.00  0.00     0.005 A 
HETATM   16  C4  UNL     1      -3.521   7.443  13.442  1.00  0.00     0.026 A 
HETATM   17  C5  UNL     1      -2.208   7.072  13.089  1.00  0.00    -0.008 A 
HETATM   18  C6  UNL     1      -1.594   7.557  11.923  1.00  0.00     0.027 A 
HETATM   19  C13 UNL     1      -1.471   6.196  13.913  1.00  0.00     0.045 A 
HETATM   20  C7  UNL     1      -0.291   7.176  11.598  1.00  0.00    -0.007 A 
HETATM   21  C12 UNL     1       0.342   6.312  12.483  1.00  0.00     0.100 A 
HETATM   22  N3  UNL     1      -0.217   5.822  13.618  1.00  0.00    -0.364 N 
ATOM     23  H3  UNL     1       0.300   5.190  14.228  1.00  0.00     0.165 HD
HETATM   24  C14 UNL     1      -2.072   5.710  15.061  1.00  0.00     0.073 A 
HETATM   25  C15 UNL     1      -3.371   6.079  15.402  1.00  0.00     0.127 A 
HETATM   26  F1  UNL     1      -3.901   5.580  16.528  1.00  0.00    -0.205 F 
BRANCH  20  27
HETATM   27  C8  UNL     1       0.382   7.658  10.406  1.00  0.00     0.009 A 
HETATM   28  C9  UNL     1      -0.129   8.279   9.241  1.00  0.00     0.121 A 
HETATM   29  N1  UNL     1       0.823   8.593   8.359  1.00  0.00    -0.310 N 
HETATM   30  N2  UNL     1       1.953   8.177   8.955  1.00  0.00    -0.307 N 
ATOM     31  H1  UNL     1       0.717   9.043   7.450  1.00  0.00     0.186 HD
HETATM   32  C10 UNL     1       3.217   8.358   8.284  1.00  0.00     0.177 C 
HETATM   33  C11 UNL     1       1.745   7.612  10.182  1.00  0.00     0.123 A 
ENDBRANCH  20  27
ENDBRANCH  13  15
ENDBRANCH   1  13
BRANCH   9  34
HETATM   34  C19 UNL     1      -4.078   3.402  11.576  1.00  0.00     0.026 A 
HETATM   35  C20 UNL     1      -3.805   3.456  10.189  1.00  0.00     0.122 A 
HETATM   36  N8  UNL     1      -2.602   2.966   9.878  1.00  0.00    -0.309 N 
HETATM   37  N9  UNL     1      -2.089   2.607  11.072  1.00  0.00    -0.301 N 
ATOM     38  H8  UNL     1      -2.172   2.882   8.956  1.00  0.00     0.186 HD
HETATM   39  C23 UNL     1      -2.936   2.846  12.120  1.00  0.00     0.125 A 
BRANCH  37  40
HETATM   40  C21 UNL     1      -0.753   2.034  11.135  1.00  0.00     0.174 C 
BRANCH  40  41
HETATM   41  C22 UNL     1      -0.712   0.625  10.552  1.00  0.00     0.185 C 
BRANCH  41  42
HETATM   42  O1  UNL     1      -0.611   0.652   9.129  1.00  0.00    -0.399 OA
HETATM   43  H20 UNL     1      -1.324   1.255   8.819  1.00  0.00     0.209 HD
ENDBRANCH  41  42
ENDBRANCH  40  41
ENDBRANCH  37  40
ENDBRANCH   9  34
TORSDOF 7
ENDMDL
MODEL 8
REMARK minimizedAffinity -8.84791374
REMARK CNNscore 0.171786666
REMARK CNNaffinity 7.44597769
REMARK  7 active torsions:
REMARK  status: ('A' for Active; 'I' for Inactive)
REMARK    1  A    between atoms: C2_2  and  C3_3 
REMARK    2  A    between atoms: C2_2  and  N4_22 
REMARK    3  A    between atoms: C7_7  and  C8_8 
REMARK    4  A    between atoms: C18_30  and  C19_31 
REMARK    5  A    between atoms: N9_35  and  C21_36 
REMARK    6  A    between atoms: C21_36  and  C22_37 
REMARK    7  A    between atoms: C22_37  and  O1_38 
ROOT
HETATM    1  N4  UNL     1      -6.678   4.425  13.962  1.00  0.00    -0.248 N 
HETATM    2  N5  UNL     1      -7.923   4.016  13.606  1.00  0.00    -0.016 NA
HETATM    3  N6  UNL     1      -7.806   3.295  12.491  1.00  0.00    -0.266 N 
ATOM      4  H6  UNL     1      -8.570   2.855  11.978  1.00  0.00     0.186 HD
HETATM    5  C16 UNL     1      -6.482   3.249  12.158  1.00  0.00     0.164 A 
HETATM    6  N7  UNL     1      -5.904   2.618  11.105  1.00  0.00    -0.346 N 
ATOM      7  H7  UNL     1      -6.422   2.085  10.406  1.00  0.00     0.167 HD
HETATM    8  C17 UNL     1      -4.552   2.780  11.088  1.00  0.00     0.120 A 
HETATM    9  C18 UNL     1      -3.814   3.503  12.035  1.00  0.00     0.062 A 
HETATM   10  N10 UNL     1      -4.397   4.134  13.091  1.00  0.00    -0.336 N 
ATOM     11  H10 UNL     1      -3.887   4.669  13.795  1.00  0.00     0.168 HD
HETATM   12  C24 UNL     1      -5.736   3.962  13.087  1.00  0.00     0.168 A 
ENDROOT
BRANCH   1  13
HETATM   13  C2  UNL     1      -6.449   5.231  15.155  1.00  0.00     0.140 C 
HETATM   14  C1  UNL     1      -7.756   5.704  15.803  1.00  0.00     0.039 C 
BRANCH  13  15
HETATM   15  C3  UNL     1      -5.499   6.376  14.851  1.00  0.00     0.005 A 
HETATM   16  C4  UNL     1      -4.266   6.526  15.502  1.00  0.00     0.026 A 
HETATM   17  C5  UNL     1      -3.412   7.603  15.196  1.00  0.00    -0.008 A 
HETATM   18  C6  UNL     1      -2.175   7.767  15.839  1.00  0.00     0.027 A 
HETATM   19  C13 UNL     1      -3.785   8.552  14.221  1.00  0.00     0.045 A 
HETATM   20  C7  UNL     1      -1.345   8.843  15.515  1.00  0.00    -0.007 A 
HETATM   21  C12 UNL     1      -1.811   9.713  14.537  1.00  0.00     0.100 A 
HETATM   22  N3  UNL     1      -2.999   9.589  13.894  1.00  0.00    -0.364 N 
ATOM     23  H3  UNL     1      -3.286  10.262  13.184  1.00  0.00     0.165 HD
HETATM   24  C14 UNL     1      -5.005   8.399  13.587  1.00  0.00     0.073 A 
HETATM   25  C15 UNL     1      -5.846   7.333  13.897  1.00  0.00     0.127 A 
HETATM   26  F1  UNL     1      -7.016   7.233  13.248  1.00  0.00    -0.205 F 
BRANCH  20  27
HETATM   27  C8  UNL     1      -0.056   9.046  16.151  1.00  0.00     0.009 A 
HETATM   28  C9  UNL     1       1.129   8.274  16.109  1.00  0.00     0.121 A 
HETATM   29  N1  UNL     1       2.121   8.807  16.827  1.00  0.00    -0.310 N 
HETATM   30  N2  UNL     1       1.578   9.927  17.333  1.00  0.00    -0.307 N 
ATOM     31  H1  UNL     1       3.067   8.448  16.959  1.00  0.00     0.186 HD
HETATM   32  C10 UNL     1       2.374  10.782  18.178  1.00  0.00     0.177 C 
HETATM   33  C11 UNL     1       0.278  10.117  16.958  1.00  0.00     0.123 A 
ENDBRANCH  20  27
ENDBRANCH  13  15
ENDBRANCH   1  13
BRANCH   9  34
HETATM   34  C19 UNL     1      -2.370   3.640  11.962  1.00  0.00     0.026 A 
HETATM   35  C20 UNL     1      -1.408   2.696  11.532  1.00  0.00     0.122 A 
HETATM   36  N8  UNL     1      -0.158   3.165  11.592  1.00  0.00    -0.309 N 
HETATM   37  N9  UNL     1      -0.315   4.423  12.049  1.00  0.00    -0.301 N 
ATOM     38  H8  UNL     1       0.709   2.685  11.349  1.00  0.00     0.186 HD
HETATM   39  C23 UNL     1      -1.621   4.754  12.289  1.00  0.00     0.125 A 
BRANCH  37  40
HETATM   40  C21 UNL     1       0.854   5.270  12.233  1.00  0.00     0.174 C 
BRANCH  40  41
HETATM   41  C22 UNL     1       1.649   5.429  10.941  1.00  0.00     0.185 C 
BRANCH  41  42
HETATM   42  O1  UNL     1       2.319   4.220  10.589  1.00  0.00    -0.399 OA
HETATM   43  H20 UNL     1       2.807   3.935  11.394  1.00  0.00     0.209 HD
ENDBRANCH  41  42
ENDBRANCH  40  41
ENDBRANCH  37  40
ENDBRANCH   9  34
TORSDOF 7
ENDMDL
MODEL 9
REMARK minimizedAffinity -9.0830431
REMARK CNNscore 0.143814012
REMARK CNNaffinity 7.28097391
REMARK  7 active torsions:
REMARK  status: ('A' for Active; 'I' for Inactive)
REMARK    1  A    between atoms: C2_2  and  C3_3 
REMARK    2  A    between atoms: C2_2  and  N4_22 
REMARK    3  A    between atoms: C7_7  and  C8_8 
REMARK    4  A    between atoms: C18_30  and  C19_31 
REMARK    5  A    between atoms: N9_35  and  C21_36 
REMARK    6  A    between atoms: C21_36  and  C22_37 
REMARK    7  A    between atoms: C22_37  and  O1_38 
ROOT
HETATM    1  N4  UNL     1      -6.844   5.450  14.648  1.00  0.00    -0.248 N 
HETATM    2  N5  UNL     1      -8.187   5.370  14.471  1.00  0.00    -0.016 NA
HETATM    3  N6  UNL     1      -8.405   4.664  13.362  1.00  0.00    -0.266 N 
ATOM      4  H6  UNL     1      -9.317   4.437  12.965  1.00  0.00     0.186 HD
HETATM    5  C16 UNL     1      -7.192   4.296  12.854  1.00  0.00     0.164 A 
HETATM    6  N7  UNL     1      -6.937   3.562  11.741  1.00  0.00    -0.346 N 
ATOM      7  H7  UNL     1      -7.661   3.188  11.128  1.00  0.00     0.167 HD
HETATM    8  C17 UNL     1      -5.602   3.383  11.538  1.00  0.00     0.120 A 
HETATM    9  C18 UNL     1      -4.587   3.883  12.365  1.00  0.00     0.062 A 
HETATM   10  N10 UNL     1      -4.845   4.619  13.481  1.00  0.00    -0.336 N 
ATOM     11  H10 UNL     1      -4.129   4.996  14.101  1.00  0.00     0.168 HD
HETATM   12  C24 UNL     1      -6.174   4.785  13.661  1.00  0.00     0.168 A 
ENDROOT
BRANCH   1  13
HETATM   13  C2  UNL     1      -6.262   6.151  15.787  1.00  0.00     0.140 C 
HETATM   14  C1  UNL     1      -7.323   6.825  16.665  1.00  0.00     0.039 C 
BRANCH  13  15
HETATM   15  C3  UNL     1      -5.185   7.117  15.325  1.00  0.00     0.005 A 
HETATM   16  C4  UNL     1      -3.817   6.845  15.469  1.00  0.00     0.026 A 
HETATM   17  C5  UNL     1      -2.846   7.767  15.032  1.00  0.00    -0.008 A 
HETATM   18  C6  UNL     1      -1.472   7.509  15.169  1.00  0.00     0.027 A 
HETATM   19  C13 UNL     1      -3.238   8.984  14.436  1.00  0.00     0.045 A 
HETATM   20  C7  UNL     1      -0.530   8.439  14.723  1.00  0.00    -0.007 A 
HETATM   21  C12 UNL     1      -1.028   9.601  14.148  1.00  0.00     0.100 A 
HETATM   22  N3  UNL     1      -2.346   9.886  13.999  1.00  0.00    -0.364 N 
ATOM     23  H3  UNL     1      -2.650  10.759  13.568  1.00  0.00     0.165 HD
HETATM   24  C14 UNL     1      -4.589   9.246  14.302  1.00  0.00     0.073 A 
HETATM   25  C15 UNL     1      -5.544   8.332  14.740  1.00  0.00     0.127 A 
HETATM   26  F1  UNL     1      -6.841   8.637  14.581  1.00  0.00    -0.205 F 
BRANCH  20  27
HETATM   27  C8  UNL     1       0.899   8.210  14.841  1.00  0.00     0.009 A 
HETATM   28  C9  UNL     1       1.653   7.014  14.774  1.00  0.00     0.121 A 
HETATM   29  N1  UNL     1       2.965   7.219  14.917  1.00  0.00    -0.310 N 
HETATM   30  N2  UNL     1       3.060   8.551  15.075  1.00  0.00    -0.307 N 
ATOM     31  H1  UNL     1       3.717   6.529  14.908  1.00  0.00     0.186 HD
HETATM   32  C10 UNL     1       4.358   9.152  15.258  1.00  0.00     0.177 C 
HETATM   33  C11 UNL     1       1.853   9.190  15.036  1.00  0.00     0.123 A 
ENDBRANCH  20  27
ENDBRANCH  13  15
ENDBRANCH   1  13
BRANCH   9  34
HETATM   34  C19 UNL     1      -3.177   3.658  12.095  1.00  0.00     0.026 A 
HETATM   35  C20 UNL     1      -2.079   4.520  12.324  1.00  0.00     0.122 A 
HETATM   36  N8  UNL     1      -0.912   3.983  11.958  1.00  0.00    -0.309 N 
HETATM   37  N9  UNL     1      -1.256   2.761  11.503  1.00  0.00    -0.301 N 
ATOM     38  H8  UNL     1       0.019   4.398  12.010  1.00  0.00     0.186 HD
HETATM   39  C23 UNL     1      -2.602   2.520  11.562  1.00  0.00     0.125 A 
BRANCH  37  40
HETATM   40  C21 UNL     1      -0.222   1.858  11.021  1.00  0.00     0.174 C 
BRANCH  40  41
HETATM   41  C22 UNL     1      -0.814   0.591  10.412  1.00  0.00     0.185 C 
BRANCH  41  42
HETATM   42  O1  UNL     1      -0.679   0.584   8.992  1.00  0.00    -0.399 OA
HETATM   43  H20 UNL     1      -1.031   1.449   8.681  1.00  0.00     0.209 HD
ENDBRANCH  41  42
ENDBRANCH  40  41
ENDBRANCH  37  40
ENDBRANCH   9  34
TORSDOF 7
ENDMDL
