MODEL 1
REMARK minimizedAffinity -10.1126423
REMARK  4 active torsions:
REMARK  status: ('A' for Active; 'I' for Inactive)
REMARK    1  A    between atoms: C2_2  and  O1_3 
REMARK    2  A    between atoms: O1_3  and  N1_4 
REMARK    3  A    between atoms: C3_6  and  C5_8 
REMARK    4  A    between atoms: N2_20  and  C17_21 
ROOT
HETATM    1  C5  UNL     1      -8.780   6.044  13.368  1.00  0.00    -0.011 A 
HETATM    2  C6  UNL     1      -8.667   4.933  12.535  1.00  0.00     0.016 A 
HETATM    3  C7  UNL     1      -7.425   4.337  12.298  1.00  0.00     0.031 A 
HETATM    4  C8  UNL     1      -6.280   4.889  12.908  1.00  0.00     0.046 A 
HETATM    5  C9  UNL     1      -6.364   6.015  13.714  1.00  0.00     0.005 A 
HETATM    6  C10 UNL     1      -7.632   6.598  13.950  1.00  0.00     0.028 A 
HETATM    7  C11 UNL     1      -5.036   6.345  14.118  1.00  0.00     0.013 A 
HETATM    8  C12 UNL     1      -4.530   7.384  14.918  1.00  0.00    -0.010 A 
HETATM    9  C13 UNL     1      -3.154   7.538  15.123  1.00  0.00     0.052 A 
HETATM   10  C14 UNL     1      -2.240   6.686  14.528  1.00  0.00     0.002 A 
HETATM   11  C15 UNL     1      -2.716   5.633  13.650  1.00  0.00    -0.018 A 
HETATM   12  C16 UNL     1      -4.136   5.439  13.519  1.00  0.00     0.054 A 
HETATM   13  N2  UNL     1      -4.943   4.477  12.899  1.00  0.00    -0.341 N 
HETATM   14  C20 UNL     1      -1.655   4.784  12.938  1.00  0.00     0.048 C 
HETATM   15  C21 UNL     1      -0.356   5.523  12.554  1.00  0.00     0.064 C 
HETATM   16  C22 UNL     1       0.114   6.261  13.741  1.00  0.00     0.038 A 
HETATM   17  N3  UNL     1       1.389   6.432  14.093  1.00  0.00    -0.303 N 
ATOM     18  H3  UNL     1       2.232   6.139  13.598  1.00  0.00     0.186 HD
HETATM   19  N4  UNL     1       1.285   7.090  15.269  1.00  0.00    -0.307 N 
HETATM   20  C23 UNL     1       2.480   7.486  15.973  1.00  0.00     0.177 C 
HETATM   21  C24 UNL     1      -0.008   7.275  15.681  1.00  0.00     0.124 A 
HETATM   22  C25 UNL     1      -0.800   6.804  14.664  1.00  0.00     0.017 A 
HETATM   23  C26 UNL     1      -2.983   8.756  15.953  1.00  0.00     0.253 A 
HETATM   24  O2  UNL     1      -1.964   9.318  16.297  1.00  0.00    -0.268 OA
HETATM   25  N5  UNL     1      -4.243   9.211  16.273  1.00  0.00    -0.353 N 
HETATM   26  C27 UNL     1      -5.282   8.466  15.634  1.00  0.00     0.163 A 
HETATM   27  H27 UNL     1      -4.360  10.091  16.758  1.00  0.00     0.163 HD
ENDROOT
BRANCH   1  28
HETATM   28  C3  UNL     1     -10.128   6.645  13.594  1.00  0.00     0.038 C 
HETATM   29  N1  UNL     1     -10.673   6.532  14.771  1.00  0.00    -0.271 N 
ATOM     30  H1  UNL     1     -10.231   6.073  15.567  1.00  0.00     0.194 HD
HETATM   31  C4  UNL     1     -10.801   7.357  12.437  1.00  0.00     0.071 C 
BRANCH  29  32
HETATM   32  O1  UNL     1     -11.943   7.123  14.806  1.00  0.00    -0.281 OA
BRANCH  32  33
HETATM   33  C2  UNL     1     -12.912   6.129  14.475  1.00  0.00     0.196 C 
HETATM   34  C1  UNL     1     -14.286   6.769  14.508  1.00  0.00     0.036 C 
ENDBRANCH  32  33
ENDBRANCH  29  32
ENDBRANCH   1  28
BRANCH  13  35
HETATM   35  C17 UNL     1      -4.600   3.148  12.376  1.00  0.00     0.082 C 
HETATM   36  C18 UNL     1      -5.515   2.706  11.233  1.00  0.00     0.032 C 
HETATM   37  C19 UNL     1      -3.117   2.868  12.123  1.00  0.00     0.032 C 
ENDBRANCH  13  35
TORSDOF 4
ENDMDL
MODEL 2
REMARK minimizedAffinity -10.0397196
REMARK  4 active torsions:
REMARK  status: ('A' for Active; 'I' for Inactive)
REMARK    1  A    between atoms: C2_2  and  O1_3 
REMARK    2  A    between atoms: O1_3  and  N1_4 
REMARK    3  A    between atoms: C3_6  and  C5_8 
REMARK    4  A    between atoms: N2_20  and  C17_21 
ROOT
HETATM    1  C5  UNL     1       0.111   5.336  11.768  1.00  0.00    -0.011 A 
HETATM    2  C6  UNL     1      -0.211   4.039  11.377  1.00  0.00     0.016 A 
HETATM    3  C7  UNL     1      -1.509   3.545  11.534  1.00  0.00     0.031 A 
HETATM    4  C8  UNL     1      -2.489   4.380  12.108  1.00  0.00     0.046 A 
HETATM    5  C9  UNL     1      -2.183   5.664  12.536  1.00  0.00     0.005 A 
HETATM    6  C10 UNL     1      -0.864   6.149  12.360  1.00  0.00     0.028 A 
HETATM    7  C11 UNL     1      -3.366   6.209  13.116  1.00  0.00     0.013 A 
HETATM    8  C12 UNL     1      -3.629   7.453  13.715  1.00  0.00    -0.010 A 
HETATM    9  C13 UNL     1      -4.878   7.737  14.280  1.00  0.00     0.052 A 
HETATM   10  C14 UNL     1      -5.893   6.796  14.287  1.00  0.00     0.002 A 
HETATM   11  C15 UNL     1      -5.647   5.479  13.728  1.00  0.00    -0.018 A 
HETATM   12  C16 UNL     1      -4.386   5.235  13.079  1.00  0.00     0.054 A 
HETATM   13  N2  UNL     1      -3.856   4.179  12.329  1.00  0.00    -0.341 N 
HETATM   14  C20 UNL     1      -6.772   4.444  13.856  1.00  0.00     0.048 C 
HETATM   15  C21 UNL     1      -7.631   4.547  15.134  1.00  0.00     0.064 C 
HETATM   16  C22 UNL     1      -8.043   5.954  15.293  1.00  0.00     0.038 A 
HETATM   17  N3  UNL     1      -9.222   6.368  15.756  1.00  0.00    -0.303 N 
ATOM     18  H3  UNL     1      -9.998   5.811  16.115  1.00  0.00     0.186 HD
HETATM   19  N4  UNL     1      -9.132   7.711  15.632  1.00  0.00    -0.307 N 
HETATM   20  C23 UNL     1     -10.231   8.542  16.059  1.00  0.00     0.177 C 
HETATM   21  C24 UNL     1      -7.965   8.131  15.051  1.00  0.00     0.124 A 
HETATM   22  C25 UNL     1      -7.200   7.005  14.884  1.00  0.00     0.017 A 
HETATM   23  C26 UNL     1      -4.778   9.095  14.867  1.00  0.00     0.253 A 
HETATM   24  O2  UNL     1      -5.586   9.709  15.533  1.00  0.00    -0.268 OA
HETATM   25  N5  UNL     1      -3.529   9.584  14.555  1.00  0.00    -0.353 N 
HETATM   26  C27 UNL     1      -2.707   8.623  13.888  1.00  0.00     0.163 A 
HETATM   27  H27 UNL     1      -3.214  10.464  14.940  1.00  0.00     0.163 HD
ENDROOT
BRANCH   1  28
HETATM   28  C3  UNL     1       1.511   5.824  11.580  1.00  0.00     0.038 C 
HETATM   29  N1  UNL     1       2.172   5.433  10.529  1.00  0.00    -0.271 N 
ATOM     30  H1  UNL     1       1.792   4.824   9.804  1.00  0.00     0.194 HD
HETATM   31  C4  UNL     1       2.097   6.749  12.628  1.00  0.00     0.071 C 
BRANCH  29  32
HETATM   32  O1  UNL     1       3.473   5.954  10.520  1.00  0.00    -0.281 OA
BRANCH  32  33
HETATM   33  C2  UNL     1       3.591   6.853   9.418  1.00  0.00     0.196 C 
HETATM   34  C1  UNL     1       2.713   6.349   8.291  1.00  0.00     0.036 C 
ENDBRANCH  32  33
ENDBRANCH  29  32
ENDBRANCH   1  28
BRANCH  13  35
HETATM   35  C17 UNL     1      -4.527   3.029  11.706  1.00  0.00     0.082 C 
HETATM   36  C18 UNL     1      -4.991   3.316  10.278  1.00  0.00     0.032 C 
HETATM   37  C19 UNL     1      -3.855   1.664  11.875  1.00  0.00     0.032 C 
ENDBRANCH  13  35
TORSDOF 4
ENDMDL
MODEL 3
REMARK minimizedAffinity -9.94593525
REMARK  4 active torsions:
REMARK  status: ('A' for Active; 'I' for Inactive)
REMARK    1  A    between atoms: C2_2  and  O1_3 
REMARK    2  A    between atoms: O1_3  and  N1_4 
REMARK    3  A    between atoms: C3_6  and  C5_8 
REMARK    4  A    between atoms: N2_20  and  C17_21 
ROOT
HETATM    1  C5  UNL     1       1.064   5.979  12.118  1.00  0.00    -0.011 A 
HETATM    2  C6  UNL     1       0.961   4.714  11.545  1.00  0.00     0.016 A 
HETATM    3  C7  UNL     1      -0.279   4.080  11.424  1.00  0.00     0.031 A 
HETATM    4  C8  UNL     1      -1.428   4.740  11.905  1.00  0.00     0.046 A 
HETATM    5  C9  UNL     1      -1.345   5.986  12.510  1.00  0.00     0.005 A 
HETATM    6  C10 UNL     1      -0.081   6.615  12.614  1.00  0.00     0.028 A 
HETATM    7  C11 UNL     1      -2.661   6.339  12.932  1.00  0.00     0.013 A 
HETATM    8  C12 UNL     1      -3.159   7.470  13.603  1.00  0.00    -0.010 A 
HETATM    9  C13 UNL     1      -4.506   7.560  13.971  1.00  0.00     0.052 A 
HETATM   10  C14 UNL     1      -5.393   6.532  13.707  1.00  0.00     0.002 A 
HETATM   11  C15 UNL     1      -4.910   5.323  13.065  1.00  0.00    -0.018 A 
HETATM   12  C16 UNL     1      -3.542   5.282  12.620  1.00  0.00     0.054 A 
HETATM   13  N2  UNL     1      -2.780   4.382  11.867  1.00  0.00    -0.341 N 
HETATM   14  C20 UNL     1      -5.913   4.175  12.890  1.00  0.00     0.048 C 
HETATM   15  C21 UNL     1      -6.971   4.038  14.005  1.00  0.00     0.064 C 
HETATM   16  C22 UNL     1      -7.563   5.368  14.236  1.00  0.00     0.038 A 
HETATM   17  N3  UNL     1      -8.841   5.607  14.531  1.00  0.00    -0.303 N 
ATOM     18  H3  UNL     1      -9.595   4.938  14.692  1.00  0.00     0.186 HD
HETATM   19  N4  UNL     1      -8.889   6.957  14.563  1.00  0.00    -0.307 N 
HETATM   20  C23 UNL     1     -10.131   7.620  14.879  1.00  0.00     0.177 C 
HETATM   21  C24 UNL     1      -7.701   7.556  14.239  1.00  0.00     0.124 A 
HETATM   22  C25 UNL     1      -6.793   6.538  14.089  1.00  0.00     0.017 A 
HETATM   23  C26 UNL     1      -4.659   8.841  14.704  1.00  0.00     0.253 A 
HETATM   24  O2  UNL     1      -5.629   9.288  15.282  1.00  0.00    -0.268 OA
HETATM   25  N5  UNL     1      -3.442   9.482  14.663  1.00  0.00    -0.353 N 
HETATM   26  C27 UNL     1      -2.418   8.694  14.052  1.00  0.00     0.163 A 
HETATM   27  H27 UNL     1      -3.296  10.336  15.186  1.00  0.00     0.163 HD
ENDROOT
BRANCH   1  28
HETATM   28  C3  UNL     1       2.410   6.619  12.223  1.00  0.00     0.038 C 
HETATM   29  N1  UNL     1       3.367   6.194  11.450  1.00  0.00    -0.271 N 
ATOM     30  H1  UNL     1       3.258   5.457  10.753  1.00  0.00     0.194 HD
HETATM   31  C4  UNL     1       2.598   7.734  13.234  1.00  0.00     0.071 C 
BRANCH  29  32
HETATM   32  O1  UNL     1       4.566   6.876  11.696  1.00  0.00    -0.281 OA
BRANCH  32  33
HETATM   33  C2  UNL     1       5.618   6.203  11.006  1.00  0.00     0.196 C 
HETATM   34  C1  UNL     1       6.942   6.760  11.491  1.00  0.00     0.036 C 
ENDBRANCH  32  33
ENDBRANCH  29  32
ENDBRANCH   1  28
BRANCH  13  35
HETATM   35  C17 UNL     1      -3.205   3.256  11.022  1.00  0.00     0.082 C 
HETATM   36  C18 UNL     1      -3.487   1.985  11.826  1.00  0.00     0.032 C 
HETATM   37  C19 UNL     1      -4.258   3.556   9.953  1.00  0.00     0.032 C 
ENDBRANCH  13  35
TORSDOF 4
ENDMDL
MODEL 4
REMARK minimizedAffinity -9.92957211
REMARK  4 active torsions:
REMARK  status: ('A' for Active; 'I' for Inactive)
REMARK    1  A    between atoms: C2_2  and  O1_3 
REMARK    2  A    between atoms: O1_3  and  N1_4 
REMARK    3  A    between atoms: C3_6  and  C5_8 
REMARK    4  A    between atoms: N2_20  and  C17_21 
ROOT
HETATM    1  C5  UNL     1      -7.609   5.858  13.837  1.00  0.00    -0.011 A 
HETATM    2  C6  UNL     1      -7.636   4.663  13.123  1.00  0.00     0.016 A 
HETATM    3  C7  UNL     1      -6.455   4.076  12.661  1.00  0.00     0.031 A 
HETATM    4  C8  UNL     1      -5.229   4.723  12.920  1.00  0.00     0.046 A 
HETATM    5  C9  UNL     1      -5.180   5.931  13.600  1.00  0.00     0.005 A 
HETATM    6  C10 UNL     1      -6.387   6.505  14.068  1.00  0.00     0.028 A 
HETATM    7  C11 UNL     1      -3.814   6.338  13.638  1.00  0.00     0.013 A 
HETATM    8  C12 UNL     1      -3.189   7.475  14.182  1.00  0.00    -0.010 A 
HETATM    9  C13 UNL     1      -1.813   7.686  14.035  1.00  0.00     0.052 A 
HETATM   10  C14 UNL     1      -1.021   6.795  13.333  1.00  0.00     0.002 A 
HETATM   11  C15 UNL     1      -1.633   5.636  12.709  1.00  0.00    -0.018 A 
HETATM   12  C16 UNL     1      -3.033   5.392  12.941  1.00  0.00     0.054 A 
HETATM   13  N2  UNL     1      -3.912   4.346  12.636  1.00  0.00    -0.341 N 
HETATM   14  C20 UNL     1      -0.726   4.739  11.858  1.00  0.00     0.048 C 
HETATM   15  C21 UNL     1       0.407   5.462  11.101  1.00  0.00     0.064 C 
HETATM   16  C22 UNL     1       1.103   6.342  12.058  1.00  0.00     0.038 A 
HETATM   17  N3  UNL     1       2.414   6.584  12.076  1.00  0.00    -0.303 N 
ATOM     18  H3  UNL     1       3.132   6.258  11.428  1.00  0.00     0.186 HD
HETATM   19  N4  UNL     1       2.554   7.370  13.166  1.00  0.00    -0.307 N 
HETATM   20  C23 UNL     1       3.858   7.874  13.521  1.00  0.00     0.177 C 
HETATM   21  C24 UNL     1       1.385   7.568  13.853  1.00  0.00     0.124 A 
HETATM   22  C25 UNL     1       0.403   6.964  13.109  1.00  0.00     0.017 A 
HETATM   23  C26 UNL     1      -1.516   8.994  14.668  1.00  0.00     0.253 A 
HETATM   24  O2  UNL     1      -0.475   9.618  14.699  1.00  0.00    -0.268 OA
HETATM   25  N5  UNL     1      -2.688   9.451  15.229  1.00  0.00    -0.353 N 
HETATM   26  C27 UNL     1      -3.808   8.612  14.938  1.00  0.00     0.163 A 
HETATM   27  H27 UNL     1      -2.734  10.377  15.634  1.00  0.00     0.163 HD
ENDROOT
BRANCH   1  28
HETATM   28  C3  UNL     1      -8.895   6.448  14.314  1.00  0.00     0.038 C 
HETATM   29  N1  UNL     1      -9.972   6.251  13.610  1.00  0.00    -0.271 N 
ATOM     30  H1  UNL     1     -10.005   5.699  12.753  1.00  0.00     0.194 HD
HETATM   31  C4  UNL     1      -8.884   7.254  15.598  1.00  0.00     0.071 C 
BRANCH  29  32
HETATM   32  O1  UNL     1     -11.080   6.894  14.177  1.00  0.00    -0.281 OA
BRANCH  32  33
HETATM   33  C2  UNL     1     -11.762   7.611  13.149  1.00  0.00     0.196 C 
HETATM   34  C1  UNL     1     -13.159   7.040  13.011  1.00  0.00     0.036 C 
ENDBRANCH  32  33
ENDBRANCH  29  32
ENDBRANCH   1  28
BRANCH  13  35
HETATM   35  C17 UNL     1      -3.632   2.975  12.189  1.00  0.00     0.082 C 
HETATM   36  C18 UNL     1      -4.840   2.308  11.529  1.00  0.00     0.032 C 
HETATM   37  C19 UNL     1      -2.316   2.748  11.441  1.00  0.00     0.032 C 
ENDBRANCH  13  35
TORSDOF 4
ENDMDL
MODEL 5
REMARK minimizedAffinity -9.67244816
REMARK  4 active torsions:
REMARK  status: ('A' for Active; 'I' for Inactive)
REMARK    1  A    between atoms: C2_2  and  O1_3 
REMARK    2  A    between atoms: O1_3  and  N1_4 
REMARK    3  A    between atoms: C3_6  and  C5_8 
REMARK    4  A    between atoms: N2_20  and  C17_21 
ROOT
HETATM    1  C5  UNL     1      -9.173   7.663  14.790  1.00  0.00    -0.011 A 
HETATM    2  C6  UNL     1      -8.407   8.751  15.200  1.00  0.00     0.016 A 
HETATM    3  C7  UNL     1      -7.031   8.793  14.954  1.00  0.00     0.031 A 
HETATM    4  C8  UNL     1      -6.427   7.705  14.292  1.00  0.00     0.046 A 
HETATM    5  C9  UNL     1      -7.165   6.595  13.905  1.00  0.00     0.005 A 
HETATM    6  C10 UNL     1      -8.558   6.576  14.154  1.00  0.00     0.028 A 
HETATM    7  C11 UNL     1      -6.253   5.664  13.326  1.00  0.00     0.013 A 
HETATM    8  C12 UNL     1      -6.442   4.381  12.781  1.00  0.00    -0.010 A 
HETATM    9  C13 UNL     1      -5.360   3.621  12.322  1.00  0.00     0.052 A 
HETATM   10  C14 UNL     1      -4.064   4.095  12.405  1.00  0.00     0.002 A 
HETATM   11  C15 UNL     1      -3.816   5.391  13.010  1.00  0.00    -0.018 A 
HETATM   12  C16 UNL     1      -4.947   6.193  13.399  1.00  0.00     0.054 A 
HETATM   13  N2  UNL     1      -5.109   7.502  13.868  1.00  0.00    -0.341 N 
HETATM   14  C20 UNL     1      -2.353   5.822  13.169  1.00  0.00     0.048 C 
HETATM   15  C21 UNL     1      -1.350   4.683  13.448  1.00  0.00     0.064 C 
HETATM   16  C22 UNL     1      -1.592   3.612  12.464  1.00  0.00     0.038 A 
HETATM   17  N3  UNL     1      -0.654   2.854  11.896  1.00  0.00    -0.303 N 
ATOM     18  H3  UNL     1       0.351   2.845  12.072  1.00  0.00     0.186 HD
HETATM   19  N4  UNL     1      -1.368   2.100  11.031  1.00  0.00    -0.307 N 
HETATM   20  C23 UNL     1      -0.695   1.112  10.223  1.00  0.00     0.177 C 
HETATM   21  C24 UNL     1      -2.701   2.412  11.003  1.00  0.00     0.124 A 
HETATM   22  C25 UNL     1      -2.890   3.352  11.984  1.00  0.00     0.017 A 
HETATM   23  C26 UNL     1      -5.916   2.318  11.882  1.00  0.00     0.253 A 
HETATM   24  O2  UNL     1      -5.336   1.322  11.499  1.00  0.00    -0.268 OA
HETATM   25  N5  UNL     1      -7.284   2.392  12.013  1.00  0.00    -0.353 N 
HETATM   26  C27 UNL     1      -7.719   3.612  12.619  1.00  0.00     0.163 A 
HETATM   27  H27 UNL     1      -7.859   1.575  11.856  1.00  0.00     0.163 HD
ENDROOT
BRANCH   1  28
HETATM   28  C3  UNL     1     -10.640   7.663  15.071  1.00  0.00     0.038 C 
HETATM   29  N1  UNL     1     -11.348   6.636  14.699  1.00  0.00    -0.271 N 
ATOM     30  H1  UNL     1     -10.964   5.810  14.240  1.00  0.00     0.194 HD
HETATM   31  C4  UNL     1     -11.237   8.866  15.775  1.00  0.00     0.071 C 
BRANCH  29  32
HETATM   32  O1  UNL     1     -12.703   6.807  15.010  1.00  0.00    -0.281 OA
BRANCH  32  33
HETATM   33  C2  UNL     1     -13.483   6.241  13.958  1.00  0.00     0.196 C 
HETATM   34  C1  UNL     1     -14.598   5.420  14.576  1.00  0.00     0.036 C 
ENDBRANCH  32  33
ENDBRANCH  29  32
ENDBRANCH   1  28
BRANCH  13  35
HETATM   35  C17 UNL     1      -4.166   8.629  13.873  1.00  0.00     0.082 C 
HETATM   36  C18 UNL     1      -3.352   8.716  15.164  1.00  0.00     0.032 C 
HETATM   37  C19 UNL     1      -3.337   8.839  12.604  1.00  0.00     0.032 C 
ENDBRANCH  13  35
TORSDOF 4
ENDMDL
MODEL 6
REMARK minimizedAffinity -9.64969444
REMARK  4 active torsions:
REMARK  status: ('A' for Active; 'I' for Inactive)
REMARK    1  A    between atoms: C2_2  and  O1_3 
REMARK    2  A    between atoms: O1_3  and  N1_4 
REMARK    3  A    between atoms: C3_6  and  C5_8 
REMARK    4  A    between atoms: N2_20  and  C17_21 
ROOT
HETATM    1  C5  UNL     1       2.806   6.154  11.189  1.00  0.00    -0.011 A 
HETATM    2  C6  UNL     1       2.941   7.408  11.779  1.00  0.00     0.016 A 
HETATM    3  C7  UNL     1       1.876   7.996  12.467  1.00  0.00     0.031 A 
HETATM    4  C8  UNL     1       0.652   7.301  12.543  1.00  0.00     0.046 A 
HETATM    5  C9  UNL     1       0.483   6.066  11.934  1.00  0.00     0.005 A 
HETATM    6  C10 UNL     1       1.577   5.483  11.250  1.00  0.00     0.028 A 
HETATM    7  C11 UNL     1      -0.871   5.671  12.146  1.00  0.00     0.013 A 
HETATM    8  C12 UNL     1      -1.589   4.531  11.746  1.00  0.00    -0.010 A 
HETATM    9  C13 UNL     1      -2.954   4.397  12.028  1.00  0.00     0.052 A 
HETATM   10  C14 UNL     1      -3.650   5.390  12.694  1.00  0.00     0.002 A 
HETATM   11  C15 UNL     1      -2.960   6.608  13.078  1.00  0.00    -0.018 A 
HETATM   12  C16 UNL     1      -1.541   6.692  12.853  1.00  0.00     0.054 A 
HETATM   13  N2  UNL     1      -0.544   7.611  13.201  1.00  0.00    -0.341 N 
HETATM   14  C20 UNL     1      -3.804   7.717  13.720  1.00  0.00     0.048 C 
HETATM   15  C21 UNL     1      -5.256   7.829  13.211  1.00  0.00     0.064 C 
HETATM   16  C22 UNL     1      -5.853   6.481  13.239  1.00  0.00     0.038 A 
HETATM   17  N3  UNL     1      -7.119   6.201  13.552  1.00  0.00    -0.303 N 
ATOM     18  H3  UNL     1      -7.880   6.844  13.768  1.00  0.00     0.186 HD
HETATM   19  N4  UNL     1      -7.140   4.850  13.509  1.00  0.00    -0.307 N 
HETATM   20  C23 UNL     1      -8.372   4.147  13.774  1.00  0.00     0.177 C 
HETATM   21  C24 UNL     1      -5.919   4.290  13.242  1.00  0.00     0.124 A 
HETATM   22  C25 UNL     1      -5.070   5.338  12.990  1.00  0.00     0.017 A 
HETATM   23  C26 UNL     1      -3.389   3.120  11.411  1.00  0.00     0.253 A 
HETATM   24  O2  UNL     1      -4.504   2.645  11.326  1.00  0.00    -0.268 OA
HETATM   25  N5  UNL     1      -2.270   2.522  10.878  1.00  0.00    -0.353 N 
HETATM   26  C27 UNL     1      -1.102   3.339  10.978  1.00  0.00     0.163 A 
HETATM   27  H27 UNL     1      -2.355   1.680  10.323  1.00  0.00     0.163 HD
ENDROOT
BRANCH   1  28
HETATM   28  C3  UNL     1       3.972   5.564  10.466  1.00  0.00     0.038 C 
HETATM   29  N1  UNL     1       3.780   4.513   9.722  1.00  0.00    -0.271 N 
ATOM     30  H1  UNL     1       2.873   4.069   9.579  1.00  0.00     0.194 HD
HETATM   31  C4  UNL     1       5.330   6.216  10.639  1.00  0.00     0.071 C 
BRANCH  29  32
HETATM   32  O1  UNL     1       4.976   4.070   9.143  1.00  0.00    -0.281 OA
BRANCH  32  33
HETATM   33  C2  UNL     1       4.657   3.181   8.073  1.00  0.00     0.196 C 
HETATM   34  C1  UNL     1       3.793   3.923   7.073  1.00  0.00     0.036 C 
ENDBRANCH  32  33
ENDBRANCH  29  32
ENDBRANCH   1  28
BRANCH  13  35
HETATM   35  C17 UNL     1      -0.568   8.710  14.176  1.00  0.00     0.082 C 
HETATM   36  C18 UNL     1      -1.316   9.942  13.662  1.00  0.00     0.032 C 
HETATM   37  C19 UNL     1      -0.905   8.342  15.623  1.00  0.00     0.032 C 
ENDBRANCH  13  35
TORSDOF 4
ENDMDL
MODEL 7
REMARK minimizedAffinity -9.33721542
REMARK  4 active torsions:
REMARK  status: ('A' for Active; 'I' for Inactive)
REMARK    1  A    between atoms: C2_2  and  O1_3 
REMARK    2  A    between atoms: O1_3  and  N1_4 
REMARK    3  A    between atoms: C3_6  and  C5_8 
REMARK    4  A    between atoms: N2_20  and  C17_21 
ROOT
HETATM    1  C5  UNL     1       2.610   7.501  11.692  1.00  0.00    -0.011 A 
HETATM    2  C6  UNL     1       2.549   8.678  12.433  1.00  0.00     0.016 A 
HETATM    3  C7  UNL     1       1.397   9.016  13.151  1.00  0.00     0.031 A 
HETATM    4  C8  UNL     1       0.289   8.146  13.102  1.00  0.00     0.046 A 
HETATM    5  C9  UNL     1       0.315   6.985  12.343  1.00  0.00     0.005 A 
HETATM    6  C10 UNL     1       1.494   6.657  11.631  1.00  0.00     0.028 A 
HETATM    7  C11 UNL     1      -0.969   6.375  12.461  1.00  0.00     0.013 A 
HETATM    8  C12 UNL     1      -1.504   5.201  11.902  1.00  0.00    -0.010 A 
HETATM    9  C13 UNL     1      -2.838   4.836  12.120  1.00  0.00     0.052 A 
HETATM   10  C14 UNL     1      -3.684   5.628  12.876  1.00  0.00     0.002 A 
HETATM   11  C15 UNL     1      -3.188   6.876  13.427  1.00  0.00    -0.018 A 
HETATM   12  C16 UNL     1      -1.794   7.192  13.263  1.00  0.00     0.054 A 
HETATM   13  N2  UNL     1      -0.949   8.195  13.752  1.00  0.00    -0.341 N 
HETATM   14  C20 UNL     1      -4.197   7.762  14.169  1.00  0.00     0.048 C 
HETATM   15  C21 UNL     1      -5.641   7.725  13.629  1.00  0.00     0.064 C 
HETATM   16  C22 UNL     1      -6.033   6.312  13.475  1.00  0.00     0.038 A 
HETATM   17  N3  UNL     1      -7.247   5.814  13.709  1.00  0.00    -0.303 N 
ATOM     18  H3  UNL     1      -8.099   6.308  13.975  1.00  0.00     0.186 HD
HETATM   19  N4  UNL     1      -7.068   4.490  13.503  1.00  0.00    -0.307 N 
HETATM   20  C23 UNL     1      -8.186   3.589  13.640  1.00  0.00     0.177 C 
HETATM   21  C24 UNL     1      -5.773   4.151  13.212  1.00  0.00     0.124 A 
HETATM   22  C25 UNL     1      -5.085   5.334  13.116  1.00  0.00     0.017 A 
HETATM   23  C26 UNL     1      -3.070   3.597  11.339  1.00  0.00     0.253 A 
HETATM   24  O2  UNL     1      -4.100   2.979  11.160  1.00  0.00    -0.268 OA
HETATM   25  N5  UNL     1      -1.867   3.238  10.775  1.00  0.00    -0.353 N 
HETATM   26  C27 UNL     1      -0.834   4.197  11.012  1.00  0.00     0.163 A 
HETATM   27  H27 UNL     1      -1.818   2.468  10.121  1.00  0.00     0.163 HD
ENDROOT
BRANCH   1  28
HETATM   28  C3  UNL     1       3.862   7.180  10.944  1.00  0.00     0.038 C 
HETATM   29  N1  UNL     1       4.626   6.223  11.384  1.00  0.00    -0.271 N 
ATOM     30  H1  UNL     1       4.418   5.653  12.204  1.00  0.00     0.194 HD
HETATM   31  C4  UNL     1       4.187   7.993   9.705  1.00  0.00     0.071 C 
BRANCH  29  32
HETATM   32  O1  UNL     1       5.769   6.072  10.588  1.00  0.00    -0.281 OA
BRANCH  32  33
HETATM   33  C2  UNL     1       6.920   6.239  11.414  1.00  0.00     0.196 C 
HETATM   34  C1  UNL     1       6.482   6.850  12.730  1.00  0.00     0.036 C 
ENDBRANCH  32  33
ENDBRANCH  29  32
ENDBRANCH   1  28
BRANCH  13  35
HETATM   35  C17 UNL     1      -1.151   9.150  14.851  1.00  0.00     0.082 C 
HETATM   36  C18 UNL     1      -2.040  10.330  14.455  1.00  0.00     0.032 C 
HETATM   37  C19 UNL     1      -1.482   8.561  16.224  1.00  0.00     0.032 C 
ENDBRANCH  13  35
TORSDOF 4
ENDMDL
MODEL 8
REMARK minimizedAffinity -9.03500652
REMARK  4 active torsions:
REMARK  status: ('A' for Active; 'I' for Inactive)
REMARK    1  A    between atoms: C2_2  and  O1_3 
REMARK    2  A    between atoms: O1_3  and  N1_4 
REMARK    3  A    between atoms: C3_6  and  C5_8 
REMARK    4  A    between atoms: N2_20  and  C17_21 
ROOT
HETATM    1  C5  UNL     1      -5.746   4.907  13.267  1.00  0.00    -0.011 A 
HETATM    2  C6  UNL     1      -5.537   4.160  12.110  1.00  0.00     0.016 A 
HETATM    3  C7  UNL     1      -4.253   3.997  11.583  1.00  0.00     0.031 A 
HETATM    4  C8  UNL     1      -3.168   4.613  12.238  1.00  0.00     0.046 A 
HETATM    5  C9  UNL     1      -3.355   5.389  13.373  1.00  0.00     0.005 A 
HETATM    6  C10 UNL     1      -4.663   5.535  13.896  1.00  0.00     0.028 A 
HETATM    7  C11 UNL     1      -2.080   5.909  13.745  1.00  0.00     0.013 A 
HETATM    8  C12 UNL     1      -1.682   6.755  14.794  1.00  0.00    -0.010 A 
HETATM    9  C13 UNL     1      -0.356   7.185  14.917  1.00  0.00     0.052 A 
HETATM   10  C14 UNL     1       0.608   6.808  13.999  1.00  0.00     0.002 A 
HETATM   11  C15 UNL     1       0.230   5.979  12.869  1.00  0.00    -0.018 A 
HETATM   12  C16 UNL     1      -1.118   5.480  12.806  1.00  0.00     0.054 A 
HETATM   13  N2  UNL     1      -1.793   4.575  11.978  1.00  0.00    -0.341 N 
HETATM   14  C20 UNL     1       1.316   5.678  11.828  1.00  0.00     0.048 C 
HETATM   15  C21 UNL     1       2.348   6.802  11.597  1.00  0.00     0.064 C 
HETATM   16  C22 UNL     1       2.839   7.247  12.914  1.00  0.00     0.038 A 
HETATM   17  N3  UNL     1       4.088   7.622  13.189  1.00  0.00    -0.303 N 
ATOM     18  H3  UNL     1       4.881   7.713  12.554  1.00  0.00     0.186 HD
HETATM   19  N4  UNL     1       4.040   7.852  14.520  1.00  0.00    -0.307 N 
HETATM   20  C23 UNL     1       5.222   8.309  15.209  1.00  0.00     0.177 C 
HETATM   21  C24 UNL     1       2.822   7.573  15.082  1.00  0.00     0.124 A 
HETATM   22  C25 UNL     1       1.993   7.241  14.040  1.00  0.00     0.017 A 
HETATM   23  C26 UNL     1      -0.314   8.102  16.082  1.00  0.00     0.253 A 
HETATM   24  O2  UNL     1       0.605   8.776  16.501  1.00  0.00    -0.268 OA
HETATM   25  N5  UNL     1      -1.572   8.107  16.642  1.00  0.00    -0.353 N 
HETATM   26  C27 UNL     1      -2.520   7.349  15.888  1.00  0.00     0.163 A 
HETATM   27  H27 UNL     1      -1.793   8.743  17.398  1.00  0.00     0.163 HD
ENDROOT
BRANCH   1  28
HETATM   28  C3  UNL     1      -7.135   5.052  13.795  1.00  0.00     0.038 C 
HETATM   29  N1  UNL     1      -7.466   6.164  14.385  1.00  0.00    -0.271 N 
ATOM     30  H1  UNL     1      -6.842   6.963  14.497  1.00  0.00     0.194 HD
HETATM   31  C4  UNL     1      -8.095   3.891  13.623  1.00  0.00     0.071 C 
BRANCH  29  32
HETATM   32  O1  UNL     1      -8.789   6.125  14.847  1.00  0.00    -0.281 OA
BRANCH  32  33
HETATM   33  C2  UNL     1      -8.846   6.787  16.110  1.00  0.00     0.196 C 
HETATM   34  C1  UNL     1      -9.246   8.230  15.878  1.00  0.00     0.036 C 
ENDBRANCH  32  33
ENDBRANCH  29  32
ENDBRANCH   1  28
BRANCH  13  35
HETATM   35  C17 UNL     1      -1.266   3.593  11.020  1.00  0.00     0.082 C 
HETATM   36  C18 UNL     1      -0.380   2.536  11.682  1.00  0.00     0.032 C 
HETATM   37  C19 UNL     1      -2.256   3.021  10.004  1.00  0.00     0.032 C 
ENDBRANCH  13  35
TORSDOF 4
ENDMDL
MODEL 9
REMARK minimizedAffinity -8.99314308
REMARK  4 active torsions:
REMARK  status: ('A' for Active; 'I' for Inactive)
REMARK    1  A    between atoms: C2_2  and  O1_3 
REMARK    2  A    between atoms: O1_3  and  N1_4 
REMARK    3  A    between atoms: C3_6  and  C5_8 
REMARK    4  A    between atoms: N2_20  and  C17_21 
ROOT
HETATM    1  C5  UNL     1       1.583   8.200  15.310  1.00  0.00    -0.011 A 
HETATM    2  C6  UNL     1       2.199   7.293  14.451  1.00  0.00     0.016 A 
HETATM    3  C7  UNL     1       1.442   6.480  13.603  1.00  0.00     0.031 A 
HETATM    4  C8  UNL     1       0.036   6.584  13.640  1.00  0.00     0.046 A 
HETATM    5  C9  UNL     1      -0.601   7.456  14.511  1.00  0.00     0.005 A 
HETATM    6  C10 UNL     1       0.185   8.278  15.355  1.00  0.00     0.028 A 
HETATM    7  C11 UNL     1      -2.005   7.273  14.340  1.00  0.00     0.013 A 
HETATM    8  C12 UNL     1      -3.112   7.875  14.963  1.00  0.00    -0.010 A 
HETATM    9  C13 UNL     1      -4.419   7.475  14.664  1.00  0.00     0.052 A 
HETATM   10  C14 UNL     1      -4.670   6.459  13.759  1.00  0.00     0.002 A 
HETATM   11  C15 UNL     1      -3.555   5.773  13.132  1.00  0.00    -0.018 A 
HETATM   12  C16 UNL     1      -2.222   6.254  13.389  1.00  0.00     0.054 A 
HETATM   13  N2  UNL     1      -0.954   5.953  12.879  1.00  0.00    -0.341 N 
HETATM   14  C20 UNL     1      -3.888   4.588  12.217  1.00  0.00     0.048 C 
HETATM   15  C21 UNL     1      -5.121   3.756  12.626  1.00  0.00     0.064 C 
HETATM   16  C22 UNL     1      -6.233   4.688  12.886  1.00  0.00     0.038 A 
HETATM   17  N3  UNL     1      -7.515   4.465  12.596  1.00  0.00    -0.303 N 
ATOM     18  H3  UNL     1      -7.944   3.626  12.205  1.00  0.00     0.186 HD
HETATM   19  N4  UNL     1      -8.104   5.630  12.949  1.00  0.00    -0.307 N 
HETATM   20  C23 UNL     1      -9.531   5.781  12.803  1.00  0.00     0.177 C 
HETATM   21  C24 UNL     1      -7.220   6.580  13.388  1.00  0.00     0.124 A 
HETATM   22  C25 UNL     1      -5.993   5.967  13.425  1.00  0.00     0.017 A 
HETATM   23  C26 UNL     1      -5.315   8.268  15.542  1.00  0.00     0.253 A 
HETATM   24  O2  UNL     1      -6.518   8.190  15.689  1.00  0.00    -0.268 OA
HETATM   25  N5  UNL     1      -4.523   9.148  16.244  1.00  0.00    -0.353 N 
HETATM   26  C27 UNL     1      -3.128   8.953  16.006  1.00  0.00     0.163 A 
HETATM   27  H27 UNL     1      -4.922   9.723  16.975  1.00  0.00     0.163 HD
ENDROOT
BRANCH   1  28
HETATM   28  C3  UNL     1       2.432   9.050  16.196  1.00  0.00     0.038 C 
HETATM   29  N1  UNL     1       1.990   9.353  17.382  1.00  0.00    -0.271 N 
ATOM     30  H1  UNL     1       1.101   9.030  17.764  1.00  0.00     0.194 HD
HETATM   31  C4  UNL     1       3.771   9.527  15.667  1.00  0.00     0.071 C 
BRANCH  29  32
HETATM   32  O1  UNL     1       2.890  10.178  18.070  1.00  0.00    -0.281 OA
BRANCH  32  33
HETATM   33  C2  UNL     1       2.145  11.052  18.917  1.00  0.00     0.196 C 
HETATM   34  C1  UNL     1       2.125  10.463  20.314  1.00  0.00     0.036 C 
ENDBRANCH  32  33
ENDBRANCH  29  32
ENDBRANCH   1  28
BRANCH  13  35
HETATM   35  C17 UNL     1      -0.571   5.200  11.676  1.00  0.00     0.082 C 
HETATM   36  C18 UNL     1       0.250   6.033  10.691  1.00  0.00     0.032 C 
HETATM   37  C19 UNL     1      -0.028   3.786  11.892  1.00  0.00     0.032 C 
ENDBRANCH  13  35
TORSDOF 4
ENDMDL
