MODEL 1
REMARK minimizedAffinity -8.82921505
REMARK  10 active torsions:
REMARK  status: ('A' for Active; 'I' for Inactive)
REMARK    1  A    between atoms: N1_2  and  C3_4 
REMARK    2  A    between atoms: C3_4  and  C4_5 
REMARK    3  A    between atoms: C4_5  and  N2_6 
REMARK    4  A    between atoms: N2_6  and  C5_7 
REMARK    5  A    between atoms: C7_9  and  C8_10 
REMARK    6  A    between atoms: C8_10  and  C9_11 
REMARK    7  A    between atoms: C16_18  and  N3_19 
REMARK    8  A    between atoms: C17_20  and  C18_21 
REMARK       I    between atoms: C18_21  and  N4_23 
REMARK    9  A    between atoms: N4_23  and  N5_24 
REMARK   10  A    between atoms: C19_26  and  C20_27 
ROOT
HETATM    1  C5  UNL     1      -0.037  53.719 -24.993  1.00  0.00     0.081 A 
HETATM    2  C6  UNL     1      -1.247  53.036 -24.979  1.00  0.00     0.050 A 
HETATM    3  C7  UNL     1      -1.727  52.413 -23.808  1.00  0.00    -0.035 A 
HETATM    4  C15 UNL     1      -0.906  52.506 -22.650  1.00  0.00     0.032 A 
HETATM    5  C16 UNL     1      -0.991  51.992 -21.302  1.00  0.00     0.062 A 
HETATM    6  C17 UNL     1       0.059  52.390 -20.489  1.00  0.00     0.103 A 
HETATM    7  S1  UNL     1       1.169  53.359 -21.359  1.00  0.00    -0.064 SA
HETATM    8  C25 UNL     1       0.263  53.247 -22.790  1.00  0.00     0.089 A 
HETATM    9  N7  UNL     1       0.721  53.857 -23.899  1.00  0.00    -0.341 N 
ATOM     10  H7  UNL     1       1.590  54.391 -23.905  1.00  0.00     0.167 HD
ENDROOT
BRANCH   6  11
HETATM   11  C18 UNL     1       0.285  52.053 -19.081  1.00  0.00     0.279 C 
HETATM   12  O1  UNL     1       0.016  50.939 -18.623  1.00  0.00    -0.265 OA
HETATM   13  N4  UNL     1       0.844  53.078 -18.312  1.00  0.00    -0.266 N 
HETATM   14  H22 UNL     1       1.236  53.868 -18.821  1.00  0.00     0.190 HD
BRANCH  13  15
HETATM   15  N5  UNL     1       1.321  52.961 -17.030  1.00  0.00    -0.307 N 
HETATM   16  C19 UNL     1       1.052  51.880 -16.367  1.00  0.00     0.136 C 
ATOM     17  H5  UNL     1       1.874  53.707 -16.609  1.00  0.00     0.186 HD
BRANCH  16  18
HETATM   18  C20 UNL     1       1.562  51.708 -15.025  1.00  0.00     0.050 A 
HETATM   19  C21 UNL     1       0.848  51.464 -13.861  1.00  0.00     0.032 A 
HETATM   20  C22 UNL     1       1.762  51.356 -12.790  1.00  0.00     0.019 A 
HETATM   21  C23 UNL     1       3.019  51.540 -13.313  1.00  0.00     0.091 A 
HETATM   22  N6  UNL     1       2.892  51.756 -14.662  1.00  0.00    -0.360 N 
HETATM   23  C24 UNL     1       4.003  52.003 -15.556  1.00  0.00     0.155 C 
ENDBRANCH  16  18
ENDBRANCH  13  15
ENDBRANCH   6  11
BRANCH   5  24
HETATM   24  N3  UNL     1      -1.987  51.190 -20.851  1.00  0.00    -0.397 N 
HETATM   25  H20 UNL     1      -2.516  50.592 -21.480  1.00  0.00     0.156 HD
HETATM   26  H21 UNL     1      -1.888  50.756 -19.928  1.00  0.00     0.156 HD
ENDBRANCH   5  24
BRANCH   3  27
HETATM   27  C8  UNL     1      -3.065  51.707 -23.880  1.00  0.00     0.078 C 
BRANCH  27  28
HETATM   28  C9  UNL     1      -3.179  50.631 -24.940  1.00  0.00    -0.054 A 
HETATM   29  C10 UNL     1      -3.294  49.269 -24.621  1.00  0.00     0.007 A 
HETATM   30  C11 UNL     1      -3.440  48.309 -25.625  1.00  0.00     0.001 A 
HETATM   31  C12 UNL     1      -3.483  48.696 -26.963  1.00  0.00     0.000 A 
HETATM   32  C13 UNL     1      -3.382  50.044 -27.296  1.00  0.00     0.001 A 
HETATM   33  C14 UNL     1      -3.236  51.004 -26.292  1.00  0.00     0.007 A 
ENDBRANCH  27  28
ENDBRANCH   3  27
BRANCH   1  34
HETATM   34  N2  UNL     1       0.337  54.346 -26.191  1.00  0.00    -0.277 NA
HETATM   35  H11 UNL     1       0.150  55.349 -26.154  1.00  0.00     0.129 HD
BRANCH  34  36
HETATM   36  C4  UNL     1      -0.266  53.786 -27.403  1.00  0.00     0.124 C 
BRANCH  36  37
HETATM   37  C3  UNL     1       0.670  52.696 -27.978  1.00  0.00     0.286 C 
BRANCH  37  38
HETATM   38  N1  UNL     1       1.374  51.904 -26.937  1.00  0.00     0.081 N 
HETATM   39  C1  UNL     1       2.764  51.635 -27.311  1.00  0.00     0.309 C 
HETATM   40  C2  UNL     1       0.667  50.638 -26.716  1.00  0.00     0.309 C 
ENDBRANCH  37  38
ENDBRANCH  36  37
ENDBRANCH  34  36
ENDBRANCH   1  34
TORSDOF 10
ENDMDL
MODEL 2
REMARK minimizedAffinity -8.68472576
REMARK  10 active torsions:
REMARK  status: ('A' for Active; 'I' for Inactive)
REMARK    1  A    between atoms: N1_2  and  C3_4 
REMARK    2  A    between atoms: C3_4  and  C4_5 
REMARK    3  A    between atoms: C4_5  and  N2_6 
REMARK    4  A    between atoms: N2_6  and  C5_7 
REMARK    5  A    between atoms: C7_9  and  C8_10 
REMARK    6  A    between atoms: C8_10  and  C9_11 
REMARK    7  A    between atoms: C16_18  and  N3_19 
REMARK    8  A    between atoms: C17_20  and  C18_21 
REMARK       I    between atoms: C18_21  and  N4_23 
REMARK    9  A    between atoms: N4_23  and  N5_24 
REMARK   10  A    between atoms: C19_26  and  C20_27 
ROOT
HETATM    1  C5  UNL     1      -2.313  52.356 -26.692  1.00  0.00     0.081 A 
HETATM    2  C6  UNL     1      -2.531  51.034 -27.063  1.00  0.00     0.050 A 
HETATM    3  C7  UNL     1      -2.693  50.016 -26.100  1.00  0.00    -0.035 A 
HETATM    4  C15 UNL     1      -2.607  50.407 -24.735  1.00  0.00     0.032 A 
HETATM    5  C16 UNL     1      -2.666  49.704 -23.474  1.00  0.00     0.062 A 
HETATM    6  C17 UNL     1      -2.571  50.537 -22.370  1.00  0.00     0.103 A 
HETATM    7  S1  UNL     1      -2.379  52.168 -22.852  1.00  0.00    -0.064 SA
HETATM    8  C25 UNL     1      -2.421  51.766 -24.501  1.00  0.00     0.089 A 
HETATM    9  N7  UNL     1      -2.281  52.745 -25.412  1.00  0.00    -0.341 N 
ATOM     10  H7  UNL     1      -2.158  53.722 -25.145  1.00  0.00     0.167 HD
ENDROOT
BRANCH   6  11
HETATM   11  C18 UNL     1      -2.593  50.161 -20.954  1.00  0.00     0.279 C 
HETATM   12  O1  UNL     1      -3.338  49.277 -20.522  1.00  0.00    -0.265 OA
HETATM   13  N4  UNL     1      -1.698  50.865 -20.142  1.00  0.00    -0.266 N 
HETATM   14  H22 UNL     1      -0.976  51.403 -20.619  1.00  0.00     0.190 HD
BRANCH  13  15
HETATM   15  N5  UNL     1      -1.392  50.579 -18.835  1.00  0.00    -0.307 N 
HETATM   16  C19 UNL     1      -0.145  50.470 -18.501  1.00  0.00     0.136 C 
ATOM     17  H5  UNL     1      -2.131  50.454 -18.142  1.00  0.00     0.186 HD
BRANCH  16  18
HETATM   18  C20 UNL     1       0.216  50.199 -17.128  1.00  0.00     0.050 A 
HETATM   19  C21 UNL     1      -0.053  49.062 -16.379  1.00  0.00     0.032 A 
HETATM   20  C22 UNL     1       0.500  49.233 -15.091  1.00  0.00     0.019 A 
HETATM   21  C23 UNL     1       1.095  50.472 -15.069  1.00  0.00     0.091 A 
HETATM   22  N6  UNL     1       0.917  51.052 -16.301  1.00  0.00    -0.360 N 
HETATM   23  C24 UNL     1       1.397  52.369 -16.658  1.00  0.00     0.155 C 
ENDBRANCH  16  18
ENDBRANCH  13  15
ENDBRANCH   6  11
BRANCH   5  24
HETATM   24  N3  UNL     1      -2.794  48.359 -23.352  1.00  0.00    -0.397 N 
HETATM   25  H20 UNL     1      -2.481  47.727 -24.083  1.00  0.00     0.156 HD
HETATM   26  H21 UNL     1      -2.678  47.937 -22.426  1.00  0.00     0.156 HD
ENDBRANCH   5  24
BRANCH   3  27
HETATM   27  C8  UNL     1      -2.945  48.608 -26.596  1.00  0.00     0.078 C 
BRANCH  27  28
HETATM   28  C9  UNL     1      -4.386  48.280 -26.925  1.00  0.00    -0.054 A 
HETATM   29  C10 UNL     1      -4.834  48.092 -28.243  1.00  0.00     0.007 A 
HETATM   30  C11 UNL     1      -6.163  47.748 -28.504  1.00  0.00     0.001 A 
HETATM   31  C12 UNL     1      -7.062  47.578 -27.454  1.00  0.00     0.000 A 
HETATM   32  C13 UNL     1      -6.631  47.750 -26.140  1.00  0.00     0.001 A 
HETATM   33  C14 UNL     1      -5.302  48.093 -25.879  1.00  0.00     0.007 A 
ENDBRANCH  27  28
ENDBRANCH   3  27
BRANCH   1  34
HETATM   34  N2  UNL     1      -2.210  53.307 -27.719  1.00  0.00    -0.277 NA
HETATM   35  H11 UNL     1      -2.768  53.034 -28.529  1.00  0.00     0.129 HD
BRANCH  34  36
HETATM   36  C4  UNL     1      -0.844  53.610 -28.153  1.00  0.00     0.124 C 
BRANCH  36  37
HETATM   37  C3  UNL     1       0.101  53.561 -26.929  1.00  0.00     0.286 C 
BRANCH  37  38
HETATM   38  N1  UNL     1       1.181  52.547 -27.050  1.00  0.00     0.081 N 
HETATM   39  C1  UNL     1       1.006  51.711 -28.240  1.00  0.00     0.309 C 
HETATM   40  C2  UNL     1       1.204  51.702 -25.852  1.00  0.00     0.309 C 
ENDBRANCH  37  38
ENDBRANCH  36  37
ENDBRANCH  34  36
ENDBRANCH   1  34
TORSDOF 10
ENDMDL
MODEL 3
REMARK minimizedAffinity -8.56869316
REMARK  10 active torsions:
REMARK  status: ('A' for Active; 'I' for Inactive)
REMARK    1  A    between atoms: N1_2  and  C3_4 
REMARK    2  A    between atoms: C3_4  and  C4_5 
REMARK    3  A    between atoms: C4_5  and  N2_6 
REMARK    4  A    between atoms: N2_6  and  C5_7 
REMARK    5  A    between atoms: C7_9  and  C8_10 
REMARK    6  A    between atoms: C8_10  and  C9_11 
REMARK    7  A    between atoms: C16_18  and  N3_19 
REMARK    8  A    between atoms: C17_20  and  C18_21 
REMARK       I    between atoms: C18_21  and  N4_23 
REMARK    9  A    between atoms: N4_23  and  N5_24 
REMARK   10  A    between atoms: C19_26  and  C20_27 
ROOT
HETATM    1  C5  UNL     1      -1.070  50.151 -21.856  1.00  0.00     0.081 A 
HETATM    2  C6  UNL     1      -0.793  51.165 -22.765  1.00  0.00     0.050 A 
HETATM    3  C7  UNL     1      -1.506  51.284 -23.976  1.00  0.00    -0.035 A 
HETATM    4  C15 UNL     1      -2.511  50.308 -24.226  1.00  0.00     0.032 A 
HETATM    5  C16 UNL     1      -3.414  50.040 -25.322  1.00  0.00     0.062 A 
HETATM    6  C17 UNL     1      -4.266  48.972 -25.090  1.00  0.00     0.103 A 
HETATM    7  S1  UNL     1      -3.958  48.268 -23.561  1.00  0.00    -0.064 SA
HETATM    8  C25 UNL     1      -2.712  49.369 -23.219  1.00  0.00     0.089 A 
HETATM    9  N7  UNL     1      -2.047  49.257 -22.055  1.00  0.00    -0.341 N 
ATOM     10  H7  UNL     1      -2.272  48.538 -21.368  1.00  0.00     0.167 HD
ENDROOT
BRANCH   6  11
HETATM   11  C18 UNL     1      -5.295  48.431 -25.981  1.00  0.00     0.279 C 
HETATM   12  O1  UNL     1      -6.351  47.957 -25.551  1.00  0.00    -0.265 OA
HETATM   13  N4  UNL     1      -4.998  48.512 -27.345  1.00  0.00    -0.266 N 
HETATM   14  H22 UNL     1      -4.221  49.116 -27.607  1.00  0.00     0.190 HD
BRANCH  13  15
HETATM   15  N5  UNL     1      -5.862  48.252 -28.379  1.00  0.00    -0.307 N 
HETATM   16  C19 UNL     1      -5.445  48.433 -29.593  1.00  0.00     0.136 C 
ATOM     17  H5  UNL     1      -6.810  47.924 -28.197  1.00  0.00     0.186 HD
BRANCH  16  18
HETATM   18  C20 UNL     1      -6.316  48.142 -30.709  1.00  0.00     0.050 A 
HETATM   19  C21 UNL     1      -7.576  48.661 -30.972  1.00  0.00     0.032 A 
HETATM   20  C22 UNL     1      -8.048  48.100 -32.179  1.00  0.00     0.019 A 
HETATM   21  C23 UNL     1      -7.074  47.244 -32.634  1.00  0.00     0.091 A 
HETATM   22  N6  UNL     1      -6.032  47.270 -31.740  1.00  0.00    -0.360 N 
HETATM   23  C24 UNL     1      -4.824  46.487 -31.875  1.00  0.00     0.155 C 
ENDBRANCH  16  18
ENDBRANCH  13  15
ENDBRANCH   6  11
BRANCH   5  24
HETATM   24  N3  UNL     1      -3.441  50.745 -26.480  1.00  0.00    -0.397 N 
HETATM   25  H20 UNL     1      -2.622  51.237 -26.823  1.00  0.00     0.156 HD
HETATM   26  H21 UNL     1      -4.010  50.393 -27.256  1.00  0.00     0.156 HD
ENDBRANCH   5  24
BRANCH   3  27
HETATM   27  C8  UNL     1      -1.148  52.431 -24.897  1.00  0.00     0.078 C 
BRANCH  27  28
HETATM   28  C9  UNL     1      -0.100  52.123 -25.946  1.00  0.00    -0.054 A 
HETATM   29  C10 UNL     1      -0.381  52.146 -27.322  1.00  0.00     0.007 A 
HETATM   30  C11 UNL     1       0.623  51.898 -28.261  1.00  0.00     0.001 A 
HETATM   31  C12 UNL     1       1.924  51.633 -27.842  1.00  0.00     0.000 A 
HETATM   32  C13 UNL     1       2.223  51.619 -26.481  1.00  0.00     0.001 A 
HETATM   33  C14 UNL     1       1.219  51.867 -25.542  1.00  0.00     0.007 A 
ENDBRANCH  27  28
ENDBRANCH   3  27
BRANCH   1  34
HETATM   34  N2  UNL     1      -0.341  50.139 -20.658  1.00  0.00    -0.277 NA
HETATM   35  H11 UNL     1       0.164  49.259 -20.544  1.00  0.00     0.129 HD
BRANCH  34  36
HETATM   36  C4  UNL     1      -1.123  50.407 -19.449  1.00  0.00     0.124 C 
BRANCH  36  37
HETATM   37  C3  UNL     1      -0.968  51.898 -19.063  1.00  0.00     0.286 C 
BRANCH  37  38
HETATM   38  N1  UNL     1       0.430  52.394 -19.152  1.00  0.00     0.081 N 
HETATM   39  C1  UNL     1       1.024  52.571 -17.825  1.00  0.00     0.309 C 
HETATM   40  C2  UNL     1       0.457  53.666 -19.879  1.00  0.00     0.309 C 
ENDBRANCH  37  38
ENDBRANCH  36  37
ENDBRANCH  34  36
ENDBRANCH   1  34
TORSDOF 10
ENDMDL
MODEL 4
REMARK minimizedAffinity -8.5419693
REMARK  10 active torsions:
REMARK  status: ('A' for Active; 'I' for Inactive)
REMARK    1  A    between atoms: N1_2  and  C3_4 
REMARK    2  A    between atoms: C3_4  and  C4_5 
REMARK    3  A    between atoms: C4_5  and  N2_6 
REMARK    4  A    between atoms: N2_6  and  C5_7 
REMARK    5  A    between atoms: C7_9  and  C8_10 
REMARK    6  A    between atoms: C8_10  and  C9_11 
REMARK    7  A    between atoms: C16_18  and  N3_19 
REMARK    8  A    between atoms: C17_20  and  C18_21 
REMARK       I    between atoms: C18_21  and  N4_23 
REMARK    9  A    between atoms: N4_23  and  N5_24 
REMARK   10  A    between atoms: C19_26  and  C20_27 
ROOT
HETATM    1  C5  UNL     1      -2.557  50.415 -23.012  1.00  0.00     0.081 A 
HETATM    2  C6  UNL     1      -1.945  51.376 -23.809  1.00  0.00     0.050 A 
HETATM    3  C7  UNL     1      -2.137  51.407 -25.206  1.00  0.00    -0.035 A 
HETATM    4  C15 UNL     1      -2.976  50.399 -25.758  1.00  0.00     0.032 A 
HETATM    5  C16 UNL     1      -3.390  50.047 -27.097  1.00  0.00     0.062 A 
HETATM    6  C17 UNL     1      -4.273  48.979 -27.142  1.00  0.00     0.103 A 
HETATM    7  S1  UNL     1      -4.581  48.378 -25.570  1.00  0.00    -0.064 SA
HETATM    8  C25 UNL     1      -3.554  49.521 -24.848  1.00  0.00     0.089 A 
HETATM    9  N7  UNL     1      -3.388  49.494 -23.513  1.00  0.00    -0.341 N 
ATOM     10  H7  UNL     1      -3.865  48.814 -22.920  1.00  0.00     0.167 HD
ENDROOT
BRANCH   6  11
HETATM   11  C18 UNL     1      -4.885  48.365 -28.323  1.00  0.00     0.279 C 
HETATM   12  O1  UNL     1      -4.211  47.815 -29.199  1.00  0.00    -0.265 OA
HETATM   13  N4  UNL     1      -6.280  48.434 -28.368  1.00  0.00    -0.266 N 
HETATM   14  H22 UNL     1      -6.752  48.699 -27.505  1.00  0.00     0.190 HD
BRANCH  13  15
HETATM   15  N5  UNL     1      -7.095  47.782 -29.259  1.00  0.00    -0.307 N 
HETATM   16  C19 UNL     1      -8.107  48.423 -29.756  1.00  0.00     0.136 C 
ATOM     17  H5  UNL     1      -6.910  46.815 -29.525  1.00  0.00     0.186 HD
BRANCH  16  18
HETATM   18  C20 UNL     1      -8.970  47.779 -30.720  1.00  0.00     0.050 A 
HETATM   19  C21 UNL     1     -10.272  47.335 -30.543  1.00  0.00     0.032 A 
HETATM   20  C22 UNL     1     -10.726  46.780 -31.760  1.00  0.00     0.019 A 
HETATM   21  C23 UNL     1      -9.695  46.889 -32.661  1.00  0.00     0.091 A 
HETATM   22  N6  UNL     1      -8.635  47.489 -32.027  1.00  0.00    -0.360 N 
HETATM   23  C24 UNL     1      -7.361  47.764 -32.652  1.00  0.00     0.155 C 
ENDBRANCH  16  18
ENDBRANCH  13  15
ENDBRANCH   6  11
BRANCH   5  24
HETATM   24  N3  UNL     1      -2.965  50.678 -28.220  1.00  0.00    -0.397 N 
HETATM   25  H20 UNL     1      -2.074  51.162 -28.254  1.00  0.00     0.156 HD
HETATM   26  H21 UNL     1      -3.195  50.267 -29.131  1.00  0.00     0.156 HD
ENDBRANCH   5  24
BRANCH   3  27
HETATM   27  C8  UNL     1      -1.445  52.500 -25.991  1.00  0.00     0.078 C 
BRANCH  27  28
HETATM   28  C9  UNL     1      -0.076  52.147 -26.535  1.00  0.00    -0.054 A 
HETATM   29  C10 UNL     1       0.208  52.139 -27.909  1.00  0.00     0.007 A 
HETATM   30  C11 UNL     1       1.495  51.849 -28.372  1.00  0.00     0.001 A 
HETATM   31  C12 UNL     1       2.518  51.573 -27.467  1.00  0.00     0.000 A 
HETATM   32  C13 UNL     1       2.255  51.590 -26.100  1.00  0.00     0.001 A 
HETATM   33  C14 UNL     1       0.969  51.880 -25.638  1.00  0.00     0.007 A 
ENDBRANCH  27  28
ENDBRANCH   3  27
BRANCH   1  34
HETATM   34  N2  UNL     1      -2.344  50.492 -21.628  1.00  0.00    -0.277 NA
HETATM   35  H11 UNL     1      -2.847  51.282 -21.222  1.00  0.00     0.129 HD
BRANCH  34  36
HETATM   36  C4  UNL     1      -0.940  50.549 -21.215  1.00  0.00     0.124 C 
BRANCH  36  37
HETATM   37  C3  UNL     1      -0.726  51.785 -20.309  1.00  0.00     0.286 C 
BRANCH  37  38
HETATM   38  N1  UNL     1       0.608  52.420 -20.471  1.00  0.00     0.081 N 
HETATM   39  C1  UNL     1       0.574  53.843 -20.127  1.00  0.00     0.309 C 
HETATM   40  C2  UNL     1       1.068  52.256 -21.853  1.00  0.00     0.309 C 
ENDBRANCH  37  38
ENDBRANCH  36  37
ENDBRANCH  34  36
ENDBRANCH   1  34
TORSDOF 10
ENDMDL
MODEL 5
REMARK minimizedAffinity -8.47179031
REMARK  10 active torsions:
REMARK  status: ('A' for Active; 'I' for Inactive)
REMARK    1  A    between atoms: N1_2  and  C3_4 
REMARK    2  A    between atoms: C3_4  and  C4_5 
REMARK    3  A    between atoms: C4_5  and  N2_6 
REMARK    4  A    between atoms: N2_6  and  C5_7 
REMARK    5  A    between atoms: C7_9  and  C8_10 
REMARK    6  A    between atoms: C8_10  and  C9_11 
REMARK    7  A    between atoms: C16_18  and  N3_19 
REMARK    8  A    between atoms: C17_20  and  C18_21 
REMARK       I    between atoms: C18_21  and  N4_23 
REMARK    9  A    between atoms: N4_23  and  N5_24 
REMARK   10  A    between atoms: C19_26  and  C20_27 
ROOT
HETATM    1  C5  UNL     1      -1.163  52.342 -24.044  1.00  0.00     0.081 A 
HETATM    2  C6  UNL     1      -1.773  51.093 -24.039  1.00  0.00     0.050 A 
HETATM    3  C7  UNL     1      -1.787  50.285 -22.883  1.00  0.00    -0.035 A 
HETATM    4  C15 UNL     1      -1.135  50.805 -21.731  1.00  0.00     0.032 A 
HETATM    5  C16 UNL     1      -0.882  50.307 -20.398  1.00  0.00     0.062 A 
HETATM    6  C17 UNL     1      -0.223  51.214 -19.583  1.00  0.00     0.103 A 
HETATM    7  S1  UNL     1       0.121  52.659 -20.433  1.00  0.00    -0.064 SA
HETATM    8  C25 UNL     1      -0.596  52.081 -21.859  1.00  0.00     0.089 A 
HETATM    9  N7  UNL     1      -0.591  52.864 -22.953  1.00  0.00    -0.341 N 
ATOM     10  H7  UNL     1      -0.177  53.797 -22.950  1.00  0.00     0.167 HD
ENDROOT
BRANCH   6  11
HETATM   11  C18 UNL     1       0.188  51.038 -18.187  1.00  0.00     0.279 C 
HETATM   12  O1  UNL     1       0.067  49.959 -17.600  1.00  0.00    -0.265 OA
HETATM   13  N4  UNL     1       0.742  52.172 -17.587  1.00  0.00    -0.266 N 
HETATM   14  H22 UNL     1       1.007  52.934 -18.210  1.00  0.00     0.190 HD
BRANCH  13  15
HETATM   15  N5  UNL     1       1.369  52.219 -16.367  1.00  0.00    -0.307 N 
HETATM   16  C19 UNL     1       0.848  51.562 -15.379  1.00  0.00     0.136 C 
ATOM     17  H5  UNL     1       2.225  52.759 -16.241  1.00  0.00     0.186 HD
BRANCH  16  18
HETATM   18  C20 UNL     1       1.495  51.564 -14.086  1.00  0.00     0.050 A 
HETATM   19  C21 UNL     1       2.775  51.131 -13.768  1.00  0.00     0.032 A 
HETATM   20  C22 UNL     1       2.984  51.333 -12.386  1.00  0.00     0.019 A 
HETATM   21  C23 UNL     1       1.831  51.880 -11.879  1.00  0.00     0.091 A 
HETATM   22  N6  UNL     1       0.933  52.014 -12.910  1.00  0.00    -0.360 N 
HETATM   23  C24 UNL     1      -0.404  52.545 -12.762  1.00  0.00     0.155 C 
ENDBRANCH  16  18
ENDBRANCH  13  15
ENDBRANCH   6  11
BRANCH   5  24
HETATM   24  N3  UNL     1      -1.237  49.073 -19.962  1.00  0.00    -0.397 N 
HETATM   25  H20 UNL     1      -1.349  48.294 -20.604  1.00  0.00     0.156 HD
HETATM   26  H21 UNL     1      -0.888  48.754 -19.053  1.00  0.00     0.156 HD
ENDBRANCH   5  24
BRANCH   3  27
HETATM   27  C8  UNL     1      -2.491  48.947 -22.965  1.00  0.00     0.078 C 
BRANCH  27  28
HETATM   28  C9  UNL     1      -3.325  48.723 -24.209  1.00  0.00    -0.054 A 
HETATM   29  C10 UNL     1      -2.756  48.607 -25.487  1.00  0.00     0.007 A 
HETATM   30  C11 UNL     1      -3.555  48.358 -26.606  1.00  0.00     0.001 A 
HETATM   31  C12 UNL     1      -4.933  48.213 -26.464  1.00  0.00     0.000 A 
HETATM   32  C13 UNL     1      -5.512  48.314 -25.202  1.00  0.00     0.001 A 
HETATM   33  C14 UNL     1      -4.714  48.562 -24.083  1.00  0.00     0.007 A 
ENDBRANCH  27  28
ENDBRANCH   3  27
BRANCH   1  34
HETATM   34  N2  UNL     1      -1.239  53.094 -25.226  1.00  0.00    -0.277 NA
HETATM   35  H11 UNL     1      -1.769  52.598 -25.943  1.00  0.00     0.129 HD
BRANCH  34  36
HETATM   36  C4  UNL     1       0.050  53.515 -25.781  1.00  0.00     0.124 C 
BRANCH  36  37
HETATM   37  C3  UNL     1       1.009  52.301 -25.814  1.00  0.00     0.286 C 
BRANCH  37  38
HETATM   38  N1  UNL     1       1.236  51.758 -27.179  1.00  0.00     0.081 N 
HETATM   39  C1  UNL     1       2.662  51.711 -27.511  1.00  0.00     0.309 C 
HETATM   40  C2  UNL     1       0.527  52.580 -28.163  1.00  0.00     0.309 C 
ENDBRANCH  37  38
ENDBRANCH  36  37
ENDBRANCH  34  36
ENDBRANCH   1  34
TORSDOF 10
ENDMDL
MODEL 6
REMARK minimizedAffinity -8.38773918
REMARK  10 active torsions:
REMARK  status: ('A' for Active; 'I' for Inactive)
REMARK    1  A    between atoms: N1_2  and  C3_4 
REMARK    2  A    between atoms: C3_4  and  C4_5 
REMARK    3  A    between atoms: C4_5  and  N2_6 
REMARK    4  A    between atoms: N2_6  and  C5_7 
REMARK    5  A    between atoms: C7_9  and  C8_10 
REMARK    6  A    between atoms: C8_10  and  C9_11 
REMARK    7  A    between atoms: C16_18  and  N3_19 
REMARK    8  A    between atoms: C17_20  and  C18_21 
REMARK       I    between atoms: C18_21  and  N4_23 
REMARK    9  A    between atoms: N4_23  and  N5_24 
REMARK   10  A    between atoms: C19_26  and  C20_27 
ROOT
HETATM    1  C5  UNL     1      -3.855  49.159 -27.434  1.00  0.00     0.081 A 
HETATM    2  C6  UNL     1      -3.085  50.295 -27.654  1.00  0.00     0.050 A 
HETATM    3  C7  UNL     1      -2.611  51.082 -26.584  1.00  0.00    -0.035 A 
HETATM    4  C15 UNL     1      -2.973  50.664 -25.273  1.00  0.00     0.032 A 
HETATM    5  C16 UNL     1      -2.748  51.185 -23.944  1.00  0.00     0.062 A 
HETATM    6  C17 UNL     1      -3.274  50.389 -22.939  1.00  0.00     0.103 A 
HETATM    7  S1  UNL     1      -4.069  49.025 -23.597  1.00  0.00    -0.064 SA
HETATM    8  C25 UNL     1      -3.717  49.491 -25.191  1.00  0.00     0.089 A 
HETATM    9  N7  UNL     1      -4.160  48.727 -26.205  1.00  0.00    -0.341 N 
ATOM     10  H7  UNL     1      -4.694  47.872 -26.048  1.00  0.00     0.167 HD
ENDROOT
BRANCH   6  11
HETATM   11  C18 UNL     1      -3.231  50.619 -21.492  1.00  0.00     0.279 C 
HETATM   12  O1  UNL     1      -4.254  50.806 -20.828  1.00  0.00    -0.265 OA
HETATM   13  N4  UNL     1      -1.952  50.589 -20.929  1.00  0.00    -0.266 N 
HETATM   14  H22 UNL     1      -1.207  50.206 -21.508  1.00  0.00     0.190 HD
BRANCH  13  15
HETATM   15  N5  UNL     1      -1.658  50.588 -19.588  1.00  0.00    -0.307 N 
HETATM   16  C19 UNL     1      -0.495  50.157 -19.211  1.00  0.00     0.136 C 
ATOM     17  H5  UNL     1      -2.338  50.919 -18.904  1.00  0.00     0.186 HD
BRANCH  16  18
HETATM   18  C20 UNL     1      -0.138  50.169 -17.810  1.00  0.00     0.050 A 
HETATM   19  C21 UNL     1      -0.357  49.180 -16.861  1.00  0.00     0.032 A 
HETATM   20  C22 UNL     1       0.170  49.620 -15.626  1.00  0.00     0.019 A 
HETATM   21  C23 UNL     1       0.699  50.871 -15.837  1.00  0.00     0.091 A 
HETATM   22  N6  UNL     1       0.507  51.199 -17.156  1.00  0.00    -0.360 N 
HETATM   23  C24 UNL     1       0.921  52.449 -17.754  1.00  0.00     0.155 C 
ENDBRANCH  16  18
ENDBRANCH  13  15
ENDBRANCH   6  11
BRANCH   5  24
HETATM   24  N3  UNL     1      -2.095  52.344 -23.677  1.00  0.00    -0.397 N 
HETATM   25  H20 UNL     1      -2.054  53.100 -24.354  1.00  0.00     0.156 HD
HETATM   26  H21 UNL     1      -2.112  52.708 -22.720  1.00  0.00     0.156 HD
ENDBRANCH   5  24
BRANCH   3  27
HETATM   27  C8  UNL     1      -1.762  52.291 -26.917  1.00  0.00     0.078 C 
BRANCH  27  28
HETATM   28  C9  UNL     1      -0.276  52.030 -27.043  1.00  0.00    -0.054 A 
HETATM   29  C10 UNL     1       0.405  52.133 -28.267  1.00  0.00     0.007 A 
HETATM   30  C11 UNL     1       1.786  51.927 -28.336  1.00  0.00     0.001 A 
HETATM   31  C12 UNL     1       2.507  51.625 -27.184  1.00  0.00     0.000 A 
HETATM   32  C13 UNL     1       1.848  51.531 -25.960  1.00  0.00     0.001 A 
HETATM   33  C14 UNL     1       0.469  51.737 -25.890  1.00  0.00     0.007 A 
ENDBRANCH  27  28
ENDBRANCH   3  27
BRANCH   1  34
HETATM   34  N2  UNL     1      -4.243  48.414 -28.558  1.00  0.00    -0.277 NA
HETATM   35  H11 UNL     1      -4.085  48.939 -29.419  1.00  0.00     0.129 HD
BRANCH  34  36
HETATM   36  C4  UNL     1      -5.623  47.924 -28.536  1.00  0.00     0.124 C 
BRANCH  36  37
HETATM   37  C3  UNL     1      -6.179  47.905 -29.980  1.00  0.00     0.286 C 
BRANCH  37  38
HETATM   38  N1  UNL     1      -5.294  47.209 -30.950  1.00  0.00     0.081 N 
HETATM   39  C1  UNL     1      -5.131  47.983 -32.183  1.00  0.00     0.309 C 
HETATM   40  C2  UNL     1      -5.846  45.888 -31.264  1.00  0.00     0.309 C 
ENDBRANCH  37  38
ENDBRANCH  36  37
ENDBRANCH  34  36
ENDBRANCH   1  34
TORSDOF 10
ENDMDL
MODEL 7
REMARK minimizedAffinity -8.33795452
REMARK  10 active torsions:
REMARK  status: ('A' for Active; 'I' for Inactive)
REMARK    1  A    between atoms: N1_2  and  C3_4 
REMARK    2  A    between atoms: C3_4  and  C4_5 
REMARK    3  A    between atoms: C4_5  and  N2_6 
REMARK    4  A    between atoms: N2_6  and  C5_7 
REMARK    5  A    between atoms: C7_9  and  C8_10 
REMARK    6  A    between atoms: C8_10  and  C9_11 
REMARK    7  A    between atoms: C16_18  and  N3_19 
REMARK    8  A    between atoms: C17_20  and  C18_21 
REMARK       I    between atoms: C18_21  and  N4_23 
REMARK    9  A    between atoms: N4_23  and  N5_24 
REMARK   10  A    between atoms: C19_26  and  C20_27 
ROOT
HETATM    1  C5  UNL     1      -2.543  52.199 -26.868  1.00  0.00     0.081 A 
HETATM    2  C6  UNL     1      -2.705  50.877 -27.266  1.00  0.00     0.050 A 
HETATM    3  C7  UNL     1      -3.272  49.914 -26.406  1.00  0.00    -0.035 A 
HETATM    4  C15 UNL     1      -3.654  50.359 -25.110  1.00  0.00     0.032 A 
HETATM    5  C16 UNL     1      -4.210  49.717 -23.941  1.00  0.00     0.062 A 
HETATM    6  C17 UNL     1      -4.460  50.591 -22.894  1.00  0.00     0.103 A 
HETATM    7  S1  UNL     1      -3.995  52.185 -23.307  1.00  0.00    -0.064 SA
HETATM    8  C25 UNL     1      -3.471  51.713 -24.852  1.00  0.00     0.089 A 
HETATM    9  N7  UNL     1      -2.945  52.642 -25.671  1.00  0.00    -0.341 N 
ATOM     10  H7  UNL     1      -2.859  53.621 -25.398  1.00  0.00     0.167 HD
ENDROOT
BRANCH   6  11
HETATM   11  C18 UNL     1      -5.015  50.280 -21.574  1.00  0.00     0.279 C 
HETATM   12  O1  UNL     1      -4.369  50.450 -20.536  1.00  0.00    -0.265 OA
HETATM   13  N4  UNL     1      -6.327  49.799 -21.583  1.00  0.00    -0.266 N 
HETATM   14  H22 UNL     1      -6.846  49.908 -22.452  1.00  0.00     0.190 HD
BRANCH  13  15
HETATM   15  N5  UNL     1      -7.130  49.613 -20.486  1.00  0.00    -0.307 N 
HETATM   16  C19 UNL     1      -7.990  48.643 -20.505  1.00  0.00     0.136 C 
ATOM     17  H5  UNL     1      -7.052  50.224 -19.673  1.00  0.00     0.186 HD
BRANCH  16  18
HETATM   18  C20 UNL     1      -8.832  48.398 -19.356  1.00  0.00     0.050 A 
HETATM   19  C21 UNL     1      -8.652  48.838 -18.052  1.00  0.00     0.032 A 
HETATM   20  C22 UNL     1      -9.729  48.368 -17.269  1.00  0.00     0.019 A 
HETATM   21  C23 UNL     1     -10.548  47.646 -18.102  1.00  0.00     0.091 A 
HETATM   22  N6  UNL     1      -9.999  47.664 -19.361  1.00  0.00    -0.360 N 
HETATM   23  C24 UNL     1     -10.574  47.000 -20.510  1.00  0.00     0.155 C 
ENDBRANCH  16  18
ENDBRANCH  13  15
ENDBRANCH   6  11
BRANCH   5  24
HETATM   24  N3  UNL     1      -4.467  48.388 -23.846  1.00  0.00    -0.397 N 
HETATM   25  H20 UNL     1      -3.957  47.707 -24.402  1.00  0.00     0.156 HD
HETATM   26  H21 UNL     1      -4.721  48.001 -22.932  1.00  0.00     0.156 HD
ENDBRANCH   5  24
BRANCH   3  27
HETATM   27  C8  UNL     1      -3.427  48.502 -26.930  1.00  0.00     0.078 C 
BRANCH  27  28
HETATM   28  C9  UNL     1      -4.720  48.217 -27.665  1.00  0.00    -0.054 A 
HETATM   29  C10 UNL     1      -4.829  48.308 -29.062  1.00  0.00     0.007 A 
HETATM   30  C11 UNL     1      -6.028  47.996 -29.707  1.00  0.00     0.001 A 
HETATM   31  C12 UNL     1      -7.133  47.579 -28.969  1.00  0.00     0.000 A 
HETATM   32  C13 UNL     1      -7.038  47.472 -27.583  1.00  0.00     0.001 A 
HETATM   33  C14 UNL     1      -5.840  47.784 -26.938  1.00  0.00     0.007 A 
ENDBRANCH  27  28
ENDBRANCH   3  27
BRANCH   1  34
HETATM   34  N2  UNL     1      -2.013  53.097 -27.808  1.00  0.00    -0.277 NA
HETATM   35  H11 UNL     1      -2.129  52.744 -28.758  1.00  0.00     0.129 HD
BRANCH  34  36
HETATM   36  C4  UNL     1      -0.610  53.464 -27.596  1.00  0.00     0.124 C 
BRANCH  36  37
HETATM   37  C3  UNL     1       0.295  52.294 -28.048  1.00  0.00     0.286 C 
BRANCH  37  38
HETATM   38  N1  UNL     1       1.094  51.699 -26.945  1.00  0.00     0.081 N 
HETATM   39  C1  UNL     1       0.899  52.420 -25.686  1.00  0.00     0.309 C 
HETATM   40  C2  UNL     1       2.516  51.707 -27.304  1.00  0.00     0.309 C 
ENDBRANCH  37  38
ENDBRANCH  36  37
ENDBRANCH  34  36
ENDBRANCH   1  34
TORSDOF 10
ENDMDL
MODEL 8
REMARK minimizedAffinity -8.25416756
REMARK  10 active torsions:
REMARK  status: ('A' for Active; 'I' for Inactive)
REMARK    1  A    between atoms: N1_2  and  C3_4 
REMARK    2  A    between atoms: C3_4  and  C4_5 
REMARK    3  A    between atoms: C4_5  and  N2_6 
REMARK    4  A    between atoms: N2_6  and  C5_7 
REMARK    5  A    between atoms: C7_9  and  C8_10 
REMARK    6  A    between atoms: C8_10  and  C9_11 
REMARK    7  A    between atoms: C16_18  and  N3_19 
REMARK    8  A    between atoms: C17_20  and  C18_21 
REMARK       I    between atoms: C18_21  and  N4_23 
REMARK    9  A    between atoms: N4_23  and  N5_24 
REMARK   10  A    between atoms: C19_26  and  C20_27 
ROOT
HETATM    1  C5  UNL     1      -3.074  51.544 -24.155  1.00  0.00     0.081 A 
HETATM    2  C6  UNL     1      -1.920  52.198 -24.570  1.00  0.00     0.050 A 
HETATM    3  C7  UNL     1      -0.849  52.435 -23.684  1.00  0.00    -0.035 A 
HETATM    4  C15 UNL     1      -1.015  51.985 -22.345  1.00  0.00     0.032 A 
HETATM    5  C16 UNL     1      -0.215  52.061 -21.144  1.00  0.00     0.062 A 
HETATM    6  C17 UNL     1      -0.789  51.426 -20.053  1.00  0.00     0.103 A 
HETATM    7  S1  UNL     1      -2.311  50.762 -20.468  1.00  0.00    -0.064 SA
HETATM    8  C25 UNL     1      -2.202  51.314 -22.069  1.00  0.00     0.089 A 
HETATM    9  N7  UNL     1      -3.222  51.071 -22.912  1.00  0.00    -0.341 N 
ATOM     10  H7  UNL     1      -4.055  50.558 -22.622  1.00  0.00     0.167 HD
ENDROOT
BRANCH   6  11
HETATM   11  C18 UNL     1      -0.256  51.313 -18.693  1.00  0.00     0.279 C 
HETATM   12  O1  UNL     1      -0.316  50.260 -18.052  1.00  0.00    -0.265 OA
HETATM   13  N4  UNL     1       0.337  52.475 -18.193  1.00  0.00    -0.266 N 
HETATM   14  H22 UNL     1       0.540  53.211 -18.868  1.00  0.00     0.190 HD
BRANCH  13  15
HETATM   15  N5  UNL     1       1.067  52.579 -17.035  1.00  0.00    -0.307 N 
HETATM   16  C19 UNL     1       0.838  51.731 -16.082  1.00  0.00     0.136 C 
ATOM     17  H5  UNL     1       1.774  53.306 -16.928  1.00  0.00     0.186 HD
BRANCH  16  18
HETATM   18  C20 UNL     1       1.608  51.790 -14.860  1.00  0.00     0.050 A 
HETATM   19  C21 UNL     1       2.979  51.645 -14.702  1.00  0.00     0.032 A 
HETATM   20  C22 UNL     1       3.290  51.790 -13.332  1.00  0.00     0.019 A 
HETATM   21  C23 UNL     1       2.106  52.016 -12.673  1.00  0.00     0.091 A 
HETATM   22  N6  UNL     1       1.093  52.012 -13.599  1.00  0.00    -0.360 N 
HETATM   23  C24 UNL     1      -0.304  52.207 -13.281  1.00  0.00     0.155 C 
ENDBRANCH  16  18
ENDBRANCH  13  15
ENDBRANCH   6  11
BRANCH   5  24
HETATM   24  N3  UNL     1       0.983  52.693 -21.060  1.00  0.00    -0.397 N 
HETATM   25  H20 UNL     1       1.225  53.458 -21.682  1.00  0.00     0.156 HD
HETATM   26  H21 UNL     1       1.406  52.823 -20.136  1.00  0.00     0.156 HD
ENDBRANCH   5  24
BRANCH   3  27
HETATM   27  C8  UNL     1       0.376  53.138 -24.229  1.00  0.00     0.078 C 
BRANCH  27  28
HETATM   28  C9  UNL     1       0.812  52.710 -25.615  1.00  0.00    -0.054 A 
HETATM   29  C10 UNL     1       1.861  51.801 -25.827  1.00  0.00     0.007 A 
HETATM   30  C11 UNL     1       2.206  51.397 -27.119  1.00  0.00     0.001 A 
HETATM   31  C12 UNL     1       1.504  51.888 -28.218  1.00  0.00     0.000 A 
HETATM   32  C13 UNL     1       0.454  52.781 -28.023  1.00  0.00     0.001 A 
HETATM   33  C14 UNL     1       0.108  53.185 -26.732  1.00  0.00     0.007 A 
ENDBRANCH  27  28
ENDBRANCH   3  27
BRANCH   1  34
HETATM   34  N2  UNL     1      -4.068  51.312 -25.118  1.00  0.00    -0.277 NA
HETATM   35  H11 UNL     1      -4.896  50.889 -24.696  1.00  0.00     0.129 HD
BRANCH  34  36
HETATM   36  C4  UNL     1      -3.646  50.508 -26.268  1.00  0.00     0.124 C 
BRANCH  36  37
HETATM   37  C3  UNL     1      -3.431  49.045 -25.813  1.00  0.00     0.286 C 
BRANCH  37  38
HETATM   38  N1  UNL     1      -4.424  48.093 -26.375  1.00  0.00     0.081 N 
HETATM   39  C1  UNL     1      -4.698  48.370 -27.786  1.00  0.00     0.309 C 
HETATM   40  C2  UNL     1      -5.670  48.167 -25.606  1.00  0.00     0.309 C 
ENDBRANCH  37  38
ENDBRANCH  36  37
ENDBRANCH  34  36
ENDBRANCH   1  34
TORSDOF 10
ENDMDL
MODEL 9
REMARK minimizedAffinity -8.24428082
REMARK  10 active torsions:
REMARK  status: ('A' for Active; 'I' for Inactive)
REMARK    1  A    between atoms: N1_2  and  C3_4 
REMARK    2  A    between atoms: C3_4  and  C4_5 
REMARK    3  A    between atoms: C4_5  and  N2_6 
REMARK    4  A    between atoms: N2_6  and  C5_7 
REMARK    5  A    between atoms: C7_9  and  C8_10 
REMARK    6  A    between atoms: C8_10  and  C9_11 
REMARK    7  A    between atoms: C16_18  and  N3_19 
REMARK    8  A    between atoms: C17_20  and  C18_21 
REMARK       I    between atoms: C18_21  and  N4_23 
REMARK    9  A    between atoms: N4_23  and  N5_24 
REMARK   10  A    between atoms: C19_26  and  C20_27 
ROOT
HETATM    1  C5  UNL     1      -2.329  49.007 -21.877  1.00  0.00     0.081 A 
HETATM    2  C6  UNL     1      -1.388  49.997 -22.139  1.00  0.00     0.050 A 
HETATM    3  C7  UNL     1      -1.259  50.568 -23.422  1.00  0.00    -0.035 A 
HETATM    4  C15 UNL     1      -2.128  50.073 -24.434  1.00  0.00     0.032 A 
HETATM    5  C16 UNL     1      -2.295  50.336 -25.845  1.00  0.00     0.062 A 
HETATM    6  C17 UNL     1      -3.329  49.618 -26.426  1.00  0.00     0.103 A 
HETATM    7  S1  UNL     1      -4.082  48.599 -25.276  1.00  0.00    -0.064 SA
HETATM    8  C25 UNL     1      -3.046  49.109 -24.031  1.00  0.00     0.089 A 
HETATM    9  N7  UNL     1      -3.186  48.569 -22.807  1.00  0.00    -0.341 N 
ATOM     10  H7  UNL     1      -3.899  47.870 -22.600  1.00  0.00     0.167 HD
ENDROOT
BRANCH   6  11
HETATM   11  C18 UNL     1      -3.769  49.642 -27.823  1.00  0.00     0.279 C 
HETATM   12  O1  UNL     1      -3.228  50.361 -28.668  1.00  0.00    -0.265 OA
HETATM   13  N4  UNL     1      -4.826  48.778 -28.124  1.00  0.00    -0.266 N 
HETATM   14  H22 UNL     1      -5.049  48.070 -27.426  1.00  0.00     0.190 HD
BRANCH  13  15
HETATM   15  N5  UNL     1      -5.294  48.476 -29.378  1.00  0.00    -0.307 N 
HETATM   16  C19 UNL     1      -6.505  48.030 -29.495  1.00  0.00     0.136 C 
ATOM     17  H5  UNL     1      -4.702  48.601 -30.200  1.00  0.00     0.186 HD
BRANCH  16  18
HETATM   18  C20 UNL     1      -7.043  47.729 -30.803  1.00  0.00     0.050 A 
HETATM   19  C21 UNL     1      -6.689  46.696 -31.659  1.00  0.00     0.032 A 
HETATM   20  C22 UNL     1      -7.485  46.786 -32.822  1.00  0.00     0.019 A 
HETATM   21  C23 UNL     1      -8.310  47.873 -32.662  1.00  0.00     0.091 A 
HETATM   22  N6  UNL     1      -8.036  48.441 -31.443  1.00  0.00    -0.360 N 
HETATM   23  C24 UNL     1      -8.699  49.618 -30.925  1.00  0.00     0.155 C 
ENDBRANCH  16  18
ENDBRANCH  13  15
ENDBRANCH   6  11
BRANCH   5  24
HETATM   24  N3  UNL     1      -1.523  51.193 -26.560  1.00  0.00    -0.397 N 
HETATM   25  H20 UNL     1      -0.572  51.413 -26.281  1.00  0.00     0.156 HD
HETATM   26  H21 UNL     1      -1.619  51.205 -27.580  1.00  0.00     0.156 HD
ENDBRANCH   5  24
BRANCH   3  27
HETATM   27  C8  UNL     1      -0.220  51.653 -23.611  1.00  0.00     0.078 C 
BRANCH  27  28
HETATM   28  C9  UNL     1       0.107  52.466 -22.376  1.00  0.00    -0.054 A 
HETATM   29  C10 UNL     1      -0.473  52.201 -21.125  1.00  0.00     0.007 A 
HETATM   30  C11 UNL     1      -0.114  52.946 -19.999  1.00  0.00     0.001 A 
HETATM   31  C12 UNL     1       0.835  53.961 -20.103  1.00  0.00     0.000 A 
HETATM   32  C13 UNL     1       1.428  54.228 -21.335  1.00  0.00     0.001 A 
HETATM   33  C14 UNL     1       1.070  53.483 -22.461  1.00  0.00     0.007 A 
ENDBRANCH  27  28
ENDBRANCH   3  27
BRANCH   1  34
HETATM   34  N2  UNL     1      -2.416  48.531 -20.560  1.00  0.00    -0.277 NA
HETATM   35  H11 UNL     1      -3.367  48.231 -20.341  1.00  0.00     0.129 HD
BRANCH  34  36
HETATM   36  C4  UNL     1      -1.952  49.461 -19.529  1.00  0.00     0.124 C 
BRANCH  36  37
HETATM   37  C3  UNL     1      -1.853  48.714 -18.177  1.00  0.00     0.286 C 
BRANCH  37  38
HETATM   38  N1  UNL     1      -1.330  49.554 -17.069  1.00  0.00     0.081 N 
HETATM   39  C1  UNL     1      -2.267  50.621 -16.711  1.00  0.00     0.309 C 
HETATM   40  C2  UNL     1      -0.042  50.137 -17.455  1.00  0.00     0.309 C 
ENDBRANCH  37  38
ENDBRANCH  36  37
ENDBRANCH  34  36
ENDBRANCH   1  34
TORSDOF 10
ENDMDL
