MODEL 1
REMARK minimizedAffinity -9.46464443
REMARK CNNscore 0.711418688
REMARK CNNaffinity 7.33272982
REMARK  4 active torsions:
REMARK  status: ('A' for Active; 'I' for Inactive)
REMARK    1  A    between atoms: N2_5  and  C4_6 
REMARK    2  A    between atoms: C4_6  and  C5_7 
REMARK    3  A    between atoms: C8_10  and  C9_11 
REMARK    4  A    between atoms: C13_18  and  C14_19 
ROOT
HETATM    1  C9  UNL     1       0.024  51.822 -19.826  1.00  0.00    -0.009 A 
HETATM    2  C10 UNL     1       0.783  52.831 -19.223  1.00  0.00     0.102 A 
HETATM    3  N3  UNL     1       1.405  53.867 -19.844  1.00  0.00    -0.351 N 
ATOM      4  H3  UNL     1       1.945  54.581 -19.354  1.00  0.00     0.166 HD
HETATM    5  C11 UNL     1       1.229  53.849 -21.177  1.00  0.00     0.116 A 
HETATM    6  N4  UNL     1       1.742  54.782 -22.033  1.00  0.00    -0.351 N 
HETATM    7  C12 UNL     1       1.381  54.482 -23.321  1.00  0.00     0.103 A 
HETATM    8  C13 UNL     1       0.620  53.327 -23.295  1.00  0.00     0.004 A 
HETATM    9  C22 UNL     1       0.518  52.921 -21.928  1.00  0.00     0.021 A 
HETATM   10  C23 UNL     1      -0.109  51.875 -21.224  1.00  0.00     0.029 A 
HETATM   11  H13 UNL     1       2.302  55.566 -21.732  1.00  0.00     0.166 HD
ENDROOT
BRANCH   1  12
HETATM   12  C8  UNL     1      -0.607  50.756 -19.036  1.00  0.00    -0.025 A 
HETATM   13  C7  UNL     1      -1.797  50.145 -19.460  1.00  0.00     0.013 A 
HETATM   14  C6  UNL     1      -2.398  49.132 -18.705  1.00  0.00     0.010 A 
HETATM   15  C5  UNL     1      -1.832  48.705 -17.497  1.00  0.00    -0.030 A 
HETATM   16  C25 UNL     1      -0.638  49.301 -17.076  1.00  0.00     0.010 A 
HETATM   17  C24 UNL     1      -0.036  50.312 -17.833  1.00  0.00     0.013 A 
BRANCH  15  18
HETATM   18  C4  UNL     1      -2.491  47.611 -16.680  1.00  0.00     0.311 C 
BRANCH  18  19
HETATM   19  N2  UNL     1      -3.473  46.771 -17.367  1.00  0.00     0.096 N 
HETATM   20  C3  UNL     1      -3.108  46.394 -18.739  1.00  0.00     0.303 C 
HETATM   21  C2  UNL     1      -4.292  45.762 -19.508  1.00  0.00     0.302 C 
HETATM   22  N1  UNL     1      -5.473  46.640 -19.634  1.00  0.00     0.087 N 
HETATM   23  C1  UNL     1      -5.560  47.250 -20.959  1.00  0.00     0.310 C 
HETATM   24  C27 UNL     1      -5.490  47.681 -18.585  1.00  0.00     0.302 C 
HETATM   25  C26 UNL     1      -4.873  47.204 -17.251  1.00  0.00     0.303 C 
ENDBRANCH  18  19
ENDBRANCH  15  18
ENDBRANCH   1  12
BRANCH   8  26
HETATM   26  C14 UNL     1       0.082  52.706 -24.495  1.00  0.00    -0.023 A 
HETATM   27  C15 UNL     1       0.950  52.158 -25.447  1.00  0.00     0.014 A 
HETATM   28  C16 UNL     1       0.467  51.549 -26.611  1.00  0.00     0.031 A 
HETATM   29  C17 UNL     1      -0.919  51.509 -26.792  1.00  0.00     0.042 A 
HETATM   30  N5  UNL     1      -1.668  50.983 -27.821  1.00  0.00    -0.365 N 
HETATM   31  C20 UNL     1      -1.815  52.044 -25.867  1.00  0.00    -0.007 A 
HETATM   32  C18 UNL     1      -3.003  51.166 -27.578  1.00  0.00     0.089 A 
HETATM   33  H17 UNL     1      -1.280  50.528 -28.637  1.00  0.00     0.165 HD
HETATM   34  C19 UNL     1      -3.125  51.821 -26.373  1.00  0.00     0.030 A 
HETATM   35  C21 UNL     1      -1.306  52.652 -24.701  1.00  0.00     0.026 A 
ENDBRANCH   8  26
TORSDOF 4
ENDMDL
MODEL 2
REMARK minimizedAffinity -9.18208885
REMARK CNNscore 0.578235626
REMARK CNNaffinity 7.23896837
REMARK  4 active torsions:
REMARK  status: ('A' for Active; 'I' for Inactive)
REMARK    1  A    between atoms: N2_5  and  C4_6 
REMARK    2  A    between atoms: C4_6  and  C5_7 
REMARK    3  A    between atoms: C8_10  and  C9_11 
REMARK    4  A    between atoms: C13_18  and  C14_19 
ROOT
HETATM    1  C9  UNL     1      -0.178  52.030 -19.422  1.00  0.00    -0.009 A 
HETATM    2  C10 UNL     1       0.651  53.133 -19.188  1.00  0.00     0.102 A 
HETATM    3  N3  UNL     1       1.219  53.940 -20.122  1.00  0.00    -0.351 N 
ATOM      4  H3  UNL     1       1.815  54.736 -19.897  1.00  0.00     0.166 HD
HETATM    5  C11 UNL     1       0.907  53.573 -21.378  1.00  0.00     0.116 A 
HETATM    6  N4  UNL     1       1.342  54.222 -22.499  1.00  0.00    -0.351 N 
HETATM    7  C12 UNL     1       0.847  53.603 -23.618  1.00  0.00     0.103 A 
HETATM    8  C13 UNL     1       0.079  52.528 -23.208  1.00  0.00     0.004 A 
HETATM    9  C22 UNL     1       0.112  52.506 -21.779  1.00  0.00     0.021 A 
HETATM   10  C23 UNL     1      -0.453  51.713 -20.762  1.00  0.00     0.029 A 
HETATM   11  H13 UNL     1       1.940  55.035 -22.475  1.00  0.00     0.166 HD
ENDROOT
BRANCH   1  12
HETATM   12  C8  UNL     1      -0.739  51.240 -18.316  1.00  0.00    -0.025 A 
HETATM   13  C7  UNL     1      -2.125  51.100 -18.154  1.00  0.00     0.013 A 
HETATM   14  C6  UNL     1      -2.657  50.351 -17.100  1.00  0.00     0.010 A 
HETATM   15  C5  UNL     1      -1.818  49.724 -16.169  1.00  0.00    -0.030 A 
HETATM   16  C25 UNL     1      -0.434  49.848 -16.334  1.00  0.00     0.010 A 
HETATM   17  C24 UNL     1       0.097  50.596 -17.390  1.00  0.00     0.013 A 
BRANCH  15  18
HETATM   18  C4  UNL     1      -2.401  48.916 -15.025  1.00  0.00     0.311 C 
BRANCH  18  19
HETATM   19  N2  UNL     1      -2.413  49.551 -13.707  1.00  0.00     0.096 N 
HETATM   20  C3  UNL     1      -2.743  50.983 -13.715  1.00  0.00     0.303 C 
HETATM   21  C2  UNL     1      -2.460  51.657 -12.352  1.00  0.00     0.302 C 
HETATM   22  N1  UNL     1      -1.053  51.573 -11.912  1.00  0.00     0.087 N 
HETATM   23  C1  UNL     1      -0.334  52.824 -12.140  1.00  0.00     0.310 C 
HETATM   24  C27 UNL     1      -0.348  50.447 -12.561  1.00  0.00     0.302 C 
HETATM   25  C26 UNL     1      -1.268  49.238 -12.838  1.00  0.00     0.303 C 
ENDBRANCH  18  19
ENDBRANCH  15  18
ENDBRANCH   1  12
BRANCH   8  26
HETATM   26  C14 UNL     1      -0.587  51.630 -24.139  1.00  0.00    -0.023 A 
HETATM   27  C15 UNL     1      -0.128  51.525 -25.457  1.00  0.00     0.014 A 
HETATM   28  C16 UNL     1      -0.742  50.669 -26.379  1.00  0.00     0.031 A 
HETATM   29  C17 UNL     1      -1.836  49.919 -25.935  1.00  0.00     0.042 A 
HETATM   30  N5  UNL     1      -2.623  49.010 -26.606  1.00  0.00    -0.365 N 
HETATM   31  C20 UNL     1      -2.323  49.997 -24.630  1.00  0.00    -0.007 A 
HETATM   32  C18 UNL     1      -3.588  48.512 -25.771  1.00  0.00     0.089 A 
HETATM   33  H17 UNL     1      -2.501  48.753 -27.576  1.00  0.00     0.165 HD
HETATM   34  C19 UNL     1      -3.425  49.105 -24.539  1.00  0.00     0.030 A 
HETATM   35  C21 UNL     1      -1.689  50.866 -23.719  1.00  0.00     0.026 A 
ENDBRANCH   8  26
TORSDOF 4
ENDMDL
MODEL 3
REMARK minimizedAffinity -9.91010189
REMARK CNNscore 0.514486432
REMARK CNNaffinity 7.01937628
REMARK  4 active torsions:
REMARK  status: ('A' for Active; 'I' for Inactive)
REMARK    1  A    between atoms: N2_5  and  C4_6 
REMARK    2  A    between atoms: C4_6  and  C5_7 
REMARK    3  A    between atoms: C8_10  and  C9_11 
REMARK    4  A    between atoms: C13_18  and  C14_19 
ROOT
HETATM    1  C9  UNL     1       0.672  52.842 -20.986  1.00  0.00    -0.009 A 
HETATM    2  C10 UNL     1       1.425  53.965 -21.349  1.00  0.00     0.102 A 
HETATM    3  N3  UNL     1       1.522  54.517 -22.586  1.00  0.00    -0.351 N 
ATOM      4  H3  UNL     1       2.086  55.341 -22.797  1.00  0.00     0.166 HD
HETATM    5  C11 UNL     1       0.794  53.857 -23.503  1.00  0.00     0.116 A 
HETATM    6  N4  UNL     1       0.712  54.212 -24.821  1.00  0.00    -0.351 N 
HETATM    7  C12 UNL     1      -0.111  53.341 -25.488  1.00  0.00     0.103 A 
HETATM    8  C13 UNL     1      -0.567  52.402 -24.580  1.00  0.00     0.004 A 
HETATM    9  C22 UNL     1       0.005  52.728 -23.312  1.00  0.00     0.021 A 
HETATM   10  C23 UNL     1      -0.059  52.209 -22.004  1.00  0.00     0.029 A 
HETATM   11  H13 UNL     1       1.198  55.002 -25.216  1.00  0.00     0.166 HD
ENDROOT
BRANCH   1  12
HETATM   12  C8  UNL     1       0.645  52.348 -19.602  1.00  0.00    -0.025 A 
HETATM   13  C7  UNL     1      -0.149  51.249 -19.239  1.00  0.00     0.013 A 
HETATM   14  C6  UNL     1      -0.176  50.782 -17.920  1.00  0.00     0.010 A 
HETATM   15  C5  UNL     1       0.585  51.404 -16.922  1.00  0.00    -0.030 A 
HETATM   16  C25 UNL     1       1.389  52.491 -17.281  1.00  0.00     0.010 A 
HETATM   17  C24 UNL     1       1.418  52.957 -18.600  1.00  0.00     0.013 A 
BRANCH  15  18
HETATM   18  C4  UNL     1       0.548  50.897 -15.494  1.00  0.00     0.311 C 
BRANCH  18  19
HETATM   19  N2  UNL     1      -0.370  51.572 -14.575  1.00  0.00     0.096 N 
HETATM   20  C3  UNL     1       0.266  52.141 -13.378  1.00  0.00     0.303 C 
HETATM   21  C2  UNL     1      -0.771  52.580 -12.317  1.00  0.00     0.302 C 
HETATM   22  N1  UNL     1      -1.640  51.490 -11.829  1.00  0.00     0.087 N 
HETATM   23  C1  UNL     1      -1.216  51.000 -10.519  1.00  0.00     0.310 C 
HETATM   24  C27 UNL     1      -1.710  50.376 -12.799  1.00  0.00     0.302 C 
HETATM   25  C26 UNL     1      -1.611  50.847 -14.267  1.00  0.00     0.303 C 
ENDBRANCH  18  19
ENDBRANCH  15  18
ENDBRANCH   1  12
BRANCH   8  26
HETATM   26  C14 UNL     1      -1.452  51.308 -24.950  1.00  0.00    -0.023 A 
HETATM   27  C15 UNL     1      -1.838  50.367 -23.989  1.00  0.00     0.014 A 
HETATM   28  C16 UNL     1      -2.691  49.304 -24.309  1.00  0.00     0.031 A 
HETATM   29  C17 UNL     1      -3.145  49.214 -25.629  1.00  0.00     0.042 A 
HETATM   30  N5  UNL     1      -3.978  48.293 -26.222  1.00  0.00    -0.365 N 
HETATM   31  C20 UNL     1      -2.781  50.131 -26.614  1.00  0.00    -0.007 A 
HETATM   32  C18 UNL     1      -4.154  48.597 -27.546  1.00  0.00     0.089 A 
HETATM   33  H17 UNL     1      -4.396  47.507 -25.744  1.00  0.00     0.165 HD
HETATM   34  C19 UNL     1      -3.424  49.732 -27.817  1.00  0.00     0.030 A 
HETATM   35  C21 UNL     1      -1.921  51.194 -26.269  1.00  0.00     0.026 A 
ENDBRANCH   8  26
TORSDOF 4
ENDMDL
MODEL 4
REMARK minimizedAffinity -9.70248699
REMARK CNNscore 0.507068634
REMARK CNNaffinity 7.05310583
REMARK  4 active torsions:
REMARK  status: ('A' for Active; 'I' for Inactive)
REMARK    1  A    between atoms: N2_5  and  C4_6 
REMARK    2  A    between atoms: C4_6  and  C5_7 
REMARK    3  A    between atoms: C8_10  and  C9_11 
REMARK    4  A    between atoms: C13_18  and  C14_19 
ROOT
HETATM    1  C9  UNL     1       0.751  52.858 -20.790  1.00  0.00    -0.009 A 
HETATM    2  C10 UNL     1       1.690  53.840 -21.126  1.00  0.00     0.102 A 
HETATM    3  N3  UNL     1       1.853  54.432 -22.338  1.00  0.00    -0.351 N 
ATOM      4  H3  UNL     1       2.555  55.148 -22.529  1.00  0.00     0.166 HD
HETATM    5  C11 UNL     1       0.988  53.971 -23.257  1.00  0.00     0.116 A 
HETATM    6  N4  UNL     1       0.936  54.408 -24.551  1.00  0.00    -0.351 N 
HETATM    7  C12 UNL     1      -0.054  53.744 -25.228  1.00  0.00     0.103 A 
HETATM    8  C13 UNL     1      -0.652  52.856 -24.351  1.00  0.00     0.004 A 
HETATM    9  C22 UNL     1       0.007  53.000 -23.091  1.00  0.00     0.021 A 
HETATM   10  C23 UNL     1      -0.115  52.430 -21.809  1.00  0.00     0.029 A 
HETATM   11  H13 UNL     1       1.551  55.115 -24.926  1.00  0.00     0.166 HD
ENDROOT
BRANCH   1  12
HETATM   12  C8  UNL     1       0.671  52.301 -19.432  1.00  0.00    -0.025 A 
HETATM   13  C7  UNL     1       1.345  52.905 -18.359  1.00  0.00     0.013 A 
HETATM   14  C6  UNL     1       1.270  52.373 -17.068  1.00  0.00     0.010 A 
HETATM   15  C5  UNL     1       0.525  51.215 -16.810  1.00  0.00    -0.030 A 
HETATM   16  C25 UNL     1      -0.160  50.617 -17.874  1.00  0.00     0.010 A 
HETATM   17  C24 UNL     1      -0.087  51.151 -19.165  1.00  0.00     0.013 A 
BRANCH  15  18
HETATM   18  C4  UNL     1       0.452  50.639 -15.409  1.00  0.00     0.311 C 
BRANCH  18  19
HETATM   19  N2  UNL     1      -0.685  49.767 -15.111  1.00  0.00     0.096 N 
HETATM   20  C3  UNL     1      -0.714  48.510 -15.872  1.00  0.00     0.303 C 
HETATM   21  C2  UNL     1      -2.066  47.772 -15.734  1.00  0.00     0.302 C 
HETATM   22  N1  UNL     1      -3.233  48.550 -16.199  1.00  0.00     0.087 N 
HETATM   23  C1  UNL     1      -3.679  48.123 -17.523  1.00  0.00     0.310 C 
HETATM   24  C27 UNL     1      -2.956  50.002 -16.191  1.00  0.00     0.302 C 
HETATM   25  C26 UNL     1      -1.997  50.427 -15.057  1.00  0.00     0.303 C 
ENDBRANCH  18  19
ENDBRANCH  15  18
ENDBRANCH   1  12
BRANCH   8  26
HETATM   26  C14 UNL     1      -1.736  51.968 -24.740  1.00  0.00    -0.023 A 
HETATM   27  C15 UNL     1      -3.062  52.316 -24.452  1.00  0.00     0.014 A 
HETATM   28  C16 UNL     1      -4.130  51.487 -24.815  1.00  0.00     0.031 A 
HETATM   29  C17 UNL     1      -3.825  50.293 -25.477  1.00  0.00     0.042 A 
HETATM   30  N5  UNL     1      -4.655  49.300 -25.947  1.00  0.00    -0.365 N 
HETATM   31  C20 UNL     1      -2.519  49.912 -25.780  1.00  0.00    -0.007 A 
HETATM   32  C18 UNL     1      -3.918  48.307 -26.536  1.00  0.00     0.089 A 
HETATM   33  H17 UNL     1      -5.662  49.309 -25.865  1.00  0.00     0.165 HD
HETATM   34  C19 UNL     1      -2.590  48.659 -26.448  1.00  0.00     0.030 A 
HETATM   35  C21 UNL     1      -1.458  50.763 -25.405  1.00  0.00     0.026 A 
ENDBRANCH   8  26
TORSDOF 4
ENDMDL
MODEL 5
REMARK minimizedAffinity -9.16253948
REMARK CNNscore 0.496954978
REMARK CNNaffinity 6.75487137
REMARK  4 active torsions:
REMARK  status: ('A' for Active; 'I' for Inactive)
REMARK    1  A    between atoms: N2_5  and  C4_6 
REMARK    2  A    between atoms: C4_6  and  C5_7 
REMARK    3  A    between atoms: C8_10  and  C9_11 
REMARK    4  A    between atoms: C13_18  and  C14_19 
ROOT
HETATM    1  C9  UNL     1      -0.748  50.373 -20.399  1.00  0.00    -0.009 A 
HETATM    2  C10 UNL     1      -0.254  50.939 -19.218  1.00  0.00     0.102 A 
HETATM    3  N3  UNL     1       0.454  52.093 -19.100  1.00  0.00    -0.351 N 
ATOM      4  H3  UNL     1       0.790  52.463 -18.210  1.00  0.00     0.166 HD
HETATM    5  C11 UNL     1       0.664  52.693 -20.285  1.00  0.00     0.116 A 
HETATM    6  N4  UNL     1       1.341  53.869 -20.442  1.00  0.00    -0.351 N 
HETATM    7  C12 UNL     1       1.377  54.213 -21.768  1.00  0.00     0.103 A 
HETATM    8  C13 UNL     1       0.712  53.233 -22.484  1.00  0.00     0.004 A 
HETATM    9  C22 UNL     1       0.252  52.262 -21.541  1.00  0.00     0.021 A 
HETATM   10  C23 UNL     1      -0.484  51.062 -21.594  1.00  0.00     0.029 A 
HETATM   11  H13 UNL     1       1.744  54.386 -19.675  1.00  0.00     0.166 HD
ENDROOT
BRANCH   1  12
HETATM   12  C8  UNL     1      -1.511  49.118 -20.391  1.00  0.00    -0.025 A 
HETATM   13  C7  UNL     1      -1.491  48.248 -21.491  1.00  0.00     0.013 A 
HETATM   14  C6  UNL     1      -2.220  47.054 -21.483  1.00  0.00     0.010 A 
HETATM   15  C5  UNL     1      -2.999  46.697 -20.375  1.00  0.00    -0.030 A 
HETATM   16  C25 UNL     1      -3.012  47.554 -19.268  1.00  0.00     0.010 A 
HETATM   17  C24 UNL     1      -2.281  48.746 -19.277  1.00  0.00     0.013 A 
BRANCH  15  18
HETATM   18  C4  UNL     1      -3.792  45.404 -20.373  1.00  0.00     0.311 C 
BRANCH  18  19
HETATM   19  N2  UNL     1      -5.231  45.510 -20.616  1.00  0.00     0.096 N 
HETATM   20  C3  UNL     1      -5.607  46.426 -21.703  1.00  0.00     0.303 C 
HETATM   21  C2  UNL     1      -7.125  46.718 -21.725  1.00  0.00     0.302 C 
HETATM   22  N1  UNL     1      -7.644  47.332 -20.485  1.00  0.00     0.087 N 
HETATM   23  C1  UNL     1      -7.849  48.771 -20.635  1.00  0.00     0.310 C 
HETATM   24  C27 UNL     1      -6.762  47.054 -19.331  1.00  0.00     0.302 C 
HETATM   25  C26 UNL     1      -6.069  45.676 -19.420  1.00  0.00     0.303 C 
ENDBRANCH  18  19
ENDBRANCH  15  18
ENDBRANCH   1  12
BRANCH   8  26
HETATM   26  C14 UNL     1       0.573  53.265 -23.931  1.00  0.00    -0.023 A 
HETATM   27  C15 UNL     1       0.305  54.476 -24.580  1.00  0.00     0.014 A 
HETATM   28  C16 UNL     1       0.169  54.544 -25.972  1.00  0.00     0.031 A 
HETATM   29  C17 UNL     1       0.311  53.355 -26.694  1.00  0.00     0.042 A 
HETATM   30  N5  UNL     1       0.232  53.122 -28.049  1.00  0.00    -0.365 N 
HETATM   31  C20 UNL     1       0.578  52.130 -26.083  1.00  0.00    -0.007 A 
HETATM   32  C18 UNL     1       0.440  51.794 -28.314  1.00  0.00     0.089 A 
HETATM   33  H17 UNL     1       0.046  53.833 -28.742  1.00  0.00     0.165 HD
HETATM   34  C19 UNL     1       0.658  51.155 -27.115  1.00  0.00     0.030 A 
HETATM   35  C21 UNL     1       0.710  52.085 -24.680  1.00  0.00     0.026 A 
ENDBRANCH   8  26
TORSDOF 4
ENDMDL
MODEL 6
REMARK minimizedAffinity -9.85102749
REMARK CNNscore 0.469078898
REMARK CNNaffinity 7.12235212
REMARK  4 active torsions:
REMARK  status: ('A' for Active; 'I' for Inactive)
REMARK    1  A    between atoms: N2_5  and  C4_6 
REMARK    2  A    between atoms: C4_6  and  C5_7 
REMARK    3  A    between atoms: C8_10  and  C9_11 
REMARK    4  A    between atoms: C13_18  and  C14_19 
ROOT
HETATM    1  C9  UNL     1       0.434  52.423 -21.030  1.00  0.00    -0.009 A 
HETATM    2  C10 UNL     1       1.322  53.504 -21.067  1.00  0.00     0.102 A 
HETATM    3  N3  UNL     1       1.603  54.293 -22.136  1.00  0.00    -0.351 N 
ATOM      4  H3  UNL     1       2.260  55.073 -22.108  1.00  0.00     0.166 HD
HETATM    5  C11 UNL     1       0.920  53.931 -23.237  1.00  0.00     0.116 A 
HETATM    6  N4  UNL     1       1.015  54.566 -24.443  1.00  0.00    -0.351 N 
HETATM    7  C12 UNL     1       0.193  53.958 -25.356  1.00  0.00     0.103 A 
HETATM    8  C13 UNL     1      -0.444  52.905 -24.724  1.00  0.00     0.004 A 
HETATM    9  C22 UNL     1       0.015  52.886 -23.371  1.00  0.00     0.021 A 
HETATM   10  C23 UNL     1      -0.238  52.110 -22.223  1.00  0.00     0.029 A 
HETATM   11  H13 UNL     1       1.613  55.362 -24.609  1.00  0.00     0.166 HD
ENDROOT
BRANCH   1  12
HETATM   12  C8  UNL     1       0.211  51.651 -19.799  1.00  0.00    -0.025 A 
HETATM   13  C7  UNL     1       0.644  52.130 -18.553  1.00  0.00     0.013 A 
HETATM   14  C6  UNL     1       0.434  51.393 -17.383  1.00  0.00     0.010 A 
HETATM   15  C5  UNL     1      -0.211  50.150 -17.423  1.00  0.00    -0.030 A 
HETATM   16  C25 UNL     1      -0.658  49.674 -18.661  1.00  0.00     0.010 A 
HETATM   17  C24 UNL     1      -0.449  50.412 -19.831  1.00  0.00     0.013 A 
BRANCH  15  18
HETATM   18  C4  UNL     1      -0.432  49.353 -16.152  1.00  0.00     0.311 C 
BRANCH  18  19
HETATM   19  N2  UNL     1      -1.668  49.613 -15.414  1.00  0.00     0.096 N 
HETATM   20  C3  UNL     1      -2.121  51.011 -15.445  1.00  0.00     0.303 C 
HETATM   21  C2  UNL     1      -3.252  51.283 -14.425  1.00  0.00     0.302 C 
HETATM   22  N1  UNL     1      -2.883  51.012 -13.021  1.00  0.00     0.087 N 
HETATM   23  C1  UNL     1      -2.579  52.241 -12.290  1.00  0.00     0.310 C 
HETATM   24  C27 UNL     1      -1.751  50.065 -12.930  1.00  0.00     0.302 C 
HETATM   25  C26 UNL     1      -1.745  49.022 -14.070  1.00  0.00     0.303 C 
ENDBRANCH  18  19
ENDBRANCH  15  18
ENDBRANCH   1  12
BRANCH   8  26
HETATM   26  C14 UNL     1      -1.381  52.023 -25.403  1.00  0.00    -0.023 A 
HETATM   27  C15 UNL     1      -1.962  52.421 -26.613  1.00  0.00     0.014 A 
HETATM   28  C16 UNL     1      -2.865  51.597 -27.296  1.00  0.00     0.031 A 
HETATM   29  C17 UNL     1      -3.167  50.357 -26.724  1.00  0.00     0.042 A 
HETATM   30  N5  UNL     1      -4.004  49.355 -27.162  1.00  0.00    -0.365 N 
HETATM   31  C20 UNL     1      -2.609  49.926 -25.521  1.00  0.00    -0.007 A 
HETATM   32  C18 UNL     1      -3.993  48.308 -26.279  1.00  0.00     0.089 A 
HETATM   33  H17 UNL     1      -4.546  49.394 -28.014  1.00  0.00     0.165 HD
HETATM   34  C19 UNL     1      -3.136  48.634 -25.252  1.00  0.00     0.030 A 
HETATM   35  C21 UNL     1      -1.703  50.773 -24.850  1.00  0.00     0.026 A 
ENDBRANCH   8  26
TORSDOF 4
ENDMDL
MODEL 7
REMARK minimizedAffinity -8.28810978
REMARK CNNscore 0.417669386
REMARK CNNaffinity 7.05470133
REMARK  4 active torsions:
REMARK  status: ('A' for Active; 'I' for Inactive)
REMARK    1  A    between atoms: N2_5  and  C4_6 
REMARK    2  A    between atoms: C4_6  and  C5_7 
REMARK    3  A    between atoms: C8_10  and  C9_11 
REMARK    4  A    between atoms: C13_18  and  C14_19 
ROOT
HETATM    1  C9  UNL     1      -1.582  51.539 -22.986  1.00  0.00    -0.009 A 
HETATM    2  C10 UNL     1      -0.887  52.371 -23.873  1.00  0.00     0.102 A 
HETATM    3  N3  UNL     1       0.155  53.189 -23.576  1.00  0.00    -0.351 N 
ATOM      4  H3  UNL     1       0.630  53.775 -24.264  1.00  0.00     0.166 HD
HETATM    5  C11 UNL     1       0.494  53.143 -22.276  1.00  0.00     0.116 A 
HETATM    6  N4  UNL     1       1.513  53.863 -21.720  1.00  0.00    -0.351 N 
HETATM    7  C12 UNL     1       1.601  53.590 -20.380  1.00  0.00     0.103 A 
HETATM    8  C13 UNL     1       0.613  52.675 -20.063  1.00  0.00     0.004 A 
HETATM    9  C22 UNL     1      -0.095  52.384 -21.270  1.00  0.00     0.021 A 
HETATM   10  C23 UNL     1      -1.167  51.551 -21.644  1.00  0.00     0.029 A 
HETATM   11  H13 UNL     1       2.098  54.497 -22.245  1.00  0.00     0.166 HD
ENDROOT
BRANCH   1  12
HETATM   12  C8  UNL     1      -2.693  50.690 -23.438  1.00  0.00    -0.025 A 
HETATM   13  C7  UNL     1      -4.022  51.136 -23.370  1.00  0.00     0.013 A 
HETATM   14  C6  UNL     1      -5.079  50.325 -23.798  1.00  0.00     0.010 A 
HETATM   15  C5  UNL     1      -4.840  49.040 -24.300  1.00  0.00    -0.030 A 
HETATM   16  C25 UNL     1      -3.515  48.595 -24.383  1.00  0.00     0.010 A 
HETATM   17  C24 UNL     1      -2.459  49.407 -23.957  1.00  0.00     0.013 A 
BRANCH  15  18
HETATM   18  C4  UNL     1      -5.990  48.163 -24.757  1.00  0.00     0.311 C 
BRANCH  18  19
HETATM   19  N2  UNL     1      -6.785  47.517 -23.713  1.00  0.00     0.096 N 
HETATM   20  C3  UNL     1      -7.965  48.277 -23.278  1.00  0.00     0.303 C 
HETATM   21  C2  UNL     1      -8.596  47.695 -21.991  1.00  0.00     0.302 C 
HETATM   22  N1  UNL     1      -7.687  47.667 -20.828  1.00  0.00     0.087 N 
HETATM   23  C1  UNL     1      -7.959  48.758 -19.896  1.00  0.00     0.310 C 
HETATM   24  C27 UNL     1      -6.269  47.687 -21.247  1.00  0.00     0.302 C 
HETATM   25  C26 UNL     1      -6.025  46.958 -22.586  1.00  0.00     0.303 C 
ENDBRANCH  18  19
ENDBRANCH  15  18
ENDBRANCH   1  12
BRANCH   8  26
HETATM   26  C14 UNL     1       0.400  52.174 -18.714  1.00  0.00    -0.023 A 
HETATM   27  C15 UNL     1       1.308  52.496 -17.698  1.00  0.00     0.014 A 
HETATM   28  C16 UNL     1       1.133  52.034 -16.389  1.00  0.00     0.031 A 
HETATM   29  C17 UNL     1       0.015  51.235 -16.129  1.00  0.00     0.042 A 
HETATM   30  N5  UNL     1      -0.408  50.649 -14.957  1.00  0.00    -0.365 N 
HETATM   31  C20 UNL     1      -0.911  50.892 -17.115  1.00  0.00    -0.007 A 
HETATM   32  C18 UNL     1      -1.567  49.950 -15.168  1.00  0.00     0.089 A 
HETATM   33  H17 UNL     1       0.074  50.727 -14.072  1.00  0.00     0.165 HD
HETATM   34  C19 UNL     1      -1.903  50.083 -16.496  1.00  0.00     0.030 A 
HETATM   35  C21 UNL     1      -0.714  51.368 -18.427  1.00  0.00     0.026 A 
ENDBRANCH   8  26
TORSDOF 4
ENDMDL
MODEL 8
REMARK minimizedAffinity -8.98417282
REMARK CNNscore 0.414661169
REMARK CNNaffinity 6.7911582
REMARK  4 active torsions:
REMARK  status: ('A' for Active; 'I' for Inactive)
REMARK    1  A    between atoms: N2_5  and  C4_6 
REMARK    2  A    between atoms: C4_6  and  C5_7 
REMARK    3  A    between atoms: C8_10  and  C9_11 
REMARK    4  A    between atoms: C13_18  and  C14_19 
ROOT
HETATM    1  C9  UNL     1       0.319  52.294 -20.467  1.00  0.00    -0.009 A 
HETATM    2  C10 UNL     1       1.334  53.060 -21.053  1.00  0.00     0.102 A 
HETATM    3  N3  UNL     1       1.391  53.489 -22.341  1.00  0.00    -0.351 N 
ATOM      4  H3  UNL     1       2.156  54.050 -22.718  1.00  0.00     0.166 HD
HETATM    5  C11 UNL     1       0.330  53.093 -23.064  1.00  0.00     0.116 A 
HETATM    6  N4  UNL     1       0.141  53.398 -24.383  1.00  0.00    -0.351 N 
HETATM    7  C12 UNL     1      -1.035  52.849 -24.825  1.00  0.00     0.103 A 
HETATM    8  C13 UNL     1      -1.616  52.172 -23.767  1.00  0.00     0.004 A 
HETATM    9  C22 UNL     1      -0.750  52.327 -22.641  1.00  0.00     0.021 A 
HETATM   10  C23 UNL     1      -0.754  51.920 -21.293  1.00  0.00     0.029 A 
HETATM   11  H13 UNL     1       0.790  53.947 -24.927  1.00  0.00     0.166 HD
ENDROOT
BRANCH   1  12
HETATM   12  C8  UNL     1       0.372  51.901 -19.052  1.00  0.00    -0.025 A 
HETATM   13  C7  UNL     1      -0.276  50.743 -18.596  1.00  0.00     0.013 A 
HETATM   14  C6  UNL     1      -0.228  50.371 -17.248  1.00  0.00     0.010 A 
HETATM   15  C5  UNL     1       0.465  51.151 -16.313  1.00  0.00    -0.030 A 
HETATM   16  C25 UNL     1       1.125  52.299 -16.765  1.00  0.00     0.010 A 
HETATM   17  C24 UNL     1       1.078  52.669 -18.113  1.00  0.00     0.013 A 
BRANCH  15  18
HETATM   18  C4  UNL     1       0.510  50.746 -14.852  1.00  0.00     0.311 C 
BRANCH  18  19
HETATM   19  N2  UNL     1       0.996  51.748 -13.902  1.00  0.00     0.096 N 
HETATM   20  C3  UNL     1       2.134  51.316 -13.080  1.00  0.00     0.303 C 
HETATM   21  C2  UNL     1       2.416  52.290 -11.911  1.00  0.00     0.302 C 
HETATM   22  N1  UNL     1       1.286  52.458 -10.975  1.00  0.00     0.087 N 
HETATM   23  C1  UNL     1       1.475  51.687  -9.748  1.00  0.00     0.310 C 
HETATM   24  C27 UNL     1      -0.002  52.110 -11.610  1.00  0.00     0.302 C 
HETATM   25  C26 UNL     1      -0.039  52.439 -13.119  1.00  0.00     0.303 C 
ENDBRANCH  18  19
ENDBRANCH  15  18
ENDBRANCH   1  12
BRANCH   8  26
HETATM   26  C14 UNL     1      -2.873  51.449 -23.884  1.00  0.00    -0.023 A 
HETATM   27  C15 UNL     1      -4.020  51.934 -23.245  1.00  0.00     0.014 A 
HETATM   28  C16 UNL     1      -5.246  51.266 -23.339  1.00  0.00     0.031 A 
HETATM   29  C17 UNL     1      -5.286  50.091 -24.097  1.00  0.00     0.042 A 
HETATM   30  N5  UNL     1      -6.334  49.238 -24.363  1.00  0.00    -0.365 N 
HETATM   31  C20 UNL     1      -4.165  49.576 -24.747  1.00  0.00    -0.007 A 
HETATM   32  C18 UNL     1      -5.914  48.206 -25.159  1.00  0.00     0.089 A 
HETATM   33  H17 UNL     1      -7.276  49.363 -24.017  1.00  0.00     0.165 HD
HETATM   34  C19 UNL     1      -4.574  48.389 -25.413  1.00  0.00     0.030 A 
HETATM   35  C21 UNL     1      -2.940  50.266 -24.638  1.00  0.00     0.026 A 
ENDBRANCH   8  26
TORSDOF 4
ENDMDL
MODEL 9
REMARK minimizedAffinity -9.91343498
REMARK CNNscore 0.387012929
REMARK CNNaffinity 6.92529488
REMARK  4 active torsions:
REMARK  status: ('A' for Active; 'I' for Inactive)
REMARK    1  A    between atoms: N2_5  and  C4_6 
REMARK    2  A    between atoms: C4_6  and  C5_7 
REMARK    3  A    between atoms: C8_10  and  C9_11 
REMARK    4  A    between atoms: C13_18  and  C14_19 
ROOT
HETATM    1  C9  UNL     1       0.451  52.869 -21.662  1.00  0.00    -0.009 A 
HETATM    2  C10 UNL     1       1.318  53.945 -21.886  1.00  0.00     0.102 A 
HETATM    3  N3  UNL     1       1.531  54.590 -23.063  1.00  0.00    -0.351 N 
ATOM      4  H3  UNL     1       2.176  55.373 -23.171  1.00  0.00     0.166 HD
HETATM    5  C11 UNL     1       0.799  54.081 -24.069  1.00  0.00     0.116 A 
HETATM    6  N4  UNL     1       0.821  54.554 -25.351  1.00  0.00    -0.351 N 
HETATM    7  C12 UNL     1      -0.037  53.824 -26.132  1.00  0.00     0.103 A 
HETATM    8  C13 UNL     1      -0.624  52.856 -25.336  1.00  0.00     0.004 A 
HETATM    9  C22 UNL     1      -0.095  53.018 -24.018  1.00  0.00     0.021 A 
HETATM   10  C23 UNL     1      -0.276  52.397 -22.767  1.00  0.00     0.029 A 
HETATM   11  H13 UNL     1       1.396  55.327 -25.650  1.00  0.00     0.166 HD
ENDROOT
BRANCH   1  12
HETATM   12  C8  UNL     1       0.304  52.263 -20.331  1.00  0.00    -0.025 A 
HETATM   13  C7  UNL     1       0.580  52.994 -19.166  1.00  0.00     0.013 A 
HETATM   14  C6  UNL     1       0.442  52.415 -17.900  1.00  0.00     0.010 A 
HETATM   15  C5  UNL     1       0.032  51.083 -17.760  1.00  0.00    -0.030 A 
HETATM   16  C25 UNL     1      -0.257  50.353 -18.919  1.00  0.00     0.010 A 
HETATM   17  C24 UNL     1      -0.122  50.934 -20.184  1.00  0.00     0.013 A 
BRANCH  15  18
HETATM   18  C4  UNL     1      -0.110  50.459 -16.386  1.00  0.00     0.311 C 
BRANCH  18  19
HETATM   19  N2  UNL     1       0.654  51.070 -15.298  1.00  0.00     0.096 N 
HETATM   20  C3  UNL     1       2.077  51.291 -15.593  1.00  0.00     0.303 C 
HETATM   21  C2  UNL     1       2.886  51.664 -14.329  1.00  0.00     0.302 C 
HETATM   22  N1  UNL     1       2.851  50.643 -13.262  1.00  0.00     0.087 N 
HETATM   23  C1  UNL     1       4.076  49.846 -13.229  1.00  0.00     0.310 C 
HETATM   24  C27 UNL     1       1.668  49.765 -13.388  1.00  0.00     0.302 C 
HETATM   25  C26 UNL     1       0.434  50.496 -13.963  1.00  0.00     0.303 C 
ENDBRANCH  18  19
ENDBRANCH  15  18
ENDBRANCH   1  12
BRANCH   8  26
HETATM   26  C14 UNL     1      -1.579  51.884 -25.844  1.00  0.00    -0.023 A 
HETATM   27  C15 UNL     1      -2.056  51.994 -27.156  1.00  0.00     0.014 A 
HETATM   28  C16 UNL     1      -2.973  51.075 -27.678  1.00  0.00     0.031 A 
HETATM   29  C17 UNL     1      -3.400  50.039 -26.841  1.00  0.00     0.042 A 
HETATM   30  N5  UNL     1      -4.279  49.007 -27.079  1.00  0.00    -0.365 N 
HETATM   31  C20 UNL     1      -2.948  49.897 -25.529  1.00  0.00    -0.007 A 
HETATM   32  C18 UNL     1      -4.398  48.219 -25.965  1.00  0.00     0.089 A 
HETATM   33  H17 UNL     1      -4.765  48.859 -27.953  1.00  0.00     0.165 HD
HETATM   34  C19 UNL     1      -3.584  48.747 -24.988  1.00  0.00     0.030 A 
HETATM   35  C21 UNL     1      -2.024  50.835 -25.023  1.00  0.00     0.026 A 
ENDBRANCH   8  26
TORSDOF 4
ENDMDL
