MODEL 1
REMARK minimizedAffinity -8.64374447
REMARK CNNscore 0.831923306
REMARK CNNaffinity 8.03760147
REMARK  10 active torsions:
REMARK  status: ('A' for Active; 'I' for Inactive)
REMARK    1  A    between atoms: C2_2  and  C3_3 
REMARK    2  A    between atoms: C2_2  and  O1_9 
REMARK    3  A    between atoms: C4_4  and  C5_5 
REMARK    4  A    between atoms: O1_9  and  C6_10 
REMARK    5  A    between atoms: C8_12  and  C9_13 
REMARK    6  A    between atoms: C11_15  and  C12_16 
REMARK    7  A    between atoms: C14_18  and  C15_19 
REMARK    8  A    between atoms: C15_19  and  N1_20 
REMARK    9  A    between atoms: C20_28  and  N3_29 
REMARK   10  A    between atoms: C23_32  and  C24_33 
REMARK       I    between atoms: C24_33  and  N4_34 
ROOT
HETATM    1  C6  UNL     1      -1.540  51.568 -24.831  1.00  0.00     0.086 A 
HETATM    2  C7  UNL     1      -1.247  51.817 -23.484  1.00  0.00     0.050 A 
HETATM    3  C8  UNL     1      -0.076  52.493 -23.111  1.00  0.00    -0.020 A 
HETATM    4  C21 UNL     1       0.769  52.964 -24.126  1.00  0.00     0.013 A 
HETATM    5  C22 UNL     1       0.458  52.761 -25.475  1.00  0.00     0.021 A 
HETATM    6  C23 UNL     1      -0.697  52.055 -25.838  1.00  0.00     0.065 A 
ENDROOT
BRANCH   3   7
HETATM    7  C9  UNL     1       0.257  52.689 -21.692  1.00  0.00     0.013 A 
HETATM    8  C10 UNL     1      -0.241  51.799 -20.724  1.00  0.00     0.029 A 
HETATM    9  C11 UNL     1       0.060  51.968 -19.371  1.00  0.00    -0.003 A 
HETATM   10  C19 UNL     1       0.861  53.056 -19.044  1.00  0.00     0.102 A 
HETATM   11  N2  UNL     1       1.367  53.938 -19.939  1.00  0.00    -0.355 N 
HETATM   12  C20 UNL     1       1.070  53.740 -21.238  1.00  0.00     0.088 A 
ATOM     13  H2  UNL     1       1.949  54.721 -19.641  1.00  0.00     0.166 HD
BRANCH   9  14
HETATM   14  C12 UNL     1      -0.451  51.071 -18.330  1.00  0.00     0.017 A 
HETATM   15  C13 UNL     1       0.258  50.358 -17.381  1.00  0.00     0.029 A 
HETATM   16  C14 UNL     1      -0.571  49.541 -16.538  1.00  0.00    -0.022 A 
HETATM   17  C18 UNL     1      -1.902  49.702 -16.876  1.00  0.00     0.059 A 
HETATM   18  S1  UNL     1      -2.131  50.762 -18.194  1.00  0.00    -0.101 SA
BRANCH  16  19
HETATM   19  C15 UNL     1      -0.066  48.679 -15.412  1.00  0.00     0.310 C 
BRANCH  19  20
HETATM   20  N1  UNL     1       0.385  49.431 -14.235  1.00  0.00     0.084 N 
HETATM   21  C16 UNL     1       1.784  49.839 -14.299  1.00  0.00     0.309 C 
HETATM   22  C17 UNL     1      -0.483  50.546 -13.878  1.00  0.00     0.309 C 
ENDBRANCH  19  20
ENDBRANCH  16  19
ENDBRANCH   9  14
BRANCH  12  23
HETATM   23  N3  UNL     1       1.615  54.686 -22.110  1.00  0.00    -0.288 NA
HETATM   24  H20 UNL     1       2.214  55.290 -21.554  1.00  0.00     0.125 HD
HETATM   25  H21 UNL     1       2.127  54.238 -22.867  1.00  0.00     0.125 HD
ENDBRANCH  12  23
ENDBRANCH   3   7
BRANCH   1  26
HETATM   26  O1  UNL     1      -2.681  50.845 -25.071  1.00  0.00    -0.341 OA
BRANCH  26  27
HETATM   27  C2  UNL     1      -2.597  49.504 -24.555  1.00  0.00     0.147 C 
HETATM   28  C1  UNL     1      -3.058  48.559 -25.664  1.00  0.00     0.044 C 
BRANCH  27  29
HETATM   29  C3  UNL     1      -3.520  49.388 -23.363  1.00  0.00     0.009 C 
HETATM   30  C4  UNL     1      -3.254  48.838 -22.163  1.00  0.00     0.087 C 
BRANCH  30  31
HETATM   31  C5  UNL     1      -2.004  48.208 -21.646  1.00  0.00     0.407 C 
HETATM   32  F1  UNL     1      -2.108  47.944 -20.317  1.00  0.00    -0.167 F 
HETATM   33  F2  UNL     1      -1.772  47.021 -22.260  1.00  0.00    -0.167 F 
HETATM   34  F3  UNL     1      -0.889  48.958 -21.810  1.00  0.00    -0.167 F 
ENDBRANCH  30  31
ENDBRANCH  27  29
ENDBRANCH  26  27
ENDBRANCH   1  26
BRANCH   6  35
HETATM   35  C24 UNL     1      -1.007  51.859 -27.278  1.00  0.00     0.252 C 
HETATM   36  N4  UNL     1      -0.371  52.694 -28.157  1.00  0.00    -0.366 N 
HETATM   37  H24 UNL     1      -0.488  52.478 -29.140  1.00  0.00     0.159 HD
HETATM   38  H25 UNL     1       0.439  53.236 -27.889  1.00  0.00     0.159 HD
HETATM   39  O2  UNL     1      -1.758  50.984 -27.685  1.00  0.00    -0.268 OA
ENDBRANCH   6  35
TORSDOF 10
ENDMDL
MODEL 2
REMARK minimizedAffinity -8.77490902
REMARK CNNscore 0.747525692
REMARK CNNaffinity 7.547544
REMARK  10 active torsions:
REMARK  status: ('A' for Active; 'I' for Inactive)
REMARK    1  A    between atoms: C2_2  and  C3_3 
REMARK    2  A    between atoms: C2_2  and  O1_9 
REMARK    3  A    between atoms: C4_4  and  C5_5 
REMARK    4  A    between atoms: O1_9  and  C6_10 
REMARK    5  A    between atoms: C8_12  and  C9_13 
REMARK    6  A    between atoms: C11_15  and  C12_16 
REMARK    7  A    between atoms: C14_18  and  C15_19 
REMARK    8  A    between atoms: C15_19  and  N1_20 
REMARK    9  A    between atoms: C20_28  and  N3_29 
REMARK   10  A    between atoms: C23_32  and  C24_33 
REMARK       I    between atoms: C24_33  and  N4_34 
ROOT
HETATM    1  C6  UNL     1       0.080  52.100 -22.297  1.00  0.00     0.086 A 
HETATM    2  C7  UNL     1      -0.892  51.185 -22.725  1.00  0.00     0.050 A 
HETATM    3  C8  UNL     1      -1.908  50.753 -21.861  1.00  0.00    -0.020 A 
HETATM    4  C21 UNL     1      -1.962  51.302 -20.572  1.00  0.00     0.013 A 
HETATM    5  C22 UNL     1      -1.023  52.252 -20.155  1.00  0.00     0.021 A 
HETATM    6  C23 UNL     1       0.009  52.654 -21.013  1.00  0.00     0.065 A 
ENDROOT
BRANCH   3   7
HETATM    7  C9  UNL     1      -2.883  49.742 -22.298  1.00  0.00     0.013 A 
HETATM    8  C10 UNL     1      -3.166  49.584 -23.667  1.00  0.00     0.029 A 
HETATM    9  C11 UNL     1      -4.090  48.632 -24.104  1.00  0.00    -0.003 A 
HETATM   10  C19 UNL     1      -4.709  47.870 -23.119  1.00  0.00     0.102 A 
HETATM   11  N2  UNL     1      -4.468  47.982 -21.791  1.00  0.00    -0.355 N 
HETATM   12  C20 UNL     1      -3.561  48.899 -21.402  1.00  0.00     0.088 A 
ATOM     13  H2  UNL     1      -4.954  47.395 -21.113  1.00  0.00     0.166 HD
BRANCH   9  14
HETATM   14  C12 UNL     1      -4.422  48.445 -25.519  1.00  0.00     0.017 A 
HETATM   15  C13 UNL     1      -5.630  48.075 -26.081  1.00  0.00     0.029 A 
HETATM   16  C14 UNL     1      -5.584  47.949 -27.512  1.00  0.00    -0.022 A 
HETATM   17  C18 UNL     1      -4.323  48.267 -27.979  1.00  0.00     0.059 A 
HETATM   18  S1  UNL     1      -3.227  48.654 -26.729  1.00  0.00    -0.101 SA
BRANCH  16  19
HETATM   19  C15 UNL     1      -6.758  47.578 -28.380  1.00  0.00     0.310 C 
BRANCH  19  20
HETATM   20  N1  UNL     1      -7.239  46.206 -28.185  1.00  0.00     0.084 N 
HETATM   21  C16 UNL     1      -8.517  46.124 -27.486  1.00  0.00     0.309 C 
HETATM   22  C17 UNL     1      -7.241  45.402 -29.401  1.00  0.00     0.309 C 
ENDBRANCH  19  20
ENDBRANCH  16  19
ENDBRANCH   9  14
BRANCH  12  23
HETATM   23  N3  UNL     1      -3.363  48.972 -20.022  1.00  0.00    -0.288 NA
HETATM   24  H20 UNL     1      -3.906  48.221 -19.605  1.00  0.00     0.125 HD
HETATM   25  H21 UNL     1      -2.376  48.900 -19.787  1.00  0.00     0.125 HD
ENDBRANCH  12  23
ENDBRANCH   3   7
BRANCH   1  26
HETATM   26  O1  UNL     1       1.060  52.401 -23.208  1.00  0.00    -0.341 OA
BRANCH  26  27
HETATM   27  C2  UNL     1       0.524  52.934 -24.432  1.00  0.00     0.147 C 
HETATM   28  C1  UNL     1      -0.985  53.088 -24.241  1.00  0.00     0.044 C 
BRANCH  27  29
HETATM   29  C3  UNL     1       0.804  51.954 -25.548  1.00  0.00     0.009 C 
HETATM   30  C4  UNL     1       0.540  52.100 -26.861  1.00  0.00     0.087 C 
BRANCH  30  31
HETATM   31  C5  UNL     1      -0.076  53.240 -27.601  1.00  0.00     0.407 C 
HETATM   32  F1  UNL     1      -1.433  53.176 -27.549  1.00  0.00    -0.167 F 
HETATM   33  F2  UNL     1       0.278  54.425 -27.044  1.00  0.00    -0.167 F 
HETATM   34  F3  UNL     1       0.261  53.306 -28.910  1.00  0.00    -0.167 F 
ENDBRANCH  30  31
ENDBRANCH  27  29
ENDBRANCH  26  27
ENDBRANCH   1  26
BRANCH   6  35
HETATM   35  C24 UNL     1       0.990  53.668 -20.546  1.00  0.00     0.252 C 
HETATM   36  N4  UNL     1       1.407  53.559 -19.246  1.00  0.00    -0.366 N 
HETATM   37  H24 UNL     1       2.163  54.172 -18.968  1.00  0.00     0.159 HD
HETATM   38  H25 UNL     1       1.266  52.714 -18.709  1.00  0.00     0.159 HD
HETATM   39  O2  UNL     1       1.443  54.542 -21.272  1.00  0.00    -0.268 OA
ENDBRANCH   6  35
TORSDOF 10
ENDMDL
MODEL 3
REMARK minimizedAffinity -8.66069031
REMARK CNNscore 0.741804481
REMARK CNNaffinity 7.85810804
REMARK  10 active torsions:
REMARK  status: ('A' for Active; 'I' for Inactive)
REMARK    1  A    between atoms: C2_2  and  C3_3 
REMARK    2  A    between atoms: C2_2  and  O1_9 
REMARK    3  A    between atoms: C4_4  and  C5_5 
REMARK    4  A    between atoms: O1_9  and  C6_10 
REMARK    5  A    between atoms: C8_12  and  C9_13 
REMARK    6  A    between atoms: C11_15  and  C12_16 
REMARK    7  A    between atoms: C14_18  and  C15_19 
REMARK    8  A    between atoms: C15_19  and  N1_20 
REMARK    9  A    between atoms: C20_28  and  N3_29 
REMARK   10  A    between atoms: C23_32  and  C24_33 
REMARK       I    between atoms: C24_33  and  N4_34 
ROOT
HETATM    1  C6  UNL     1      -0.102  50.858 -19.116  1.00  0.00     0.086 A 
HETATM    2  C7  UNL     1      -0.043  51.222 -20.468  1.00  0.00     0.050 A 
HETATM    3  C8  UNL     1       0.399  52.495 -20.855  1.00  0.00    -0.020 A 
HETATM    4  C21 UNL     1       0.835  53.378 -19.857  1.00  0.00     0.013 A 
HETATM    5  C22 UNL     1       0.824  53.004 -18.509  1.00  0.00     0.021 A 
HETATM    6  C23 UNL     1       0.349  51.742 -18.127  1.00  0.00     0.065 A 
ENDROOT
BRANCH   3   7
HETATM    7  C9  UNL     1       0.393  52.892 -22.272  1.00  0.00     0.013 A 
HETATM    8  C10 UNL     1      -0.359  52.154 -23.204  1.00  0.00     0.029 A 
HETATM    9  C11 UNL     1      -0.377  52.511 -24.554  1.00  0.00    -0.003 A 
HETATM   10  C19 UNL     1       0.387  53.615 -24.915  1.00  0.00     0.102 A 
HETATM   11  N2  UNL     1       1.124  54.358 -24.055  1.00  0.00    -0.355 N 
HETATM   12  C20 UNL     1       1.110  53.998 -22.757  1.00  0.00     0.088 A 
ATOM     13  H2  UNL     1       1.667  55.159 -24.377  1.00  0.00     0.166 HD
BRANCH   9  14
HETATM   14  C12 UNL     1      -1.135  51.762 -25.559  1.00  0.00     0.017 A 
HETATM   15  C13 UNL     1      -1.629  50.472 -25.485  1.00  0.00     0.029 A 
HETATM   16  C14 UNL     1      -2.296  50.041 -26.683  1.00  0.00    -0.022 A 
HETATM   17  C18 UNL     1      -2.303  51.059 -27.618  1.00  0.00     0.059 A 
HETATM   18  S1  UNL     1      -1.491  52.461 -27.083  1.00  0.00    -0.101 SA
BRANCH  16  19
HETATM   19  C15 UNL     1      -2.943  48.694 -26.869  1.00  0.00     0.310 C 
BRANCH  19  20
HETATM   20  N1  UNL     1      -4.400  48.745 -27.034  1.00  0.00     0.084 N 
HETATM   21  C16 UNL     1      -4.871  48.171 -28.289  1.00  0.00     0.309 C 
HETATM   22  C17 UNL     1      -5.143  48.222 -25.894  1.00  0.00     0.309 C 
ENDBRANCH  19  20
ENDBRANCH  16  19
ENDBRANCH   9  14
BRANCH  12  23
HETATM   23  N3  UNL     1       1.893  54.797 -21.923  1.00  0.00    -0.288 NA
HETATM   24  H20 UNL     1       2.246  55.562 -22.492  1.00  0.00     0.125 HD
HETATM   25  H21 UNL     1       1.358  55.134 -21.126  1.00  0.00     0.125 HD
ENDBRANCH  12  23
ENDBRANCH   3   7
BRANCH   1  26
HETATM   26  O1  UNL     1      -0.609  49.610 -18.854  1.00  0.00    -0.341 OA
BRANCH  26  27
HETATM   27  C2  UNL     1      -1.897  49.405 -19.462  1.00  0.00     0.147 C 
HETATM   28  C1  UNL     1      -2.947  49.520 -18.358  1.00  0.00     0.044 C 
BRANCH  27  29
HETATM   29  C3  UNL     1      -1.931  48.018 -20.062  1.00  0.00     0.009 C 
HETATM   30  C4  UNL     1      -2.249  47.671 -21.324  1.00  0.00     0.087 C 
BRANCH  30  31
HETATM   31  C5  UNL     1      -2.639  48.519 -22.489  1.00  0.00     0.407 C 
HETATM   32  F1  UNL     1      -3.833  49.129 -22.266  1.00  0.00    -0.167 F 
HETATM   33  F2  UNL     1      -1.731  49.506 -22.694  1.00  0.00    -0.167 F 
HETATM   34  F3  UNL     1      -2.757  47.846 -23.657  1.00  0.00    -0.167 F 
ENDBRANCH  30  31
ENDBRANCH  27  29
ENDBRANCH  26  27
ENDBRANCH   1  26
BRANCH   6  35
HETATM   35  C24 UNL     1       0.354  51.367 -16.689  1.00  0.00     0.252 C 
HETATM   36  N4  UNL     1       1.562  51.434 -16.046  1.00  0.00    -0.366 N 
HETATM   37  H24 UNL     1       1.539  51.299 -15.043  1.00  0.00     0.159 HD
HETATM   38  H25 UNL     1       2.346  51.938 -16.435  1.00  0.00     0.159 HD
HETATM   39  O2  UNL     1      -0.657  51.047 -16.080  1.00  0.00    -0.268 OA
ENDBRANCH   6  35
TORSDOF 10
ENDMDL
MODEL 4
REMARK minimizedAffinity -8.51065254
REMARK CNNscore 0.640091896
REMARK CNNaffinity 7.60298586
REMARK  10 active torsions:
REMARK  status: ('A' for Active; 'I' for Inactive)
REMARK    1  A    between atoms: C2_2  and  C3_3 
REMARK    2  A    between atoms: C2_2  and  O1_9 
REMARK    3  A    between atoms: C4_4  and  C5_5 
REMARK    4  A    between atoms: O1_9  and  C6_10 
REMARK    5  A    between atoms: C8_12  and  C9_13 
REMARK    6  A    between atoms: C11_15  and  C12_16 
REMARK    7  A    between atoms: C14_18  and  C15_19 
REMARK    8  A    between atoms: C15_19  and  N1_20 
REMARK    9  A    between atoms: C20_28  and  N3_29 
REMARK   10  A    between atoms: C23_32  and  C24_33 
REMARK       I    between atoms: C24_33  and  N4_34 
ROOT
HETATM    1  C6  UNL     1      -1.547  52.103 -24.937  1.00  0.00     0.086 A 
HETATM    2  C7  UNL     1      -1.216  52.152 -23.576  1.00  0.00     0.050 A 
HETATM    3  C8  UNL     1      -0.061  52.815 -23.136  1.00  0.00    -0.020 A 
HETATM    4  C21 UNL     1       0.727  53.477 -24.088  1.00  0.00     0.013 A 
HETATM    5  C22 UNL     1       0.376  53.472 -25.442  1.00  0.00     0.021 A 
HETATM    6  C23 UNL     1      -0.761  52.780 -25.879  1.00  0.00     0.065 A 
ENDROOT
BRANCH   3   7
HETATM    7  C9  UNL     1       0.313  52.803 -21.714  1.00  0.00     0.013 A 
HETATM    8  C10 UNL     1      -0.145  51.771 -20.876  1.00  0.00     0.029 A 
HETATM    9  C11 UNL     1       0.196  51.740 -19.521  1.00  0.00    -0.003 A 
HETATM   10  C19 UNL     1       0.996  52.780 -19.060  1.00  0.00     0.102 A 
HETATM   11  N2  UNL     1       1.464  53.793 -19.827  1.00  0.00    -0.355 N 
HETATM   12  C20 UNL     1       1.130  53.786 -21.132  1.00  0.00     0.088 A 
ATOM     13  H2  UNL     1       2.047  54.531 -19.432  1.00  0.00     0.166 HD
BRANCH   9  14
HETATM   14  C12 UNL     1      -0.272  50.691 -18.612  1.00  0.00     0.017 A 
HETATM   15  C13 UNL     1       0.207  50.357 -17.358  1.00  0.00     0.029 A 
HETATM   16  C14 UNL     1      -0.470  49.239 -16.763  1.00  0.00    -0.022 A 
HETATM   17  C18 UNL     1      -1.474  48.787 -17.599  1.00  0.00     0.059 A 
HETATM   18  S1  UNL     1      -1.558  49.653 -19.067  1.00  0.00    -0.101 SA
BRANCH  16  19
HETATM   19  C15 UNL     1      -0.166  48.677 -15.399  1.00  0.00     0.310 C 
BRANCH  19  20
HETATM   20  N1  UNL     1      -0.352  49.633 -14.301  1.00  0.00     0.084 N 
HETATM   21  C16 UNL     1      -1.499  49.336 -13.451  1.00  0.00     0.309 C 
HETATM   22  C17 UNL     1       0.852  49.868 -13.513  1.00  0.00     0.309 C 
ENDBRANCH  19  20
ENDBRANCH  16  19
ENDBRANCH   9  14
BRANCH  12  23
HETATM   23  N3  UNL     1       1.637  54.859 -21.868  1.00  0.00    -0.288 NA
HETATM   24  H20 UNL     1       2.247  55.383 -21.246  1.00  0.00     0.125 HD
HETATM   25  H21 UNL     1       2.129  54.538 -22.698  1.00  0.00     0.125 HD
ENDBRANCH  12  23
ENDBRANCH   3   7
BRANCH   1  26
HETATM   26  O1  UNL     1      -2.665  51.375 -25.255  1.00  0.00    -0.341 OA
BRANCH  26  27
HETATM   27  C2  UNL     1      -3.137  50.586 -24.148  1.00  0.00     0.147 C 
HETATM   28  C1  UNL     1      -3.048  49.117 -24.563  1.00  0.00     0.044 C 
BRANCH  27  29
HETATM   29  C3  UNL     1      -4.576  50.957 -23.871  1.00  0.00     0.009 C 
HETATM   30  C4  UNL     1      -5.201  51.010 -22.679  1.00  0.00     0.087 C 
BRANCH  30  31
HETATM   31  C5  UNL     1      -4.682  50.746 -21.305  1.00  0.00     0.407 C 
HETATM   32  F1  UNL     1      -3.700  51.627 -20.979  1.00  0.00    -0.167 F 
HETATM   33  F2  UNL     1      -5.663  50.897 -20.381  1.00  0.00    -0.167 F 
HETATM   34  F3  UNL     1      -4.168  49.506 -21.130  1.00  0.00    -0.167 F 
ENDBRANCH  30  31
ENDBRANCH  27  29
ENDBRANCH  26  27
ENDBRANCH   1  26
BRANCH   6  35
HETATM   35  C24 UNL     1      -1.114  52.796 -27.322  1.00  0.00     0.252 C 
HETATM   36  N4  UNL     1      -1.196  51.578 -27.943  1.00  0.00    -0.366 N 
HETATM   37  H24 UNL     1      -1.555  51.584 -28.889  1.00  0.00     0.159 HD
HETATM   38  H25 UNL     1      -1.265  50.716 -27.420  1.00  0.00     0.159 HD
HETATM   39  O2  UNL     1      -1.357  53.825 -27.938  1.00  0.00    -0.268 OA
ENDBRANCH   6  35
TORSDOF 10
ENDMDL
MODEL 5
REMARK minimizedAffinity -8.03939724
REMARK CNNscore 0.611926973
REMARK CNNaffinity 7.53874969
REMARK  10 active torsions:
REMARK  status: ('A' for Active; 'I' for Inactive)
REMARK    1  A    between atoms: C2_2  and  C3_3 
REMARK    2  A    between atoms: C2_2  and  O1_9 
REMARK    3  A    between atoms: C4_4  and  C5_5 
REMARK    4  A    between atoms: O1_9  and  C6_10 
REMARK    5  A    between atoms: C8_12  and  C9_13 
REMARK    6  A    between atoms: C11_15  and  C12_16 
REMARK    7  A    between atoms: C14_18  and  C15_19 
REMARK    8  A    between atoms: C15_19  and  N1_20 
REMARK    9  A    between atoms: C20_28  and  N3_29 
REMARK   10  A    between atoms: C23_32  and  C24_33 
REMARK       I    between atoms: C24_33  and  N4_34 
ROOT
HETATM    1  C6  UNL     1      -0.840  50.836 -17.306  1.00  0.00     0.086 A 
HETATM    2  C7  UNL     1      -0.546  51.576 -18.460  1.00  0.00     0.050 A 
HETATM    3  C8  UNL     1      -0.451  50.954 -19.713  1.00  0.00    -0.020 A 
HETATM    4  C21 UNL     1      -0.712  49.579 -19.793  1.00  0.00     0.013 A 
HETATM    5  C22 UNL     1      -1.053  48.843 -18.653  1.00  0.00     0.021 A 
HETATM    6  C23 UNL     1      -1.114  49.465 -17.399  1.00  0.00     0.065 A 
ENDROOT
BRANCH   3   7
HETATM    7  C9  UNL     1      -0.075  51.728 -20.907  1.00  0.00     0.013 A 
HETATM    8  C10 UNL     1      -0.499  51.304 -22.179  1.00  0.00     0.029 A 
HETATM    9  C11 UNL     1      -0.152  52.022 -23.327  1.00  0.00    -0.003 A 
HETATM   10  C19 UNL     1       0.631  53.155 -23.137  1.00  0.00     0.102 A 
HETATM   11  N2  UNL     1       1.060  53.604 -21.934  1.00  0.00    -0.355 N 
HETATM   12  C20 UNL     1       0.697  52.899 -20.845  1.00  0.00     0.088 A 
ATOM     13  H2  UNL     1       1.635  54.443 -21.855  1.00  0.00     0.166 HD
BRANCH   9  14
HETATM   14  C12 UNL     1      -0.561  51.607 -24.671  1.00  0.00     0.017 A 
HETATM   15  C13 UNL     1      -1.813  51.220 -25.113  1.00  0.00     0.029 A 
HETATM   16  C14 UNL     1      -1.842  50.837 -26.498  1.00  0.00    -0.022 A 
HETATM   17  C18 UNL     1      -0.587  50.986 -27.061  1.00  0.00     0.059 A 
HETATM   18  S1  UNL     1       0.586  51.519 -25.942  1.00  0.00    -0.101 SA
BRANCH  16  19
HETATM   19  C15 UNL     1      -3.074  50.394 -27.241  1.00  0.00     0.310 C 
BRANCH  19  20
HETATM   20  N1  UNL     1      -3.320  48.948 -27.186  1.00  0.00     0.084 N 
HETATM   21  C16 UNL     1      -3.548  48.441 -25.838  1.00  0.00     0.309 C 
HETATM   22  C17 UNL     1      -4.349  48.489 -28.111  1.00  0.00     0.309 C 
ENDBRANCH  19  20
ENDBRANCH  16  19
ENDBRANCH   9  14
BRANCH  12  23
HETATM   23  N3  UNL     1       1.176  53.408 -19.636  1.00  0.00    -0.288 NA
HETATM   24  H20 UNL     1       1.639  54.288 -19.848  1.00  0.00     0.125 HD
HETATM   25  H21 UNL     1       0.423  53.530 -18.963  1.00  0.00     0.125 HD
ENDBRANCH  12  23
ENDBRANCH   3   7
BRANCH   1  26
HETATM   26  O1  UNL     1      -0.846  51.540 -16.129  1.00  0.00    -0.341 OA
BRANCH  26  27
HETATM   27  C2  UNL     1       0.436  51.524 -15.476  1.00  0.00     0.147 C 
HETATM   28  C1  UNL     1       0.237  52.086 -14.068  1.00  0.00     0.044 C 
BRANCH  27  29
HETATM   29  C3  UNL     1       1.384  52.408 -16.254  1.00  0.00     0.009 C 
HETATM   30  C4  UNL     1       2.717  52.530 -16.096  1.00  0.00     0.087 C 
BRANCH  30  31
HETATM   31  C5  UNL     1       3.643  51.843 -15.149  1.00  0.00     0.407 C 
HETATM   32  F1  UNL     1       3.577  52.406 -13.913  1.00  0.00    -0.167 F 
HETATM   33  F2  UNL     1       3.304  50.539 -15.000  1.00  0.00    -0.167 F 
HETATM   34  F3  UNL     1       4.944  51.869 -15.520  1.00  0.00    -0.167 F 
ENDBRANCH  30  31
ENDBRANCH  27  29
ENDBRANCH  26  27
ENDBRANCH   1  26
BRANCH   6  35
HETATM   35  C24 UNL     1      -1.484  48.662 -16.205  1.00  0.00     0.252 C 
HETATM   36  N4  UNL     1      -0.536  47.787 -15.742  1.00  0.00    -0.366 N 
HETATM   37  H24 UNL     1      -0.743  47.334 -14.861  1.00  0.00     0.159 HD
HETATM   38  H25 UNL     1       0.433  47.853 -16.021  1.00  0.00     0.159 HD
HETATM   39  O2  UNL     1      -2.555  48.780 -15.627  1.00  0.00    -0.268 OA
ENDBRANCH   6  35
TORSDOF 10
ENDMDL
MODEL 6
REMARK minimizedAffinity -9.12240028
REMARK CNNscore 0.542704582
REMARK CNNaffinity 7.43310499
REMARK  10 active torsions:
REMARK  status: ('A' for Active; 'I' for Inactive)
REMARK    1  A    between atoms: C2_2  and  C3_3 
REMARK    2  A    between atoms: C2_2  and  O1_9 
REMARK    3  A    between atoms: C4_4  and  C5_5 
REMARK    4  A    between atoms: O1_9  and  C6_10 
REMARK    5  A    between atoms: C8_12  and  C9_13 
REMARK    6  A    between atoms: C11_15  and  C12_16 
REMARK    7  A    between atoms: C14_18  and  C15_19 
REMARK    8  A    between atoms: C15_19  and  N1_20 
REMARK    9  A    between atoms: C20_28  and  N3_29 
REMARK   10  A    between atoms: C23_32  and  C24_33 
REMARK       I    between atoms: C24_33  and  N4_34 
ROOT
HETATM    1  C6  UNL     1      -0.575  51.714 -25.442  1.00  0.00     0.086 A 
HETATM    2  C7  UNL     1      -0.394  51.748 -24.052  1.00  0.00     0.050 A 
HETATM    3  C8  UNL     1       0.214  52.847 -23.429  1.00  0.00    -0.020 A 
HETATM    4  C21 UNL     1       0.586  53.940 -24.225  1.00  0.00     0.013 A 
HETATM    5  C22 UNL     1       0.364  53.933 -25.606  1.00  0.00     0.021 A 
HETATM    6  C23 UNL     1      -0.213  52.816 -26.227  1.00  0.00     0.065 A 
ENDROOT
BRANCH   3   7
HETATM    7  C9  UNL     1       0.461  52.844 -21.979  1.00  0.00     0.013 A 
HETATM    8  C10 UNL     1      -0.047  51.803 -21.182  1.00  0.00     0.029 A 
HETATM    9  C11 UNL     1       0.174  51.781 -19.803  1.00  0.00    -0.003 A 
HETATM   10  C19 UNL     1       0.906  52.838 -19.275  1.00  0.00     0.102 A 
HETATM   11  N2  UNL     1       1.418  53.861 -20.000  1.00  0.00    -0.355 N 
HETATM   12  C20 UNL     1       1.200  53.846 -21.329  1.00  0.00     0.088 A 
ATOM     13  H2  UNL     1       1.947  54.612 -19.557  1.00  0.00     0.166 HD
BRANCH   9  14
HETATM   14  C12 UNL     1      -0.350  50.722 -18.936  1.00  0.00     0.017 A 
HETATM   15  C13 UNL     1       0.017  50.405 -17.641  1.00  0.00     0.029 A 
HETATM   16  C14 UNL     1      -0.683  49.270 -17.106  1.00  0.00    -0.022 A 
HETATM   17  C18 UNL     1      -1.591  48.789 -18.031  1.00  0.00     0.059 A 
HETATM   18  S1  UNL     1      -1.558  49.647 -19.506  1.00  0.00    -0.101 SA
BRANCH  16  19
HETATM   19  C15 UNL     1      -0.495  48.721 -15.716  1.00  0.00     0.310 C 
BRANCH  19  20
HETATM   20  N1  UNL     1       0.101  49.671 -14.771  1.00  0.00     0.084 N 
HETATM   21  C16 UNL     1      -0.754  49.984 -13.632  1.00  0.00     0.309 C 
HETATM   22  C17 UNL     1       1.449  49.315 -14.346  1.00  0.00     0.309 C 
ENDBRANCH  19  20
ENDBRANCH  16  19
ENDBRANCH   9  14
BRANCH  12  23
HETATM   23  N3  UNL     1       1.747  54.930 -22.020  1.00  0.00    -0.288 NA
HETATM   24  H20 UNL     1       2.288  55.467 -21.347  1.00  0.00     0.125 HD
HETATM   25  H21 UNL     1       2.318  54.619 -22.802  1.00  0.00     0.125 HD
ENDBRANCH  12  23
ENDBRANCH   3   7
BRANCH   1  26
HETATM   26  O1  UNL     1      -1.123  50.562 -25.945  1.00  0.00    -0.341 OA
BRANCH  26  27
HETATM   27  C2  UNL     1      -2.462  50.760 -26.432  1.00  0.00     0.147 C 
HETATM   28  C1  UNL     1      -3.175  51.682 -25.442  1.00  0.00     0.044 C 
BRANCH  27  29
HETATM   29  C3  UNL     1      -3.160  49.420 -26.481  1.00  0.00     0.009 C 
HETATM   30  C4  UNL     1      -3.538  48.647 -25.445  1.00  0.00     0.087 C 
BRANCH  30  31
HETATM   31  C5  UNL     1      -3.405  48.869 -23.975  1.00  0.00     0.407 C 
HETATM   32  F1  UNL     1      -2.110  49.104 -23.636  1.00  0.00    -0.167 F 
HETATM   33  F2  UNL     1      -4.113  49.958 -23.586  1.00  0.00    -0.167 F 
HETATM   34  F3  UNL     1      -3.827  47.834 -23.212  1.00  0.00    -0.167 F 
ENDBRANCH  30  31
ENDBRANCH  27  29
ENDBRANCH  26  27
ENDBRANCH   1  26
BRANCH   6  35
HETATM   35  C24 UNL     1      -0.443  52.837 -27.695  1.00  0.00     0.252 C 
HETATM   36  N4  UNL     1      -1.422  53.682 -28.146  1.00  0.00    -0.366 N 
HETATM   37  H24 UNL     1      -1.492  53.786 -29.151  1.00  0.00     0.159 HD
HETATM   38  H25 UNL     1      -1.793  54.425 -27.570  1.00  0.00     0.159 HD
HETATM   39  O2  UNL     1       0.216  52.173 -28.483  1.00  0.00    -0.268 OA
ENDBRANCH   6  35
TORSDOF 10
ENDMDL
MODEL 7
REMARK minimizedAffinity -9.35547352
REMARK CNNscore 0.539861202
REMARK CNNaffinity 7.41478586
REMARK  10 active torsions:
REMARK  status: ('A' for Active; 'I' for Inactive)
REMARK    1  A    between atoms: C2_2  and  C3_3 
REMARK    2  A    between atoms: C2_2  and  O1_9 
REMARK    3  A    between atoms: C4_4  and  C5_5 
REMARK    4  A    between atoms: O1_9  and  C6_10 
REMARK    5  A    between atoms: C8_12  and  C9_13 
REMARK    6  A    between atoms: C11_15  and  C12_16 
REMARK    7  A    between atoms: C14_18  and  C15_19 
REMARK    8  A    between atoms: C15_19  and  N1_20 
REMARK    9  A    between atoms: C20_28  and  N3_29 
REMARK   10  A    between atoms: C23_32  and  C24_33 
REMARK       I    between atoms: C24_33  and  N4_34 
ROOT
HETATM    1  C6  UNL     1      -0.968  51.628 -24.987  1.00  0.00     0.086 A 
HETATM    2  C7  UNL     1      -0.745  51.761 -23.610  1.00  0.00     0.050 A 
HETATM    3  C8  UNL     1       0.076  52.780 -23.106  1.00  0.00    -0.020 A 
HETATM    4  C21 UNL     1       0.625  53.699 -24.012  1.00  0.00     0.013 A 
HETATM    5  C22 UNL     1       0.367  53.600 -25.383  1.00  0.00     0.021 A 
HETATM    6  C23 UNL     1      -0.428  52.559 -25.883  1.00  0.00     0.065 A 
ENDROOT
BRANCH   3   7
HETATM    7  C9  UNL     1       0.359  52.870 -21.665  1.00  0.00     0.013 A 
HETATM    8  C10 UNL     1      -0.251  51.972 -20.772  1.00  0.00     0.029 A 
HETATM    9  C11 UNL     1       0.001  52.041 -19.400  1.00  0.00    -0.003 A 
HETATM   10  C19 UNL     1       0.871  53.041 -18.979  1.00  0.00     0.102 A 
HETATM   11  N2  UNL     1       1.485  53.926 -19.799  1.00  0.00    -0.355 N 
HETATM   12  C20 UNL     1       1.233  53.825 -21.118  1.00  0.00     0.088 A 
ATOM     13  H2  UNL     1       2.114  54.641 -19.432  1.00  0.00     0.166 HD
BRANCH   9  14
HETATM   14  C12 UNL     1      -0.625  51.134 -18.435  1.00  0.00     0.017 A 
HETATM   15  C13 UNL     1      -0.021  50.227 -17.584  1.00  0.00     0.029 A 
HETATM   16  C14 UNL     1      -0.952  49.467 -16.797  1.00  0.00    -0.022 A 
HETATM   17  C18 UNL     1      -2.247  49.865 -17.073  1.00  0.00     0.059 A 
HETATM   18  S1  UNL     1      -2.330  51.075 -18.274  1.00  0.00    -0.101 SA
BRANCH  16  19
HETATM   19  C15 UNL     1      -0.569  48.427 -15.777  1.00  0.00     0.310 C 
BRANCH  19  20
HETATM   20  N1  UNL     1       0.746  48.646 -15.162  1.00  0.00     0.084 N 
HETATM   21  C16 UNL     1       0.720  49.563 -14.029  1.00  0.00     0.309 C 
HETATM   22  C17 UNL     1       1.458  47.416 -14.839  1.00  0.00     0.309 C 
ENDBRANCH  19  20
ENDBRANCH  16  19
ENDBRANCH   9  14
BRANCH  12  23
HETATM   23  N3  UNL     1       1.889  54.769 -21.911  1.00  0.00    -0.288 NA
HETATM   24  H20 UNL     1       2.509  55.290 -21.297  1.00  0.00     0.125 HD
HETATM   25  H21 UNL     1       2.397  54.323 -22.671  1.00  0.00     0.125 HD
ENDBRANCH  12  23
ENDBRANCH   3   7
BRANCH   1  26
HETATM   26  O1  UNL     1      -1.738  50.558 -25.367  1.00  0.00    -0.341 OA
BRANCH  26  27
HETATM   27  C2  UNL     1      -3.119  50.915 -25.551  1.00  0.00     0.147 C 
HETATM   28  C1  UNL     1      -3.409  52.105 -24.636  1.00  0.00     0.044 C 
BRANCH  27  29
HETATM   29  C3  UNL     1      -3.979  49.737 -25.152  1.00  0.00     0.009 C 
HETATM   30  C4  UNL     1      -4.400  48.721 -25.929  1.00  0.00     0.087 C 
BRANCH  30  31
HETATM   31  C5  UNL     1      -4.146  48.440 -27.373  1.00  0.00     0.407 C 
HETATM   32  F1  UNL     1      -4.179  49.586 -28.103  1.00  0.00    -0.167 F 
HETATM   33  F2  UNL     1      -2.913  47.902 -27.550  1.00  0.00    -0.167 F 
HETATM   34  F3  UNL     1      -5.031  47.588 -27.942  1.00  0.00    -0.167 F 
ENDBRANCH  30  31
ENDBRANCH  27  29
ENDBRANCH  26  27
ENDBRANCH   1  26
BRANCH   6  35
HETATM   35  C24 UNL     1      -0.691  52.481 -27.343  1.00  0.00     0.252 C 
HETATM   36  N4  UNL     1      -1.622  53.353 -27.842  1.00  0.00    -0.366 N 
HETATM   37  H24 UNL     1      -1.709  53.382 -28.850  1.00  0.00     0.159 HD
HETATM   38  H25 UNL     1      -1.930  54.162 -27.320  1.00  0.00     0.159 HD
HETATM   39  O2  UNL     1      -0.097  51.714 -28.088  1.00  0.00    -0.268 OA
ENDBRANCH   6  35
TORSDOF 10
ENDMDL
MODEL 8
REMARK minimizedAffinity -8.97336006
REMARK CNNscore 0.531123161
REMARK CNNaffinity 7.54900551
REMARK  10 active torsions:
REMARK  status: ('A' for Active; 'I' for Inactive)
REMARK    1  A    between atoms: C2_2  and  C3_3 
REMARK    2  A    between atoms: C2_2  and  O1_9 
REMARK    3  A    between atoms: C4_4  and  C5_5 
REMARK    4  A    between atoms: O1_9  and  C6_10 
REMARK    5  A    between atoms: C8_12  and  C9_13 
REMARK    6  A    between atoms: C11_15  and  C12_16 
REMARK    7  A    between atoms: C14_18  and  C15_19 
REMARK    8  A    between atoms: C15_19  and  N1_20 
REMARK    9  A    between atoms: C20_28  and  N3_29 
REMARK   10  A    between atoms: C23_32  and  C24_33 
REMARK       I    between atoms: C24_33  and  N4_34 
ROOT
HETATM    1  C6  UNL     1      -1.002  51.880 -25.194  1.00  0.00     0.086 A 
HETATM    2  C7  UNL     1      -0.786  51.898 -23.809  1.00  0.00     0.050 A 
HETATM    3  C8  UNL     1       0.022  52.879 -23.216  1.00  0.00    -0.020 A 
HETATM    4  C21 UNL     1       0.565  53.877 -24.037  1.00  0.00     0.013 A 
HETATM    5  C22 UNL     1       0.314  53.892 -25.413  1.00  0.00     0.021 A 
HETATM    6  C23 UNL     1      -0.468  52.890 -26.004  1.00  0.00     0.065 A 
ENDROOT
BRANCH   3   7
HETATM    7  C9  UNL     1       0.299  52.849 -21.771  1.00  0.00     0.013 A 
HETATM    8  C10 UNL     1      -0.305  51.872 -20.961  1.00  0.00     0.029 A 
HETATM    9  C11 UNL     1      -0.059  51.826 -19.586  1.00  0.00    -0.003 A 
HETATM   10  C19 UNL     1       0.797  52.796 -19.077  1.00  0.00     0.102 A 
HETATM   11  N2  UNL     1       1.404  53.755 -19.816  1.00  0.00    -0.355 N 
HETATM   12  C20 UNL     1       1.159  53.763 -21.141  1.00  0.00     0.088 A 
ATOM     13  H2  UNL     1       2.023  54.443 -19.387  1.00  0.00     0.166 HD
BRANCH   9  14
HETATM   14  C12 UNL     1      -0.679  50.833 -18.705  1.00  0.00     0.017 A 
HETATM   15  C13 UNL     1      -1.895  50.190 -18.848  1.00  0.00     0.029 A 
HETATM   16  C14 UNL     1      -2.206  49.300 -17.764  1.00  0.00    -0.022 A 
HETATM   17  C18 UNL     1      -1.172  49.286 -16.845  1.00  0.00     0.059 A 
HETATM   18  S1  UNL     1       0.099  50.347 -17.257  1.00  0.00    -0.101 SA
BRANCH  16  19
HETATM   19  C15 UNL     1      -3.452  48.460 -17.672  1.00  0.00     0.310 C 
BRANCH  19  20
HETATM   20  N1  UNL     1      -3.800  47.763 -18.916  1.00  0.00     0.084 N 
HETATM   21  C16 UNL     1      -4.676  48.530 -19.795  1.00  0.00     0.309 C 
HETATM   22  C17 UNL     1      -2.650  47.232 -19.637  1.00  0.00     0.309 C 
ENDBRANCH  19  20
ENDBRANCH  16  19
ENDBRANCH   9  14
BRANCH  12  23
HETATM   23  N3  UNL     1       1.807  54.779 -21.846  1.00  0.00    -0.288 NA
HETATM   24  H20 UNL     1       2.419  55.253 -21.187  1.00  0.00     0.125 HD
HETATM   25  H21 UNL     1       2.324  54.405 -22.639  1.00  0.00     0.125 HD
ENDBRANCH  12  23
ENDBRANCH   3   7
BRANCH   1  26
HETATM   26  O1  UNL     1      -1.758  50.838 -25.667  1.00  0.00    -0.341 OA
BRANCH  26  27
HETATM   27  C2  UNL     1      -3.157  51.168 -25.744  1.00  0.00     0.147 C 
HETATM   28  C1  UNL     1      -3.377  52.423 -24.899  1.00  0.00     0.044 C 
BRANCH  27  29
HETATM   29  C3  UNL     1      -3.955  50.018 -25.174  1.00  0.00     0.009 C 
HETATM   30  C4  UNL     1      -4.371  48.905 -25.810  1.00  0.00     0.087 C 
BRANCH  30  31
HETATM   31  C5  UNL     1      -4.167  48.468 -27.222  1.00  0.00     0.407 C 
HETATM   32  F1  UNL     1      -4.308  49.514 -28.079  1.00  0.00    -0.167 F 
HETATM   33  F2  UNL     1      -2.913  47.984 -27.402  1.00  0.00    -0.167 F 
HETATM   34  F3  UNL     1      -5.022  47.504 -27.638  1.00  0.00    -0.167 F 
ENDBRANCH  30  31
ENDBRANCH  27  29
ENDBRANCH  26  27
ENDBRANCH   1  26
BRANCH   6  35
HETATM   35  C24 UNL     1      -0.724  52.933 -27.467  1.00  0.00     0.252 C 
HETATM   36  N4  UNL     1      -0.337  51.833 -28.185  1.00  0.00    -0.366 N 
HETATM   37  H24 UNL     1      -0.623  51.813 -29.156  1.00  0.00     0.159 HD
HETATM   38  H25 UNL     1      -0.127  50.951 -27.740  1.00  0.00     0.159 HD
HETATM   39  O2  UNL     1      -1.279  53.872 -28.019  1.00  0.00    -0.268 OA
ENDBRANCH   6  35
TORSDOF 10
ENDMDL
MODEL 9
REMARK minimizedAffinity -8.94982147
REMARK CNNscore 0.470779896
REMARK CNNaffinity 7.80324364
REMARK  10 active torsions:
REMARK  status: ('A' for Active; 'I' for Inactive)
REMARK    1  A    between atoms: C2_2  and  C3_3 
REMARK    2  A    between atoms: C2_2  and  O1_9 
REMARK    3  A    between atoms: C4_4  and  C5_5 
REMARK    4  A    between atoms: O1_9  and  C6_10 
REMARK    5  A    between atoms: C8_12  and  C9_13 
REMARK    6  A    between atoms: C11_15  and  C12_16 
REMARK    7  A    between atoms: C14_18  and  C15_19 
REMARK    8  A    between atoms: C15_19  and  N1_20 
REMARK    9  A    between atoms: C20_28  and  N3_29 
REMARK   10  A    between atoms: C23_32  and  C24_33 
REMARK       I    between atoms: C24_33  and  N4_34 
ROOT
HETATM    1  C6  UNL     1      -2.777  51.449 -25.347  1.00  0.00     0.086 A 
HETATM    2  C7  UNL     1      -2.068  52.133 -24.350  1.00  0.00     0.050 A 
HETATM    3  C8  UNL     1      -0.667  52.096 -24.304  1.00  0.00    -0.020 A 
HETATM    4  C21 UNL     1       0.012  51.403 -25.316  1.00  0.00     0.013 A 
HETATM    5  C22 UNL     1      -0.688  50.757 -26.341  1.00  0.00     0.021 A 
HETATM    6  C23 UNL     1      -2.089  50.771 -26.361  1.00  0.00     0.065 A 
ENDROOT
BRANCH   3   7
HETATM    7  C9  UNL     1       0.065  52.761 -23.215  1.00  0.00     0.013 A 
HETATM    8  C10 UNL     1      -0.007  52.250 -21.907  1.00  0.00     0.029 A 
HETATM    9  C11 UNL     1       0.678  52.867 -20.857  1.00  0.00    -0.003 A 
HETATM   10  C19 UNL     1       1.414  54.002 -21.178  1.00  0.00     0.102 A 
HETATM   11  N2  UNL     1       1.516  54.530 -22.421  1.00  0.00    -0.355 N 
HETATM   12  C20 UNL     1       0.856  53.904 -23.415  1.00  0.00     0.088 A 
ATOM     13  H2  UNL     1       2.071  55.367 -22.597  1.00  0.00     0.166 HD
BRANCH   9  14
HETATM   14  C12 UNL     1       0.618  52.374 -19.478  1.00  0.00     0.017 A 
HETATM   15  C13 UNL     1       1.264  52.863 -18.357  1.00  0.00     0.029 A 
HETATM   16  C14 UNL     1       1.005  52.102 -17.166  1.00  0.00    -0.022 A 
HETATM   17  C18 UNL     1       0.130  51.067 -17.441  1.00  0.00     0.059 A 
HETATM   18  S1  UNL     1      -0.318  50.993 -19.086  1.00  0.00    -0.101 SA
BRANCH  16  19
HETATM   19  C15 UNL     1       1.561  52.422 -15.804  1.00  0.00     0.310 C 
BRANCH  19  20
HETATM   20  N1  UNL     1       2.893  51.858 -15.552  1.00  0.00     0.084 N 
HETATM   21  C16 UNL     1       3.985  52.672 -16.072  1.00  0.00     0.309 C 
HETATM   22  C17 UNL     1       3.121  51.481 -14.163  1.00  0.00     0.309 C 
ENDBRANCH  19  20
ENDBRANCH  16  19
ENDBRANCH   9  14
BRANCH  12  23
HETATM   23  N3  UNL     1       0.995  54.500 -24.670  1.00  0.00    -0.288 NA
HETATM   24  H20 UNL     1       1.665  55.256 -24.566  1.00  0.00     0.125 HD
HETATM   25  H21 UNL     1       1.293  53.823 -25.369  1.00  0.00     0.125 HD
ENDBRANCH  12  23
ENDBRANCH   3   7
BRANCH   1  26
HETATM   26  O1  UNL     1      -4.145  51.506 -25.255  1.00  0.00    -0.341 OA
BRANCH  26  27
HETATM   27  C2  UNL     1      -4.675  50.505 -24.368  1.00  0.00     0.147 C 
HETATM   28  C1  UNL     1      -5.458  51.232 -23.275  1.00  0.00     0.044 C 
BRANCH  27  29
HETATM   29  C3  UNL     1      -3.521  49.745 -23.754  1.00  0.00     0.009 C 
HETATM   30  C4  UNL     1      -3.577  48.664 -22.952  1.00  0.00     0.087 C 
BRANCH  30  31
HETATM   31  C5  UNL     1      -4.753  47.896 -22.448  1.00  0.00     0.407 C 
HETATM   32  F1  UNL     1      -4.360  46.734 -21.864  1.00  0.00    -0.167 F 
HETATM   33  F2  UNL     1      -5.421  48.601 -21.501  1.00  0.00    -0.167 F 
HETATM   34  F3  UNL     1      -5.657  47.567 -23.401  1.00  0.00    -0.167 F 
ENDBRANCH  30  31
ENDBRANCH  27  29
ENDBRANCH  26  27
ENDBRANCH   1  26
BRANCH   6  35
HETATM   35  C24 UNL     1      -2.808  50.082 -27.465  1.00  0.00     0.252 C 
HETATM   36  N4  UNL     1      -3.255  50.875 -28.489  1.00  0.00    -0.366 N 
HETATM   37  H24 UNL     1      -3.632  50.392 -29.294  1.00  0.00     0.159 HD
HETATM   38  H25 UNL     1      -2.912  51.816 -28.624  1.00  0.00     0.159 HD
HETATM   39  O2  UNL     1      -2.974  48.871 -27.500  1.00  0.00    -0.268 OA
ENDBRANCH   6  35
TORSDOF 10
ENDMDL
