MODEL 1
REMARK minimizedAffinity -8.57331657
REMARK  8 active torsions:
REMARK  status: ('A' for Active; 'I' for Inactive)
REMARK    1  A    between atoms: O1_2  and  C2_3 
REMARK    2  A    between atoms: C5_6  and  N1_7 
REMARK    3  A    between atoms: N1_7  and  C6_8 
REMARK    4  A    between atoms: C17_24  and  O2_25 
REMARK    5  A    between atoms: O2_25  and  C18_26 
REMARK    6  A    between atoms: C18_26  and  C19_27 
REMARK    7  A    between atoms: C19_27  and  C20_28 
REMARK    8  A    between atoms: C20_28  and  N5_29 
ROOT
HETATM    1  C2  UNL     1      -1.564  50.081 -21.021  1.00  0.00     0.102 A 
HETATM    2  C3  UNL     1      -0.992  50.779 -19.956  1.00  0.00     0.056 A 
HETATM    3  C4  UNL     1      -0.138  51.888 -20.185  1.00  0.00     0.032 A 
HETATM    4  C5  UNL     1       0.481  52.651 -19.175  1.00  0.00     0.098 A 
HETATM    5  N3  UNL     1       1.271  53.700 -19.459  1.00  0.00    -0.342 N 
ATOM      6  H3  UNL     1       1.725  54.242 -18.723  1.00  0.00     0.167 HD
HETATM    7  C14 UNL     1       1.434  54.001 -20.747  1.00  0.00     0.182 A 
HETATM    8  N4  UNL     1       0.901  53.345 -21.784  1.00  0.00    -0.351 N 
ATOM      9  H4  UNL     1       1.079  53.631 -22.747  1.00  0.00     0.166 HD
HETATM   10  C15 UNL     1       0.124  52.297 -21.497  1.00  0.00     0.049 A 
HETATM   11  C16 UNL     1      -0.447  51.589 -22.547  1.00  0.00     0.070 A 
HETATM   12  C17 UNL     1      -1.276  50.482 -22.335  1.00  0.00     0.104 A 
ENDROOT
BRANCH   4  13
HETATM   13  N1  UNL     1       0.323  52.246 -17.819  1.00  0.00    -0.244 NA
HETATM   14  H5  UNL     1      -0.280  51.428 -17.831  1.00  0.00     0.135 HD
BRANCH  13  15
HETATM   15  C6  UNL     1       1.363  52.087 -16.860  1.00  0.00     0.026 A 
HETATM   16  C7  UNL     1       2.549  52.835 -17.042  1.00  0.00     0.025 A 
HETATM   17  C8  UNL     1       3.640  52.722 -16.181  1.00  0.00     0.004 A 
HETATM   18  C9  UNL     1       3.613  51.834 -15.108  1.00  0.00     0.030 A 
HETATM   19  C10 UNL     1       2.465  51.051 -14.950  1.00  0.00     0.044 A 
HETATM   20  N2  UNL     1       2.190  50.083 -14.008  1.00  0.00    -0.365 N 
HETATM   21  C13 UNL     1       1.353  51.145 -15.794  1.00  0.00     0.013 A 
HETATM   22  C11 UNL     1       0.967  49.524 -14.244  1.00  0.00     0.089 A 
HETATM   23  H9  UNL     1       2.821  49.814 -13.266  1.00  0.00     0.165 HD
HETATM   24  C12 UNL     1       0.429  50.153 -15.342  1.00  0.00     0.032 A 
ENDBRANCH  13  15
ENDBRANCH   4  13
BRANCH   1  25
HETATM   25  O1  UNL     1      -2.396  49.000 -20.883  1.00  0.00    -0.353 OA
HETATM   26  C1  UNL     1      -1.856  47.816 -20.313  1.00  0.00     0.210 C 
ENDBRANCH   1  25
BRANCH  12  27
HETATM   27  O2  UNL     1      -1.874  49.752 -23.330  1.00  0.00    -0.348 OA
BRANCH  27  28
HETATM   28  C18 UNL     1      -2.460  50.429 -24.444  1.00  0.00     0.177 C 
BRANCH  28  29
HETATM   29  C19 UNL     1      -1.909  49.866 -25.753  1.00  0.00     0.057 C 
BRANCH  29  30
HETATM   30  C20 UNL     1      -1.975  50.870 -26.908  1.00  0.00     0.274 C 
BRANCH  30  31
HETATM   31  N5  UNL     1      -0.689  51.504 -27.218  1.00  0.00     0.092 N 
HETATM   32  C21 UNL     1       0.409  50.847 -26.472  1.00  0.00     0.298 C 
HETATM   33  C22 UNL     1       1.650  51.745 -26.377  1.00  0.00     0.198 C 
HETATM   34  O3  UNL     1       1.407  52.944 -25.628  1.00  0.00    -0.388 OA
HETATM   35  C23 UNL     1       0.041  53.373 -25.682  1.00  0.00     0.198 C 
HETATM   36  C24 UNL     1      -0.676  52.965 -26.980  1.00  0.00     0.298 C 
ENDBRANCH  30  31
ENDBRANCH  29  30
ENDBRANCH  28  29
ENDBRANCH  27  28
ENDBRANCH  12  27
TORSDOF 8
ENDMDL
MODEL 2
REMARK minimizedAffinity -8.38948822
REMARK  8 active torsions:
REMARK  status: ('A' for Active; 'I' for Inactive)
REMARK    1  A    between atoms: O1_2  and  C2_3 
REMARK    2  A    between atoms: C5_6  and  N1_7 
REMARK    3  A    between atoms: N1_7  and  C6_8 
REMARK    4  A    between atoms: C17_24  and  O2_25 
REMARK    5  A    between atoms: O2_25  and  C18_26 
REMARK    6  A    between atoms: C18_26  and  C19_27 
REMARK    7  A    between atoms: C19_27  and  C20_28 
REMARK    8  A    between atoms: C20_28  and  N5_29 
ROOT
HETATM    1  C2  UNL     1      -3.878  48.911 -24.727  1.00  0.00     0.102 A 
HETATM    2  C3  UNL     1      -2.912  49.641 -24.033  1.00  0.00     0.056 A 
HETATM    3  C4  UNL     1      -1.856  50.291 -24.720  1.00  0.00     0.032 A 
HETATM    4  C5  UNL     1      -0.840  51.049 -24.104  1.00  0.00     0.098 A 
HETATM    5  N3  UNL     1       0.129  51.652 -24.815  1.00  0.00    -0.342 N 
ATOM      6  H3  UNL     1       0.868  52.190 -24.363  1.00  0.00     0.167 HD
HETATM    7  C14 UNL     1       0.079  51.514 -26.141  1.00  0.00     0.182 A 
HETATM    8  N4  UNL     1      -0.833  50.816 -26.827  1.00  0.00    -0.351 N 
ATOM      9  H4  UNL     1      -0.800  50.749 -27.844  1.00  0.00     0.166 HD
HETATM   10  C15 UNL     1      -1.788  50.211 -26.115  1.00  0.00     0.049 A 
HETATM   11  C16 UNL     1      -2.752  49.475 -26.792  1.00  0.00     0.070 A 
HETATM   12  C17 UNL     1      -3.789  48.814 -26.124  1.00  0.00     0.104 A 
ENDROOT
BRANCH   4  13
HETATM   13  N1  UNL     1      -0.799  51.111 -22.682  1.00  0.00    -0.244 NA
HETATM   14  H5  UNL     1      -0.568  50.175 -22.361  1.00  0.00     0.135 HD
BRANCH  13  15
HETATM   15  C6  UNL     1      -0.124  52.090 -21.901  1.00  0.00     0.026 A 
HETATM   16  C7  UNL     1       0.598  53.097 -22.583  1.00  0.00     0.025 A 
HETATM   17  C8  UNL     1       1.324  54.079 -21.908  1.00  0.00     0.004 A 
HETATM   18  C9  UNL     1       1.388  54.089 -20.517  1.00  0.00     0.030 A 
HETATM   19  C10 UNL     1       0.721  53.067 -19.835  1.00  0.00     0.044 A 
HETATM   20  N2  UNL     1       0.650  52.823 -18.480  1.00  0.00    -0.365 N 
HETATM   21  C13 UNL     1      -0.018  52.072 -20.482  1.00  0.00     0.013 A 
HETATM   22  C11 UNL     1      -0.068  51.686 -18.240  1.00  0.00     0.089 A 
HETATM   23  H9  UNL     1       1.090  53.396 -17.773  1.00  0.00     0.165 HD
HETATM   24  C12 UNL     1      -0.487  51.197 -19.454  1.00  0.00     0.032 A 
ENDBRANCH  13  15
ENDBRANCH   4  13
BRANCH   1  25
HETATM   25  O1  UNL     1      -4.927  48.254 -24.137  1.00  0.00    -0.353 OA
HETATM   26  C1  UNL     1      -4.846  47.993 -22.742  1.00  0.00     0.210 C 
ENDBRANCH   1  25
BRANCH  12  27
HETATM   27  O2  UNL     1      -4.773  48.083 -26.740  1.00  0.00    -0.348 OA
BRANCH  27  28
HETATM   28  C18 UNL     1      -4.911  48.144 -28.161  1.00  0.00     0.177 C 
BRANCH  28  29
HETATM   29  C19 UNL     1      -6.238  47.521 -28.589  1.00  0.00     0.057 C 
BRANCH  29  30
HETATM   30  C20 UNL     1      -6.737  48.049 -29.938  1.00  0.00     0.274 C 
BRANCH  30  31
HETATM   31  N5  UNL     1      -6.213  47.313 -31.094  1.00  0.00     0.092 N 
HETATM   32  C21 UNL     1      -5.225  48.134 -31.831  1.00  0.00     0.298 C 
HETATM   33  C22 UNL     1      -5.023  47.629 -33.266  1.00  0.00     0.198 C 
HETATM   34  O3  UNL     1      -6.212  47.739 -34.063  1.00  0.00    -0.388 OA
HETATM   35  C23 UNL     1      -7.415  47.663 -33.288  1.00  0.00     0.198 C 
HETATM   36  C24 UNL     1      -7.266  46.821 -32.010  1.00  0.00     0.298 C 
ENDBRANCH  30  31
ENDBRANCH  29  30
ENDBRANCH  28  29
ENDBRANCH  27  28
ENDBRANCH  12  27
TORSDOF 8
ENDMDL
MODEL 3
REMARK minimizedAffinity -8.33472729
REMARK  8 active torsions:
REMARK  status: ('A' for Active; 'I' for Inactive)
REMARK    1  A    between atoms: O1_2  and  C2_3 
REMARK    2  A    between atoms: C5_6  and  N1_7 
REMARK    3  A    between atoms: N1_7  and  C6_8 
REMARK    4  A    between atoms: C17_24  and  O2_25 
REMARK    5  A    between atoms: O2_25  and  C18_26 
REMARK    6  A    between atoms: C18_26  and  C19_27 
REMARK    7  A    between atoms: C19_27  and  C20_28 
REMARK    8  A    between atoms: C20_28  and  N5_29 
ROOT
HETATM    1  C2  UNL     1      -2.110  49.886 -26.319  1.00  0.00     0.102 A 
HETATM    2  C3  UNL     1      -1.199  50.614 -25.554  1.00  0.00     0.056 A 
HETATM    3  C4  UNL     1      -0.777  51.907 -25.957  1.00  0.00     0.032 A 
HETATM    4  C5  UNL     1       0.135  52.714 -25.248  1.00  0.00     0.098 A 
HETATM    5  N3  UNL     1       0.486  53.939 -25.678  1.00  0.00    -0.342 N 
ATOM      6  H3  UNL     1       1.156  54.513 -25.166  1.00  0.00     0.167 HD
HETATM    7  C14 UNL     1      -0.083  54.367 -26.805  1.00  0.00     0.182 A 
HETATM    8  N4  UNL     1      -0.955  53.686 -27.558  1.00  0.00    -0.351 N 
ATOM      9  H4  UNL     1      -1.342  54.079 -28.415  1.00  0.00     0.166 HD
HETATM   10  C15 UNL     1      -1.292  52.466 -27.131  1.00  0.00     0.049 A 
HETATM   11  C16 UNL     1      -2.193  51.727 -27.886  1.00  0.00     0.070 A 
HETATM   12  C17 UNL     1      -2.603  50.443 -27.510  1.00  0.00     0.104 A 
ENDROOT
BRANCH   4  13
HETATM   13  N1  UNL     1       0.760  52.181 -24.085  1.00  0.00    -0.244 NA
HETATM   14  H5  UNL     1       1.760  52.192 -24.265  1.00  0.00     0.135 HD
BRANCH  13  15
HETATM   15  C6  UNL     1       0.490  52.553 -22.738  1.00  0.00     0.026 A 
HETATM   16  C7  UNL     1       1.195  53.656 -22.203  1.00  0.00     0.025 A 
HETATM   17  C8  UNL     1       1.030  54.077 -20.884  1.00  0.00     0.004 A 
HETATM   18  C9  UNL     1       0.172  53.399 -20.021  1.00  0.00     0.030 A 
HETATM   19  C10 UNL     1      -0.490  52.275 -20.525  1.00  0.00     0.044 A 
HETATM   20  N2  UNL     1      -1.357  51.414 -19.888  1.00  0.00    -0.365 N 
HETATM   21  C13 UNL     1      -0.349  51.832 -21.844  1.00  0.00     0.013 A 
HETATM   22  C11 UNL     1      -1.741  50.413 -20.734  1.00  0.00     0.089 A 
HETATM   23  H9  UNL     1      -1.645  51.503 -18.923  1.00  0.00     0.165 HD
HETATM   24  C12 UNL     1      -1.130  50.639 -21.945  1.00  0.00     0.032 A 
ENDBRANCH  13  15
ENDBRANCH   4  13
BRANCH   1  25
HETATM   25  O1  UNL     1      -2.566  48.632 -26.000  1.00  0.00    -0.353 OA
HETATM   26  C1  UNL     1      -3.043  48.417 -24.679  1.00  0.00     0.210 C 
ENDBRANCH   1  25
BRANCH  12  27
HETATM   27  O2  UNL     1      -3.496  49.672 -28.209  1.00  0.00    -0.348 OA
BRANCH  27  28
HETATM   28  C18 UNL     1      -4.491  48.930 -27.501  1.00  0.00     0.177 C 
BRANCH  28  29
HETATM   29  C19 UNL     1      -5.217  47.979 -28.451  1.00  0.00     0.057 C 
BRANCH  29  30
HETATM   30  C20 UNL     1      -5.361  48.547 -29.867  1.00  0.00     0.274 C 
BRANCH  30  31
HETATM   31  N5  UNL     1      -5.963  47.610 -30.823  1.00  0.00     0.092 N 
HETATM   32  C21 UNL     1      -6.309  46.335 -30.155  1.00  0.00     0.298 C 
HETATM   33  C22 UNL     1      -6.475  45.190 -31.165  1.00  0.00     0.198 C 
HETATM   34  O3  UNL     1      -5.256  44.885 -31.859  1.00  0.00    -0.388 OA
HETATM   35  C23 UNL     1      -4.381  46.013 -31.978  1.00  0.00     0.198 C 
HETATM   36  C24 UNL     1      -5.122  47.360 -32.016  1.00  0.00     0.298 C 
ENDBRANCH  30  31
ENDBRANCH  29  30
ENDBRANCH  28  29
ENDBRANCH  27  28
ENDBRANCH  12  27
TORSDOF 8
ENDMDL
MODEL 4
REMARK minimizedAffinity -8.32426643
REMARK  8 active torsions:
REMARK  status: ('A' for Active; 'I' for Inactive)
REMARK    1  A    between atoms: O1_2  and  C2_3 
REMARK    2  A    between atoms: C5_6  and  N1_7 
REMARK    3  A    between atoms: N1_7  and  C6_8 
REMARK    4  A    between atoms: C17_24  and  O2_25 
REMARK    5  A    between atoms: O2_25  and  C18_26 
REMARK    6  A    between atoms: C18_26  and  C19_27 
REMARK    7  A    between atoms: C19_27  and  C20_28 
REMARK    8  A    between atoms: C20_28  and  N5_29 
ROOT
HETATM    1  C2  UNL     1      -0.503  50.787 -19.442  1.00  0.00     0.102 A 
HETATM    2  C3  UNL     1      -0.417  51.000 -20.819  1.00  0.00     0.056 A 
HETATM    3  C4  UNL     1       0.201  52.165 -21.340  1.00  0.00     0.032 A 
HETATM    4  C5  UNL     1       0.335  52.462 -22.712  1.00  0.00     0.098 A 
HETATM    5  N3  UNL     1       0.944  53.580 -23.142  1.00  0.00    -0.342 N 
ATOM      6  H3  UNL     1       1.028  53.795 -24.136  1.00  0.00     0.167 HD
HETATM    7  C14 UNL     1       1.434  54.397 -22.208  1.00  0.00     0.182 A 
HETATM    8  N4  UNL     1       1.360  54.217 -20.885  1.00  0.00    -0.351 N 
ATOM      9  H4  UNL     1       1.754  54.893 -20.231  1.00  0.00     0.166 HD
HETATM   10  C15 UNL     1       0.746  53.108 -20.463  1.00  0.00     0.049 A 
HETATM   11  C16 UNL     1       0.647  52.887 -19.095  1.00  0.00     0.070 A 
HETATM   12  C17 UNL     1       0.023  51.751 -18.568  1.00  0.00     0.104 A 
ENDROOT
BRANCH   4  13
HETATM   13  N1  UNL     1      -0.263  51.586 -23.662  1.00  0.00    -0.244 NA
HETATM   14  H5  UNL     1      -1.259  51.580 -23.460  1.00  0.00     0.135 HD
BRANCH  13  15
HETATM   15  C6  UNL     1      -0.036  51.587 -25.067  1.00  0.00     0.026 A 
HETATM   16  C7  UNL     1       1.288  51.787 -25.523  1.00  0.00     0.025 A 
HETATM   17  C8  UNL     1       1.607  51.843 -26.879  1.00  0.00     0.004 A 
HETATM   18  C9  UNL     1       0.616  51.730 -27.851  1.00  0.00     0.030 A 
HETATM   19  C10 UNL     1      -0.703  51.584 -27.411  1.00  0.00     0.044 A 
HETATM   20  N2  UNL     1      -1.864  51.485 -28.147  1.00  0.00    -0.365 N 
HETATM   21  C13 UNL     1      -1.054  51.521 -26.058  1.00  0.00     0.013 A 
HETATM   22  C11 UNL     1      -2.946  51.405 -27.319  1.00  0.00     0.089 A 
HETATM   23  H9  UNL     1      -1.902  51.495 -29.157  1.00  0.00     0.165 HD
HETATM   24  C12 UNL     1      -2.481  51.432 -26.025  1.00  0.00     0.032 A 
ENDBRANCH  13  15
ENDBRANCH   4  13
BRANCH   1  25
HETATM   25  O1  UNL     1      -1.085  49.690 -18.861  1.00  0.00    -0.353 OA
HETATM   26  C1  UNL     1      -2.471  49.477 -19.089  1.00  0.00     0.210 C 
ENDBRANCH   1  25
BRANCH  12  27
HETATM   27  O2  UNL     1      -0.095  51.475 -17.229  1.00  0.00    -0.348 OA
BRANCH  27  28
HETATM   28  C18 UNL     1       1.066  51.105 -16.482  1.00  0.00     0.177 C 
BRANCH  28  29
HETATM   29  C19 UNL     1       1.430  52.210 -15.492  1.00  0.00     0.057 C 
BRANCH  29  30
HETATM   30  C20 UNL     1       1.126  51.831 -14.039  1.00  0.00     0.274 C 
BRANCH  30  31
HETATM   31  N5  UNL     1       0.003  52.575 -13.455  1.00  0.00     0.092 N 
HETATM   32  C21 UNL     1       0.308  52.969 -12.061  1.00  0.00     0.298 C 
HETATM   33  C22 UNL     1      -0.966  53.299 -11.271  1.00  0.00     0.198 C 
HETATM   34  O3  UNL     1      -1.830  52.164 -11.116  1.00  0.00    -0.388 OA
HETATM   35  C23 UNL     1      -1.704  51.213 -12.181  1.00  0.00     0.198 C 
HETATM   36  C24 UNL     1      -1.286  51.848 -13.518  1.00  0.00     0.298 C 
ENDBRANCH  30  31
ENDBRANCH  29  30
ENDBRANCH  28  29
ENDBRANCH  27  28
ENDBRANCH  12  27
TORSDOF 8
ENDMDL
MODEL 5
REMARK minimizedAffinity -8.29038143
REMARK  8 active torsions:
REMARK  status: ('A' for Active; 'I' for Inactive)
REMARK    1  A    between atoms: O1_2  and  C2_3 
REMARK    2  A    between atoms: C5_6  and  N1_7 
REMARK    3  A    between atoms: N1_7  and  C6_8 
REMARK    4  A    between atoms: C17_24  and  O2_25 
REMARK    5  A    between atoms: O2_25  and  C18_26 
REMARK    6  A    between atoms: C18_26  and  C19_27 
REMARK    7  A    between atoms: C19_27  and  C20_28 
REMARK    8  A    between atoms: C20_28  and  N5_29 
ROOT
HETATM    1  C2  UNL     1      -2.548  49.750 -25.615  1.00  0.00     0.102 A 
HETATM    2  C3  UNL     1      -1.478  50.533 -25.180  1.00  0.00     0.056 A 
HETATM    3  C4  UNL     1      -1.083  51.691 -25.896  1.00  0.00     0.032 A 
HETATM    4  C5  UNL     1      -0.020  52.541 -25.532  1.00  0.00     0.098 A 
HETATM    5  N3  UNL     1       0.297  53.633 -26.249  1.00  0.00    -0.342 N 
ATOM      6  H3  UNL     1       1.075  54.239 -25.986  1.00  0.00     0.167 HD
HETATM    7  C14 UNL     1      -0.454  53.889 -27.321  1.00  0.00     0.182 A 
HETATM    8  N4  UNL     1      -1.480  53.151 -27.760  1.00  0.00    -0.351 N 
ATOM      9  H4  UNL     1      -2.004  53.408 -28.596  1.00  0.00     0.166 HD
HETATM   10  C15 UNL     1      -1.784  52.062 -27.049  1.00  0.00     0.049 A 
HETATM   11  C16 UNL     1      -2.842  51.269 -27.474  1.00  0.00     0.070 A 
HETATM   12  C17 UNL     1      -3.230  50.114 -26.786  1.00  0.00     0.104 A 
ENDROOT
BRANCH   4  13
HETATM   13  N1  UNL     1       0.788  52.185 -24.415  1.00  0.00    -0.244 NA
HETATM   14  H5  UNL     1       1.748  52.170 -24.748  1.00  0.00     0.135 HD
BRANCH  13  15
HETATM   15  C6  UNL     1       0.719  52.752 -23.111  1.00  0.00     0.026 A 
HETATM   16  C7  UNL     1       1.403  53.969 -22.882  1.00  0.00     0.025 A 
HETATM   17  C8  UNL     1       1.428  54.584 -21.631  1.00  0.00     0.004 A 
HETATM   18  C9  UNL     1       0.794  54.001 -20.536  1.00  0.00     0.030 A 
HETATM   19  C10 UNL     1       0.160  52.772 -20.740  1.00  0.00     0.044 A 
HETATM   20  N2  UNL     1      -0.505  51.972 -19.836  1.00  0.00    -0.365 N 
HETATM   21  C13 UNL     1       0.114  52.133 -21.983  1.00  0.00     0.013 A 
HETATM   22  C11 UNL     1      -0.936  50.827 -20.441  1.00  0.00     0.089 A 
HETATM   23  H9  UNL     1      -0.631  52.198 -18.858  1.00  0.00     0.165 HD
HETATM   24  C12 UNL     1      -0.563  50.893 -21.763  1.00  0.00     0.032 A 
ENDBRANCH  13  15
ENDBRANCH   4  13
BRANCH   1  25
HETATM   25  O1  UNL     1      -2.989  48.617 -24.981  1.00  0.00    -0.353 OA
HETATM   26  C1  UNL     1      -3.039  48.629 -23.560  1.00  0.00     0.210 C 
ENDBRANCH   1  25
BRANCH  12  27
HETATM   27  O2  UNL     1      -4.271  49.299 -27.152  1.00  0.00    -0.348 OA
BRANCH  27  28
HETATM   28  C18 UNL     1      -4.067  48.306 -28.159  1.00  0.00     0.177 C 
BRANCH  28  29
HETATM   29  C19 UNL     1      -5.317  48.170 -29.027  1.00  0.00     0.057 C 
BRANCH  29  30
HETATM   30  C20 UNL     1      -6.547  47.718 -28.234  1.00  0.00     0.274 C 
BRANCH  30  31
HETATM   31  N5  UNL     1      -7.722  47.440 -29.068  1.00  0.00     0.092 N 
HETATM   32  C21 UNL     1      -7.325  46.739 -30.310  1.00  0.00     0.298 C 
HETATM   33  C22 UNL     1      -8.398  46.861 -31.401  1.00  0.00     0.198 C 
HETATM   34  O3  UNL     1      -8.597  48.215 -31.830  1.00  0.00    -0.388 OA
HETATM   35  C23 UNL     1      -8.298  49.177 -30.811  1.00  0.00     0.198 C 
HETATM   36  C24 UNL     1      -8.522  48.645 -29.386  1.00  0.00     0.298 C 
ENDBRANCH  30  31
ENDBRANCH  29  30
ENDBRANCH  28  29
ENDBRANCH  27  28
ENDBRANCH  12  27
TORSDOF 8
ENDMDL
MODEL 6
REMARK minimizedAffinity -8.21212769
REMARK  8 active torsions:
REMARK  status: ('A' for Active; 'I' for Inactive)
REMARK    1  A    between atoms: O1_2  and  C2_3 
REMARK    2  A    between atoms: C5_6  and  N1_7 
REMARK    3  A    between atoms: N1_7  and  C6_8 
REMARK    4  A    between atoms: C17_24  and  O2_25 
REMARK    5  A    between atoms: O2_25  and  C18_26 
REMARK    6  A    between atoms: C18_26  and  C19_27 
REMARK    7  A    between atoms: C19_27  and  C20_28 
REMARK    8  A    between atoms: C20_28  and  N5_29 
ROOT
HETATM    1  C2  UNL     1      -0.552  50.632 -19.494  1.00  0.00     0.102 A 
HETATM    2  C3  UNL     1      -0.419  50.836 -20.869  1.00  0.00     0.056 A 
HETATM    3  C4  UNL     1       0.154  52.029 -21.377  1.00  0.00     0.032 A 
HETATM    4  C5  UNL     1       0.329  52.320 -22.745  1.00  0.00     0.098 A 
HETATM    5  N3  UNL     1       0.893  53.468 -23.162  1.00  0.00    -0.342 N 
ATOM      6  H3  UNL     1       1.006  53.677 -24.154  1.00  0.00     0.167 HD
HETATM    7  C14 UNL     1       1.297  54.319 -22.219  1.00  0.00     0.182 A 
HETATM    8  N4  UNL     1       1.176  54.147 -20.898  1.00  0.00    -0.351 N 
ATOM      9  H4  UNL     1       1.503  54.851 -20.235  1.00  0.00     0.166 HD
HETATM   10  C15 UNL     1       0.607  53.010 -20.488  1.00  0.00     0.049 A 
HETATM   11  C16 UNL     1       0.463  52.797 -19.123  1.00  0.00     0.070 A 
HETATM   12  C17 UNL     1      -0.119  51.632 -18.610  1.00  0.00     0.104 A 
ENDROOT
BRANCH   4  13
HETATM   13  N1  UNL     1      -0.178  51.404 -23.709  1.00  0.00    -0.244 NA
HETATM   14  H5  UNL     1      -0.700  50.703 -23.192  1.00  0.00     0.135 HD
BRANCH  13  15
HETATM   15  C6  UNL     1      -0.850  51.739 -24.918  1.00  0.00     0.026 A 
HETATM   16  C7  UNL     1      -2.248  51.944 -24.861  1.00  0.00     0.025 A 
HETATM   17  C8  UNL     1      -3.004  52.239 -25.996  1.00  0.00     0.004 A 
HETATM   18  C9  UNL     1      -2.405  52.316 -27.251  1.00  0.00     0.030 A 
HETATM   19  C10 UNL     1      -1.032  52.064 -27.326  1.00  0.00     0.044 A 
HETATM   20  N2  UNL     1      -0.207  52.041 -28.429  1.00  0.00    -0.365 N 
HETATM   21  C13 UNL     1      -0.247  51.770 -26.206  1.00  0.00     0.013 A 
HETATM   22  C11 UNL     1       1.065  51.701 -28.065  1.00  0.00     0.089 A 
HETATM   23  H9  UNL     1      -0.512  52.227 -29.374  1.00  0.00     0.165 HD
HETATM   24  C12 UNL     1       1.070  51.521 -26.702  1.00  0.00     0.032 A 
ENDBRANCH  13  15
ENDBRANCH   4  13
BRANCH   1  25
HETATM   25  O1  UNL     1      -1.096  49.510 -18.925  1.00  0.00    -0.353 OA
HETATM   26  C1  UNL     1      -1.325  48.386 -19.764  1.00  0.00     0.210 C 
ENDBRANCH   1  25
BRANCH  12  27
HETATM   27  O2  UNL     1      -0.278  51.362 -17.274  1.00  0.00    -0.348 OA
BRANCH  27  28
HETATM   28  C18 UNL     1       0.805  50.789 -16.538  1.00  0.00     0.177 C 
BRANCH  28  29
HETATM   29  C19 UNL     1       1.510  51.865 -15.714  1.00  0.00     0.057 C 
BRANCH  29  30
HETATM   30  C20 UNL     1       1.154  51.804 -14.225  1.00  0.00     0.274 C 
BRANCH  30  31
HETATM   31  N5  UNL     1       2.149  51.102 -13.405  1.00  0.00     0.092 N 
HETATM   32  C21 UNL     1       3.436  50.994 -14.128  1.00  0.00     0.298 C 
HETATM   33  C22 UNL     1       4.323  49.884 -13.547  1.00  0.00     0.198 C 
HETATM   34  O3  UNL     1       3.744  48.579 -13.697  1.00  0.00    -0.388 OA
HETATM   35  C23 UNL     1       2.312  48.602 -13.733  1.00  0.00     0.198 C 
HETATM   36  C24 UNL     1       1.700  49.769 -12.941  1.00  0.00     0.298 C 
ENDBRANCH  30  31
ENDBRANCH  29  30
ENDBRANCH  28  29
ENDBRANCH  27  28
ENDBRANCH  12  27
TORSDOF 8
ENDMDL
MODEL 7
REMARK minimizedAffinity -8.12781143
REMARK  8 active torsions:
REMARK  status: ('A' for Active; 'I' for Inactive)
REMARK    1  A    between atoms: O1_2  and  C2_3 
REMARK    2  A    between atoms: C5_6  and  N1_7 
REMARK    3  A    between atoms: N1_7  and  C6_8 
REMARK    4  A    between atoms: C17_24  and  O2_25 
REMARK    5  A    between atoms: O2_25  and  C18_26 
REMARK    6  A    between atoms: C18_26  and  C19_27 
REMARK    7  A    between atoms: C19_27  and  C20_28 
REMARK    8  A    between atoms: C20_28  and  N5_29 
ROOT
HETATM    1  C2  UNL     1      -0.201  52.005 -20.516  1.00  0.00     0.102 A 
HETATM    2  C3  UNL     1      -0.178  51.712 -21.880  1.00  0.00     0.056 A 
HETATM    3  C4  UNL     1      -1.261  51.039 -22.500  1.00  0.00     0.032 A 
HETATM    4  C5  UNL     1      -1.325  50.704 -23.867  1.00  0.00     0.098 A 
HETATM    5  N3  UNL     1      -2.389  50.075 -24.397  1.00  0.00    -0.342 N 
ATOM      6  H3  UNL     1      -2.425  49.826 -25.386  1.00  0.00     0.167 HD
HETATM    7  C14 UNL     1      -3.396  49.793 -23.570  1.00  0.00     0.182 A 
HETATM    8  N4  UNL     1      -3.439  50.059 -22.260  1.00  0.00    -0.351 N 
ATOM      9  H4  UNL     1      -4.244  49.804 -21.688  1.00  0.00     0.166 HD
HETATM   10  C15 UNL     1      -2.375  50.676 -21.736  1.00  0.00     0.049 A 
HETATM   11  C16 UNL     1      -2.382  50.968 -20.378  1.00  0.00     0.070 A 
HETATM   12  C17 UNL     1      -1.311  51.614 -19.751  1.00  0.00     0.104 A 
ENDROOT
BRANCH   4  13
HETATM   13  N1  UNL     1      -0.196  50.973 -24.691  1.00  0.00    -0.244 NA
HETATM   14  H5  UNL     1       0.223  50.072 -24.906  1.00  0.00     0.135 HD
BRANCH  13  15
HETATM   15  C6  UNL     1      -0.168  51.823 -25.832  1.00  0.00     0.026 A 
HETATM   16  C7  UNL     1      -0.181  51.216 -27.109  1.00  0.00     0.025 A 
HETATM   17  C8  UNL     1      -0.118  51.960 -28.287  1.00  0.00     0.004 A 
HETATM   18  C9  UNL     1      -0.012  53.348 -28.250  1.00  0.00     0.030 A 
HETATM   19  C10 UNL     1       0.055  53.954 -26.992  1.00  0.00     0.044 A 
HETATM   20  N2  UNL     1       0.194  55.287 -26.671  1.00  0.00    -0.365 N 
HETATM   21  C13 UNL     1      -0.010  53.237 -25.793  1.00  0.00     0.013 A 
HETATM   22  C11 UNL     1       0.266  55.445 -25.316  1.00  0.00     0.089 A 
HETATM   23  H9  UNL     1       0.258  56.034 -27.349  1.00  0.00     0.165 HD
HETATM   24  C12 UNL     1       0.150  54.198 -24.748  1.00  0.00     0.032 A 
ENDBRANCH  13  15
ENDBRANCH   4  13
BRANCH   1  25
HETATM   25  O1  UNL     1       0.806  52.649 -19.842  1.00  0.00    -0.353 OA
HETATM   26  C1  UNL     1       1.371  53.806 -20.445  1.00  0.00     0.210 C 
ENDBRANCH   1  25
BRANCH  12  27
HETATM   27  O2  UNL     1      -1.266  51.937 -18.419  1.00  0.00    -0.348 OA
BRANCH  27  28
HETATM   28  C18 UNL     1      -1.264  50.895 -17.441  1.00  0.00     0.177 C 
BRANCH  28  29
HETATM   29  C19 UNL     1       0.129  50.746 -16.832  1.00  0.00     0.057 C 
BRANCH  29  30
HETATM   30  C20 UNL     1       0.223  51.319 -15.414  1.00  0.00     0.274 C 
BRANCH  30  31
HETATM   31  N5  UNL     1       1.389  52.184 -15.200  1.00  0.00     0.092 N 
HETATM   32  C21 UNL     1       2.160  52.339 -16.455  1.00  0.00     0.298 C 
HETATM   33  C22 UNL     1       3.597  52.805 -16.185  1.00  0.00     0.198 C 
HETATM   34  O3  UNL     1       4.359  51.844 -15.441  1.00  0.00    -0.388 OA
HETATM   35  C23 UNL     1       3.550  51.025 -14.588  1.00  0.00     0.198 C 
HETATM   36  C24 UNL     1       2.271  51.728 -14.102  1.00  0.00     0.298 C 
ENDBRANCH  30  31
ENDBRANCH  29  30
ENDBRANCH  28  29
ENDBRANCH  27  28
ENDBRANCH  12  27
TORSDOF 8
ENDMDL
MODEL 8
REMARK minimizedAffinity -8.09050751
REMARK  8 active torsions:
REMARK  status: ('A' for Active; 'I' for Inactive)
REMARK    1  A    between atoms: O1_2  and  C2_3 
REMARK    2  A    between atoms: C5_6  and  N1_7 
REMARK    3  A    between atoms: N1_7  and  C6_8 
REMARK    4  A    between atoms: C17_24  and  O2_25 
REMARK    5  A    between atoms: O2_25  and  C18_26 
REMARK    6  A    between atoms: C18_26  and  C19_27 
REMARK    7  A    between atoms: C19_27  and  C20_28 
REMARK    8  A    between atoms: C20_28  and  N5_29 
ROOT
HETATM    1  C2  UNL     1      -0.343  50.079 -18.081  1.00  0.00     0.102 A 
HETATM    2  C3  UNL     1      -0.428  50.438 -19.427  1.00  0.00     0.056 A 
HETATM    3  C4  UNL     1       0.068  51.687 -19.881  1.00  0.00     0.032 A 
HETATM    4  C5  UNL     1       0.026  52.132 -21.218  1.00  0.00     0.098 A 
HETATM    5  N3  UNL     1       0.526  53.324 -21.586  1.00  0.00    -0.342 N 
ATOM      6  H3  UNL     1       0.483  53.646 -22.554  1.00  0.00     0.167 HD
HETATM    7  C14 UNL     1       1.080  54.068 -20.629  1.00  0.00     0.182 A 
HETATM    8  N4  UNL     1       1.169  53.748 -19.333  1.00  0.00    -0.351 N 
ATOM      9  H4  UNL     1       1.602  54.375 -18.656  1.00  0.00     0.166 HD
HETATM   10  C15 UNL     1       0.663  52.565 -18.970  1.00  0.00     0.049 A 
HETATM   11  C16 UNL     1       0.734  52.198 -17.632  1.00  0.00     0.070 A 
HETATM   12  C17 UNL     1       0.232  50.977 -17.168  1.00  0.00     0.104 A 
ENDROOT
BRANCH   4  13
HETATM   13  N1  UNL     1      -0.633  51.324 -22.187  1.00  0.00    -0.244 NA
HETATM   14  H5  UNL     1      -0.680  50.388 -21.797  1.00  0.00     0.135 HD
BRANCH  13  15
HETATM   15  C6  UNL     1      -1.841  51.644 -22.868  1.00  0.00     0.026 A 
HETATM   16  C7  UNL     1      -3.055  51.527 -22.152  1.00  0.00     0.025 A 
HETATM   17  C8  UNL     1      -4.294  51.780 -22.740  1.00  0.00     0.004 A 
HETATM   18  C9  UNL     1      -4.387  52.137 -24.084  1.00  0.00     0.030 A 
HETATM   19  C10 UNL     1      -3.197  52.204 -24.814  1.00  0.00     0.044 A 
HETATM   20  N2  UNL     1      -3.006  52.496 -26.148  1.00  0.00    -0.365 N 
HETATM   21  C13 UNL     1      -1.939  51.960 -24.252  1.00  0.00     0.013 A 
HETATM   22  C11 UNL     1      -1.682  52.405 -26.470  1.00  0.00     0.089 A 
HETATM   23  H9  UNL     1      -3.749  52.721 -26.795  1.00  0.00     0.165 HD
HETATM   24  C12 UNL     1      -1.000  52.070 -25.324  1.00  0.00     0.032 A 
ENDBRANCH  13  15
ENDBRANCH   4  13
BRANCH   1  25
HETATM   25  O1  UNL     1      -0.799  48.894 -17.563  1.00  0.00    -0.353 OA
HETATM   26  C1  UNL     1      -2.115  48.483 -17.908  1.00  0.00     0.210 C 
ENDBRANCH   1  25
BRANCH  12  27
HETATM   27  O2  UNL     1       0.284  50.557 -15.864  1.00  0.00    -0.348 OA
BRANCH  27  28
HETATM   28  C18 UNL     1       0.410  51.522 -14.818  1.00  0.00     0.177 C 
BRANCH  28  29
HETATM   29  C19 UNL     1      -0.826  51.494 -13.921  1.00  0.00     0.057 C 
BRANCH  29  30
HETATM   30  C20 UNL     1      -0.726  52.461 -12.737  1.00  0.00     0.274 C 
BRANCH  30  31
HETATM   31  N5  UNL     1      -1.741  52.237 -11.701  1.00  0.00     0.092 N 
HETATM   32  C21 UNL     1      -3.102  52.401 -12.260  1.00  0.00     0.298 C 
HETATM   33  C22 UNL     1      -4.142  52.658 -11.160  1.00  0.00     0.198 C 
HETATM   34  O3  UNL     1      -3.915  53.891 -10.463  1.00  0.00    -0.388 OA
HETATM   35  C23 UNL     1      -2.536  54.281 -10.447  1.00  0.00     0.198 C 
HETATM   36  C24 UNL     1      -1.565  53.091 -10.504  1.00  0.00     0.298 C 
ENDBRANCH  30  31
ENDBRANCH  29  30
ENDBRANCH  28  29
ENDBRANCH  27  28
ENDBRANCH  12  27
TORSDOF 8
ENDMDL
MODEL 9
REMARK minimizedAffinity -8.07939053
REMARK  8 active torsions:
REMARK  status: ('A' for Active; 'I' for Inactive)
REMARK    1  A    between atoms: O1_2  and  C2_3 
REMARK    2  A    between atoms: C5_6  and  N1_7 
REMARK    3  A    between atoms: N1_7  and  C6_8 
REMARK    4  A    between atoms: C17_24  and  O2_25 
REMARK    5  A    between atoms: O2_25  and  C18_26 
REMARK    6  A    between atoms: C18_26  and  C19_27 
REMARK    7  A    between atoms: C19_27  and  C20_28 
REMARK    8  A    between atoms: C20_28  and  N5_29 
ROOT
HETATM    1  C2  UNL     1      -1.294  50.706 -22.781  1.00  0.00     0.102 A 
HETATM    2  C3  UNL     1      -1.716  50.093 -23.961  1.00  0.00     0.056 A 
HETATM    3  C4  UNL     1      -1.858  50.837 -25.160  1.00  0.00     0.032 A 
HETATM    4  C5  UNL     1      -2.276  50.303 -26.395  1.00  0.00     0.098 A 
HETATM    5  N3  UNL     1      -2.377  51.062 -27.500  1.00  0.00    -0.342 N 
ATOM      6  H3  UNL     1      -2.691  50.672 -28.389  1.00  0.00     0.167 HD
HETATM    7  C14 UNL     1      -2.049  52.349 -27.381  1.00  0.00     0.182 A 
HETATM    8  N4  UNL     1      -1.646  52.959 -26.261  1.00  0.00    -0.351 N 
ATOM      9  H4  UNL     1      -1.420  53.953 -26.246  1.00  0.00     0.166 HD
HETATM   10  C15 UNL     1      -1.556  52.203 -25.163  1.00  0.00     0.049 A 
HETATM   11  C16 UNL     1      -1.143  52.801 -23.980  1.00  0.00     0.070 A 
HETATM   12  C17 UNL     1      -1.017  52.082 -22.786  1.00  0.00     0.104 A 
ENDROOT
BRANCH   4  13
HETATM   13  N1  UNL     1      -2.674  48.937 -26.450  1.00  0.00    -0.244 NA
HETATM   14  H5  UNL     1      -2.235  48.478 -25.657  1.00  0.00     0.135 HD
BRANCH  13  15
HETATM   15  C6  UNL     1      -3.999  48.454 -26.640  1.00  0.00     0.026 A 
HETATM   16  C7  UNL     1      -4.446  48.253 -27.966  1.00  0.00     0.025 A 
HETATM   17  C8  UNL     1      -5.739  47.819 -28.258  1.00  0.00     0.004 A 
HETATM   18  C9  UNL     1      -6.661  47.588 -27.240  1.00  0.00     0.030 A 
HETATM   19  C10 UNL     1      -6.245  47.834 -25.928  1.00  0.00     0.044 A 
HETATM   20  N2  UNL     1      -6.955  47.722 -24.752  1.00  0.00    -0.365 N 
HETATM   21  C13 UNL     1      -4.955  48.266 -25.603  1.00  0.00     0.013 A 
HETATM   22  C11 UNL     1      -6.183  48.108 -23.693  1.00  0.00     0.089 A 
HETATM   23  H9  UNL     1      -7.917  47.420 -24.692  1.00  0.00     0.165 HD
HETATM   24  C12 UNL     1      -4.947  48.455 -24.186  1.00  0.00     0.032 A 
ENDBRANCH  13  15
ENDBRANCH   4  13
BRANCH   1  25
HETATM   25  O1  UNL     1      -1.135  50.058 -21.582  1.00  0.00    -0.353 OA
HETATM   26  C1  UNL     1      -1.500  48.686 -21.517  1.00  0.00     0.210 C 
ENDBRANCH   1  25
BRANCH  12  27
HETATM   27  O2  UNL     1      -0.605  52.616 -21.592  1.00  0.00    -0.348 OA
BRANCH  27  28
HETATM   28  C18 UNL     1       0.712  53.160 -21.481  1.00  0.00     0.177 C 
BRANCH  28  29
HETATM   29  C19 UNL     1       0.952  53.677 -20.064  1.00  0.00     0.057 C 
BRANCH  29  30
HETATM   30  C20 UNL     1       0.064  52.991 -19.021  1.00  0.00     0.274 C 
BRANCH  30  31
HETATM   31  N5  UNL     1       0.732  51.902 -18.298  1.00  0.00     0.092 N 
HETATM   32  C21 UNL     1      -0.250  50.881 -17.870  1.00  0.00     0.298 C 
HETATM   33  C22 UNL     1       0.295  50.009 -16.730  1.00  0.00     0.198 C 
HETATM   34  O3  UNL     1       0.542  50.759 -15.532  1.00  0.00    -0.388 OA
HETATM   35  C23 UNL     1       0.856  52.134 -15.785  1.00  0.00     0.198 C 
HETATM   36  C24 UNL     1       1.537  52.364 -17.144  1.00  0.00     0.298 C 
ENDBRANCH  30  31
ENDBRANCH  29  30
ENDBRANCH  28  29
ENDBRANCH  27  28
ENDBRANCH  12  27
TORSDOF 8
ENDMDL
