MODEL 1
REMARK minimizedAffinity -10.5952063
REMARK  4 active torsions:
REMARK  status: ('A' for Active; 'I' for Inactive)
REMARK    1  A    between atoms: N2_5  and  C4_6 
REMARK    2  A    between atoms: C4_6  and  C5_7 
REMARK    3  A    between atoms: C8_10  and  C9_11 
REMARK    4  A    between atoms: C13_18  and  C14_19 
ROOT
HETATM    1  C9  UNL     1      -1.045  51.935 -25.646  1.00  0.00    -0.009 A 
HETATM    2  C10 UNL     1      -0.449  52.959 -26.393  1.00  0.00     0.102 A 
HETATM    3  N3  UNL     1       0.384  53.928 -25.931  1.00  0.00    -0.351 N 
ATOM      4  H3  UNL     1       0.794  54.652 -26.521  1.00  0.00     0.166 HD
HETATM    5  C11 UNL     1       0.607  53.828 -24.609  1.00  0.00     0.116 A 
HETATM    6  N4  UNL     1       1.413  54.673 -23.899  1.00  0.00    -0.351 N 
HETATM    7  C12 UNL     1       1.432  54.301 -22.580  1.00  0.00     0.103 A 
HETATM    8  C13 UNL     1       0.616  53.192 -22.435  1.00  0.00     0.004 A 
HETATM    9  C22 UNL     1       0.090  52.885 -23.728  1.00  0.00     0.021 A 
HETATM   10  C23 UNL     1      -0.761  51.903 -24.271  1.00  0.00     0.029 A 
HETATM   11  H13 UNL     1       1.908  55.449 -24.313  1.00  0.00     0.166 HD
ENDROOT
BRANCH   1  12
HETATM   12  C8  UNL     1      -1.924  50.938 -26.272  1.00  0.00    -0.025 A 
HETATM   13  C7  UNL     1      -2.188  49.710 -25.647  1.00  0.00     0.013 A 
HETATM   14  C6  UNL     1      -3.023  48.760 -26.245  1.00  0.00     0.010 A 
HETATM   15  C5  UNL     1      -3.615  49.006 -27.490  1.00  0.00    -0.030 A 
HETATM   16  C25 UNL     1      -3.366  50.236 -28.112  1.00  0.00     0.010 A 
HETATM   17  C24 UNL     1      -2.533  51.186 -27.512  1.00  0.00     0.013 A 
BRANCH  15  18
HETATM   18  C4  UNL     1      -4.515  47.971 -28.136  1.00  0.00     0.311 C 
BRANCH  18  19
HETATM   19  N2  UNL     1      -5.572  48.470 -29.017  1.00  0.00     0.096 N 
HETATM   20  C3  UNL     1      -6.922  47.990 -28.693  1.00  0.00     0.303 C 
HETATM   21  C2  UNL     1      -7.942  48.309 -29.811  1.00  0.00     0.302 C 
HETATM   22  N1  UNL     1      -7.610  47.716 -31.123  1.00  0.00     0.087 N 
HETATM   23  C1  UNL     1      -8.404  46.520 -31.398  1.00  0.00     0.310 C 
HETATM   24  C27 UNL     1      -6.167  47.413 -31.233  1.00  0.00     0.302 C 
HETATM   25  C26 UNL     1      -5.281  48.413 -30.457  1.00  0.00     0.303 C 
ENDBRANCH  18  19
ENDBRANCH  15  18
ENDBRANCH   1  12
BRANCH   8  26
HETATM   26  C14 UNL     1       0.386  52.540 -21.155  1.00  0.00    -0.023 A 
HETATM   27  C15 UNL     1       0.673  53.218 -19.964  1.00  0.00     0.014 A 
HETATM   28  C16 UNL     1       0.460  52.623 -18.716  1.00  0.00     0.031 A 
HETATM   29  C17 UNL     1      -0.050  51.321 -18.699  1.00  0.00     0.042 A 
HETATM   30  N5  UNL     1      -0.355  50.498 -17.638  1.00  0.00    -0.365 N 
HETATM   31  C20 UNL     1      -0.346  50.613 -19.863  1.00  0.00    -0.007 A 
HETATM   32  C18 UNL     1      -0.835  49.298 -18.091  1.00  0.00     0.089 A 
HETATM   33  H17 UNL     1      -0.239  50.750 -16.666  1.00  0.00     0.165 HD
HETATM   34  C19 UNL     1      -0.842  49.341 -19.467  1.00  0.00     0.030 A 
HETATM   35  C21 UNL     1      -0.124  51.233 -21.111  1.00  0.00     0.026 A 
ENDBRANCH   8  26
TORSDOF 4
ENDMDL
MODEL 2
REMARK minimizedAffinity -10.5411968
REMARK  4 active torsions:
REMARK  status: ('A' for Active; 'I' for Inactive)
REMARK    1  A    between atoms: N2_5  and  C4_6 
REMARK    2  A    between atoms: C4_6  and  C5_7 
REMARK    3  A    between atoms: C8_10  and  C9_11 
REMARK    4  A    between atoms: C13_18  and  C14_19 
ROOT
HETATM    1  C9  UNL     1      -1.069  51.902 -25.576  1.00  0.00    -0.009 A 
HETATM    2  C10 UNL     1      -0.506  52.961 -26.299  1.00  0.00     0.102 A 
HETATM    3  N3  UNL     1       0.316  53.930 -25.820  1.00  0.00    -0.351 N 
ATOM      4  H3  UNL     1       0.703  54.680 -26.393  1.00  0.00     0.166 HD
HETATM    5  C11 UNL     1       0.564  53.792 -24.505  1.00  0.00     0.116 A 
HETATM    6  N4  UNL     1       1.366  54.629 -23.782  1.00  0.00    -0.351 N 
HETATM    7  C12 UNL     1       1.415  54.216 -22.476  1.00  0.00     0.103 A 
HETATM    8  C13 UNL     1       0.623  53.087 -22.354  1.00  0.00     0.004 A 
HETATM    9  C22 UNL     1       0.081  52.812 -23.647  1.00  0.00     0.021 A 
HETATM   10  C23 UNL     1      -0.761  51.831 -24.207  1.00  0.00     0.029 A 
HETATM   11  H13 UNL     1       1.839  55.428 -24.178  1.00  0.00     0.166 HD
ENDROOT
BRANCH   1  12
HETATM   12  C8  UNL     1      -1.940  50.909 -26.219  1.00  0.00    -0.025 A 
HETATM   13  C7  UNL     1      -2.167  49.655 -25.632  1.00  0.00     0.013 A 
HETATM   14  C6  UNL     1      -2.995  48.708 -26.246  1.00  0.00     0.010 A 
HETATM   15  C5  UNL     1      -3.615  48.985 -27.471  1.00  0.00    -0.030 A 
HETATM   16  C25 UNL     1      -3.404  50.240 -28.054  1.00  0.00     0.010 A 
HETATM   17  C24 UNL     1      -2.578  51.186 -27.438  1.00  0.00     0.013 A 
BRANCH  15  18
HETATM   18  C4  UNL     1      -4.507  47.954 -28.136  1.00  0.00     0.311 C 
BRANCH  18  19
HETATM   19  N2  UNL     1      -5.601  48.461 -28.965  1.00  0.00     0.096 N 
HETATM   20  C3  UNL     1      -6.938  47.991 -28.575  1.00  0.00     0.303 C 
HETATM   21  C2  UNL     1      -8.008  48.318 -29.643  1.00  0.00     0.302 C 
HETATM   22  N1  UNL     1      -7.745  47.722 -30.969  1.00  0.00     0.087 N 
HETATM   23  C1  UNL     1      -8.561  46.532 -31.203  1.00  0.00     0.310 C 
HETATM   24  C27 UNL     1      -6.311  47.408 -31.148  1.00  0.00     0.302 C 
HETATM   25  C26 UNL     1      -5.381  48.401 -30.417  1.00  0.00     0.303 C 
ENDBRANCH  18  19
ENDBRANCH  15  18
ENDBRANCH   1  12
BRANCH   8  26
HETATM   26  C14 UNL     1       0.428  52.390 -21.092  1.00  0.00    -0.023 A 
HETATM   27  C15 UNL     1      -0.233  51.156 -21.072  1.00  0.00     0.014 A 
HETATM   28  C16 UNL     1      -0.435  50.456 -19.877  1.00  0.00     0.031 A 
HETATM   29  C17 UNL     1       0.047  51.035 -18.698  1.00  0.00     0.042 A 
HETATM   30  N5  UNL     1      -0.005  50.584 -17.399  1.00  0.00    -0.365 N 
HETATM   31  C20 UNL     1       0.709  52.263 -18.679  1.00  0.00    -0.007 A 
HETATM   32  C18 UNL     1       0.600  51.482 -16.561  1.00  0.00     0.089 A 
HETATM   33  H17 UNL     1      -0.432  49.714 -17.111  1.00  0.00     0.165 HD
HETATM   34  C19 UNL     1       1.053  52.533 -17.326  1.00  0.00     0.030 A 
HETATM   35  C21 UNL     1       0.901  52.951 -19.895  1.00  0.00     0.026 A 
ENDBRANCH   8  26
TORSDOF 4
ENDMDL
MODEL 3
REMARK minimizedAffinity -10.0185127
REMARK  4 active torsions:
REMARK  status: ('A' for Active; 'I' for Inactive)
REMARK    1  A    between atoms: N2_5  and  C4_6 
REMARK    2  A    between atoms: C4_6  and  C5_7 
REMARK    3  A    between atoms: C8_10  and  C9_11 
REMARK    4  A    between atoms: C13_18  and  C14_19 
ROOT
HETATM    1  C9  UNL     1      -1.745  51.015 -25.505  1.00  0.00    -0.009 A 
HETATM    2  C10 UNL     1      -1.096  52.138 -26.030  1.00  0.00     0.102 A 
HETATM    3  N3  UNL     1      -0.240  52.966 -25.376  1.00  0.00    -0.351 N 
ATOM      4  H3  UNL     1       0.210  53.773 -25.809  1.00  0.00     0.166 HD
HETATM    5  C11 UNL     1      -0.050  52.605 -24.095  1.00  0.00     0.116 A 
HETATM    6  N4  UNL     1       0.769  53.265 -23.223  1.00  0.00    -0.351 N 
HETATM    7  C12 UNL     1       0.745  52.645 -22.000  1.00  0.00     0.103 A 
HETATM    8  C13 UNL     1      -0.113  51.563 -22.085  1.00  0.00     0.004 A 
HETATM    9  C22 UNL     1      -0.621  51.531 -23.421  1.00  0.00     0.021 A 
HETATM   10  C23 UNL     1      -1.494  50.707 -24.157  1.00  0.00     0.029 A 
HETATM   11  H13 UNL     1       1.301  54.086 -23.471  1.00  0.00     0.166 HD
ENDROOT
BRANCH   1  12
HETATM   12  C8  UNL     1      -2.645  50.192 -26.325  1.00  0.00    -0.025 A 
HETATM   13  C7  UNL     1      -3.299  49.074 -25.786  1.00  0.00     0.013 A 
HETATM   14  C6  UNL     1      -4.154  48.290 -26.568  1.00  0.00     0.010 A 
HETATM   15  C5  UNL     1      -4.375  48.597 -27.917  1.00  0.00    -0.030 A 
HETATM   16  C25 UNL     1      -3.737  49.720 -28.456  1.00  0.00     0.010 A 
HETATM   17  C24 UNL     1      -2.884  50.504 -27.672  1.00  0.00     0.013 A 
BRANCH  15  18
HETATM   18  C4  UNL     1      -5.299  47.741 -28.762  1.00  0.00     0.311 C 
BRANCH  18  19
HETATM   19  N2  UNL     1      -6.016  48.413 -29.847  1.00  0.00     0.096 N 
HETATM   20  C3  UNL     1      -7.480  48.391 -29.723  1.00  0.00     0.303 C 
HETATM   21  C2  UNL     1      -8.184  48.852 -31.021  1.00  0.00     0.302 C 
HETATM   22  N1  UNL     1      -7.870  48.030 -32.208  1.00  0.00     0.087 N 
HETATM   23  C1  UNL     1      -8.946  47.093 -32.523  1.00  0.00     0.310 C 
HETATM   24  C27 UNL     1      -6.590  47.309 -32.045  1.00  0.00     0.302 C 
HETATM   25  C26 UNL     1      -5.557  48.095 -31.207  1.00  0.00     0.303 C 
ENDBRANCH  18  19
ENDBRANCH  15  18
ENDBRANCH   1  12
BRANCH   8  26
HETATM   26  C14 UNL     1      -0.396  50.686 -20.960  1.00  0.00    -0.023 A 
HETATM   27  C15 UNL     1      -0.881  49.392 -21.187  1.00  0.00     0.014 A 
HETATM   28  C16 UNL     1      -1.160  48.521 -20.128  1.00  0.00     0.031 A 
HETATM   29  C17 UNL     1      -0.938  48.990 -18.829  1.00  0.00     0.042 A 
HETATM   30  N5  UNL     1      -1.119  48.367 -17.614  1.00  0.00    -0.365 N 
HETATM   31  C20 UNL     1      -0.457  50.272 -18.563  1.00  0.00    -0.007 A 
HETATM   32  C18 UNL     1      -0.769  49.209 -16.593  1.00  0.00     0.089 A 
HETATM   33  H17 UNL     1      -1.462  47.423 -17.501  1.00  0.00     0.165 HD
HETATM   34  C19 UNL     1      -0.354  50.397 -17.151  1.00  0.00     0.030 A 
HETATM   35  C21 UNL     1      -0.183  51.133 -19.645  1.00  0.00     0.026 A 
ENDBRANCH   8  26
TORSDOF 4
ENDMDL
MODEL 4
REMARK minimizedAffinity -9.9142952
REMARK  4 active torsions:
REMARK  status: ('A' for Active; 'I' for Inactive)
REMARK    1  A    between atoms: N2_5  and  C4_6 
REMARK    2  A    between atoms: C4_6  and  C5_7 
REMARK    3  A    between atoms: C8_10  and  C9_11 
REMARK    4  A    between atoms: C13_18  and  C14_19 
ROOT
HETATM    1  C9  UNL     1       0.683  52.855 -20.990  1.00  0.00    -0.009 A 
HETATM    2  C10 UNL     1       1.437  53.977 -21.354  1.00  0.00     0.102 A 
HETATM    3  N3  UNL     1       1.536  54.527 -22.592  1.00  0.00    -0.351 N 
ATOM      4  H3  UNL     1       2.100  55.350 -22.804  1.00  0.00     0.166 HD
HETATM    5  C11 UNL     1       0.807  53.866 -23.509  1.00  0.00     0.116 A 
HETATM    6  N4  UNL     1       0.726  54.219 -24.827  1.00  0.00    -0.351 N 
HETATM    7  C12 UNL     1      -0.097  53.349 -25.493  1.00  0.00     0.103 A 
HETATM    8  C13 UNL     1      -0.556  52.411 -24.584  1.00  0.00     0.004 A 
HETATM    9  C22 UNL     1       0.017  52.739 -23.316  1.00  0.00     0.021 A 
HETATM   10  C23 UNL     1      -0.048  52.222 -22.008  1.00  0.00     0.029 A 
HETATM   11  H13 UNL     1       1.214  55.009 -25.223  1.00  0.00     0.166 HD
ENDROOT
BRANCH   1  12
HETATM   12  C8  UNL     1       0.655  52.364 -19.605  1.00  0.00    -0.025 A 
HETATM   13  C7  UNL     1      -0.141  51.268 -19.240  1.00  0.00     0.013 A 
HETATM   14  C6  UNL     1      -0.170  50.802 -17.921  1.00  0.00     0.010 A 
HETATM   15  C5  UNL     1       0.592  51.424 -16.924  1.00  0.00    -0.030 A 
HETATM   16  C25 UNL     1       1.399  52.510 -17.285  1.00  0.00     0.010 A 
HETATM   17  C24 UNL     1       1.428  52.973 -18.604  1.00  0.00     0.013 A 
BRANCH  15  18
HETATM   18  C4  UNL     1       0.554  50.920 -15.494  1.00  0.00     0.311 C 
BRANCH  18  19
HETATM   19  N2  UNL     1      -0.401  51.562 -14.591  1.00  0.00     0.096 N 
HETATM   20  C3  UNL     1       0.192  52.138 -13.376  1.00  0.00     0.303 C 
HETATM   21  C2  UNL     1      -0.878  52.540 -12.334  1.00  0.00     0.302 C 
HETATM   22  N1  UNL     1      -1.728  51.422 -11.874  1.00  0.00     0.087 N 
HETATM   23  C1  UNL     1      -1.320  50.933 -10.560  1.00  0.00     0.310 C 
HETATM   24  C27 UNL     1      -1.747  50.316 -12.854  1.00  0.00     0.302 C 
HETATM   25  C26 UNL     1      -1.629  50.802 -14.316  1.00  0.00     0.303 C 
ENDBRANCH  18  19
ENDBRANCH  15  18
ENDBRANCH   1  12
BRANCH   8  26
HETATM   26  C14 UNL     1      -1.441  51.318 -24.952  1.00  0.00    -0.023 A 
HETATM   27  C15 UNL     1      -1.829  50.378 -23.990  1.00  0.00     0.014 A 
HETATM   28  C16 UNL     1      -2.683  49.316 -24.308  1.00  0.00     0.031 A 
HETATM   29  C17 UNL     1      -3.136  49.224 -25.628  1.00  0.00     0.042 A 
HETATM   30  N5  UNL     1      -3.970  48.303 -26.221  1.00  0.00    -0.365 N 
HETATM   31  C20 UNL     1      -2.771  50.140 -26.615  1.00  0.00    -0.007 A 
HETATM   32  C18 UNL     1      -4.146  48.606 -27.545  1.00  0.00     0.089 A 
HETATM   33  H17 UNL     1      -4.390  47.518 -25.741  1.00  0.00     0.165 HD
HETATM   34  C19 UNL     1      -3.414  49.740 -27.818  1.00  0.00     0.030 A 
HETATM   35  C21 UNL     1      -1.910  51.202 -26.272  1.00  0.00     0.026 A 
ENDBRANCH   8  26
TORSDOF 4
ENDMDL
MODEL 5
REMARK minimizedAffinity -9.85300636
REMARK  4 active torsions:
REMARK  status: ('A' for Active; 'I' for Inactive)
REMARK    1  A    between atoms: N2_5  and  C4_6 
REMARK    2  A    between atoms: C4_6  and  C5_7 
REMARK    3  A    between atoms: C8_10  and  C9_11 
REMARK    4  A    between atoms: C13_18  and  C14_19 
ROOT
HETATM    1  C9  UNL     1       0.258  52.917 -22.409  1.00  0.00    -0.009 A 
HETATM    2  C10 UNL     1       1.114  53.930 -22.858  1.00  0.00     0.102 A 
HETATM    3  N3  UNL     1       1.246  54.383 -24.131  1.00  0.00    -0.351 N 
ATOM      4  H3  UNL     1       1.886  55.129 -24.405  1.00  0.00     0.166 HD
HETATM    5  C11 UNL     1       0.438  53.740 -24.993  1.00  0.00     0.116 A 
HETATM    6  N4  UNL     1       0.370  54.010 -26.331  1.00  0.00    -0.351 N 
HETATM    7  C12 UNL     1      -0.548  53.185 -26.927  1.00  0.00     0.103 A 
HETATM    8  C13 UNL     1      -1.081  52.361 -25.952  1.00  0.00     0.004 A 
HETATM    9  C22 UNL     1      -0.457  52.714 -24.715  1.00  0.00     0.021 A 
HETATM   10  C23 UNL     1      -0.551  52.294 -23.374  1.00  0.00     0.029 A 
HETATM   11  H13 UNL     1       0.927  54.718 -26.785  1.00  0.00     0.166 HD
ENDROOT
BRANCH   1  12
HETATM   12  C8  UNL     1       0.205  52.524 -20.994  1.00  0.00    -0.025 A 
HETATM   13  C7  UNL     1       0.471  53.449 -19.974  1.00  0.00     0.013 A 
HETATM   14  C6  UNL     1       0.422  53.073 -18.627  1.00  0.00     0.010 A 
HETATM   15  C5  UNL     1       0.113  51.757 -18.260  1.00  0.00    -0.030 A 
HETATM   16  C25 UNL     1      -0.167  50.834 -19.273  1.00  0.00     0.010 A 
HETATM   17  C24 UNL     1      -0.121  51.211 -20.619  1.00  0.00     0.013 A 
BRANCH  15  18
HETATM   18  C4  UNL     1       0.067  51.354 -16.799  1.00  0.00     0.311 C 
BRANCH  18  19
HETATM   19  N2  UNL     1       1.011  52.017 -15.898  1.00  0.00     0.096 N 
HETATM   20  C3  UNL     1       2.401  51.554 -16.015  1.00  0.00     0.303 C 
HETATM   21  C2  UNL     1       3.289  52.070 -14.858  1.00  0.00     0.302 C 
HETATM   22  N1  UNL     1       2.840  51.654 -13.514  1.00  0.00     0.087 N 
HETATM   23  C1  UNL     1       3.634  50.544 -12.993  1.00  0.00     0.310 C 
HETATM   24  C27 UNL     1       1.402  51.308 -13.506  1.00  0.00     0.302 C 
HETATM   25  C26 UNL     1       0.573  52.150 -14.501  1.00  0.00     0.303 C 
ENDBRANCH  18  19
ENDBRANCH  15  18
ENDBRANCH   1  12
BRANCH   8  26
HETATM   26  C14 UNL     1      -2.078  51.341 -26.235  1.00  0.00    -0.023 A 
HETATM   27  C15 UNL     1      -2.347  50.976 -27.560  1.00  0.00     0.014 A 
HETATM   28  C16 UNL     1      -3.297  49.996 -27.869  1.00  0.00     0.031 A 
HETATM   29  C17 UNL     1      -3.973  49.391 -26.804  1.00  0.00     0.042 A 
HETATM   30  N5  UNL     1      -4.941  48.413 -26.805  1.00  0.00    -0.365 N 
HETATM   31  C20 UNL     1      -3.733  49.729 -25.472  1.00  0.00    -0.007 A 
HETATM   32  C18 UNL     1      -5.320  48.121 -25.522  1.00  0.00     0.089 A 
HETATM   33  H17 UNL     1      -5.315  47.978 -27.637  1.00  0.00     0.165 HD
HETATM   34  C19 UNL     1      -4.588  48.920 -24.674  1.00  0.00     0.030 A 
HETATM   35  C21 UNL     1      -2.772  50.719 -25.184  1.00  0.00     0.026 A 
ENDBRANCH   8  26
TORSDOF 4
ENDMDL
MODEL 6
REMARK minimizedAffinity -9.82773113
REMARK  4 active torsions:
REMARK  status: ('A' for Active; 'I' for Inactive)
REMARK    1  A    between atoms: N2_5  and  C4_6 
REMARK    2  A    between atoms: C4_6  and  C5_7 
REMARK    3  A    between atoms: C8_10  and  C9_11 
REMARK    4  A    between atoms: C13_18  and  C14_19 
ROOT
HETATM    1  C9  UNL     1      -2.876  50.070 -26.491  1.00  0.00    -0.009 A 
HETATM    2  C10 UNL     1      -2.326  50.584 -27.671  1.00  0.00     0.102 A 
HETATM    3  N3  UNL     1      -1.241  51.394 -27.781  1.00  0.00    -0.351 N 
ATOM      4  H3  UNL     1      -0.879  51.740 -28.670  1.00  0.00     0.166 HD
HETATM    5  C11 UNL     1      -0.696  51.690 -26.587  1.00  0.00     0.116 A 
HETATM    6  N4  UNL     1       0.407  52.479 -26.420  1.00  0.00    -0.351 N 
HETATM    7  C12 UNL     1       0.709  52.582 -25.087  1.00  0.00     0.103 A 
HETATM    8  C13 UNL     1      -0.224  51.846 -24.378  1.00  0.00     0.004 A 
HETATM    9  C22 UNL     1      -1.121  51.272 -25.332  1.00  0.00     0.021 A 
HETATM   10  C23 UNL     1      -2.248  50.428 -25.287  1.00  0.00     0.029 A 
HETATM   11  H13 UNL     1       0.905  52.909 -27.185  1.00  0.00     0.166 HD
ENDROOT
BRANCH   1  12
HETATM   12  C8  UNL     1      -4.054  49.191 -26.510  1.00  0.00    -0.025 A 
HETATM   13  C7  UNL     1      -4.475  48.567 -27.693  1.00  0.00     0.013 A 
HETATM   14  C6  UNL     1      -5.598  47.733 -27.710  1.00  0.00     0.010 A 
HETATM   15  C5  UNL     1      -6.340  47.504 -26.544  1.00  0.00    -0.030 A 
HETATM   16  C25 UNL     1      -5.916  48.113 -25.357  1.00  0.00     0.010 A 
HETATM   17  C24 UNL     1      -4.791  48.945 -25.341  1.00  0.00     0.013 A 
BRANCH  15  18
HETATM   18  C4  UNL     1      -7.559  46.603 -26.569  1.00  0.00     0.311 C 
BRANCH  18  19
HETATM   19  N2  UNL     1      -8.452  46.728 -27.722  1.00  0.00     0.096 N 
HETATM   20  C3  UNL     1      -7.928  46.157 -28.970  1.00  0.00     0.303 C 
HETATM   21  C2  UNL     1      -8.770  46.567 -30.201  1.00  0.00     0.302 C 
HETATM   22  N1  UNL     1      -8.844  48.025 -30.428  1.00  0.00     0.087 N 
HETATM   23  C1  UNL     1      -7.945  48.457 -31.496  1.00  0.00     0.310 C 
HETATM   24  C27 UNL     1      -8.572  48.782 -29.187  1.00  0.00     0.302 C 
HETATM   25  C26 UNL     1      -9.060  48.052 -27.916  1.00  0.00     0.303 C 
ENDBRANCH  18  19
ENDBRANCH  15  18
ENDBRANCH   1  12
BRANCH   8  26
HETATM   26  C14 UNL     1      -0.219  51.749 -22.927  1.00  0.00    -0.023 A 
HETATM   27  C15 UNL     1      -0.968  50.751 -22.291  1.00  0.00     0.014 A 
HETATM   28  C16 UNL     1      -0.983  50.627 -20.897  1.00  0.00     0.031 A 
HETATM   29  C17 UNL     1      -0.222  51.538 -20.158  1.00  0.00     0.042 A 
HETATM   30  N5  UNL     1      -0.048  51.655 -18.797  1.00  0.00    -0.365 N 
HETATM   31  C20 UNL     1       0.535  52.545 -20.755  1.00  0.00    -0.007 A 
HETATM   32  C18 UNL     1       0.792  52.699 -18.515  1.00  0.00     0.089 A 
HETATM   33  H17 UNL     1      -0.482  51.053 -18.110  1.00  0.00     0.165 HD
HETATM   34  C19 UNL     1       1.170  53.269 -19.709  1.00  0.00     0.030 A 
HETATM   35  C21 UNL     1       0.536  52.653 -22.161  1.00  0.00     0.026 A 
ENDBRANCH   8  26
TORSDOF 4
ENDMDL
MODEL 7
REMARK minimizedAffinity -9.80574226
REMARK  4 active torsions:
REMARK  status: ('A' for Active; 'I' for Inactive)
REMARK    1  A    between atoms: N2_5  and  C4_6 
REMARK    2  A    between atoms: C4_6  and  C5_7 
REMARK    3  A    between atoms: C8_10  and  C9_11 
REMARK    4  A    between atoms: C13_18  and  C14_19 
ROOT
HETATM    1  C9  UNL     1      -2.291  50.442 -25.774  1.00  0.00    -0.009 A 
HETATM    2  C10 UNL     1      -1.730  50.728 -27.024  1.00  0.00     0.102 A 
HETATM    3  N3  UNL     1      -0.604  51.449 -27.267  1.00  0.00    -0.351 N 
ATOM      4  H3  UNL     1      -0.236  51.627 -28.202  1.00  0.00     0.166 HD
HETATM    5  C11 UNL     1      -0.030  51.904 -26.140  1.00  0.00     0.116 A 
HETATM    6  N4  UNL     1       1.116  52.648 -26.107  1.00  0.00    -0.351 N 
HETATM    7  C12 UNL     1       1.439  52.949 -24.809  1.00  0.00     0.103 A 
HETATM    8  C13 UNL     1       0.477  52.389 -23.987  1.00  0.00     0.004 A 
HETATM    9  C22 UNL     1      -0.461  51.719 -24.831  1.00  0.00     0.021 A 
HETATM   10  C23 UNL     1      -1.630  50.956 -24.646  1.00  0.00     0.029 A 
HETATM   11  H13 UNL     1       1.627  52.921 -26.933  1.00  0.00     0.166 HD
ENDROOT
BRANCH   1  12
HETATM   12  C8  UNL     1      -3.515  49.638 -25.645  1.00  0.00    -0.025 A 
HETATM   13  C7  UNL     1      -3.985  48.857 -26.711  1.00  0.00     0.013 A 
HETATM   14  C6  UNL     1      -5.152  48.094 -26.588  1.00  0.00     0.010 A 
HETATM   15  C5  UNL     1      -5.888  48.095 -25.397  1.00  0.00    -0.030 A 
HETATM   16  C25 UNL     1      -5.415  48.861 -24.325  1.00  0.00     0.010 A 
HETATM   17  C24 UNL     1      -4.248  49.622 -24.448  1.00  0.00     0.013 A 
BRANCH  15  18
HETATM   18  C4  UNL     1      -7.154  47.270 -25.270  1.00  0.00     0.311 C 
BRANCH  18  19
HETATM   19  N2  UNL     1      -7.779  46.822 -26.515  1.00  0.00     0.096 N 
HETATM   20  C3  UNL     1      -6.997  47.093 -27.729  1.00  0.00     0.303 C 
HETATM   21  C2  UNL     1      -7.821  46.867 -29.019  1.00  0.00     0.302 C 
HETATM   22  N1  UNL     1      -9.029  47.710 -29.125  1.00  0.00     0.087 N 
HETATM   23  C1  UNL     1      -8.826  48.843 -30.023  1.00  0.00     0.310 C 
HETATM   24  C27 UNL     1      -9.482  48.178 -27.797  1.00  0.00     0.302 C 
HETATM   25  C26 UNL     1      -9.202  47.159 -26.671  1.00  0.00     0.303 C 
ENDBRANCH  18  19
ENDBRANCH  15  18
ENDBRANCH   1  12
BRANCH   8  26
HETATM   26  C14 UNL     1       0.495  52.529 -22.539  1.00  0.00    -0.023 A 
HETATM   27  C15 UNL     1       1.031  53.682 -21.955  1.00  0.00     0.014 A 
HETATM   28  C16 UNL     1       1.061  53.851 -20.566  1.00  0.00     0.031 A 
HETATM   29  C17 UNL     1       0.535  52.822 -19.778  1.00  0.00     0.042 A 
HETATM   30  N5  UNL     1       0.431  52.713 -18.409  1.00  0.00    -0.365 N 
HETATM   31  C20 UNL     1      -0.006  51.658 -20.323  1.00  0.00    -0.007 A 
HETATM   32  C18 UNL     1      -0.157  51.523 -18.072  1.00  0.00     0.089 A 
HETATM   33  H17 UNL     1       0.746  53.415 -17.753  1.00  0.00     0.165 HD
HETATM   34  C19 UNL     1      -0.440  50.848 -19.238  1.00  0.00     0.030 A 
HETATM   35  C21 UNL     1      -0.025  51.509 -21.725  1.00  0.00     0.026 A 
ENDBRANCH   8  26
TORSDOF 4
ENDMDL
MODEL 8
REMARK minimizedAffinity -9.76509857
REMARK  4 active torsions:
REMARK  status: ('A' for Active; 'I' for Inactive)
REMARK    1  A    between atoms: N2_5  and  C4_6 
REMARK    2  A    between atoms: C4_6  and  C5_7 
REMARK    3  A    between atoms: C8_10  and  C9_11 
REMARK    4  A    between atoms: C13_18  and  C14_19 
ROOT
HETATM    1  C9  UNL     1       0.637  52.905 -21.278  1.00  0.00    -0.009 A 
HETATM    2  C10 UNL     1       1.390  54.019 -21.667  1.00  0.00     0.102 A 
HETATM    3  N3  UNL     1       1.484  54.545 -22.916  1.00  0.00    -0.351 N 
ATOM      4  H3  UNL     1       2.048  55.364 -23.146  1.00  0.00     0.166 HD
HETATM    5  C11 UNL     1       0.750  53.868 -23.817  1.00  0.00     0.116 A 
HETATM    6  N4  UNL     1       0.664  54.196 -25.140  1.00  0.00    -0.351 N 
HETATM    7  C12 UNL     1      -0.163  53.314 -25.787  1.00  0.00     0.103 A 
HETATM    8  C13 UNL     1      -0.618  52.394 -24.858  1.00  0.00     0.004 A 
HETATM    9  C22 UNL     1      -0.040  52.746 -23.599  1.00  0.00     0.021 A 
HETATM   10  C23 UNL     1      -0.100  52.254 -22.281  1.00  0.00     0.029 A 
HETATM   11  H13 UNL     1       1.151  54.977 -25.554  1.00  0.00     0.166 HD
ENDROOT
BRANCH   1  12
HETATM   12  C8  UNL     1       0.614  52.440 -19.884  1.00  0.00    -0.025 A 
HETATM   13  C7  UNL     1       1.351  53.097 -18.887  1.00  0.00     0.013 A 
HETATM   14  C6  UNL     1       1.330  52.651 -17.561  1.00  0.00     0.010 A 
HETATM   15  C5  UNL     1       0.577  51.530 -17.193  1.00  0.00    -0.030 A 
HETATM   16  C25 UNL     1      -0.172  50.879 -18.180  1.00  0.00     0.010 A 
HETATM   17  C24 UNL     1      -0.152  51.326 -19.505  1.00  0.00     0.013 A 
BRANCH  15  18
HETATM   18  C4  UNL     1       0.562  51.048 -15.755  1.00  0.00     0.311 C 
BRANCH  18  19
HETATM   19  N2  UNL     1      -0.506  50.120 -15.379  1.00  0.00     0.096 N 
HETATM   20  C3  UNL     1      -0.577  48.899 -16.194  1.00  0.00     0.303 C 
HETATM   21  C2  UNL     1      -1.881  48.105 -15.947  1.00  0.00     0.302 C 
HETATM   22  N1  UNL     1      -3.117  48.858 -16.244  1.00  0.00     0.087 N 
HETATM   23  C1  UNL     1      -3.692  48.475 -17.532  1.00  0.00     0.310 C 
HETATM   24  C27 UNL     1      -2.888  50.318 -16.194  1.00  0.00     0.302 C 
HETATM   25  C26 UNL     1      -1.826  50.727 -15.150  1.00  0.00     0.303 C 
ENDBRANCH  18  19
ENDBRANCH  15  18
ENDBRANCH   1  12
BRANCH   8  26
HETATM   26  C14 UNL     1      -1.506  51.295 -25.202  1.00  0.00    -0.023 A 
HETATM   27  C15 UNL     1      -1.857  50.350 -24.230  1.00  0.00     0.014 A 
HETATM   28  C16 UNL     1      -2.712  49.282 -24.525  1.00  0.00     0.031 A 
HETATM   29  C17 UNL     1      -3.205  49.190 -25.831  1.00  0.00     0.042 A 
HETATM   30  N5  UNL     1      -4.050  48.264 -26.399  1.00  0.00    -0.365 N 
HETATM   31  C20 UNL     1      -2.877  50.111 -26.825  1.00  0.00    -0.007 A 
HETATM   32  C18 UNL     1      -4.268  48.568 -27.717  1.00  0.00     0.089 A 
HETATM   33  H17 UNL     1      -4.448  47.475 -25.909  1.00  0.00     0.165 HD
HETATM   34  C19 UNL     1      -3.554  49.708 -28.009  1.00  0.00     0.030 A 
HETATM   35  C21 UNL     1      -2.014  51.179 -26.506  1.00  0.00     0.026 A 
ENDBRANCH   8  26
TORSDOF 4
ENDMDL
MODEL 9
REMARK minimizedAffinity -9.7281847
REMARK  4 active torsions:
REMARK  status: ('A' for Active; 'I' for Inactive)
REMARK    1  A    between atoms: N2_5  and  C4_6 
REMARK    2  A    between atoms: C4_6  and  C5_7 
REMARK    3  A    between atoms: C8_10  and  C9_11 
REMARK    4  A    between atoms: C13_18  and  C14_19 
ROOT
HETATM    1  C9  UNL     1      -5.199  48.625 -24.811  1.00  0.00    -0.009 A 
HETATM    2  C10 UNL     1      -5.859  48.444 -23.590  1.00  0.00     0.102 A 
HETATM    3  N3  UNL     1      -5.474  48.917 -22.376  1.00  0.00    -0.351 N 
ATOM      4  H3  UNL     1      -5.996  48.758 -21.514  1.00  0.00     0.166 HD
HETATM    5  C11 UNL     1      -4.329  49.619 -22.436  1.00  0.00     0.116 A 
HETATM    6  N4  UNL     1      -3.731  50.208 -21.358  1.00  0.00    -0.351 N 
HETATM    7  C12 UNL     1      -2.584  50.847 -21.752  1.00  0.00     0.103 A 
HETATM    8  C13 UNL     1      -2.437  50.662 -23.116  1.00  0.00     0.004 A 
HETATM    9  C22 UNL     1      -3.550  49.881 -23.557  1.00  0.00     0.021 A 
HETATM   10  C23 UNL     1      -4.007  49.369 -24.786  1.00  0.00     0.029 A 
HETATM   11  H13 UNL     1      -4.102  50.162 -20.421  1.00  0.00     0.166 HD
ENDROOT
BRANCH   1  12
HETATM   12  C8  UNL     1      -5.728  48.066 -26.063  1.00  0.00    -0.025 A 
HETATM   13  C7  UNL     1      -4.974  48.092 -27.246  1.00  0.00     0.013 A 
HETATM   14  C6  UNL     1      -5.480  47.562 -28.437  1.00  0.00     0.010 A 
HETATM   15  C5  UNL     1      -6.760  46.995 -28.484  1.00  0.00    -0.030 A 
HETATM   16  C25 UNL     1      -7.511  46.952 -27.304  1.00  0.00     0.010 A 
HETATM   17  C24 UNL     1      -7.003  47.481 -26.112  1.00  0.00     0.013 A 
BRANCH  15  18
HETATM   18  C4  UNL     1      -7.306  46.426 -29.779  1.00  0.00     0.311 C 
BRANCH  18  19
HETATM   19  N2  UNL     1      -7.183  47.262 -30.974  1.00  0.00     0.096 N 
HETATM   20  C3  UNL     1      -6.966  46.522 -32.225  1.00  0.00     0.303 C 
HETATM   21  C2  UNL     1      -6.558  47.451 -33.392  1.00  0.00     0.302 C 
HETATM   22  N1  UNL     1      -5.315  48.214 -33.157  1.00  0.00     0.087 N 
HETATM   23  C1  UNL     1      -4.175  47.627 -33.856  1.00  0.00     0.310 C 
HETATM   24  C27 UNL     1      -5.024  48.345 -31.713  1.00  0.00     0.302 C 
HETATM   25  C26 UNL     1      -6.299  48.430 -30.846  1.00  0.00     0.303 C 
ENDBRANCH  18  19
ENDBRANCH  15  18
ENDBRANCH   1  12
BRANCH   8  26
HETATM   26  C14 UNL     1      -1.311  51.191 -23.870  1.00  0.00    -0.023 A 
HETATM   27  C15 UNL     1      -0.435  52.102 -23.269  1.00  0.00     0.014 A 
HETATM   28  C16 UNL     1       0.661  52.628 -23.964  1.00  0.00     0.031 A 
HETATM   29  C17 UNL     1       0.850  52.210 -25.285  1.00  0.00     0.042 A 
HETATM   30  N5  UNL     1       1.824  52.552 -26.196  1.00  0.00    -0.365 N 
HETATM   31  C20 UNL     1      -0.002  51.305 -25.917  1.00  0.00    -0.007 A 
HETATM   32  C18 UNL     1       1.617  51.894 -27.380  1.00  0.00     0.089 A 
HETATM   33  H17 UNL     1       2.579  53.197 -26.012  1.00  0.00     0.165 HD
HETATM   34  C19 UNL     1       0.493  51.113 -27.236  1.00  0.00     0.030 A 
HETATM   35  C21 UNL     1      -1.099  50.788 -25.199  1.00  0.00     0.026 A 
ENDBRANCH   8  26
TORSDOF 4
ENDMDL
