MODEL 1
REMARK minimizedAffinity -9.17665482
REMARK  7 active torsions:
REMARK  status: ('A' for Active; 'I' for Inactive)
REMARK    1  A    between atoms: N1_2  and  C3_4 
REMARK    2  A    between atoms: C3_4  and  C4_5 
REMARK    3  A    between atoms: C4_5  and  C5_6 
REMARK    4  A    between atoms: C5_6  and  C6_7 
REMARK    5  A    between atoms: C7_8  and  C8_9 
REMARK    6  A    between atoms: C14_17  and  S1_18 
REMARK    7  A    between atoms: S1_18  and  N3_19 
ROOT
HETATM    1  C8  UNL     1      -1.908   5.700  12.771  1.00  0.00     0.048 C 
HETATM    2  C9  UNL     1      -2.318   4.552  12.205  1.00  0.00     0.047 A 
HETATM    3  C10 UNL     1      -1.555   3.478  11.465  1.00  0.00     0.257 A 
HETATM    4  O1  UNL     1      -0.366   3.429  11.214  1.00  0.00    -0.267 OA
HETATM    5  N2  UNL     1      -2.499   2.529  11.111  1.00  0.00    -0.322 N 
HETATM    6  C11 UNL     1      -3.768   2.886  11.545  1.00  0.00     0.046 A 
HETATM    7  C12 UNL     1      -4.933   2.164  11.366  1.00  0.00     0.032 A 
HETATM    8  C13 UNL     1      -6.110   2.705  11.884  1.00  0.00     0.027 A 
HETATM    9  C14 UNL     1      -6.084   3.945  12.554  1.00  0.00     0.075 A 
HETATM   10  C15 UNL     1      -4.891   4.659  12.737  1.00  0.00     0.039 A 
HETATM   11  C16 UNL     1      -3.729   4.112  12.218  1.00  0.00     0.008 A 
HETATM   12  H14 UNL     1      -2.259   1.689  10.607  1.00  0.00     0.169 HD
ENDROOT
BRANCH   1  13
HETATM   13  C7  UNL     1      -0.603   6.265  12.845  1.00  0.00     0.040 A 
HETATM   14  C6  UNL     1       0.229   6.765  11.839  1.00  0.00    -0.023 A 
HETATM   15  C18 UNL     1       1.432   7.201  12.464  1.00  0.00    -0.027 A 
HETATM   16  C17 UNL     1       1.297   6.969  13.813  1.00  0.00     0.016 A 
HETATM   17  C19 UNL     1       2.657   7.828  11.882  1.00  0.00     0.041 C 
HETATM   18  N4  UNL     1       0.074   6.406  14.036  1.00  0.00    -0.359 N 
HETATM   19  C22 UNL     1       2.309   7.249  14.865  1.00  0.00     0.057 C 
HETATM   20  H20 UNL     1      -0.273   6.132  14.950  1.00  0.00     0.166 HD
HETATM   21  C21 UNL     1       3.392   8.190  14.305  1.00  0.00     0.006 C 
HETATM   22  C20 UNL     1       3.828   7.794  12.883  1.00  0.00     0.005 C 
BRANCH  14  23
HETATM   23  C5  UNL     1      -0.065   6.838  10.370  1.00  0.00     0.043 C 
BRANCH  23  24
HETATM   24  C4  UNL     1       0.185   8.240   9.803  1.00  0.00     0.035 C 
BRANCH  24  25
HETATM   25  C3  UNL     1       0.455   8.173   8.294  1.00  0.00     0.271 C 
BRANCH  25  26
HETATM   26  N1  UNL     1       1.737   7.585   7.879  1.00  0.00     0.080 N 
HETATM   27  C1  UNL     1       1.741   7.168   6.479  1.00  0.00     0.309 C 
HETATM   28  C2  UNL     1       2.880   8.444   8.172  1.00  0.00     0.309 C 
ENDBRANCH  25  26
ENDBRANCH  24  25
ENDBRANCH  23  24
ENDBRANCH  14  23
ENDBRANCH   1  13
BRANCH   9  29
HETATM   29  S1  UNL     1      -7.601   4.593  13.216  1.00  0.00     0.239 S 
HETATM   30  O2  UNL     1      -8.115   5.579  12.294  1.00  0.00    -0.206 OA
HETATM   31  O3  UNL     1      -7.401   4.865  14.619  1.00  0.00    -0.206 OA
BRANCH  29  32
HETATM   32  N3  UNL     1      -8.624   3.265  13.078  1.00  0.00    -0.225 NA
HETATM   33  H17 UNL     1      -9.384   3.497  12.435  1.00  0.00     0.136 HD
HETATM   34  H18 UNL     1      -8.149   2.402  12.816  1.00  0.00     0.136 HD
ENDBRANCH  29  32
ENDBRANCH   9  29
TORSDOF 7
ENDMDL
MODEL 2
REMARK minimizedAffinity -9.02052784
REMARK  7 active torsions:
REMARK  status: ('A' for Active; 'I' for Inactive)
REMARK    1  A    between atoms: N1_2  and  C3_4 
REMARK    2  A    between atoms: C3_4  and  C4_5 
REMARK    3  A    between atoms: C4_5  and  C5_6 
REMARK    4  A    between atoms: C5_6  and  C6_7 
REMARK    5  A    between atoms: C7_8  and  C8_9 
REMARK    6  A    between atoms: C14_17  and  S1_18 
REMARK    7  A    between atoms: S1_18  and  N3_19 
ROOT
HETATM    1  C8  UNL     1      -2.122   4.917  12.274  1.00  0.00     0.048 C 
HETATM    2  C9  UNL     1      -2.572   3.710  11.890  1.00  0.00     0.047 A 
HETATM    3  C10 UNL     1      -1.851   2.519  11.305  1.00  0.00     0.257 A 
HETATM    4  O1  UNL     1      -0.669   2.399  11.045  1.00  0.00    -0.267 OA
HETATM    5  N2  UNL     1      -2.825   1.554  11.110  1.00  0.00    -0.322 N 
HETATM    6  C11 UNL     1      -4.076   2.006  11.506  1.00  0.00     0.046 A 
HETATM    7  C12 UNL     1      -5.262   1.297  11.453  1.00  0.00     0.032 A 
HETATM    8  C13 UNL     1      -6.415   1.942  11.905  1.00  0.00     0.027 A 
HETATM    9  C14 UNL     1      -6.345   3.266  12.384  1.00  0.00     0.075 A 
HETATM   10  C15 UNL     1      -5.131   3.966  12.441  1.00  0.00     0.039 A 
HETATM   11  C16 UNL     1      -3.993   3.316  11.990  1.00  0.00     0.008 A 
HETATM   12  H14 UNL     1      -2.617   0.642  10.731  1.00  0.00     0.169 HD
ENDROOT
BRANCH   1  13
HETATM   13  C7  UNL     1      -0.803   5.450  12.243  1.00  0.00     0.040 A 
HETATM   14  C6  UNL     1      -0.080   6.144  13.218  1.00  0.00    -0.023 A 
HETATM   15  C18 UNL     1       1.193   6.455  12.660  1.00  0.00    -0.027 A 
HETATM   16  C17 UNL     1       1.215   5.938  11.386  1.00  0.00     0.016 A 
HETATM   17  C19 UNL     1       2.365   7.169  13.250  1.00  0.00     0.041 C 
HETATM   18  N4  UNL     1       0.014   5.337  11.140  1.00  0.00    -0.359 N 
HETATM   19  C22 UNL     1       2.334   6.031  10.411  1.00  0.00     0.057 C 
HETATM   20  H20 UNL     1      -0.231   4.881  10.267  1.00  0.00     0.166 HD
HETATM   21  C21 UNL     1       3.623   6.452  11.141  1.00  0.00     0.006 C 
HETATM   22  C20 UNL     1       3.373   7.580  12.159  1.00  0.00     0.005 C 
BRANCH  14  23
HETATM   23  C5  UNL     1      -0.537   6.510  14.599  1.00  0.00     0.043 C 
BRANCH  23  24
HETATM   24  C4  UNL     1      -2.041   6.283  14.786  1.00  0.00     0.035 C 
BRANCH  24  25
HETATM   25  C3  UNL     1      -2.784   7.622  14.875  1.00  0.00     0.271 C 
BRANCH  25  26
HETATM   26  N1  UNL     1      -4.241   7.581  14.686  1.00  0.00     0.080 N 
HETATM   27  C1  UNL     1      -4.636   7.754  13.291  1.00  0.00     0.309 C 
HETATM   28  C2  UNL     1      -4.858   6.390  15.261  1.00  0.00     0.309 C 
ENDBRANCH  25  26
ENDBRANCH  24  25
ENDBRANCH  23  24
ENDBRANCH  14  23
ENDBRANCH   1  13
BRANCH   9  29
HETATM   29  S1  UNL     1      -7.832   4.046  12.966  1.00  0.00     0.239 S 
HETATM   30  O2  UNL     1      -8.947   3.178  12.667  1.00  0.00    -0.206 OA
HETATM   31  O3  UNL     1      -7.795   5.434  12.575  1.00  0.00    -0.206 OA
BRANCH  29  32
HETATM   32  N3  UNL     1      -7.626   3.963  14.633  1.00  0.00    -0.225 NA
HETATM   33  H17 UNL     1      -8.365   3.381  15.031  1.00  0.00     0.136 HD
HETATM   34  H18 UNL     1      -6.698   3.655  14.921  1.00  0.00     0.136 HD
ENDBRANCH  29  32
ENDBRANCH   9  29
TORSDOF 7
ENDMDL
MODEL 3
REMARK minimizedAffinity -8.89966965
REMARK  7 active torsions:
REMARK  status: ('A' for Active; 'I' for Inactive)
REMARK    1  A    between atoms: N1_2  and  C3_4 
REMARK    2  A    between atoms: C3_4  and  C4_5 
REMARK    3  A    between atoms: C4_5  and  C5_6 
REMARK    4  A    between atoms: C5_6  and  C6_7 
REMARK    5  A    between atoms: C7_8  and  C8_9 
REMARK    6  A    between atoms: C14_17  and  S1_18 
REMARK    7  A    between atoms: S1_18  and  N3_19 
ROOT
HETATM    1  C8  UNL     1      -1.947   6.378  12.250  1.00  0.00     0.048 C 
HETATM    2  C9  UNL     1      -1.060   7.374  12.418  1.00  0.00     0.047 A 
HETATM    3  C10 UNL     1      -1.153   8.671  13.188  1.00  0.00     0.257 A 
HETATM    4  O1  UNL     1      -2.086   9.103  13.836  1.00  0.00    -0.267 OA
HETATM    5  N2  UNL     1       0.068   9.298  13.005  1.00  0.00    -0.322 N 
HETATM    6  C11 UNL     1       0.916   8.542  12.208  1.00  0.00     0.046 A 
HETATM    7  C12 UNL     1       2.206   8.871  11.835  1.00  0.00     0.032 A 
HETATM    8  C13 UNL     1       2.890   7.964  11.024  1.00  0.00     0.027 A 
HETATM    9  C14 UNL     1       2.263   6.770  10.611  1.00  0.00     0.075 A 
HETATM   10  C15 UNL     1       0.958   6.448  11.008  1.00  0.00     0.039 A 
HETATM   11  C16 UNL     1       0.288   7.356  11.813  1.00  0.00     0.008 A 
HETATM   12  H14 UNL     1       0.285  10.192  13.420  1.00  0.00     0.169 HD
ENDROOT
BRANCH   1  13
HETATM   13  C7  UNL     1      -3.271   6.242  12.755  1.00  0.00     0.040 A 
HETATM   14  C6  UNL     1      -4.083   5.112  12.883  1.00  0.00    -0.023 A 
HETATM   15  C18 UNL     1      -5.321   5.541  13.442  1.00  0.00    -0.027 A 
HETATM   16  C17 UNL     1      -5.225   6.898  13.647  1.00  0.00     0.016 A 
HETATM   17  C19 UNL     1      -6.544   4.765  13.805  1.00  0.00     0.041 C 
HETATM   18  N4  UNL     1      -3.993   7.313  13.232  1.00  0.00    -0.359 N 
HETATM   19  C22 UNL     1      -6.282   7.787  14.198  1.00  0.00     0.057 C 
HETATM   20  H20 UNL     1      -3.670   8.275  13.270  1.00  0.00     0.166 HD
HETATM   21  C21 UNL     1      -7.374   6.937  14.873  1.00  0.00     0.006 C 
HETATM   22  C20 UNL     1      -7.748   5.700  14.035  1.00  0.00     0.005 C 
BRANCH  14  23
HETATM   23  C5  UNL     1      -3.741   3.700  12.507  1.00  0.00     0.043 C 
BRANCH  23  24
HETATM   24  C4  UNL     1      -3.771   3.486  10.991  1.00  0.00     0.035 C 
BRANCH  24  25
HETATM   25  C3  UNL     1      -2.367   3.167  10.462  1.00  0.00     0.271 C 
BRANCH  25  26
HETATM   26  N1  UNL     1      -1.503   2.354  11.330  1.00  0.00     0.080 N 
HETATM   27  C1  UNL     1      -1.078   1.108  10.698  1.00  0.00     0.309 C 
HETATM   28  C2  UNL     1      -0.358   3.094  11.850  1.00  0.00     0.309 C 
ENDBRANCH  25  26
ENDBRANCH  24  25
ENDBRANCH  23  24
ENDBRANCH  14  23
ENDBRANCH   1  13
BRANCH   9  29
HETATM   29  S1  UNL     1       3.173   5.633   9.593  1.00  0.00     0.239 S 
HETATM   30  O2  UNL     1       4.574   5.742   9.931  1.00  0.00    -0.206 OA
HETATM   31  O3  UNL     1       2.685   5.748   8.240  1.00  0.00    -0.206 OA
BRANCH  29  32
HETATM   32  N3  UNL     1       2.671   4.151  10.210  1.00  0.00    -0.225 NA
HETATM   33  H17 UNL     1       3.477   3.667  10.610  1.00  0.00     0.136 HD
HETATM   34  H18 UNL     1       1.897   4.218  10.869  1.00  0.00     0.136 HD
ENDBRANCH  29  32
ENDBRANCH   9  29
TORSDOF 7
ENDMDL
MODEL 4
REMARK minimizedAffinity -8.78715038
REMARK  7 active torsions:
REMARK  status: ('A' for Active; 'I' for Inactive)
REMARK    1  A    between atoms: N1_2  and  C3_4 
REMARK    2  A    between atoms: C3_4  and  C4_5 
REMARK    3  A    between atoms: C4_5  and  C5_6 
REMARK    4  A    between atoms: C5_6  and  C6_7 
REMARK    5  A    between atoms: C7_8  and  C8_9 
REMARK    6  A    between atoms: C14_17  and  S1_18 
REMARK    7  A    between atoms: S1_18  and  N3_19 
ROOT
HETATM    1  C8  UNL     1      -1.671   4.893  11.758  1.00  0.00     0.048 C 
HETATM    2  C9  UNL     1      -0.845   5.420  12.678  1.00  0.00     0.047 A 
HETATM    3  C10 UNL     1      -0.992   5.579  14.173  1.00  0.00     0.257 A 
HETATM    4  O1  UNL     1      -1.923   5.253  14.884  1.00  0.00    -0.267 OA
HETATM    5  N2  UNL     1       0.177   6.190  14.597  1.00  0.00    -0.322 N 
HETATM    6  C11 UNL     1       1.039   6.433  13.537  1.00  0.00     0.046 A 
HETATM    7  C12 UNL     1       2.287   7.021  13.610  1.00  0.00     0.032 A 
HETATM    8  C13 UNL     1       2.996   7.173  12.416  1.00  0.00     0.027 A 
HETATM    9  C14 UNL     1       2.432   6.740  11.199  1.00  0.00     0.075 A 
HETATM   10  C15 UNL     1       1.169   6.135  11.145  1.00  0.00     0.039 A 
HETATM   11  C16 UNL     1       0.475   5.990  12.336  1.00  0.00     0.008 A 
HETATM   12  H14 UNL     1       0.352   6.411  15.566  1.00  0.00     0.169 HD
ENDROOT
BRANCH   1  13
HETATM   13  C7  UNL     1      -2.961   4.312  11.918  1.00  0.00     0.040 A 
HETATM   14  C6  UNL     1      -4.151   4.861  12.406  1.00  0.00    -0.023 A 
HETATM   15  C18 UNL     1      -5.141   3.838  12.357  1.00  0.00    -0.027 A 
HETATM   16  C17 UNL     1      -4.539   2.716  11.837  1.00  0.00     0.016 A 
HETATM   17  C19 UNL     1      -6.584   3.863  12.738  1.00  0.00     0.041 C 
HETATM   18  N4  UNL     1      -3.231   3.006  11.576  1.00  0.00    -0.359 N 
HETATM   19  C22 UNL     1      -5.177   1.391  11.614  1.00  0.00     0.057 C 
HETATM   20  H20 UNL     1      -2.563   2.345  11.191  1.00  0.00     0.166 HD
HETATM   21  C21 UNL     1      -6.709   1.536  11.683  1.00  0.00     0.006 C 
HETATM   22  C20 UNL     1      -7.156   2.436  12.850  1.00  0.00     0.005 C 
BRANCH  14  23
HETATM   23  C5  UNL     1      -4.371   6.261  12.899  1.00  0.00     0.043 C 
BRANCH  23  24
HETATM   24  C4  UNL     1      -5.031   6.286  14.281  1.00  0.00     0.035 C 
BRANCH  24  25
HETATM   25  C3  UNL     1      -6.254   7.213  14.280  1.00  0.00     0.271 C 
BRANCH  25  26
HETATM   26  N1  UNL     1      -7.278   6.956  15.303  1.00  0.00     0.080 N 
HETATM   27  C1  UNL     1      -8.601   6.719  14.732  1.00  0.00     0.309 C 
HETATM   28  C2  UNL     1      -6.907   5.887  16.225  1.00  0.00     0.309 C 
ENDBRANCH  25  26
ENDBRANCH  24  25
ENDBRANCH  23  24
ENDBRANCH  14  23
ENDBRANCH   1  13
BRANCH   9  29
HETATM   29  S1  UNL     1       3.372   6.935   9.703  1.00  0.00     0.239 S 
HETATM   30  O2  UNL     1       4.760   6.662  10.000  1.00  0.00    -0.206 OA
HETATM   31  O3  UNL     1       2.937   8.147   9.052  1.00  0.00    -0.206 OA
BRANCH  29  32
HETATM   32  N3  UNL     1       2.835   5.626   8.794  1.00  0.00    -0.225 NA
HETATM   33  H17 UNL     1       3.622   4.997   8.619  1.00  0.00     0.136 HD
HETATM   34  H18 UNL     1       2.037   5.139   9.199  1.00  0.00     0.136 HD
ENDBRANCH  29  32
ENDBRANCH   9  29
TORSDOF 7
ENDMDL
MODEL 5
REMARK minimizedAffinity -8.77441883
REMARK  7 active torsions:
REMARK  status: ('A' for Active; 'I' for Inactive)
REMARK    1  A    between atoms: N1_2  and  C3_4 
REMARK    2  A    between atoms: C3_4  and  C4_5 
REMARK    3  A    between atoms: C4_5  and  C5_6 
REMARK    4  A    between atoms: C5_6  and  C6_7 
REMARK    5  A    between atoms: C7_8  and  C8_9 
REMARK    6  A    between atoms: C14_17  and  S1_18 
REMARK    7  A    between atoms: S1_18  and  N3_19 
ROOT
HETATM    1  C8  UNL     1      -8.077   5.906  13.162  1.00  0.00     0.048 C 
HETATM    2  C9  UNL     1      -8.482   6.433  14.331  1.00  0.00     0.047 A 
HETATM    3  C10 UNL     1      -7.940   6.278  15.733  1.00  0.00     0.257 A 
HETATM    4  O1  UNL     1      -6.993   5.617  16.112  1.00  0.00    -0.267 OA
HETATM    5  N2  UNL     1      -8.759   7.057  16.534  1.00  0.00    -0.322 N 
HETATM    6  C11 UNL     1      -9.752   7.683  15.793  1.00  0.00     0.046 A 
HETATM    7  C12 UNL     1     -10.728   8.532  16.278  1.00  0.00     0.032 A 
HETATM    8  C13 UNL     1     -11.637   9.058  15.357  1.00  0.00     0.027 A 
HETATM    9  C14 UNL     1     -11.542   8.712  13.993  1.00  0.00     0.075 A 
HETATM   10  C15 UNL     1     -10.538   7.857  13.517  1.00  0.00     0.039 A 
HETATM   11  C16 UNL     1      -9.642   7.342  14.440  1.00  0.00     0.008 A 
HETATM   12  H14 UNL     1      -8.618   7.144  17.530  1.00  0.00     0.169 HD
ENDROOT
BRANCH   1  13
HETATM   13  C7  UNL     1      -6.995   5.024  12.886  1.00  0.00     0.040 A 
HETATM   14  C6  UNL     1      -5.630   5.147  13.158  1.00  0.00    -0.023 A 
HETATM   15  C18 UNL     1      -4.991   3.976  12.659  1.00  0.00    -0.027 A 
HETATM   16  C17 UNL     1      -5.972   3.179  12.117  1.00  0.00     0.016 A 
HETATM   17  C19 UNL     1      -3.555   3.566  12.684  1.00  0.00     0.041 C 
HETATM   18  N4  UNL     1      -7.172   3.813  12.255  1.00  0.00    -0.359 N 
HETATM   19  C22 UNL     1      -5.778   1.859  11.459  1.00  0.00     0.057 C 
HETATM   20  H20 UNL     1      -8.059   3.438  11.932  1.00  0.00     0.166 HD
HETATM   21  C21 UNL     1      -4.379   1.312  11.800  1.00  0.00     0.006 C 
HETATM   22  C20 UNL     1      -3.292   2.399  11.712  1.00  0.00     0.005 C 
BRANCH  14  23
HETATM   23  C5  UNL     1      -4.939   6.290  13.842  1.00  0.00     0.043 C 
BRANCH  23  24
HETATM   24  C4  UNL     1      -3.857   6.920  12.959  1.00  0.00     0.035 C 
BRANCH  24  25
HETATM   25  C3  UNL     1      -3.878   8.449  13.085  1.00  0.00     0.271 C 
BRANCH  25  26
HETATM   26  N1  UNL     1      -2.579   9.113  13.270  1.00  0.00     0.080 N 
HETATM   27  C1  UNL     1      -1.918   8.725  14.512  1.00  0.00     0.309 C 
HETATM   28  C2  UNL     1      -1.687   8.948  12.128  1.00  0.00     0.309 C 
ENDBRANCH  25  26
ENDBRANCH  24  25
ENDBRANCH  23  24
ENDBRANCH  14  23
ENDBRANCH   1  13
BRANCH   9  29
HETATM   29  S1  UNL     1     -12.706   9.415  12.849  1.00  0.00     0.239 S 
HETATM   30  O2  UNL     1     -13.023  10.754  13.289  1.00  0.00    -0.206 OA
HETATM   31  O3  UNL     1     -13.717   8.425  12.570  1.00  0.00    -0.206 OA
BRANCH  29  32
HETATM   32  N3  UNL     1     -11.757   9.601  11.473  1.00  0.00    -0.225 NA
HETATM   33  H17 UNL     1     -11.689  10.595  11.248  1.00  0.00     0.136 HD
HETATM   34  H18 UNL     1     -10.841   9.159  11.539  1.00  0.00     0.136 HD
ENDBRANCH  29  32
ENDBRANCH   9  29
TORSDOF 7
ENDMDL
MODEL 6
REMARK minimizedAffinity -8.74772167
REMARK  7 active torsions:
REMARK  status: ('A' for Active; 'I' for Inactive)
REMARK    1  A    between atoms: N1_2  and  C3_4 
REMARK    2  A    between atoms: C3_4  and  C4_5 
REMARK    3  A    between atoms: C4_5  and  C5_6 
REMARK    4  A    between atoms: C5_6  and  C6_7 
REMARK    5  A    between atoms: C7_8  and  C8_9 
REMARK    6  A    between atoms: C14_17  and  S1_18 
REMARK    7  A    between atoms: S1_18  and  N3_19 
ROOT
HETATM    1  C8  UNL     1      -1.900   5.114  12.217  1.00  0.00     0.048 C 
HETATM    2  C9  UNL     1      -2.423   3.932  11.849  1.00  0.00     0.047 A 
HETATM    3  C10 UNL     1      -1.786   2.713  11.223  1.00  0.00     0.257 A 
HETATM    4  O1  UNL     1      -0.624   2.542  10.906  1.00  0.00    -0.267 OA
HETATM    5  N2  UNL     1      -2.812   1.797  11.069  1.00  0.00    -0.322 N 
HETATM    6  C11 UNL     1      -4.021   2.302  11.528  1.00  0.00     0.046 A 
HETATM    7  C12 UNL     1      -5.239   1.649  11.528  1.00  0.00     0.032 A 
HETATM    8  C13 UNL     1      -6.338   2.342  12.038  1.00  0.00     0.027 A 
HETATM    9  C14 UNL     1      -6.184   3.658  12.520  1.00  0.00     0.075 A 
HETATM   10  C15 UNL     1      -4.938   4.301  12.523  1.00  0.00     0.039 A 
HETATM   11  C16 UNL     1      -3.854   3.603  12.014  1.00  0.00     0.008 A 
HETATM   12  H14 UNL     1      -2.665   0.879  10.676  1.00  0.00     0.169 HD
ENDROOT
BRANCH   1  13
HETATM   13  C7  UNL     1      -0.560   5.586  12.126  1.00  0.00     0.040 A 
HETATM   14  C6  UNL     1       0.248   6.217  13.076  1.00  0.00    -0.023 A 
HETATM   15  C18 UNL     1       1.502   6.485  12.455  1.00  0.00    -0.027 A 
HETATM   16  C17 UNL     1       1.428   6.005  11.169  1.00  0.00     0.016 A 
HETATM   17  C19 UNL     1       2.737   7.126  12.997  1.00  0.00     0.041 C 
HETATM   18  N4  UNL     1       0.189   5.468  10.976  1.00  0.00    -0.359 N 
HETATM   19  C22 UNL     1       2.495   6.076  10.135  1.00  0.00     0.057 C 
HETATM   20  H20 UNL     1      -0.126   5.049  10.106  1.00  0.00     0.166 HD
HETATM   21  C21 UNL     1       3.841   6.414  10.802  1.00  0.00     0.006 C 
HETATM   22  C20 UNL     1       3.702   7.522  11.862  1.00  0.00     0.005 C 
BRANCH  14  23
HETATM   23  C5  UNL     1      -0.114   6.563  14.491  1.00  0.00     0.043 C 
BRANCH  23  24
HETATM   24  C4  UNL     1      -0.630   8.000  14.616  1.00  0.00     0.035 C 
BRANCH  24  25
HETATM   25  C3  UNL     1      -0.194   8.618  15.952  1.00  0.00     0.271 C 
BRANCH  25  26
HETATM   26  N1  UNL     1      -1.005   9.734  16.459  1.00  0.00     0.080 N 
HETATM   27  C1  UNL     1      -2.364   9.332  16.809  1.00  0.00     0.309 C 
HETATM   28  C2  UNL     1      -0.369  10.445  17.563  1.00  0.00     0.309 C 
ENDBRANCH  25  26
ENDBRANCH  24  25
ENDBRANCH  23  24
ENDBRANCH  14  23
ENDBRANCH   1  13
BRANCH   9  29
HETATM   29  S1  UNL     1      -7.604   4.501  13.178  1.00  0.00     0.239 S 
HETATM   30  O2  UNL     1      -7.980   5.546  12.254  1.00  0.00    -0.206 OA
HETATM   31  O3  UNL     1      -7.373   4.744  14.582  1.00  0.00    -0.206 OA
BRANCH  29  32
HETATM   32  N3  UNL     1      -8.793   3.320  13.038  1.00  0.00    -0.225 NA
HETATM   33  H17 UNL     1      -9.514   3.649  12.393  1.00  0.00     0.136 HD
HETATM   34  H18 UNL     1      -8.436   2.402  12.777  1.00  0.00     0.136 HD
ENDBRANCH  29  32
ENDBRANCH   9  29
TORSDOF 7
ENDMDL
MODEL 7
REMARK minimizedAffinity -8.69457722
REMARK  7 active torsions:
REMARK  status: ('A' for Active; 'I' for Inactive)
REMARK    1  A    between atoms: N1_2  and  C3_4 
REMARK    2  A    between atoms: C3_4  and  C4_5 
REMARK    3  A    between atoms: C4_5  and  C5_6 
REMARK    4  A    between atoms: C5_6  and  C6_7 
REMARK    5  A    between atoms: C7_8  and  C8_9 
REMARK    6  A    between atoms: C14_17  and  S1_18 
REMARK    7  A    between atoms: S1_18  and  N3_19 
ROOT
HETATM    1  C8  UNL     1      -6.379   5.612  13.282  1.00  0.00     0.048 C 
HETATM    2  C9  UNL     1      -6.262   4.352  12.828  1.00  0.00     0.047 A 
HETATM    3  C10 UNL     1      -7.294   3.266  12.633  1.00  0.00     0.257 A 
HETATM    4  O1  UNL     1      -8.488   3.303  12.856  1.00  0.00    -0.267 OA
HETATM    5  N2  UNL     1      -6.595   2.178  12.136  1.00  0.00    -0.322 N 
HETATM    6  C11 UNL     1      -5.243   2.459  11.998  1.00  0.00     0.046 A 
HETATM    7  C12 UNL     1      -4.268   1.601  11.525  1.00  0.00     0.032 A 
HETATM    8  C13 UNL     1      -2.961   2.086  11.466  1.00  0.00     0.027 A 
HETATM    9  C14 UNL     1      -2.674   3.401  11.886  1.00  0.00     0.075 A 
HETATM   10  C15 UNL     1      -3.678   4.262  12.352  1.00  0.00     0.039 A 
HETATM   11  C16 UNL     1      -4.972   3.769  12.406  1.00  0.00     0.008 A 
HETATM   12  H14 UNL     1      -7.046   1.304  11.905  1.00  0.00     0.169 HD
ENDROOT
BRANCH   1  13
HETATM   13  C7  UNL     1      -7.533   6.319  13.725  1.00  0.00     0.040 A 
HETATM   14  C6  UNL     1      -7.669   7.324  14.686  1.00  0.00    -0.023 A 
HETATM   15  C18 UNL     1      -9.049   7.673  14.742  1.00  0.00    -0.027 A 
HETATM   16  C17 UNL     1      -9.702   6.891  13.818  1.00  0.00     0.016 A 
HETATM   17  C19 UNL     1      -9.762   8.688  15.573  1.00  0.00     0.041 C 
HETATM   18  N4  UNL     1      -8.788   6.079  13.212  1.00  0.00    -0.359 N 
HETATM   19  C22 UNL     1     -11.162   6.891  13.532  1.00  0.00     0.057 C 
HETATM   20  H20 UNL     1      -9.013   5.399  12.492  1.00  0.00     0.166 HD
HETATM   21  C21 UNL     1     -11.807   8.154  14.132  1.00  0.00     0.006 C 
HETATM   22  C20 UNL     1     -11.286   8.456  15.549  1.00  0.00     0.005 C 
BRANCH  14  23
HETATM   23  C5  UNL     1      -6.583   7.938  15.520  1.00  0.00     0.043 C 
BRANCH  23  24
HETATM   24  C4  UNL     1      -5.295   7.108  15.486  1.00  0.00     0.035 C 
BRANCH  24  25
HETATM   25  C3  UNL     1      -4.135   7.932  14.912  1.00  0.00     0.271 C 
BRANCH  25  26
HETATM   26  N1  UNL     1      -2.778   7.432  15.172  1.00  0.00     0.080 N 
HETATM   27  C1  UNL     1      -1.889   7.585  14.024  1.00  0.00     0.309 C 
HETATM   28  C2  UNL     1      -2.181   8.002  16.376  1.00  0.00     0.309 C 
ENDBRANCH  25  26
ENDBRANCH  24  25
ENDBRANCH  23  24
ENDBRANCH  14  23
ENDBRANCH   1  13
BRANCH   9  29
HETATM   29  S1  UNL     1      -1.000   3.988  11.779  1.00  0.00     0.239 S 
HETATM   30  O2  UNL     1      -0.579   4.404  13.097  1.00  0.00    -0.206 OA
HETATM   31  O3  UNL     1      -0.894   4.840  10.619  1.00  0.00    -0.206 OA
BRANCH  29  32
HETATM   32  N3  UNL     1      -0.162   2.564  11.463  1.00  0.00    -0.225 NA
HETATM   33  H17 UNL     1       0.477   2.376  12.237  1.00  0.00     0.136 HD
HETATM   34  H18 UNL     1      -0.763   1.767  11.259  1.00  0.00     0.136 HD
ENDBRANCH  29  32
ENDBRANCH   9  29
TORSDOF 7
ENDMDL
MODEL 8
REMARK minimizedAffinity -8.62587929
REMARK  7 active torsions:
REMARK  status: ('A' for Active; 'I' for Inactive)
REMARK    1  A    between atoms: N1_2  and  C3_4 
REMARK    2  A    between atoms: C3_4  and  C4_5 
REMARK    3  A    between atoms: C4_5  and  C5_6 
REMARK    4  A    between atoms: C5_6  and  C6_7 
REMARK    5  A    between atoms: C7_8  and  C8_9 
REMARK    6  A    between atoms: C14_17  and  S1_18 
REMARK    7  A    between atoms: S1_18  and  N3_19 
ROOT
HETATM    1  C8  UNL     1      -2.200   5.734  12.247  1.00  0.00     0.048 C 
HETATM    2  C9  UNL     1      -3.010   4.719  11.900  1.00  0.00     0.047 A 
HETATM    3  C10 UNL     1      -2.831   3.598  10.903  1.00  0.00     0.257 A 
HETATM    4  O1  UNL     1      -1.882   3.373  10.176  1.00  0.00    -0.267 OA
HETATM    5  N2  UNL     1      -3.995   2.850  10.973  1.00  0.00    -0.322 N 
HETATM    6  C11 UNL     1      -4.883   3.376  11.901  1.00  0.00     0.046 A 
HETATM    7  C12 UNL     1      -6.130   2.873  12.223  1.00  0.00     0.032 A 
HETATM    8  C13 UNL     1      -6.868   3.557  13.190  1.00  0.00     0.027 A 
HETATM    9  C14 UNL     1      -6.340   4.718  13.793  1.00  0.00     0.075 A 
HETATM   10  C15 UNL     1      -5.069   5.207  13.462  1.00  0.00     0.039 A 
HETATM   11  C16 UNL     1      -4.346   4.520  12.501  1.00  0.00     0.008 A 
HETATM   12  H14 UNL     1      -4.143   2.025  10.411  1.00  0.00     0.169 HD
ENDROOT
BRANCH   1  13
HETATM   13  C7  UNL     1      -0.901   6.067  11.769  1.00  0.00     0.040 A 
HETATM   14  C6  UNL     1      -0.303   7.312  11.555  1.00  0.00    -0.023 A 
HETATM   15  C18 UNL     1       1.010   7.071  11.059  1.00  0.00    -0.027 A 
HETATM   16  C17 UNL     1       1.178   5.708  10.999  1.00  0.00     0.016 A 
HETATM   17  C19 UNL     1       2.093   8.025  10.673  1.00  0.00     0.041 C 
HETATM   18  N4  UNL     1       0.028   5.110  11.425  1.00  0.00    -0.359 N 
HETATM   19  C22 UNL     1       2.387   4.984  10.525  1.00  0.00     0.057 C 
HETATM   20  H20 UNL     1      -0.113   4.105  11.472  1.00  0.00     0.166 HD
HETATM   21  C21 UNL     1       3.582   5.955  10.466  1.00  0.00     0.006 C 
HETATM   22  C20 UNL     1       3.195   7.317   9.861  1.00  0.00     0.005 C 
BRANCH  14  23
HETATM   23  C5  UNL     1      -0.910   8.664  11.790  1.00  0.00     0.043 C 
BRANCH  23  24
HETATM   24  C4  UNL     1      -0.677   9.157  13.222  1.00  0.00     0.035 C 
BRANCH  24  25
HETATM   25  C3  UNL     1      -1.912   8.892  14.093  1.00  0.00     0.271 C 
BRANCH  25  26
HETATM   26  N1  UNL     1      -1.751   7.928  15.191  1.00  0.00     0.080 N 
HETATM   27  C1  UNL     1      -0.391   7.406  15.291  1.00  0.00     0.309 C 
HETATM   28  C2  UNL     1      -2.208   8.447  16.477  1.00  0.00     0.309 C 
ENDBRANCH  25  26
ENDBRANCH  24  25
ENDBRANCH  23  24
ENDBRANCH  14  23
ENDBRANCH   1  13
BRANCH   9  29
HETATM   29  S1  UNL     1      -7.303   5.551  15.032  1.00  0.00     0.239 S 
HETATM   30  O2  UNL     1      -8.429   6.184  14.384  1.00  0.00    -0.206 OA
HETATM   31  O3  UNL     1      -6.398   6.266  15.900  1.00  0.00    -0.206 OA
BRANCH  29  32
HETATM   32  N3  UNL     1      -7.943   4.255  15.892  1.00  0.00    -0.225 NA
HETATM   33  H17 UNL     1      -8.960   4.266  15.802  1.00  0.00     0.136 HD
HETATM   34  H18 UNL     1      -7.545   3.352  15.637  1.00  0.00     0.136 HD
ENDBRANCH  29  32
ENDBRANCH   9  29
TORSDOF 7
ENDMDL
MODEL 9
REMARK minimizedAffinity -8.39864445
REMARK  7 active torsions:
REMARK  status: ('A' for Active; 'I' for Inactive)
REMARK    1  A    between atoms: N1_2  and  C3_4 
REMARK    2  A    between atoms: C3_4  and  C4_5 
REMARK    3  A    between atoms: C4_5  and  C5_6 
REMARK    4  A    between atoms: C5_6  and  C6_7 
REMARK    5  A    between atoms: C7_8  and  C8_9 
REMARK    6  A    between atoms: C14_17  and  S1_18 
REMARK    7  A    between atoms: S1_18  and  N3_19 
ROOT
HETATM    1  C8  UNL     1      -1.810   6.005  13.260  1.00  0.00     0.048 C 
HETATM    2  C9  UNL     1      -2.107   4.863  12.618  1.00  0.00     0.047 A 
HETATM    3  C10 UNL     1      -1.227   3.870  11.893  1.00  0.00     0.257 A 
HETATM    4  O1  UNL     1      -0.022   3.901  11.731  1.00  0.00    -0.267 OA
HETATM    5  N2  UNL     1      -2.084   2.886  11.430  1.00  0.00    -0.322 N 
HETATM    6  C11 UNL     1      -3.401   3.148  11.782  1.00  0.00     0.046 A 
HETATM    7  C12 UNL     1      -4.502   2.368  11.485  1.00  0.00     0.032 A 
HETATM    8  C13 UNL     1      -5.746   2.816  11.936  1.00  0.00     0.027 A 
HETATM    9  C14 UNL     1      -5.844   4.024  12.657  1.00  0.00     0.075 A 
HETATM   10  C15 UNL     1      -4.714   4.797  12.958  1.00  0.00     0.039 A 
HETATM   11  C16 UNL     1      -3.485   4.342  12.506  1.00  0.00     0.008 A 
HETATM   12  H14 UNL     1      -1.757   2.084  10.911  1.00  0.00     0.169 HD
ENDROOT
BRANCH   1  13
HETATM   13  C7  UNL     1      -0.551   6.641  13.455  1.00  0.00     0.040 A 
HETATM   14  C6  UNL     1       0.139   7.557  12.656  1.00  0.00    -0.023 A 
HETATM   15  C18 UNL     1       1.361   7.863  13.320  1.00  0.00    -0.027 A 
HETATM   16  C17 UNL     1       1.376   7.146  14.494  1.00  0.00     0.016 A 
HETATM   17  C19 UNL     1       2.472   8.784  12.936  1.00  0.00     0.041 C 
HETATM   18  N4  UNL     1       0.227   6.413  14.569  1.00  0.00    -0.359 N 
HETATM   19  C22 UNL     1       2.461   7.132  15.509  1.00  0.00     0.057 C 
HETATM   20  H20 UNL     1      -0.008   5.791  15.337  1.00  0.00     0.166 HD
HETATM   21  C21 UNL     1       3.410   8.321  15.270  1.00  0.00     0.006 C 
HETATM   22  C20 UNL     1       3.734   8.515  13.777  1.00  0.00     0.005 C 
BRANCH  14  23
HETATM   23  C5  UNL     1      -0.301   8.125  11.338  1.00  0.00     0.043 C 
BRANCH  23  24
HETATM   24  C4  UNL     1       0.110   7.233  10.162  1.00  0.00     0.035 C 
BRANCH  24  25
HETATM   25  C3  UNL     1       1.404   6.474  10.485  1.00  0.00     0.271 C 
BRANCH  25  26
HETATM   26  N1  UNL     1       2.587   6.817   9.683  1.00  0.00     0.080 N 
HETATM   27  C1  UNL     1       3.839   6.443  10.335  1.00  0.00     0.309 C 
HETATM   28  C2  UNL     1       2.527   6.290   8.324  1.00  0.00     0.309 C 
ENDBRANCH  25  26
ENDBRANCH  24  25
ENDBRANCH  23  24
ENDBRANCH  14  23
ENDBRANCH   1  13
BRANCH   9  29
HETATM   29  S1  UNL     1      -7.442   4.552  13.228  1.00  0.00     0.239 S 
HETATM   30  O2  UNL     1      -8.026   5.406  12.221  1.00  0.00    -0.206 OA
HETATM   31  O3  UNL     1      -7.317   4.946  14.611  1.00  0.00    -0.206 OA
BRANCH  29  32
HETATM   32  N3  UNL     1      -8.314   3.115  13.168  1.00  0.00    -0.225 NA
HETATM   33  H17 UNL     1      -9.072   3.215  12.491  1.00  0.00     0.136 HD
HETATM   34  H18 UNL     1      -7.742   2.291  12.985  1.00  0.00     0.136 HD
ENDBRANCH  29  32
ENDBRANCH   9  29
TORSDOF 7
ENDMDL
