MODEL 1
REMARK minimizedAffinity -8.30857754
REMARK  3 active torsions:
REMARK  status: ('A' for Active; 'I' for Inactive)
REMARK    1  A    between atoms: N1_1  and  C1_2 
REMARK    2  A    between atoms: C5_10  and  C6_11 
REMARK    3  A    between atoms: N6_24  and  C15_25 
ROOT
HETATM    1  C1  UNL     1       8.995  35.799  17.815  1.00  0.00     0.095 A 
HETATM    2  N2  UNL     1       7.656  35.810  17.994  1.00  0.00    -0.342 N 
ATOM      3  H2  UNL     1       7.027  35.952  17.204  1.00  0.00     0.167 HD
HETATM    4  C2  UNL     1       7.169  35.630  19.237  1.00  0.00     0.183 A 
HETATM    5  N3  UNL     1       7.860  35.448  20.372  1.00  0.00    -0.337 N 
ATOM      6  H3  UNL     1       7.432  35.331  21.290  1.00  0.00     0.168 HD
HETATM    7  C3  UNL     1       9.186  35.439  20.148  1.00  0.00     0.139 A 
HETATM    8  C4  UNL     1       9.822  35.587  18.925  1.00  0.00     0.076 A 
HETATM    9  C5  UNL     1      11.214  35.463  19.223  1.00  0.00     0.077 A 
HETATM   10  N5  UNL     1      11.418  35.323  20.546  1.00  0.00    -0.295 N 
ATOM     11  H5  UNL     1      12.310  35.262  21.037  1.00  0.00     0.187 HD
HETATM   12  N6  UNL     1      10.177  35.282  21.077  1.00  0.00    -0.270 N 
ENDROOT
BRANCH   9  13
HETATM   13  C6  UNL     1      12.352  35.477  18.312  1.00  0.00     0.009 A 
HETATM   14  C7  UNL     1      12.275  36.050  17.051  1.00  0.00     0.102 A 
HETATM   15  N4  UNL     1      13.304  36.102  16.169  1.00  0.00    -0.364 N 
HETATM   16  C8  UNL     1      14.468  35.533  16.526  1.00  0.00     0.042 A 
ATOM     17  H4  UNL     1      13.197  36.559  15.263  1.00  0.00     0.165 HD
HETATM   18  C9  UNL     1      15.540  35.558  15.644  1.00  0.00     0.030 A 
HETATM   19  C13 UNL     1      14.647  34.900  17.775  1.00  0.00    -0.009 A 
HETATM   20  C10 UNL     1      16.770  34.973  15.965  1.00  0.00     0.002 A 
HETATM   21  C11 UNL     1      16.941  34.347  17.194  1.00  0.00     0.001 A 
HETATM   22  C12 UNL     1      15.882  34.310  18.100  1.00  0.00     0.014 A 
HETATM   23  C14 UNL     1      13.563  34.881  18.665  1.00  0.00     0.029 A 
ENDBRANCH   9  13
BRANCH   1  24
HETATM   24  N1  UNL     1       9.442  36.019  16.520  1.00  0.00    -0.288 NA
HETATM   25  H1  UNL     1      10.317  36.520  16.432  1.00  0.00     0.125 HD
HETATM   26  H2  UNL     1       8.686  36.367  15.939  1.00  0.00     0.125 HD
ENDBRANCH   1  24
BRANCH  12  27
HETATM   27  C15 UNL     1      10.030  35.066  22.504  1.00  0.00     0.110 C 
HETATM   28  C16 UNL     1       9.009  35.998  23.175  1.00  0.00     0.027 C 
HETATM   29  C17 UNL     1       8.403  35.153  24.287  1.00  0.00     0.002 C 
HETATM   30  C18 UNL     1       8.313  33.771  23.661  1.00  0.00     0.002 C 
HETATM   31  C19 UNL     1       9.617  33.632  22.883  1.00  0.00     0.027 C 
ENDBRANCH  12  27
TORSDOF 3
ENDMDL
MODEL 2
REMARK minimizedAffinity -8.01786804
REMARK  3 active torsions:
REMARK  status: ('A' for Active; 'I' for Inactive)
REMARK    1  A    between atoms: N1_1  and  C1_2 
REMARK    2  A    between atoms: C5_10  and  C6_11 
REMARK    3  A    between atoms: N6_24  and  C15_25 
ROOT
HETATM    1  C1  UNL     1      10.357  35.645  17.898  1.00  0.00     0.095 A 
HETATM    2  N2  UNL     1       9.026  35.866  17.834  1.00  0.00    -0.342 N 
ATOM      3  H2  UNL     1       8.575  36.066  16.941  1.00  0.00     0.167 HD
HETATM    4  C2  UNL     1       8.307  35.818  18.971  1.00  0.00     0.183 A 
HETATM    5  N3  UNL     1       8.751  35.585  20.215  1.00  0.00    -0.337 N 
ATOM      6  H3  UNL     1       8.156  35.574  21.043  1.00  0.00     0.168 HD
HETATM    7  C3  UNL     1      10.079  35.365  20.233  1.00  0.00     0.139 A 
HETATM    8  C4  UNL     1      10.934  35.361  19.143  1.00  0.00     0.076 A 
HETATM    9  C5  UNL     1      12.215  35.042  19.687  1.00  0.00     0.077 A 
HETATM   10  N5  UNL     1      12.160  34.932  21.028  1.00  0.00    -0.295 N 
ATOM     11  H5  UNL     1      12.932  34.759  21.672  1.00  0.00     0.187 HD
HETATM   12  N6  UNL     1      10.854  35.102  21.328  1.00  0.00    -0.270 N 
ENDROOT
BRANCH   9  13
HETATM   13  C6  UNL     1      13.483  34.844  18.996  1.00  0.00     0.009 A 
HETATM   14  C7  UNL     1      14.517  34.109  19.557  1.00  0.00     0.102 A 
HETATM   15  N4  UNL     1      15.711  33.883  18.954  1.00  0.00    -0.364 N 
HETATM   16  C8  UNL     1      15.920  34.433  17.745  1.00  0.00     0.042 A 
ATOM     17  H4  UNL     1      16.427  33.313  19.405  1.00  0.00     0.165 HD
HETATM   18  C9  UNL     1      17.135  34.231  17.103  1.00  0.00     0.030 A 
HETATM   19  C13 UNL     1      14.945  35.219  17.096  1.00  0.00    -0.009 A 
HETATM   20  C10 UNL     1      17.404  34.788  15.848  1.00  0.00     0.002 A 
HETATM   21  C11 UNL     1      16.443  35.566  15.214  1.00  0.00     0.001 A 
HETATM   22  C12 UNL     1      15.213  35.782  15.835  1.00  0.00     0.014 A 
HETATM   23  C14 UNL     1      13.717  35.417  17.745  1.00  0.00     0.029 A 
ENDBRANCH   9  13
BRANCH   1  24
HETATM   24  N1  UNL     1      11.052  35.738  16.701  1.00  0.00    -0.288 NA
HETATM   25  H1  UNL     1      11.997  36.096  16.763  1.00  0.00     0.125 HD
HETATM   26  H2  UNL     1      10.473  36.169  15.988  1.00  0.00     0.125 HD
ENDBRANCH   1  24
BRANCH  12  27
HETATM   27  C15 UNL     1      10.428  34.976  22.708  1.00  0.00     0.110 C 
HETATM   28  C16 UNL     1       9.641  36.186  23.234  1.00  0.00     0.027 C 
HETATM   29  C17 UNL     1       8.643  35.589  24.217  1.00  0.00     0.002 C 
HETATM   30  C18 UNL     1       8.243  34.282  23.552  1.00  0.00     0.002 C 
HETATM   31  C19 UNL     1       9.550  33.740  22.983  1.00  0.00     0.027 C 
ENDBRANCH  12  27
TORSDOF 3
ENDMDL
MODEL 3
REMARK minimizedAffinity -7.79622936
REMARK  3 active torsions:
REMARK  status: ('A' for Active; 'I' for Inactive)
REMARK    1  A    between atoms: N1_1  and  C1_2 
REMARK    2  A    between atoms: C5_10  and  C6_11 
REMARK    3  A    between atoms: N6_24  and  C15_25 
ROOT
HETATM    1  C1  UNL     1      14.897  34.577  19.874  1.00  0.00     0.095 A 
HETATM    2  N2  UNL     1      16.238  34.412  19.875  1.00  0.00    -0.342 N 
ATOM      3  H2  UNL     1      16.696  33.882  20.617  1.00  0.00     0.167 HD
HETATM    4  C2  UNL     1      16.958  34.963  18.879  1.00  0.00     0.183 A 
HETATM    5  N3  UNL     1      16.510  35.695  17.849  1.00  0.00    -0.337 N 
ATOM      6  H3  UNL     1      17.110  36.099  17.129  1.00  0.00     0.168 HD
HETATM    7  C3  UNL     1      15.172  35.830  17.883  1.00  0.00     0.139 A 
HETATM    8  C4  UNL     1      14.308  35.300  18.829  1.00  0.00     0.076 A 
HETATM    9  C5  UNL     1      13.007  35.695  18.393  1.00  0.00     0.077 A 
HETATM   10  N5  UNL     1      13.075  36.474  17.298  1.00  0.00    -0.295 N 
ATOM     11  H5  UNL     1      12.306  36.930  16.807  1.00  0.00     0.187 HD
HETATM   12  N6  UNL     1      14.391  36.514  16.994  1.00  0.00    -0.270 N 
ENDROOT
BRANCH   9  13
HETATM   13  C6  UNL     1      11.708  35.371  18.971  1.00  0.00     0.009 A 
HETATM   14  C7  UNL     1      11.550  34.345  19.891  1.00  0.00     0.102 A 
HETATM   15  N4  UNL     1      10.370  34.009  20.469  1.00  0.00    -0.364 N 
HETATM   16  C8  UNL     1       9.273  34.694  20.104  1.00  0.00     0.042 A 
ATOM     17  H4  UNL     1      10.317  33.260  21.159  1.00  0.00     0.165 HD
HETATM   18  C9  UNL     1       8.045  34.371  20.667  1.00  0.00     0.030 A 
HETATM   19  C13 UNL     1       9.317  35.740  19.157  1.00  0.00    -0.009 A 
HETATM   20  C10 UNL     1       6.873  35.048  20.314  1.00  0.00     0.002 A 
HETATM   21  C11 UNL     1       6.920  36.075  19.378  1.00  0.00     0.001 A 
HETATM   22  C12 UNL     1       8.140  36.422  18.799  1.00  0.00     0.014 A 
HETATM   23  C14 UNL     1      10.559  36.068  18.593  1.00  0.00     0.029 A 
ENDBRANCH   9  13
BRANCH   1  24
HETATM   24  N1  UNL     1      14.210  34.015  20.939  1.00  0.00    -0.288 NA
HETATM   25  H1  UNL     1      13.389  34.518  21.253  1.00  0.00     0.125 HD
HETATM   26  H2  UNL     1      14.856  33.743  21.673  1.00  0.00     0.125 HD
ENDBRANCH   1  24
BRANCH  12  27
HETATM   27  C15 UNL     1      14.816  37.228  15.804  1.00  0.00     0.110 C 
HETATM   28  C16 UNL     1      15.084  38.723  16.034  1.00  0.00     0.027 C 
HETATM   29  C17 UNL     1      16.220  39.053  15.076  1.00  0.00     0.002 C 
HETATM   30  C18 UNL     1      17.091  37.807  15.129  1.00  0.00     0.002 C 
HETATM   31  C19 UNL     1      16.089  36.658  15.152  1.00  0.00     0.027 C 
ENDBRANCH  12  27
TORSDOF 3
ENDMDL
MODEL 4
REMARK minimizedAffinity -7.68595076
REMARK  3 active torsions:
REMARK  status: ('A' for Active; 'I' for Inactive)
REMARK    1  A    between atoms: N1_1  and  C1_2 
REMARK    2  A    between atoms: C5_10  and  C6_11 
REMARK    3  A    between atoms: N6_24  and  C15_25 
ROOT
HETATM    1  C1  UNL     1      13.820  35.855  21.174  1.00  0.00     0.095 A 
HETATM    2  N2  UNL     1      13.594  35.970  22.501  1.00  0.00    -0.342 N 
ATOM      3  H2  UNL     1      14.360  35.875  23.169  1.00  0.00     0.167 HD
HETATM    4  C2  UNL     1      12.339  36.213  22.925  1.00  0.00     0.183 A 
HETATM    5  N3  UNL     1      11.232  36.347  22.181  1.00  0.00    -0.337 N 
ATOM      6  H3  UNL     1      10.302  36.518  22.563  1.00  0.00     0.168 HD
HETATM    7  C3  UNL     1      11.502  36.231  20.868  1.00  0.00     0.139 A 
HETATM    8  C4  UNL     1      12.742  36.007  20.292  1.00  0.00     0.076 A 
HETATM    9  C5  UNL     1      12.494  36.006  18.886  1.00  0.00     0.077 A 
HETATM   10  N5  UNL     1      11.182  36.146  18.622  1.00  0.00    -0.295 N 
ATOM     11  H5  UNL     1      10.723  36.132  17.711  1.00  0.00     0.187 HD
HETATM   12  N6  UNL     1      10.610  36.310  19.834  1.00  0.00    -0.270 N 
ENDROOT
BRANCH   9  13
HETATM   13  C6  UNL     1      13.443  35.873  17.787  1.00  0.00     0.009 A 
HETATM   14  C7  UNL     1      13.148  36.314  16.506  1.00  0.00     0.102 A 
HETATM   15  N4  UNL     1      13.996  36.227  15.451  1.00  0.00    -0.364 N 
HETATM   16  C8  UNL     1      15.192  35.646  15.650  1.00  0.00     0.042 A 
ATOM     17  H4  UNL     1      13.734  36.590  14.534  1.00  0.00     0.165 HD
HETATM   18  C9  UNL     1      16.081  35.529  14.590  1.00  0.00     0.030 A 
HETATM   19  C13 UNL     1      15.583  35.139  16.908  1.00  0.00    -0.009 A 
HETATM   20  C10 UNL     1      17.334  34.926  14.745  1.00  0.00     0.002 A 
HETATM   21  C11 UNL     1      17.714  34.425  15.984  1.00  0.00     0.001 A 
HETATM   22  C12 UNL     1      16.841  34.531  17.066  1.00  0.00     0.014 A 
HETATM   23  C14 UNL     1      14.684  35.262  17.978  1.00  0.00     0.029 A 
ENDBRANCH   9  13
BRANCH   1  24
HETATM   24  N1  UNL     1      15.124  35.575  20.797  1.00  0.00    -0.288 NA
HETATM   25  H1  UNL     1      15.233  34.994  19.974  1.00  0.00     0.125 HD
HETATM   26  H2  UNL     1      15.673  35.290  21.601  1.00  0.00     0.125 HD
ENDBRANCH   1  24
BRANCH  12  27
HETATM   27  C15 UNL     1       9.183  36.560  19.910  1.00  0.00     0.110 C 
HETATM   28  C16 UNL     1       8.447  36.397  18.572  1.00  0.00     0.027 C 
HETATM   29  C17 UNL     1       7.073  35.868  18.959  1.00  0.00     0.002 C 
HETATM   30  C18 UNL     1       7.377  34.927  20.114  1.00  0.00     0.002 C 
HETATM   31  C19 UNL     1       8.442  35.664  20.920  1.00  0.00     0.027 C 
ENDBRANCH  12  27
TORSDOF 3
ENDMDL
MODEL 5
REMARK minimizedAffinity -7.61928606
REMARK  3 active torsions:
REMARK  status: ('A' for Active; 'I' for Inactive)
REMARK    1  A    between atoms: N1_1  and  C1_2 
REMARK    2  A    between atoms: C5_10  and  C6_11 
REMARK    3  A    between atoms: N6_24  and  C15_25 
ROOT
HETATM    1  C1  UNL     1      12.951  36.427  16.460  1.00  0.00     0.095 A 
HETATM    2  N2  UNL     1      13.797  36.884  15.510  1.00  0.00    -0.342 N 
ATOM      3  H2  UNL     1      13.496  36.955  14.537  1.00  0.00     0.167 HD
HETATM    4  C2  UNL     1      15.043  37.242  15.872  1.00  0.00     0.183 A 
HETATM    5  N3  UNL     1      15.590  37.194  17.095  1.00  0.00    -0.337 N 
ATOM      6  H3  UNL     1      16.549  37.468  17.305  1.00  0.00     0.168 HD
HETATM    7  C3  UNL     1      14.714  36.739  18.010  1.00  0.00     0.139 A 
HETATM    8  C4  UNL     1      13.401  36.359  17.785  1.00  0.00     0.076 A 
HETATM    9  C5  UNL     1      12.901  35.999  19.073  1.00  0.00     0.077 A 
HETATM   10  N5  UNL     1      13.864  36.082  20.010  1.00  0.00    -0.295 N 
ATOM     11  H5  UNL     1      13.796  35.839  20.998  1.00  0.00     0.187 HD
HETATM   12  N6  UNL     1      14.940  36.560  19.347  1.00  0.00    -0.270 N 
ENDROOT
BRANCH   9  13
HETATM   13  C6  UNL     1      11.558  35.576  19.452  1.00  0.00     0.009 A 
HETATM   14  C7  UNL     1      11.338  34.471  20.260  1.00  0.00     0.102 A 
HETATM   15  N4  UNL     1      10.113  34.040  20.652  1.00  0.00    -0.364 N 
HETATM   16  C8  UNL     1       9.037  34.709  20.203  1.00  0.00     0.042 A 
ATOM     17  H4  UNL     1      10.012  33.234  21.269  1.00  0.00     0.165 HD
HETATM   18  C9  UNL     1       7.767  34.290  20.575  1.00  0.00     0.030 A 
HETATM   19  C13 UNL     1       9.147  35.831  19.354  1.00  0.00    -0.009 A 
HETATM   20  C10 UNL     1       6.615  34.947  20.128  1.00  0.00     0.002 A 
HETATM   21  C11 UNL     1       6.728  36.050  19.289  1.00  0.00     0.001 A 
HETATM   22  C12 UNL     1       7.991  36.493  18.902  1.00  0.00     0.014 A 
HETATM   23  C14 UNL     1      10.432  36.255  18.984  1.00  0.00     0.029 A 
ENDBRANCH   9  13
BRANCH   1  24
HETATM   24  N1  UNL     1      11.691  36.044  16.026  1.00  0.00    -0.288 NA
HETATM   25  H1  UNL     1      11.267  35.270  16.522  1.00  0.00     0.125 HD
HETATM   26  H2  UNL     1      11.673  35.970  15.014  1.00  0.00     0.125 HD
ENDBRANCH   1  24
BRANCH  12  27
HETATM   27  C15 UNL     1      16.156  36.837  20.087  1.00  0.00     0.110 C 
HETATM   28  C16 UNL     1      16.028  37.995  21.090  1.00  0.00     0.027 C 
HETATM   29  C17 UNL     1      16.946  37.601  22.238  1.00  0.00     0.002 C 
HETATM   30  C18 UNL     1      16.751  36.097  22.338  1.00  0.00     0.002 C 
HETATM   31  C19 UNL     1      16.693  35.635  20.885  1.00  0.00     0.027 C 
ENDBRANCH  12  27
TORSDOF 3
ENDMDL
MODEL 6
REMARK minimizedAffinity -7.56908941
REMARK  3 active torsions:
REMARK  status: ('A' for Active; 'I' for Inactive)
REMARK    1  A    between atoms: N1_1  and  C1_2 
REMARK    2  A    between atoms: C5_10  and  C6_11 
REMARK    3  A    between atoms: N6_24  and  C15_25 
ROOT
HETATM    1  C1  UNL     1      12.804  36.109  16.197  1.00  0.00     0.095 A 
HETATM    2  N2  UNL     1      11.652  35.838  16.849  1.00  0.00    -0.342 N 
ATOM      3  H2  UNL     1      10.751  35.978  16.392  1.00  0.00     0.167 HD
HETATM    4  C2  UNL     1      11.717  35.381  18.114  1.00  0.00     0.183 A 
HETATM    5  N3  UNL     1      12.814  35.161  18.853  1.00  0.00    -0.337 N 
ATOM      6  H3  UNL     1      12.798  34.825  19.816  1.00  0.00     0.168 HD
HETATM    7  C3  UNL     1      13.937  35.438  18.165  1.00  0.00     0.139 A 
HETATM    8  C4  UNL     1      14.020  35.889  16.858  1.00  0.00     0.076 A 
HETATM    9  C5  UNL     1      15.420  35.987  16.595  1.00  0.00     0.077 A 
HETATM   10  N5  UNL     1      16.143  35.687  17.690  1.00  0.00    -0.295 N 
ATOM     11  H5  UNL     1      17.156  35.721  17.798  1.00  0.00     0.187 HD
HETATM   12  N6  UNL     1      15.224  35.330  18.614  1.00  0.00    -0.270 N 
ENDROOT
BRANCH   9  13
HETATM   13  C6  UNL     1      16.098  36.356  15.359  1.00  0.00     0.009 A 
HETATM   14  C7  UNL     1      16.505  37.658  15.106  1.00  0.00     0.102 A 
HETATM   15  N4  UNL     1      17.149  38.054  13.980  1.00  0.00    -0.364 N 
HETATM   16  C8  UNL     1      17.383  37.131  13.031  1.00  0.00     0.042 A 
ATOM     17  H4  UNL     1      17.447  39.022  13.858  1.00  0.00     0.165 HD
HETATM   18  C9  UNL     1      18.031  37.503  11.860  1.00  0.00     0.030 A 
HETATM   19  C13 UNL     1      16.988  35.784  13.175  1.00  0.00    -0.009 A 
HETATM   20  C10 UNL     1      18.291  36.583  10.839  1.00  0.00     0.002 A 
HETATM   21  C11 UNL     1      17.897  35.258  10.983  1.00  0.00     0.001 A 
HETATM   22  C12 UNL     1      17.247  34.856  12.149  1.00  0.00     0.014 A 
HETATM   23  C14 UNL     1      16.338  35.410  14.360  1.00  0.00     0.029 A 
ENDBRANCH   9  13
BRANCH   1  24
HETATM   24  N1  UNL     1      12.677  36.605  14.909  1.00  0.00    -0.288 NA
HETATM   25  H1  UNL     1      13.383  37.270  14.617  1.00  0.00     0.125 HD
HETATM   26  H2  UNL     1      11.718  36.888  14.731  1.00  0.00     0.125 HD
ENDBRANCH   1  24
BRANCH  12  27
HETATM   27  C15 UNL     1      15.675  34.875  19.915  1.00  0.00     0.110 C 
HETATM   28  C16 UNL     1      16.761  35.760  20.547  1.00  0.00     0.027 C 
HETATM   29  C17 UNL     1      16.487  35.682  22.042  1.00  0.00     0.002 C 
HETATM   30  C18 UNL     1      14.968  35.664  22.116  1.00  0.00     0.002 C 
HETATM   31  C19 UNL     1      14.553  34.756  20.963  1.00  0.00     0.027 C 
ENDBRANCH  12  27
TORSDOF 3
ENDMDL
MODEL 7
REMARK minimizedAffinity -7.54556417
REMARK  3 active torsions:
REMARK  status: ('A' for Active; 'I' for Inactive)
REMARK    1  A    between atoms: N1_1  and  C1_2 
REMARK    2  A    between atoms: C5_10  and  C6_11 
REMARK    3  A    between atoms: N6_24  and  C15_25 
ROOT
HETATM    1  C1  UNL     1      19.330  51.729   7.514  1.00  0.00     0.095 A 
HETATM    2  N2  UNL     1      20.027  50.995   8.408  1.00  0.00    -0.342 N 
ATOM      3  H2  UNL     1      20.625  51.449   9.100  1.00  0.00     0.167 HD
HETATM    4  C2  UNL     1      19.919  49.653   8.369  1.00  0.00     0.183 A 
HETATM    5  N3  UNL     1      19.193  48.912   7.520  1.00  0.00    -0.337 N 
ATOM      6  H3  UNL     1      19.162  47.893   7.531  1.00  0.00     0.168 HD
HETATM    7  C3  UNL     1      18.512  49.681   6.650  1.00  0.00     0.139 A 
HETATM    8  C4  UNL     1      18.511  51.065   6.591  1.00  0.00     0.076 A 
HETATM    9  C5  UNL     1      17.607  51.382   5.532  1.00  0.00     0.077 A 
HETATM   10  N5  UNL     1      17.144  50.267   4.937  1.00  0.00    -0.295 N 
ATOM     11  H5  UNL     1      16.525  50.202   4.128  1.00  0.00     0.187 HD
HETATM   12  N6  UNL     1      17.682  49.255   5.650  1.00  0.00    -0.270 N 
ENDROOT
BRANCH   9  13
HETATM   13  C6  UNL     1      17.169  52.690   5.060  1.00  0.00     0.009 A 
HETATM   14  C7  UNL     1      18.064  53.631   4.572  1.00  0.00     0.102 A 
HETATM   15  N4  UNL     1      17.712  54.856   4.109  1.00  0.00    -0.364 N 
HETATM   16  C8  UNL     1      16.412  55.196   4.154  1.00  0.00     0.042 A 
ATOM     17  H4  UNL     1      18.412  55.499   3.738  1.00  0.00     0.165 HD
HETATM   18  C9  UNL     1      16.016  56.447   3.698  1.00  0.00     0.030 A 
HETATM   19  C13 UNL     1      15.422  54.325   4.655  1.00  0.00    -0.009 A 
HETATM   20  C10 UNL     1      14.677  56.851   3.731  1.00  0.00     0.002 A 
HETATM   21  C11 UNL     1      13.705  55.991   4.230  1.00  0.00     0.001 A 
HETATM   22  C12 UNL     1      14.075  54.729   4.691  1.00  0.00     0.014 A 
HETATM   23  C14 UNL     1      15.824  53.060   5.110  1.00  0.00     0.029 A 
ENDBRANCH   9  13
BRANCH   1  24
HETATM   24  N1  UNL     1      19.504  53.103   7.580  1.00  0.00    -0.288 NA
HETATM   25  H1  UNL     1      19.460  53.599   6.699  1.00  0.00     0.125 HD
HETATM   26  H2  UNL     1      20.301  53.331   8.165  1.00  0.00     0.125 HD
ENDBRANCH   1  24
BRANCH  12  27
HETATM   27  C15 UNL     1      17.328  47.890   5.311  1.00  0.00     0.110 C 
HETATM   28  C16 UNL     1      16.007  47.413   5.934  1.00  0.00     0.027 C 
HETATM   29  C17 UNL     1      15.426  46.460   4.899  1.00  0.00     0.002 C 
HETATM   30  C18 UNL     1      15.789  47.119   3.578  1.00  0.00     0.002 C 
HETATM   31  C19 UNL     1      17.210  47.629   3.798  1.00  0.00     0.027 C 
ENDBRANCH  12  27
TORSDOF 3
ENDMDL
MODEL 8
REMARK minimizedAffinity -7.50247145
REMARK  3 active torsions:
REMARK  status: ('A' for Active; 'I' for Inactive)
REMARK    1  A    between atoms: N1_1  and  C1_2 
REMARK    2  A    between atoms: C5_10  and  C6_11 
REMARK    3  A    between atoms: N6_24  and  C15_25 
ROOT
HETATM    1  C1  UNL     1      15.476  38.615  16.778  1.00  0.00     0.095 A 
HETATM    2  N2  UNL     1      16.286  39.611  16.358  1.00  0.00    -0.342 N 
ATOM      3  H2  UNL     1      16.240  40.535  16.789  1.00  0.00     0.167 HD
HETATM    4  C2  UNL     1      17.153  39.362  15.359  1.00  0.00     0.183 A 
HETATM    5  N3  UNL     1      17.323  38.215  14.685  1.00  0.00    -0.337 N 
ATOM      6  H3  UNL     1      17.991  38.091  13.924  1.00  0.00     0.168 HD
HETATM    7  C3  UNL     1      16.502  37.250  15.137  1.00  0.00     0.139 A 
HETATM    8  C4  UNL     1      15.582  37.358  16.168  1.00  0.00     0.076 A 
HETATM    9  C5  UNL     1      15.004  36.057  16.277  1.00  0.00     0.077 A 
HETATM   10  N5  UNL     1      15.484  35.230  15.330  1.00  0.00    -0.295 N 
ATOM     11  H5  UNL     1      15.212  34.264  15.148  1.00  0.00     0.187 HD
HETATM   12  N6  UNL     1      16.408  35.966  14.675  1.00  0.00    -0.270 N 
ENDROOT
BRANCH   9  13
HETATM   13  C6  UNL     1      14.017  35.568  17.232  1.00  0.00     0.009 A 
HETATM   14  C7  UNL     1      14.334  34.620  18.193  1.00  0.00     0.102 A 
HETATM   15  N4  UNL     1      13.460  34.140  19.113  1.00  0.00    -0.364 N 
HETATM   16  C8  UNL     1      12.193  34.588  19.071  1.00  0.00     0.042 A 
ATOM     17  H4  UNL     1      13.755  33.460  19.814  1.00  0.00     0.165 HD
HETATM   18  C9  UNL     1      11.268  34.110  19.990  1.00  0.00     0.030 A 
HETATM   19  C13 UNL     1      11.758  35.532  18.117  1.00  0.00    -0.009 A 
HETATM   20  C10 UNL     1       9.936  34.538  19.984  1.00  0.00     0.002 A 
HETATM   21  C11 UNL     1       9.511  35.466  19.040  1.00  0.00     0.001 A 
HETATM   22  C12 UNL     1      10.419  35.964  18.107  1.00  0.00     0.014 A 
HETATM   23  C14 UNL     1      12.695  36.017  17.193  1.00  0.00     0.029 A 
ENDBRANCH   9  13
BRANCH   1  24
HETATM   24  N1  UNL     1      14.582  38.936  17.788  1.00  0.00    -0.288 NA
HETATM   25  H1  UNL     1      13.688  38.463  17.757  1.00  0.00     0.125 HD
HETATM   26  H2  UNL     1      14.533  39.942  17.911  1.00  0.00     0.125 HD
ENDBRANCH   1  24
BRANCH  12  27
HETATM   27  C15 UNL     1      17.181  35.345  13.616  1.00  0.00     0.110 C 
HETATM   28  C16 UNL     1      17.941  34.084  14.053  1.00  0.00     0.027 C 
HETATM   29  C17 UNL     1      17.937  33.195  12.816  1.00  0.00     0.002 C 
HETATM   30  C18 UNL     1      16.561  33.440  12.219  1.00  0.00     0.002 C 
HETATM   31  C19 UNL     1      16.347  34.941  12.386  1.00  0.00     0.027 C 
ENDBRANCH  12  27
TORSDOF 3
ENDMDL
MODEL 9
REMARK minimizedAffinity -7.46647692
REMARK  3 active torsions:
REMARK  status: ('A' for Active; 'I' for Inactive)
REMARK    1  A    between atoms: N1_1  and  C1_2 
REMARK    2  A    between atoms: C5_10  and  C6_11 
REMARK    3  A    between atoms: N6_24  and  C15_25 
ROOT
HETATM    1  C1  UNL     1      17.592  49.932   5.433  1.00  0.00     0.095 A 
HETATM    2  N2  UNL     1      17.934  48.652   5.697  1.00  0.00    -0.342 N 
ATOM      3  H2  UNL     1      17.548  47.886   5.144  1.00  0.00     0.167 HD
HETATM    4  C2  UNL     1      18.795  48.407   6.703  1.00  0.00     0.183 A 
HETATM    5  N3  UNL     1      19.373  49.295   7.525  1.00  0.00    -0.337 N 
ATOM      6  H3  UNL     1      20.009  49.046   8.282  1.00  0.00     0.168 HD
HETATM    7  C3  UNL     1      19.010  50.555   7.225  1.00  0.00     0.139 A 
HETATM    8  C4  UNL     1      18.157  50.954   6.207  1.00  0.00     0.076 A 
HETATM    9  C5  UNL     1      18.136  52.379   6.289  1.00  0.00     0.077 A 
HETATM   10  N5  UNL     1      18.866  52.818   7.330  1.00  0.00    -0.295 N 
ATOM     11  H5  UNL     1      18.985  53.781   7.648  1.00  0.00     0.187 HD
HETATM   12  N6  UNL     1      19.407  51.700   7.860  1.00  0.00    -0.270 N 
ENDROOT
BRANCH   9  13
HETATM   13  C6  UNL     1      17.451  53.337   5.429  1.00  0.00     0.009 A 
HETATM   14  C7  UNL     1      18.142  54.152   4.544  1.00  0.00     0.102 A 
HETATM   15  N4  UNL     1      17.557  55.051   3.714  1.00  0.00    -0.364 N 
HETATM   16  C8  UNL     1      16.220  55.185   3.773  1.00  0.00     0.042 A 
ATOM     17  H4  UNL     1      18.113  55.607   3.065  1.00  0.00     0.165 HD
HETATM   18  C9  UNL     1      15.588  56.103   2.945  1.00  0.00     0.030 A 
HETATM   19  C13 UNL     1      15.424  54.424   4.656  1.00  0.00    -0.009 A 
HETATM   20  C10 UNL     1      14.201  56.286   2.974  1.00  0.00     0.002 A 
HETATM   21  C11 UNL     1      13.421  55.538   3.848  1.00  0.00     0.001 A 
HETATM   22  C12 UNL     1      14.030  54.607   4.689  1.00  0.00     0.014 A 
HETATM   23  C14 UNL     1      16.066  53.495   5.488  1.00  0.00     0.029 A 
ENDBRANCH   9  13
BRANCH   1  24
HETATM   24  N1  UNL     1      16.680  50.123   4.406  1.00  0.00    -0.288 NA
HETATM   25  H1  UNL     1      16.040  50.900   4.519  1.00  0.00     0.125 HD
HETATM   26  H2  UNL     1      16.248  49.242   4.148  1.00  0.00     0.125 HD
ENDBRANCH   1  24
BRANCH  12  27
HETATM   27  C15 UNL     1      20.321  51.822   8.979  1.00  0.00     0.110 C 
HETATM   28  C16 UNL     1      19.646  52.231  10.297  1.00  0.00     0.027 C 
HETATM   29  C17 UNL     1      20.458  51.520  11.372  1.00  0.00     0.002 C 
HETATM   30  C18 UNL     1      20.788  50.183  10.728  1.00  0.00     0.002 C 
HETATM   31  C19 UNL     1      21.117  50.539   9.282  1.00  0.00     0.027 C 
ENDBRANCH  12  27
TORSDOF 3
ENDMDL
