MODEL 1
REMARK minimizedAffinity -10.5397043
REMARK CNNscore 0.607333541
REMARK CNNaffinity 7.99489355
REMARK  5 active torsions:
REMARK  status: ('A' for Active; 'I' for Inactive)
REMARK    1  A    between atoms: O1_2  and  C2_3 
REMARK    2  A    between atoms: C4_5  and  N1_6 
REMARK    3  A    between atoms: N1_6  and  C5_7 
REMARK    4  A    between atoms: N3_14  and  C9_15 
REMARK    5  A    between atoms: C27_38  and  N7_39 
ROOT
HETATM    1  C5  UNL     1       0.883  53.111 -19.326  1.00  0.00     0.684 A 
HETATM    2  N2  UNL     1       1.402  54.137 -20.020  1.00  0.00    -0.201 N 
ATOM      3  H2  UNL     1       1.878  54.906 -19.547  1.00  0.00     0.183 HD
HETATM    4  C6  UNL     1       1.274  54.117 -21.366  1.00  0.00     0.127 A 
HETATM    5  C7  UNL     1       0.623  53.116 -22.045  1.00  0.00     0.095 A 
HETATM    6  C8  UNL     1       0.517  53.109 -23.513  1.00  0.00     0.282 A 
HETATM    7  O2  UNL     1       1.035  54.043 -24.121  1.00  0.00    -0.266 OA
HETATM    8  N3  UNL     1      -0.134  52.024 -24.091  1.00  0.00    -0.108 N 
HETATM    9  C17 UNL     1      -0.710  51.042 -23.291  1.00  0.00     0.701 A 
HETATM   10  N4  UNL     1      -1.398  49.986 -23.671  1.00  0.00    -0.188 N 
ATOM     11  H4  UNL     1      -1.607  49.698 -24.627  1.00  0.00     0.184 HD
HETATM   12  C18 UNL     1      -1.775  49.354 -22.517  1.00  0.00     0.077 A 
HETATM   13  C19 UNL     1      -2.529  48.180 -22.359  1.00  0.00     0.032 A 
HETATM   14  C20 UNL     1      -2.814  47.727 -21.066  1.00  0.00     0.002 A 
HETATM   15  C21 UNL     1      -2.364  48.433 -19.951  1.00  0.00     0.002 A 
HETATM   16  C22 UNL     1      -1.611  49.604 -20.090  1.00  0.00     0.033 A 
HETATM   17  C23 UNL     1      -1.316  50.036 -21.392  1.00  0.00     0.086 A 
HETATM   18  N5  UNL     1      -0.616  51.104 -21.914  1.00  0.00    -0.128 N 
HETATM   19  C24 UNL     1       0.090  52.128 -21.254  1.00  0.00     0.162 A 
HETATM   20  N6  UNL     1       0.215  52.102 -19.908  1.00  0.00    -0.174 N 
ATOM     21  H6  UNL     1      -0.184  51.344 -19.354  1.00  0.00     0.186 HD
ENDROOT
BRANCH   1  22
HETATM   22  N1  UNL     1       1.052  53.175 -17.948  1.00  0.00    -0.192 N 
HETATM   23  H5  UNL     1       1.207  54.134 -17.670  1.00  0.00     0.184 HD
BRANCH  22  24
HETATM   24  C4  UNL     1       1.315  52.203 -16.975  1.00  0.00     0.052 A 
HETATM   25  C3  UNL     1       0.472  51.118 -16.712  1.00  0.00     0.068 A 
HETATM   26  C2  UNL     1       0.747  50.187 -15.693  1.00  0.00     0.091 A 
HETATM   27  C27 UNL     1       1.882  50.349 -14.872  1.00  0.00     0.044 A 
HETATM   28  C26 UNL     1       2.712  51.454 -15.131  1.00  0.00     0.029 A 
HETATM   29  C25 UNL     1       2.438  52.360 -16.160  1.00  0.00     0.032 A 
BRANCH  26  30
HETATM   30  O1  UNL     1      -0.118  49.157 -15.411  1.00  0.00    -0.354 OA
HETATM   31  C1  UNL     1      -0.996  48.778 -16.466  1.00  0.00     0.210 C 
ENDBRANCH  26  30
BRANCH  27  32
HETATM   32  N7  UNL     1       2.273  49.512 -13.813  1.00  0.00    -0.278 NA
HETATM   33  C28 UNL     1       1.357  48.434 -13.393  1.00  0.00     0.126 C 
HETATM   34  C29 UNL     1       2.101  47.476 -12.431  1.00  0.00     0.286 C 
HETATM   35  N8  UNL     1       2.618  48.178 -11.230  1.00  0.00     0.086 N 
HETATM   36  C30 UNL     1       3.362  47.256 -10.376  1.00  0.00     0.310 C 
HETATM   37  C31 UNL     1       3.477  49.308 -11.656  1.00  0.00     0.286 C 
HETATM   38  C32 UNL     1       2.777  50.273 -12.648  1.00  0.00     0.126 C 
ENDBRANCH  27  32
ENDBRANCH  22  24
ENDBRANCH   1  22
BRANCH   8  39
HETATM   39  C9  UNL     1      -0.308  51.910 -25.496  1.00  0.00     0.072 A 
HETATM   40  C10 UNL     1       0.770  51.493 -26.317  1.00  0.00    -0.034 A 
HETATM   41  C11 UNL     1       2.129  51.151 -25.767  1.00  0.00     0.050 C 
HETATM   42  C12 UNL     1       0.576  51.384 -27.704  1.00  0.00     0.009 A 
HETATM   43  C13 UNL     1      -0.645  51.720 -28.281  1.00  0.00     0.001 A 
HETATM   44  C14 UNL     1      -1.697  52.153 -27.481  1.00  0.00     0.009 A 
HETATM   45  C15 UNL     1      -1.553  52.239 -26.086  1.00  0.00    -0.034 A 
HETATM   46  C16 UNL     1      -2.744  52.686 -25.281  1.00  0.00     0.050 C 
ENDBRANCH   8  39
TORSDOF 5
ENDMDL
MODEL 2
REMARK minimizedAffinity -10.6743345
REMARK CNNscore 0.476239264
REMARK CNNaffinity 8.02207184
REMARK  5 active torsions:
REMARK  status: ('A' for Active; 'I' for Inactive)
REMARK    1  A    between atoms: O1_2  and  C2_3 
REMARK    2  A    between atoms: C4_5  and  N1_6 
REMARK    3  A    between atoms: N1_6  and  C5_7 
REMARK    4  A    between atoms: N3_14  and  C9_15 
REMARK    5  A    between atoms: C27_38  and  N7_39 
ROOT
HETATM    1  C5  UNL     1       0.971  52.927 -19.248  1.00  0.00     0.684 A 
HETATM    2  N2  UNL     1       1.447  53.988 -19.918  1.00  0.00    -0.201 N 
ATOM      3  H2  UNL     1       1.928  54.746 -19.433  1.00  0.00     0.183 HD
HETATM    4  C6  UNL     1       1.269  54.019 -21.259  1.00  0.00     0.127 A 
HETATM    5  C7  UNL     1       0.608  53.035 -21.953  1.00  0.00     0.095 A 
HETATM    6  C8  UNL     1       0.447  53.085 -23.415  1.00  0.00     0.282 A 
HETATM    7  O2  UNL     1       0.927  54.051 -24.004  1.00  0.00    -0.266 OA
HETATM    8  N3  UNL     1      -0.209  52.012 -24.012  1.00  0.00    -0.108 N 
HETATM    9  C17 UNL     1      -0.738  50.990 -23.231  1.00  0.00     0.701 A 
HETATM   10  N4  UNL     1      -1.423  49.938 -23.628  1.00  0.00    -0.188 N 
ATOM     11  H4  UNL     1      -1.663  49.685 -24.586  1.00  0.00     0.184 HD
HETATM   12  C18 UNL     1      -1.746  49.254 -22.487  1.00  0.00     0.077 A 
HETATM   13  C19 UNL     1      -2.475  48.062 -22.349  1.00  0.00     0.032 A 
HETATM   14  C20 UNL     1      -2.704  47.553 -21.066  1.00  0.00     0.002 A 
HETATM   15  C21 UNL     1      -2.224  48.222 -19.940  1.00  0.00     0.002 A 
HETATM   16  C22 UNL     1      -1.495  49.410 -20.060  1.00  0.00     0.033 A 
HETATM   17  C23 UNL     1      -1.256  49.898 -21.353  1.00  0.00     0.086 A 
HETATM   18  N5  UNL     1      -0.593  50.999 -21.858  1.00  0.00    -0.128 N 
HETATM   19  C24 UNL     1       0.121  52.008 -21.183  1.00  0.00     0.162 A 
HETATM   20  N6  UNL     1       0.297  51.930 -19.845  1.00  0.00    -0.174 N 
ATOM     21  H6  UNL     1      -0.069  51.144 -19.308  1.00  0.00     0.186 HD
ENDROOT
BRANCH   1  22
HETATM   22  N1  UNL     1       1.191  52.938 -17.876  1.00  0.00    -0.192 N 
HETATM   23  H5  UNL     1       1.648  53.800 -17.614  1.00  0.00     0.184 HD
BRANCH  22  24
HETATM   24  C4  UNL     1       1.162  51.936 -16.898  1.00  0.00     0.052 A 
HETATM   25  C3  UNL     1       1.985  51.931 -15.767  1.00  0.00     0.068 A 
HETATM   26  C2  UNL     1       1.961  50.880 -14.830  1.00  0.00     0.091 A 
HETATM   27  C27 UNL     1       1.117  49.770 -15.032  1.00  0.00     0.044 A 
HETATM   28  C26 UNL     1       0.308  49.775 -16.182  1.00  0.00     0.029 A 
HETATM   29  C25 UNL     1       0.327  50.834 -17.095  1.00  0.00     0.032 A 
BRANCH  26  30
HETATM   30  O1  UNL     1       2.813  50.863 -13.752  1.00  0.00    -0.354 OA
HETATM   31  C1  UNL     1       4.080  50.252 -13.973  1.00  0.00     0.210 C 
ENDBRANCH  26  30
BRANCH  27  32
HETATM   32  N7  UNL     1       0.997  48.647 -14.194  1.00  0.00    -0.278 NA
HETATM   33  C28 UNL     1       1.453  47.339 -14.702  1.00  0.00     0.126 C 
HETATM   34  C29 UNL     1       1.499  46.324 -13.533  1.00  0.00     0.286 C 
HETATM   35  N8  UNL     1       0.178  46.164 -12.878  1.00  0.00     0.086 N 
HETATM   36  C30 UNL     1       0.272  45.245 -11.747  1.00  0.00     0.310 C 
HETATM   37  C31 UNL     1      -0.314  47.491 -12.437  1.00  0.00     0.286 C 
HETATM   38  C32 UNL     1      -0.343  48.545 -13.573  1.00  0.00     0.126 C 
ENDBRANCH  27  32
ENDBRANCH  22  24
ENDBRANCH   1  22
BRANCH   8  39
HETATM   39  C9  UNL     1      -0.434  51.951 -25.413  1.00  0.00     0.072 A 
HETATM   40  C10 UNL     1      -1.710  52.262 -25.945  1.00  0.00    -0.034 A 
HETATM   41  C11 UNL     1      -2.877  52.667 -25.084  1.00  0.00     0.050 C 
HETATM   42  C12 UNL     1      -1.910  52.198 -27.334  1.00  0.00     0.009 A 
HETATM   43  C13 UNL     1      -0.885  51.795 -28.184  1.00  0.00     0.001 A 
HETATM   44  C14 UNL     1       0.362  51.466 -27.662  1.00  0.00     0.009 A 
HETATM   45  C15 UNL     1       0.611  51.553 -26.283  1.00  0.00    -0.034 A 
HETATM   46  C16 UNL     1       1.993  51.211 -25.794  1.00  0.00     0.050 C 
ENDBRANCH   8  39
TORSDOF 5
ENDMDL
MODEL 3
REMARK minimizedAffinity -8.57375336
REMARK CNNscore 0.116525397
REMARK CNNaffinity 7.27968454
REMARK  5 active torsions:
REMARK  status: ('A' for Active; 'I' for Inactive)
REMARK    1  A    between atoms: O1_2  and  C2_3 
REMARK    2  A    between atoms: C4_5  and  N1_6 
REMARK    3  A    between atoms: N1_6  and  C5_7 
REMARK    4  A    between atoms: N3_14  and  C9_15 
REMARK    5  A    between atoms: C27_38  and  N7_39 
ROOT
HETATM    1  C5  UNL     1      -3.260  49.098 -21.569  1.00  0.00     0.684 A 
HETATM    2  N2  UNL     1      -3.595  48.413 -22.674  1.00  0.00    -0.201 N 
ATOM      3  H2  UNL     1      -4.256  47.637 -22.633  1.00  0.00     0.183 HD
HETATM    4  C6  UNL     1      -3.026  48.786 -23.843  1.00  0.00     0.127 A 
HETATM    5  C7  UNL     1      -2.114  49.807 -23.943  1.00  0.00     0.095 A 
HETATM    6  C8  UNL     1      -1.527  50.205 -25.233  1.00  0.00     0.282 A 
HETATM    7  O2  UNL     1      -1.881  49.583 -26.232  1.00  0.00    -0.266 OA
HETATM    8  N3  UNL     1      -0.641  51.279 -25.216  1.00  0.00    -0.108 N 
HETATM    9  C17 UNL     1      -0.292  51.882 -24.012  1.00  0.00     0.701 A 
HETATM   10  N4  UNL     1       0.560  52.866 -23.815  1.00  0.00    -0.188 N 
ATOM     11  H4  UNL     1       1.095  53.369 -24.524  1.00  0.00     0.184 HD
HETATM   12  C18 UNL     1       0.579  53.076 -22.463  1.00  0.00     0.077 A 
HETATM   13  C19 UNL     1       1.323  54.009 -21.724  1.00  0.00     0.032 A 
HETATM   14  C20 UNL     1       1.196  54.027 -20.331  1.00  0.00     0.002 A 
HETATM   15  C21 UNL     1       0.350  53.126 -19.684  1.00  0.00     0.002 A 
HETATM   16  C22 UNL     1      -0.400  52.191 -20.404  1.00  0.00     0.033 A 
HETATM   17  C23 UNL     1      -0.277  52.197 -21.801  1.00  0.00     0.086 A 
HETATM   18  N5  UNL     1      -0.842  51.456 -22.820  1.00  0.00    -0.128 N 
HETATM   19  C24 UNL     1      -1.802  50.427 -22.758  1.00  0.00     0.162 A 
HETATM   20  N6  UNL     1      -2.364  50.097 -21.574  1.00  0.00    -0.174 N 
ATOM     21  H6  UNL     1      -2.116  50.590 -20.715  1.00  0.00     0.186 HD
ENDROOT
BRANCH   1  22
HETATM   22  N1  UNL     1      -3.881  48.682 -20.396  1.00  0.00    -0.192 N 
HETATM   23  H5  UNL     1      -4.424  49.444 -20.013  1.00  0.00     0.184 HD
BRANCH  22  24
HETATM   24  C4  UNL     1      -3.685  47.582 -19.553  1.00  0.00     0.052 A 
HETATM   25  C3  UNL     1      -4.071  46.277 -19.876  1.00  0.00     0.068 A 
HETATM   26  C2  UNL     1      -3.900  45.203 -18.982  1.00  0.00     0.091 A 
HETATM   27  C27 UNL     1      -3.359  45.428 -17.700  1.00  0.00     0.044 A 
HETATM   28  C26 UNL     1      -2.993  46.747 -17.377  1.00  0.00     0.029 A 
HETATM   29  C25 UNL     1      -3.150  47.801 -18.282  1.00  0.00     0.032 A 
BRANCH  26  30
HETATM   30  O1  UNL     1      -4.332  43.937 -19.292  1.00  0.00    -0.354 OA
HETATM   31  C1  UNL     1      -5.583  43.856 -19.968  1.00  0.00     0.210 C 
ENDBRANCH  26  30
BRANCH  27  32
HETATM   32  N7  UNL     1      -3.144  44.462 -16.702  1.00  0.00    -0.278 NA
HETATM   33  C28 UNL     1      -2.227  43.342 -16.994  1.00  0.00     0.126 C 
HETATM   34  C29 UNL     1      -1.919  42.578 -15.683  1.00  0.00     0.286 C 
HETATM   35  N8  UNL     1      -3.147  42.054 -15.037  1.00  0.00     0.086 N 
HETATM   36  C30 UNL     1      -2.824  41.391 -13.777  1.00  0.00     0.310 C 
HETATM   37  C31 UNL     1      -4.098  43.168 -14.815  1.00  0.00     0.286 C 
HETATM   38  C32 UNL     1      -4.407  43.979 -16.101  1.00  0.00     0.126 C 
ENDBRANCH  27  32
ENDBRANCH  22  24
ENDBRANCH   1  22
BRANCH   8  39
HETATM   39  C9  UNL     1      -0.003  51.749 -26.395  1.00  0.00     0.072 A 
HETATM   40  C10 UNL     1      -0.708  52.570 -27.309  1.00  0.00    -0.034 A 
HETATM   41  C11 UNL     1      -2.139  52.988 -27.095  1.00  0.00     0.050 C 
HETATM   42  C12 UNL     1      -0.057  53.026 -28.468  1.00  0.00     0.009 A 
HETATM   43  C13 UNL     1       1.252  52.647 -28.745  1.00  0.00     0.001 A 
HETATM   44  C14 UNL     1       1.939  51.821 -27.861  1.00  0.00     0.009 A 
HETATM   45  C15 UNL     1       1.335  51.375 -26.674  1.00  0.00    -0.034 A 
HETATM   46  C16 UNL     1       2.149  50.509 -25.751  1.00  0.00     0.050 C 
ENDBRANCH   8  39
TORSDOF 5
ENDMDL
MODEL 4
REMARK minimizedAffinity -8.48331165
REMARK CNNscore 0.108903274
REMARK CNNaffinity 6.94654512
REMARK  5 active torsions:
REMARK  status: ('A' for Active; 'I' for Inactive)
REMARK    1  A    between atoms: O1_2  and  C2_3 
REMARK    2  A    between atoms: C4_5  and  N1_6 
REMARK    3  A    between atoms: N1_6  and  C5_7 
REMARK    4  A    between atoms: N3_14  and  C9_15 
REMARK    5  A    between atoms: C27_38  and  N7_39 
ROOT
HETATM    1  C5  UNL     1       0.861  51.249 -16.608  1.00  0.00     0.684 A 
HETATM    2  N2  UNL     1       1.264  52.439 -17.082  1.00  0.00    -0.201 N 
ATOM      3  H2  UNL     1       1.867  53.049 -16.531  1.00  0.00     0.183 HD
HETATM    4  C6  UNL     1       0.843  52.802 -18.315  1.00  0.00     0.127 A 
HETATM    5  C7  UNL     1       0.011  52.026 -19.084  1.00  0.00     0.095 A 
HETATM    6  C8  UNL     1      -0.414  52.437 -20.433  1.00  0.00     0.282 A 
HETATM    7  O2  UNL     1       0.002  53.514 -20.853  1.00  0.00    -0.266 OA
HETATM    8  N3  UNL     1      -1.228  51.551 -21.132  1.00  0.00    -0.108 N 
HETATM    9  C17 UNL     1      -1.660  50.372 -20.534  1.00  0.00     0.701 A 
HETATM   10  N4  UNL     1      -2.464  49.457 -21.032  1.00  0.00    -0.188 N 
ATOM     11  H4  UNL     1      -2.891  49.450 -21.959  1.00  0.00     0.184 HD
HETATM   12  C18 UNL     1      -2.609  48.514 -20.050  1.00  0.00     0.077 A 
HETATM   13  C19 UNL     1      -3.365  47.332 -20.065  1.00  0.00     0.032 A 
HETATM   14  C20 UNL     1      -3.381  46.523 -18.923  1.00  0.00     0.002 A 
HETATM   15  C21 UNL     1      -2.665  46.889 -17.784  1.00  0.00     0.002 A 
HETATM   16  C22 UNL     1      -1.905  48.064 -17.752  1.00  0.00     0.033 A 
HETATM   17  C23 UNL     1      -1.883  48.854 -18.910  1.00  0.00     0.086 A 
HETATM   18  N5  UNL     1      -1.264  50.040 -19.253  1.00  0.00    -0.128 N 
HETATM   19  C24 UNL     1      -0.382  50.844 -18.506  1.00  0.00     0.162 A 
HETATM   20  N6  UNL     1       0.034  50.437 -17.286  1.00  0.00    -0.174 N 
ATOM     21  H6  UNL     1      -0.270  49.545 -16.894  1.00  0.00     0.186 HD
ENDROOT
BRANCH   1  22
HETATM   22  N1  UNL     1       1.330  50.919 -15.342  1.00  0.00    -0.192 N 
HETATM   23  H5  UNL     1       1.529  49.929 -15.303  1.00  0.00     0.184 HD
BRANCH  22  24
HETATM   24  C4  UNL     1       1.311  51.591 -14.114  1.00  0.00     0.052 A 
HETATM   25  C3  UNL     1       2.377  51.583 -13.207  1.00  0.00     0.068 A 
HETATM   26  C2  UNL     1       2.302  52.233 -11.960  1.00  0.00     0.091 A 
HETATM   27  C27 UNL     1       1.116  52.888 -11.572  1.00  0.00     0.044 A 
HETATM   28  C26 UNL     1       0.044  52.873 -12.482  1.00  0.00     0.029 A 
HETATM   29  C25 UNL     1       0.138  52.242 -13.726  1.00  0.00     0.032 A 
BRANCH  26  30
HETATM   30  O1  UNL     1       3.336  52.171 -11.058  1.00  0.00    -0.354 OA
HETATM   31  C1  UNL     1       3.927  50.889 -10.878  1.00  0.00     0.210 C 
ENDBRANCH  26  30
BRANCH  27  32
HETATM   32  N7  UNL     1       0.892  53.563 -10.360  1.00  0.00    -0.278 NA
HETATM   33  C28 UNL     1      -0.420  53.410  -9.702  1.00  0.00     0.126 C 
HETATM   34  C29 UNL     1      -0.345  53.988  -8.268  1.00  0.00     0.286 C 
HETATM   35  N8  UNL     1       0.046  55.420  -8.260  1.00  0.00     0.086 N 
HETATM   36  C30 UNL     1       0.162  55.914  -6.892  1.00  0.00     0.310 C 
HETATM   37  C31 UNL     1       1.326  55.582  -8.989  1.00  0.00     0.286 C 
HETATM   38  C32 UNL     1       1.300  54.984 -10.419  1.00  0.00     0.126 C 
ENDBRANCH  27  32
ENDBRANCH  22  24
ENDBRANCH   1  22
BRANCH   8  39
HETATM   39  C9  UNL     1      -1.711  51.840 -22.437  1.00  0.00     0.072 A 
HETATM   40  C10 UNL     1      -0.814  51.894 -23.533  1.00  0.00    -0.034 A 
HETATM   41  C11 UNL     1       0.665  51.654 -23.391  1.00  0.00     0.050 C 
HETATM   42  C12 UNL     1      -1.313  52.179 -24.815  1.00  0.00     0.009 A 
HETATM   43  C13 UNL     1      -2.664  52.448 -25.010  1.00  0.00     0.001 A 
HETATM   44  C14 UNL     1      -3.543  52.419 -23.932  1.00  0.00     0.009 A 
HETATM   45  C15 UNL     1      -3.088  52.102 -22.641  1.00  0.00    -0.034 A 
HETATM   46  C16 UNL     1      -4.100  52.060 -21.528  1.00  0.00     0.050 C 
ENDBRANCH   8  39
TORSDOF 5
ENDMDL
MODEL 5
REMARK minimizedAffinity -8.6525135
REMARK CNNscore 0.0986405239
REMARK CNNaffinity 7.16100502
REMARK  5 active torsions:
REMARK  status: ('A' for Active; 'I' for Inactive)
REMARK    1  A    between atoms: O1_2  and  C2_3 
REMARK    2  A    between atoms: C4_5  and  N1_6 
REMARK    3  A    between atoms: N1_6  and  C5_7 
REMARK    4  A    between atoms: N3_14  and  C9_15 
REMARK    5  A    between atoms: C27_38  and  N7_39 
ROOT
HETATM    1  C5  UNL     1      -3.214  48.891 -21.512  1.00  0.00     0.684 A 
HETATM    2  N2  UNL     1      -3.571  48.215 -22.615  1.00  0.00    -0.201 N 
ATOM      3  H2  UNL     1      -4.217  47.428 -22.565  1.00  0.00     0.183 HD
HETATM    4  C6  UNL     1      -3.045  48.613 -23.796  1.00  0.00     0.127 A 
HETATM    5  C7  UNL     1      -2.153  49.651 -23.911  1.00  0.00     0.095 A 
HETATM    6  C8  UNL     1      -1.613  50.076 -25.212  1.00  0.00     0.282 A 
HETATM    7  O2  UNL     1      -1.988  49.461 -26.208  1.00  0.00    -0.266 OA
HETATM    8  N3  UNL     1      -0.746  51.164 -25.208  1.00  0.00    -0.108 N 
HETATM    9  C17 UNL     1      -0.369  51.758 -24.007  1.00  0.00     0.701 A 
HETATM   10  N4  UNL     1       0.471  52.754 -23.823  1.00  0.00    -0.188 N 
ATOM     11  H4  UNL     1       0.976  53.275 -24.541  1.00  0.00     0.184 HD
HETATM   12  C18 UNL     1       0.528  52.946 -22.469  1.00  0.00     0.077 A 
HETATM   13  C19 UNL     1       1.279  53.883 -21.741  1.00  0.00     0.032 A 
HETATM   14  C20 UNL     1       1.195  53.880 -20.344  1.00  0.00     0.002 A 
HETATM   15  C21 UNL     1       0.385  52.957 -19.684  1.00  0.00     0.002 A 
HETATM   16  C22 UNL     1      -0.371  52.018 -20.394  1.00  0.00     0.033 A 
HETATM   17  C23 UNL     1      -0.292  52.045 -21.794  1.00  0.00     0.086 A 
HETATM   18  N5  UNL     1      -0.875  51.307 -22.804  1.00  0.00    -0.128 N 
HETATM   19  C24 UNL     1      -1.815  50.261 -22.728  1.00  0.00     0.162 A 
HETATM   20  N6  UNL     1      -2.335  49.906 -21.531  1.00  0.00    -0.174 N 
ATOM     21  H6  UNL     1      -2.069  50.391 -20.674  1.00  0.00     0.186 HD
ENDROOT
BRANCH   1  22
HETATM   22  N1  UNL     1      -3.791  48.450 -20.327  1.00  0.00    -0.192 N 
HETATM   23  H5  UNL     1      -3.090  48.424 -19.599  1.00  0.00     0.184 HD
BRANCH  22  24
HETATM   24  C4  UNL     1      -5.001  47.808 -20.038  1.00  0.00     0.052 A 
HETATM   25  C3  UNL     1      -5.924  48.277 -19.097  1.00  0.00     0.068 A 
HETATM   26  C2  UNL     1      -7.110  47.579 -18.800  1.00  0.00     0.091 A 
HETATM   27  C27 UNL     1      -7.383  46.347 -19.429  1.00  0.00     0.044 A 
HETATM   28  C26 UNL     1      -6.440  45.874 -20.358  1.00  0.00     0.029 A 
HETATM   29  C25 UNL     1      -5.276  46.588 -20.659  1.00  0.00     0.032 A 
BRANCH  26  30
HETATM   30  O1  UNL     1      -7.980  48.023 -17.835  1.00  0.00    -0.354 OA
HETATM   31  C1  UNL     1      -8.790  49.138 -18.195  1.00  0.00     0.210 C 
ENDBRANCH  26  30
BRANCH  27  32
HETATM   32  N7  UNL     1      -8.513  45.536 -19.223  1.00  0.00    -0.278 NA
HETATM   33  C28 UNL     1      -9.162  45.559 -17.898  1.00  0.00     0.126 C 
HETATM   34  C29 UNL     1     -10.527  44.832 -17.984  1.00  0.00     0.286 C 
HETATM   35  N8  UNL     1     -10.386  43.427 -18.439  1.00  0.00     0.086 N 
HETATM   36  C30 UNL     1     -11.695  42.792 -18.563  1.00  0.00     0.310 C 
HETATM   37  C31 UNL     1      -9.664  43.401 -19.733  1.00  0.00     0.286 C 
HETATM   38  C32 UNL     1      -8.306  44.148 -19.696  1.00  0.00     0.126 C 
ENDBRANCH  27  32
ENDBRANCH  22  24
ENDBRANCH   1  22
BRANCH   8  39
HETATM   39  C9  UNL     1      -0.152  51.661 -26.399  1.00  0.00     0.072 A 
HETATM   40  C10 UNL     1       1.211  51.395 -26.681  1.00  0.00    -0.034 A 
HETATM   41  C11 UNL     1       2.093  50.591 -25.763  1.00  0.00     0.050 C 
HETATM   42  C12 UNL     1       1.778  51.893 -27.867  1.00  0.00     0.009 A 
HETATM   43  C13 UNL     1       1.029  52.674 -28.740  1.00  0.00     0.001 A 
HETATM   44  C14 UNL     1      -0.303  52.957 -28.454  1.00  0.00     0.009 A 
HETATM   45  C15 UNL     1      -0.915  52.446 -27.298  1.00  0.00    -0.034 A 
HETATM   46  C16 UNL     1      -2.367  52.768 -27.069  1.00  0.00     0.050 C 
ENDBRANCH   8  39
TORSDOF 5
ENDMDL
MODEL 6
REMARK minimizedAffinity -9.13757133
REMARK CNNscore 0.0590693392
REMARK CNNaffinity 7.10041428
REMARK  5 active torsions:
REMARK  status: ('A' for Active; 'I' for Inactive)
REMARK    1  A    between atoms: O1_2  and  C2_3 
REMARK    2  A    between atoms: C4_5  and  N1_6 
REMARK    3  A    between atoms: N1_6  and  C5_7 
REMARK    4  A    between atoms: N3_14  and  C9_15 
REMARK    5  A    between atoms: C27_38  and  N7_39 
ROOT
HETATM    1  C5  UNL     1      -3.057  49.022 -21.425  1.00  0.00     0.684 A 
HETATM    2  N2  UNL     1      -3.430  48.337 -22.518  1.00  0.00    -0.201 N 
ATOM      3  H2  UNL     1      -4.070  47.546 -22.451  1.00  0.00     0.183 HD
HETATM    4  C6  UNL     1      -2.928  48.730 -23.711  1.00  0.00     0.127 A 
HETATM    5  C7  UNL     1      -2.045  49.773 -23.848  1.00  0.00     0.095 A 
HETATM    6  C8  UNL     1      -1.531  50.193 -25.162  1.00  0.00     0.282 A 
HETATM    7  O2  UNL     1      -1.920  49.569 -26.147  1.00  0.00    -0.266 OA
HETATM    8  N3  UNL     1      -0.671  51.286 -25.180  1.00  0.00    -0.108 N 
HETATM    9  C17 UNL     1      -0.277  51.890 -23.991  1.00  0.00     0.701 A 
HETATM   10  N4  UNL     1       0.561  52.892 -23.829  1.00  0.00    -0.188 N 
ATOM     11  H4  UNL     1       1.049  53.412 -24.559  1.00  0.00     0.184 HD
HETATM   12  C18 UNL     1       0.641  53.094 -22.477  1.00  0.00     0.077 A 
HETATM   13  C19 UNL     1       1.400  54.040 -21.769  1.00  0.00     0.032 A 
HETATM   14  C20 UNL     1       1.341  54.046 -20.371  1.00  0.00     0.002 A 
HETATM   15  C21 UNL     1       0.549  53.122 -19.690  1.00  0.00     0.002 A 
HETATM   16  C22 UNL     1      -0.214  52.173 -20.380  1.00  0.00     0.033 A 
HETATM   17  C23 UNL     1      -0.160  52.192 -21.781  1.00  0.00     0.086 A 
HETATM   18  N5  UNL     1      -0.757  51.444 -22.776  1.00  0.00    -0.128 N 
HETATM   19  C24 UNL     1      -1.689  50.392 -22.675  1.00  0.00     0.162 A 
HETATM   20  N6  UNL     1      -2.185  50.042 -21.467  1.00  0.00    -0.174 N 
ATOM     21  H6  UNL     1      -1.906  50.535 -20.618  1.00  0.00     0.186 HD
ENDROOT
BRANCH   1  22
HETATM   22  N1  UNL     1      -3.610  48.585 -20.227  1.00  0.00    -0.192 N 
HETATM   23  H5  UNL     1      -2.887  48.177 -19.651  1.00  0.00     0.184 HD
BRANCH  22  24
HETATM   24  C4  UNL     1      -4.928  48.359 -19.813  1.00  0.00     0.052 A 
HETATM   25  C3  UNL     1      -5.407  47.113 -19.393  1.00  0.00     0.068 A 
HETATM   26  C2  UNL     1      -6.752  46.914 -19.029  1.00  0.00     0.091 A 
HETATM   27  C27 UNL     1      -7.675  47.976 -19.116  1.00  0.00     0.044 A 
HETATM   28  C26 UNL     1      -7.188  49.218 -19.560  1.00  0.00     0.029 A 
HETATM   29  C25 UNL     1      -5.846  49.408 -19.899  1.00  0.00     0.032 A 
BRANCH  26  30
HETATM   30  O1  UNL     1      -7.220  45.673 -18.669  1.00  0.00    -0.354 OA
HETATM   31  C1  UNL     1      -7.319  44.718 -19.720  1.00  0.00     0.210 C 
ENDBRANCH  26  30
BRANCH  27  32
HETATM   32  N7  UNL     1      -9.044  47.921 -18.802  1.00  0.00    -0.278 NA
HETATM   33  C28 UNL     1      -9.454  47.231 -17.563  1.00  0.00     0.126 C 
HETATM   34  C29 UNL     1     -10.943  47.541 -17.274  1.00  0.00     0.286 C 
HETATM   35  N8  UNL     1     -11.830  47.122 -18.387  1.00  0.00     0.086 N 
HETATM   36  C30 UNL     1     -13.216  47.482 -18.103  1.00  0.00     0.310 C 
HETATM   37  C31 UNL     1     -11.370  47.756 -19.645  1.00  0.00     0.286 C 
HETATM   38  C32 UNL     1      -9.872  47.496 -19.953  1.00  0.00     0.126 C 
ENDBRANCH  27  32
ENDBRANCH  22  24
ENDBRANCH   1  22
BRANCH   8  39
HETATM   39  C9  UNL     1      -0.102  51.778 -26.386  1.00  0.00     0.072 A 
HETATM   40  C10 UNL     1      -0.868  52.595 -27.254  1.00  0.00    -0.034 A 
HETATM   41  C11 UNL     1      -2.292  52.986 -26.963  1.00  0.00     0.050 C 
HETATM   42  C12 UNL     1      -0.285  53.074 -28.440  1.00  0.00     0.009 A 
HETATM   43  C13 UNL     1       1.014  52.721 -28.788  1.00  0.00     0.001 A 
HETATM   44  C14 UNL     1       1.761  51.899 -27.949  1.00  0.00     0.009 A 
HETATM   45  C15 UNL     1       1.226  51.431 -26.737  1.00  0.00    -0.034 A 
HETATM   46  C16 UNL     1       2.101  50.571 -25.866  1.00  0.00     0.050 C 
ENDBRANCH   8  39
TORSDOF 5
ENDMDL
MODEL 7
REMARK minimizedAffinity -9.60088539
REMARK CNNscore 0.0563229397
REMARK CNNaffinity 6.15697622
REMARK  5 active torsions:
REMARK  status: ('A' for Active; 'I' for Inactive)
REMARK    1  A    between atoms: O1_2  and  C2_3 
REMARK    2  A    between atoms: C4_5  and  N1_6 
REMARK    3  A    between atoms: N1_6  and  C5_7 
REMARK    4  A    between atoms: N3_14  and  C9_15 
REMARK    5  A    between atoms: C27_38  and  N7_39 
ROOT
HETATM    1  C5  UNL     1      -5.607  47.959 -27.802  1.00  0.00     0.684 A 
HETATM    2  N2  UNL     1      -4.359  48.233 -28.214  1.00  0.00    -0.201 N 
ATOM      3  H2  UNL     1      -4.093  48.134 -29.194  1.00  0.00     0.183 HD
HETATM    4  C6  UNL     1      -3.465  48.647 -27.287  1.00  0.00     0.127 A 
HETATM    5  C7  UNL     1      -3.769  48.774 -25.954  1.00  0.00     0.095 A 
HETATM    6  C8  UNL     1      -2.782  49.247 -24.969  1.00  0.00     0.282 A 
HETATM    7  O2  UNL     1      -1.659  49.526 -25.384  1.00  0.00    -0.266 OA
HETATM    8  N3  UNL     1      -3.216  49.370 -23.653  1.00  0.00    -0.108 N 
HETATM    9  C17 UNL     1      -4.507  48.990 -23.300  1.00  0.00     0.701 A 
HETATM   10  N4  UNL     1      -5.056  48.996 -22.104  1.00  0.00    -0.188 N 
ATOM     11  H4  UNL     1      -4.627  49.304 -21.231  1.00  0.00     0.184 HD
HETATM   12  C18 UNL     1      -6.322  48.504 -22.274  1.00  0.00     0.077 A 
HETATM   13  C19 UNL     1      -7.326  48.298 -21.315  1.00  0.00     0.032 A 
HETATM   14  C20 UNL     1      -8.550  47.756 -21.721  1.00  0.00     0.002 A 
HETATM   15  C21 UNL     1      -8.768  47.416 -23.055  1.00  0.00     0.002 A 
HETATM   16  C22 UNL     1      -7.779  47.615 -24.025  1.00  0.00     0.033 A 
HETATM   17  C23 UNL     1      -6.564  48.177 -23.607  1.00  0.00     0.086 A 
HETATM   18  N5  UNL     1      -5.392  48.520 -24.250  1.00  0.00    -0.128 N 
HETATM   19  C24 UNL     1      -5.056  48.435 -25.616  1.00  0.00     0.162 A 
HETATM   20  N6  UNL     1      -5.984  48.038 -26.516  1.00  0.00    -0.174 N 
ATOM     21  H6  UNL     1      -6.935  47.807 -26.228  1.00  0.00     0.186 HD
ENDROOT
BRANCH   1  22
HETATM   22  N1  UNL     1      -6.488  47.549 -28.795  1.00  0.00    -0.192 N 
HETATM   23  H5  UNL     1      -7.404  47.937 -28.616  1.00  0.00     0.184 HD
BRANCH  22  24
HETATM   24  C4  UNL     1      -6.427  46.543 -29.767  1.00  0.00     0.052 A 
HETATM   25  C3  UNL     1      -7.038  45.292 -29.630  1.00  0.00     0.068 A 
HETATM   26  C2  UNL     1      -6.914  44.288 -30.609  1.00  0.00     0.091 A 
HETATM   27  C27 UNL     1      -6.126  44.511 -31.757  1.00  0.00     0.044 A 
HETATM   28  C26 UNL     1      -5.500  45.764 -31.875  1.00  0.00     0.029 A 
HETATM   29  C25 UNL     1      -5.647  46.760 -30.905  1.00  0.00     0.032 A 
BRANCH  26  30
HETATM   30  O1  UNL     1      -7.476  43.047 -30.437  1.00  0.00    -0.354 OA
HETATM   31  C1  UNL     1      -8.863  43.031 -30.119  1.00  0.00     0.210 C 
ENDBRANCH  26  30
BRANCH  27  32
HETATM   32  N7  UNL     1      -5.901  43.602 -32.805  1.00  0.00    -0.278 NA
HETATM   33  C28 UNL     1      -7.030  42.775 -33.274  1.00  0.00     0.126 C 
HETATM   34  C29 UNL     1      -6.637  42.075 -34.598  1.00  0.00     0.286 C 
HETATM   35  N8  UNL     1      -5.433  41.223 -34.446  1.00  0.00     0.086 N 
HETATM   36  C30 UNL     1      -5.060  40.626 -35.725  1.00  0.00     0.310 C 
HETATM   37  C31 UNL     1      -4.321  42.038 -33.902  1.00  0.00     0.286 C 
HETATM   38  C32 UNL     1      -4.687  42.782 -32.592  1.00  0.00     0.126 C 
ENDBRANCH  27  32
ENDBRANCH  22  24
ENDBRANCH   1  22
BRANCH   8  39
HETATM   39  C9  UNL     1      -2.353  49.807 -22.612  1.00  0.00     0.072 A 
HETATM   40  C10 UNL     1      -1.674  48.861 -21.805  1.00  0.00    -0.034 A 
HETATM   41  C11 UNL     1      -1.817  47.374 -21.994  1.00  0.00     0.050 C 
HETATM   42  C12 UNL     1      -0.823  49.314 -20.782  1.00  0.00     0.009 A 
HETATM   43  C13 UNL     1      -0.675  50.674 -20.530  1.00  0.00     0.001 A 
HETATM   44  C14 UNL     1      -1.359  51.605 -21.306  1.00  0.00     0.009 A 
HETATM   45  C15 UNL     1      -2.190  51.191 -22.360  1.00  0.00    -0.034 A 
HETATM   46  C16 UNL     1      -2.875  52.255 -23.176  1.00  0.00     0.050 C 
ENDBRANCH   8  39
TORSDOF 5
ENDMDL
MODEL 8
REMARK minimizedAffinity -8.39656162
REMARK CNNscore 0.0401423723
REMARK CNNaffinity 6.13165474
REMARK  5 active torsions:
REMARK  status: ('A' for Active; 'I' for Inactive)
REMARK    1  A    between atoms: O1_2  and  C2_3 
REMARK    2  A    between atoms: C4_5  and  N1_6 
REMARK    3  A    between atoms: N1_6  and  C5_7 
REMARK    4  A    between atoms: N3_14  and  C9_15 
REMARK    5  A    between atoms: C27_38  and  N7_39 
ROOT
HETATM    1  C5  UNL     1       0.267  51.147 -16.084  1.00  0.00     0.684 A 
HETATM    2  N2  UNL     1      -0.500  50.137 -15.645  1.00  0.00    -0.201 N 
ATOM      3  H2  UNL     1      -0.454  49.822 -14.676  1.00  0.00     0.183 HD
HETATM    4  C6  UNL     1      -1.339  49.551 -16.531  1.00  0.00     0.127 A 
HETATM    5  C7  UNL     1      -1.419  49.925 -17.850  1.00  0.00     0.095 A 
HETATM    6  C8  UNL     1      -2.356  49.283 -18.787  1.00  0.00     0.282 A 
HETATM    7  O2  UNL     1      -3.072  48.387 -18.346  1.00  0.00    -0.266 OA
HETATM    8  N3  UNL     1      -2.375  49.771 -20.090  1.00  0.00    -0.108 N 
HETATM    9  C17 UNL     1      -1.489  50.771 -20.479  1.00  0.00     0.701 A 
HETATM   10  N4  UNL     1      -1.343  51.306 -21.672  1.00  0.00    -0.188 N 
ATOM     11  H4  UNL     1      -1.875  51.088 -22.515  1.00  0.00     0.184 HD
HETATM   12  C18 UNL     1      -0.327  52.216 -21.549  1.00  0.00     0.077 A 
HETATM   13  C19 UNL     1       0.228  53.056 -22.527  1.00  0.00     0.032 A 
HETATM   14  C20 UNL     1       1.288  53.899 -22.173  1.00  0.00     0.002 A 
HETATM   15  C21 UNL     1       1.791  53.899 -20.873  1.00  0.00     0.002 A 
HETATM   16  C22 UNL     1       1.249  53.068 -19.886  1.00  0.00     0.033 A 
HETATM   17  C23 UNL     1       0.174  52.243 -20.250  1.00  0.00     0.086 A 
HETATM   18  N5  UNL     1      -0.603  51.323 -19.575  1.00  0.00    -0.128 N 
HETATM   19  C24 UNL     1      -0.571  50.939 -18.220  1.00  0.00     0.162 A 
HETATM   20  N6  UNL     1       0.265  51.563 -17.361  1.00  0.00    -0.174 N 
ATOM     21  H6  UNL     1       0.872  52.323 -17.671  1.00  0.00     0.186 HD
ENDROOT
BRANCH   1  22
HETATM   22  N1  UNL     1       1.102  51.722 -15.133  1.00  0.00    -0.192 N 
HETATM   23  H5  UNL     1       2.044  51.768 -15.493  1.00  0.00     0.184 HD
BRANCH  22  24
HETATM   24  C4  UNL     1       0.955  51.968 -13.762  1.00  0.00     0.052 A 
HETATM   25  C3  UNL     1       1.957  51.724 -12.817  1.00  0.00     0.068 A 
HETATM   26  C2  UNL     1       1.756  51.940 -11.441  1.00  0.00     0.091 A 
HETATM   27  C27 UNL     1       0.503  52.380 -10.968  1.00  0.00     0.044 A 
HETATM   28  C26 UNL     1      -0.504  52.603 -11.924  1.00  0.00     0.029 A 
HETATM   29  C25 UNL     1      -0.285  52.404 -13.290  1.00  0.00     0.032 A 
BRANCH  26  30
HETATM   30  O1  UNL     1       2.732  51.645 -10.520  1.00  0.00    -0.354 OA
HETATM   31  C1  UNL     1       2.916  50.263 -10.231  1.00  0.00     0.210 C 
ENDBRANCH  26  30
BRANCH  27  32
HETATM   32  N7  UNL     1       0.154  52.624  -9.629  1.00  0.00    -0.278 NA
HETATM   33  C28 UNL     1      -1.159  52.152  -9.148  1.00  0.00     0.126 C 
HETATM   34  C29 UNL     1      -1.210  52.264  -7.604  1.00  0.00     0.286 C 
HETATM   35  N8  UNL     1      -0.985  53.654  -7.136  1.00  0.00     0.086 N 
HETATM   36  C30 UNL     1      -0.982  53.711  -5.677  1.00  0.00     0.310 C 
HETATM   37  C31 UNL     1       0.298  54.153  -7.683  1.00  0.00     0.286 C 
HETATM   38  C32 UNL     1       0.401  54.026  -9.226  1.00  0.00     0.126 C 
ENDBRANCH  27  32
ENDBRANCH  22  24
ENDBRANCH   1  22
BRANCH   8  39
HETATM   39  C9  UNL     1      -3.228  49.227 -21.087  1.00  0.00     0.072 A 
HETATM   40  C10 UNL     1      -2.820  48.094 -21.835  1.00  0.00    -0.034 A 
HETATM   41  C11 UNL     1      -1.494  47.412 -21.625  1.00  0.00     0.050 C 
HETATM   42  C12 UNL     1      -3.681  47.570 -22.814  1.00  0.00     0.009 A 
HETATM   43  C13 UNL     1      -4.904  48.174 -23.084  1.00  0.00     0.001 A 
HETATM   44  C14 UNL     1      -5.297  49.301 -22.368  1.00  0.00     0.009 A 
HETATM   45  C15 UNL     1      -4.481  49.832 -21.356  1.00  0.00    -0.034 A 
HETATM   46  C16 UNL     1      -4.984  51.034 -20.603  1.00  0.00     0.050 C 
ENDBRANCH   8  39
TORSDOF 5
ENDMDL
MODEL 9
REMARK minimizedAffinity -10.0035095
REMARK CNNscore 0.0385304205
REMARK CNNaffinity 6.37376595
REMARK  5 active torsions:
REMARK  status: ('A' for Active; 'I' for Inactive)
REMARK    1  A    between atoms: O1_2  and  C2_3 
REMARK    2  A    between atoms: C4_5  and  N1_6 
REMARK    3  A    between atoms: N1_6  and  C5_7 
REMARK    4  A    between atoms: N3_14  and  C9_15 
REMARK    5  A    between atoms: C27_38  and  N7_39 
ROOT
HETATM    1  C5  UNL     1      -5.091  48.508 -27.925  1.00  0.00     0.684 A 
HETATM    2  N2  UNL     1      -6.039  47.970 -27.140  1.00  0.00    -0.201 N 
ATOM      3  H2  UNL     1      -6.862  47.519 -27.540  1.00  0.00     0.183 HD
HETATM    4  C6  UNL     1      -5.865  48.044 -25.800  1.00  0.00     0.127 A 
HETATM    5  C7  UNL     1      -4.786  48.661 -25.216  1.00  0.00     0.095 A 
HETATM    6  C8  UNL     1      -4.612  48.708 -23.754  1.00  0.00     0.282 A 
HETATM    7  O2  UNL     1      -5.477  48.174 -23.065  1.00  0.00    -0.266 OA
HETATM    8  N3  UNL     1      -3.461  49.329 -23.279  1.00  0.00    -0.108 N 
HETATM    9  C17 UNL     1      -2.569  49.928 -24.162  1.00  0.00     0.701 A 
HETATM   10  N4  UNL     1      -1.469  50.593 -23.878  1.00  0.00    -0.188 N 
ATOM     11  H4  UNL     1      -1.073  50.761 -22.953  1.00  0.00     0.184 HD
HETATM   12  C18 UNL     1      -0.967  51.010 -25.081  1.00  0.00     0.077 A 
HETATM   13  C19 UNL     1       0.190  51.761 -25.342  1.00  0.00     0.032 A 
HETATM   14  C20 UNL     1       0.498  52.094 -26.666  1.00  0.00     0.002 A 
HETATM   15  C21 UNL     1      -0.335  51.694 -27.710  1.00  0.00     0.002 A 
HETATM   16  C22 UNL     1      -1.491  50.944 -27.468  1.00  0.00     0.033 A 
HETATM   17  C23 UNL     1      -1.777  50.602 -26.138  1.00  0.00     0.086 A 
HETATM   18  N5  UNL     1      -2.788  49.889 -25.525  1.00  0.00    -0.128 N 
HETATM   19  C24 UNL     1      -3.888  49.217 -26.092  1.00  0.00     0.162 A 
HETATM   20  N6  UNL     1      -4.015  49.145 -27.436  1.00  0.00    -0.174 N 
ATOM     21  H6  UNL     1      -3.320  49.560 -28.057  1.00  0.00     0.186 HD
ENDROOT
BRANCH   1  22
HETATM   22  N1  UNL     1      -5.312  48.394 -29.292  1.00  0.00    -0.192 N 
HETATM   23  H5  UNL     1      -5.531  49.303 -29.676  1.00  0.00     0.184 HD
BRANCH  22  24
HETATM   24  C4  UNL     1      -5.554  47.299 -30.130  1.00  0.00     0.052 A 
HETATM   25  C3  UNL     1      -6.555  46.349 -29.898  1.00  0.00     0.068 A 
HETATM   26  C2  UNL     1      -6.737  45.235 -30.738  1.00  0.00     0.091 A 
HETATM   27  C27 UNL     1      -5.875  45.024 -31.834  1.00  0.00     0.044 A 
HETATM   28  C26 UNL     1      -4.860  45.973 -32.046  1.00  0.00     0.029 A 
HETATM   29  C25 UNL     1      -4.702  47.087 -31.217  1.00  0.00     0.032 A 
BRANCH  26  30
HETATM   30  O1  UNL     1      -7.690  44.282 -30.467  1.00  0.00    -0.354 OA
HETATM   31  C1  UNL     1      -8.926  44.768 -29.955  1.00  0.00     0.210 C 
ENDBRANCH  26  30
BRANCH  27  32
HETATM   32  N7  UNL     1      -5.927  43.955 -32.744  1.00  0.00    -0.278 NA
HETATM   33  C28 UNL     1      -7.195  43.212 -32.885  1.00  0.00     0.126 C 
HETATM   34  C29 UNL     1      -7.113  42.289 -34.125  1.00  0.00     0.286 C 
HETATM   35  N8  UNL     1      -5.986  41.327 -34.035  1.00  0.00     0.086 N 
HETATM   36  C30 UNL     1      -5.905  40.514 -35.245  1.00  0.00     0.310 C 
HETATM   37  C31 UNL     1      -4.724  42.071 -33.816  1.00  0.00     0.286 C 
HETATM   38  C32 UNL     1      -4.778  43.033 -32.601  1.00  0.00     0.126 C 
ENDBRANCH  27  32
ENDBRANCH  22  24
ENDBRANCH   1  22
BRANCH   8  39
HETATM   39  C9  UNL     1      -3.187  49.446 -21.889  1.00  0.00     0.072 A 
HETATM   40  C10 UNL     1      -2.406  48.463 -21.231  1.00  0.00    -0.034 A 
HETATM   41  C11 UNL     1      -1.831  47.267 -21.941  1.00  0.00     0.050 C 
HETATM   42  C12 UNL     1      -2.145  48.600 -19.857  1.00  0.00     0.009 A 
HETATM   43  C13 UNL     1      -2.677  49.662 -19.133  1.00  0.00     0.001 A 
HETATM   44  C14 UNL     1      -3.464  50.615 -19.772  1.00  0.00     0.009 A 
HETATM   45  C15 UNL     1      -3.716  50.533 -21.151  1.00  0.00    -0.034 A 
HETATM   46  C16 UNL     1      -4.551  51.616 -21.780  1.00  0.00     0.050 C 
ENDBRANCH   8  39
TORSDOF 5
ENDMDL
