MODEL 1
REMARK minimizedAffinity -9.48657894
REMARK  8 active torsions:
REMARK  status: ('A' for Active; 'I' for Inactive)
REMARK    1  A    between atoms: C8_8  and  C9_9 
REMARK    2  A    between atoms: C14_16  and  N2_17 
REMARK    3  A    between atoms: N2_17  and  C15_18 
REMARK    4  A    between atoms: C19_22  and  C20_23 
REMARK       I    between atoms: C20_23  and  N3_25 
REMARK    5  A    between atoms: N3_25  and  C21_26 
REMARK    6  A    between atoms: C21_26  and  C22_27 
REMARK    7  A    between atoms: C22_27  and  C23_28 
REMARK    8  A    between atoms: C23_28  and  N4_29 
ROOT
HETATM    1  C9  UNL     1      -1.559  50.671 -23.273  1.00  0.00    -0.022 A 
HETATM    2  C10 UNL     1      -0.779  51.780 -23.607  1.00  0.00     0.021 A 
HETATM    3  C11 UNL     1      -0.077  52.490 -22.620  1.00  0.00    -0.032 A 
HETATM    4  C12 UNL     1       0.754  53.682 -23.014  1.00  0.00     0.050 C 
HETATM    5  C13 UNL     1      -0.145  52.099 -21.277  1.00  0.00     0.083 A 
HETATM    6  N1  UNL     1       0.528  52.784 -20.332  1.00  0.00    -0.188 N 
ATOM      7  H1  UNL     1       1.101  53.592 -20.578  1.00  0.00     0.184 HD
HETATM    8  C14 UNL     1       0.426  52.374 -19.060  1.00  0.00     0.697 A 
HETATM    9  N5  UNL     1      -0.319  51.305 -18.714  1.00  0.00    -0.131 N 
ATOM     10  H5  UNL     1      -0.373  51.018 -17.737  1.00  0.00     0.205 HD
HETATM   11  N6  UNL     1      -1.003  50.602 -19.665  1.00  0.00    -0.284 N 
ATOM     12  H6  UNL     1      -1.565  49.793 -19.402  1.00  0.00     0.187 HD
HETATM   13  C27 UNL     1      -0.929  50.985 -20.943  1.00  0.00     0.077 A 
HETATM   14  C28 UNL     1      -1.619  50.289 -21.929  1.00  0.00     0.045 A 
ENDROOT
BRANCH   8  15
HETATM   15  N2  UNL     1       1.077  53.031 -18.016  1.00  0.00    -0.190 N 
HETATM   16  H14 UNL     1       1.002  54.030 -18.152  1.00  0.00     0.184 HD
BRANCH  15  17
HETATM   17  C15 UNL     1       1.823  52.604 -16.913  1.00  0.00     0.050 A 
HETATM   18  C16 UNL     1       3.220  52.560 -16.883  1.00  0.00     0.030 A 
HETATM   19  C17 UNL     1       3.912  52.133 -15.743  1.00  0.00     0.003 A 
HETATM   20  C18 UNL     1       3.213  51.729 -14.607  1.00  0.00     0.017 A 
HETATM   21  C19 UNL     1       1.816  51.746 -14.618  1.00  0.00     0.034 A 
HETATM   22  C26 UNL     1       1.135  52.190 -15.761  1.00  0.00     0.047 A 
BRANCH  21  23
HETATM   23  C20 UNL     1       1.013  51.333 -13.434  1.00  0.00     0.251 C 
HETATM   24  O1  UNL     1       1.326  50.331 -12.801  1.00  0.00    -0.268 OA
HETATM   25  N3  UNL     1      -0.047  52.153 -13.098  1.00  0.00    -0.357 N 
HETATM   26  H18 UNL     1      -0.039  53.095 -13.466  1.00  0.00     0.162 HD
BRANCH  25  27
HETATM   27  C21 UNL     1      -0.786  51.937 -11.865  1.00  0.00     0.124 C 
BRANCH  27  28
HETATM   28  C22 UNL     1      -2.176  51.379 -12.154  1.00  0.00     0.050 C 
BRANCH  28  29
HETATM   29  C23 UNL     1      -3.199  52.479 -12.460  1.00  0.00     0.273 C 
BRANCH  29  30
HETATM   30  N4  UNL     1      -4.201  52.678 -11.400  1.00  0.00     0.080 N 
HETATM   31  C24 UNL     1      -4.385  51.477 -10.583  1.00  0.00     0.309 C 
HETATM   32  C25 UNL     1      -3.808  53.800 -10.542  1.00  0.00     0.309 C 
ENDBRANCH  29  30
ENDBRANCH  28  29
ENDBRANCH  27  28
ENDBRANCH  25  27
ENDBRANCH  21  23
ENDBRANCH  15  17
ENDBRANCH   8  15
BRANCH   1  33
HETATM   33  C8  UNL     1      -2.299  49.925 -24.304  1.00  0.00    -0.014 A 
HETATM   34  C2  UNL     1      -3.466  49.195 -23.966  1.00  0.00    -0.050 A 
HETATM   35  C1  UNL     1      -3.990  49.151 -22.554  1.00  0.00     0.049 C 
HETATM   36  C3  UNL     1      -4.158  48.487 -24.963  1.00  0.00     0.007 A 
HETATM   37  C4  UNL     1      -3.713  48.495 -26.280  1.00  0.00     0.001 A 
HETATM   38  C5  UNL     1      -2.570  49.209 -26.623  1.00  0.00     0.007 A 
HETATM   39  C6  UNL     1      -1.855  49.927 -25.651  1.00  0.00    -0.050 A 
HETATM   40  C7  UNL     1      -0.622  50.685 -26.075  1.00  0.00     0.049 C 
ENDBRANCH   1  33
TORSDOF 8
ENDMDL
MODEL 2
REMARK minimizedAffinity -9.48657322
REMARK  8 active torsions:
REMARK  status: ('A' for Active; 'I' for Inactive)
REMARK    1  A    between atoms: C8_8  and  C9_9 
REMARK    2  A    between atoms: C14_16  and  N2_17 
REMARK    3  A    between atoms: N2_17  and  C15_18 
REMARK    4  A    between atoms: C19_22  and  C20_23 
REMARK       I    between atoms: C20_23  and  N3_25 
REMARK    5  A    between atoms: N3_25  and  C21_26 
REMARK    6  A    between atoms: C21_26  and  C22_27 
REMARK    7  A    between atoms: C22_27  and  C23_28 
REMARK    8  A    between atoms: C23_28  and  N4_29 
ROOT
HETATM    1  C9  UNL     1      -1.233  50.988 -23.396  1.00  0.00    -0.022 A 
HETATM    2  C10 UNL     1      -0.362  52.051 -23.651  1.00  0.00     0.021 A 
HETATM    3  C11 UNL     1       0.301  52.707 -22.602  1.00  0.00    -0.032 A 
HETATM    4  C12 UNL     1       1.231  53.849 -22.913  1.00  0.00     0.050 C 
HETATM    5  C13 UNL     1       0.104  52.307 -21.274  1.00  0.00     0.083 A 
HETATM    6  N1  UNL     1       0.741  52.940 -20.270  1.00  0.00    -0.188 N 
ATOM      7  H1  UNL     1       1.379  53.714 -20.458  1.00  0.00     0.184 HD
HETATM    8  C14 UNL     1       0.513  52.524 -19.016  1.00  0.00     0.697 A 
HETATM    9  N5  UNL     1      -0.320  51.500 -18.745  1.00  0.00    -0.131 N 
ATOM     10  H5  UNL     1      -0.468  51.208 -17.779  1.00  0.00     0.205 HD
HETATM   11  N6  UNL     1      -0.968  50.850 -19.757  1.00  0.00    -0.284 N 
ATOM     12  H6  UNL     1      -1.597  50.074 -19.550  1.00  0.00     0.187 HD
HETATM   13  C27 UNL     1      -0.770  51.240 -21.019  1.00  0.00     0.077 A 
HETATM   14  C28 UNL     1      -1.422  50.597 -22.066  1.00  0.00     0.045 A 
ENDROOT
BRANCH   8  15
HETATM   15  N2  UNL     1       1.119  53.130 -17.915  1.00  0.00    -0.190 N 
HETATM   16  H14 UNL     1       1.018  54.133 -17.988  1.00  0.00     0.184 HD
BRANCH  15  17
HETATM   17  C15 UNL     1       1.849  52.652 -16.822  1.00  0.00     0.050 A 
HETATM   18  C16 UNL     1       3.246  52.621 -16.767  1.00  0.00     0.030 A 
HETATM   19  C17 UNL     1       3.921  52.141 -15.638  1.00  0.00     0.003 A 
HETATM   20  C18 UNL     1       3.206  51.671 -14.539  1.00  0.00     0.017 A 
HETATM   21  C19 UNL     1       1.810  51.674 -14.575  1.00  0.00     0.034 A 
HETATM   22  C26 UNL     1       1.145  52.171 -15.706  1.00  0.00     0.047 A 
BRANCH  21  23
HETATM   23  C20 UNL     1       0.989  51.190 -13.431  1.00  0.00     0.251 C 
HETATM   24  O1  UNL     1       1.355  50.216 -12.783  1.00  0.00    -0.268 OA
HETATM   25  N3  UNL     1      -0.151  51.917 -13.146  1.00  0.00    -0.357 N 
HETATM   26  H18 UNL     1      -0.205  52.857 -13.514  1.00  0.00     0.162 HD
BRANCH  25  27
HETATM   27  C21 UNL     1      -0.926  51.635 -11.949  1.00  0.00     0.124 C 
BRANCH  27  28
HETATM   28  C22 UNL     1      -2.361  51.262 -12.305  1.00  0.00     0.050 C 
BRANCH  28  29
HETATM   29  C23 UNL     1      -3.280  52.486 -12.404  1.00  0.00     0.273 C 
BRANCH  29  30
HETATM   30  N4  UNL     1      -4.235  52.610 -11.291  1.00  0.00     0.080 N 
HETATM   31  C24 UNL     1      -4.281  51.401 -10.466  1.00  0.00     0.309 C 
HETATM   32  C25 UNL     1      -3.887  53.763 -10.456  1.00  0.00     0.309 C 
ENDBRANCH  29  30
ENDBRANCH  28  29
ENDBRANCH  27  28
ENDBRANCH  25  27
ENDBRANCH  21  23
ENDBRANCH  15  17
ENDBRANCH   8  15
BRANCH   1  33
HETATM   33  C8  UNL     1      -1.933  50.300 -24.492  1.00  0.00    -0.014 A 
HETATM   34  C2  UNL     1      -1.881  50.813 -25.813  1.00  0.00    -0.050 A 
HETATM   35  C1  UNL     1      -1.118  52.070 -26.144  1.00  0.00     0.049 C 
HETATM   36  C3  UNL     1      -2.557  50.144 -26.847  1.00  0.00     0.007 A 
HETATM   37  C4  UNL     1      -3.276  48.982 -26.591  1.00  0.00     0.001 A 
HETATM   38  C5  UNL     1      -3.332  48.470 -25.300  1.00  0.00     0.007 A 
HETATM   39  C6  UNL     1      -2.668  49.113 -24.244  1.00  0.00    -0.050 A 
HETATM   40  C7  UNL     1      -2.761  48.516 -22.862  1.00  0.00     0.049 C 
ENDBRANCH   1  33
TORSDOF 8
ENDMDL
MODEL 3
REMARK minimizedAffinity -9.47104549
REMARK  8 active torsions:
REMARK  status: ('A' for Active; 'I' for Inactive)
REMARK    1  A    between atoms: C8_8  and  C9_9 
REMARK    2  A    between atoms: C14_16  and  N2_17 
REMARK    3  A    between atoms: N2_17  and  C15_18 
REMARK    4  A    between atoms: C19_22  and  C20_23 
REMARK       I    between atoms: C20_23  and  N3_25 
REMARK    5  A    between atoms: N3_25  and  C21_26 
REMARK    6  A    between atoms: C21_26  and  C22_27 
REMARK    7  A    between atoms: C22_27  and  C23_28 
REMARK    8  A    between atoms: C23_28  and  N4_29 
ROOT
HETATM    1  C9  UNL     1      -1.436  50.272 -22.779  1.00  0.00    -0.022 A 
HETATM    2  C10 UNL     1      -1.414  49.380 -21.704  1.00  0.00     0.021 A 
HETATM    3  C11 UNL     1      -0.912  49.772 -20.453  1.00  0.00    -0.032 A 
HETATM    4  C12 UNL     1      -0.901  48.784 -19.317  1.00  0.00     0.050 C 
HETATM    5  C13 UNL     1      -0.421  51.069 -20.257  1.00  0.00     0.083 A 
HETATM    6  N1  UNL     1       0.062  51.441 -19.056  1.00  0.00    -0.188 N 
ATOM      7  H1  UNL     1       0.075  50.789 -18.271  1.00  0.00     0.184 HD
HETATM    8  C14 UNL     1       0.526  52.691 -18.921  1.00  0.00     0.697 A 
HETATM    9  N5  UNL     1       0.513  53.570 -19.943  1.00  0.00    -0.131 N 
ATOM     10  H5  UNL     1       0.872  54.515 -19.805  1.00  0.00     0.205 HD
HETATM   11  N6  UNL     1       0.022  53.203 -21.164  1.00  0.00    -0.284 N 
ATOM     12  H6  UNL     1       0.012  53.870 -21.936  1.00  0.00     0.187 HD
HETATM   13  C27 UNL     1      -0.444  51.963 -21.338  1.00  0.00     0.077 A 
HETATM   14  C28 UNL     1      -0.944  51.565 -22.572  1.00  0.00     0.045 A 
ENDROOT
BRANCH   8  15
HETATM   15  N2  UNL     1       1.057  53.157 -17.718  1.00  0.00    -0.190 N 
HETATM   16  H14 UNL     1       0.863  54.145 -17.628  1.00  0.00     0.184 HD
BRANCH  15  17
HETATM   17  C15 UNL     1       1.815  52.573 -16.698  1.00  0.00     0.050 A 
HETATM   18  C16 UNL     1       3.213  52.597 -16.650  1.00  0.00     0.030 A 
HETATM   19  C17 UNL     1       3.917  52.004 -15.595  1.00  0.00     0.003 A 
HETATM   20  C18 UNL     1       3.230  51.362 -14.567  1.00  0.00     0.017 A 
HETATM   21  C19 UNL     1       1.835  51.307 -14.600  1.00  0.00     0.034 A 
HETATM   22  C26 UNL     1       1.141  51.919 -15.655  1.00  0.00     0.047 A 
BRANCH  21  23
HETATM   23  C20 UNL     1       1.044  50.642 -13.528  1.00  0.00     0.251 C 
HETATM   24  O1  UNL     1       1.568  49.788 -12.822  1.00  0.00    -0.268 OA
HETATM   25  N3  UNL     1      -0.260  51.071 -13.374  1.00  0.00    -0.357 N 
HETATM   26  H18 UNL     1      -0.502  51.969 -13.771  1.00  0.00     0.162 HD
BRANCH  25  27
HETATM   27  C21 UNL     1      -1.061  50.613 -12.251  1.00  0.00     0.124 C 
BRANCH  27  28
HETATM   28  C22 UNL     1      -2.539  50.911 -12.479  1.00  0.00     0.050 C 
BRANCH  28  29
HETATM   29  C23 UNL     1      -2.878  52.393 -12.276  1.00  0.00     0.273 C 
BRANCH  29  30
HETATM   30  N4  UNL     1      -4.072  52.627 -11.448  1.00  0.00     0.080 N 
HETATM   31  C24 UNL     1      -4.438  51.447 -10.663  1.00  0.00     0.309 C 
HETATM   32  C25 UNL     1      -3.847  53.765 -10.550  1.00  0.00     0.309 C 
ENDBRANCH  29  30
ENDBRANCH  28  29
ENDBRANCH  27  28
ENDBRANCH  25  27
ENDBRANCH  21  23
ENDBRANCH  15  17
ENDBRANCH   8  15
BRANCH   1  33
HETATM   33  C8  UNL     1      -1.960  49.864 -24.093  1.00  0.00    -0.014 A 
HETATM   34  C2  UNL     1      -1.361  50.341 -25.286  1.00  0.00    -0.050 A 
HETATM   35  C1  UNL     1      -0.178  51.275 -25.259  1.00  0.00     0.049 C 
HETATM   36  C3  UNL     1      -1.875  49.944 -26.532  1.00  0.00     0.007 A 
HETATM   37  C4  UNL     1      -2.965  49.085 -26.609  1.00  0.00     0.001 A 
HETATM   38  C5  UNL     1      -3.560  48.610 -25.445  1.00  0.00     0.007 A 
HETATM   39  C6  UNL     1      -3.071  48.988 -24.184  1.00  0.00    -0.050 A 
HETATM   40  C7  UNL     1      -3.752  48.444 -22.953  1.00  0.00     0.049 C 
ENDBRANCH   1  33
TORSDOF 8
ENDMDL
MODEL 4
REMARK minimizedAffinity -9.312953
REMARK  8 active torsions:
REMARK  status: ('A' for Active; 'I' for Inactive)
REMARK    1  A    between atoms: C8_8  and  C9_9 
REMARK    2  A    between atoms: C14_16  and  N2_17 
REMARK    3  A    between atoms: N2_17  and  C15_18 
REMARK    4  A    between atoms: C19_22  and  C20_23 
REMARK       I    between atoms: C20_23  and  N3_25 
REMARK    5  A    between atoms: N3_25  and  C21_26 
REMARK    6  A    between atoms: C21_26  and  C22_27 
REMARK    7  A    between atoms: C22_27  and  C23_28 
REMARK    8  A    between atoms: C23_28  and  N4_29 
ROOT
HETATM    1  C9  UNL     1      -0.532  51.739 -23.430  1.00  0.00    -0.022 A 
HETATM    2  C10 UNL     1       0.166  51.601 -24.632  1.00  0.00     0.021 A 
HETATM    3  C11 UNL     1      -0.440  51.011 -25.753  1.00  0.00    -0.032 A 
HETATM    4  C12 UNL     1       0.342  50.877 -27.033  1.00  0.00     0.050 C 
HETATM    5  C13 UNL     1      -1.760  50.546 -25.688  1.00  0.00     0.083 A 
HETATM    6  N1  UNL     1      -2.337  49.979 -26.765  1.00  0.00    -0.188 N 
ATOM      7  H1  UNL     1      -1.827  49.882 -27.643  1.00  0.00     0.184 HD
HETATM    8  C14 UNL     1      -3.599  49.545 -26.650  1.00  0.00     0.697 A 
HETATM    9  N5  UNL     1      -4.294  49.669 -25.501  1.00  0.00    -0.131 N 
ATOM     10  H5  UNL     1      -5.255  49.330 -25.449  1.00  0.00     0.205 HD
HETATM   11  N6  UNL     1      -3.719  50.246 -24.405  1.00  0.00    -0.284 N 
ATOM     12  H6  UNL     1      -4.246  50.340 -23.536  1.00  0.00     0.187 HD
HETATM   13  C27 UNL     1      -2.459  50.686 -24.480  1.00  0.00     0.077 A 
HETATM   14  C28 UNL     1      -1.850  51.273 -23.377  1.00  0.00     0.045 A 
ENDROOT
BRANCH   8  15
HETATM   15  N2  UNL     1      -4.271  48.932 -27.708  1.00  0.00    -0.190 N 
HETATM   16  H14 UNL     1      -3.798  49.151 -28.575  1.00  0.00     0.184 HD
BRANCH  15  17
HETATM   17  C15 UNL     1      -5.438  48.168 -27.808  1.00  0.00     0.050 A 
HETATM   18  C16 UNL     1      -6.154  47.686 -26.708  1.00  0.00     0.030 A 
HETATM   19  C17 UNL     1      -7.324  46.935 -26.872  1.00  0.00     0.003 A 
HETATM   20  C18 UNL     1      -7.796  46.641 -28.149  1.00  0.00     0.017 A 
HETATM   21  C19 UNL     1      -7.089  47.094 -29.265  1.00  0.00     0.034 A 
HETATM   22  C26 UNL     1      -5.927  47.859 -29.087  1.00  0.00     0.047 A 
BRANCH  21  23
HETATM   23  C20 UNL     1      -7.546  46.818 -30.655  1.00  0.00     0.251 C 
HETATM   24  O1  UNL     1      -7.985  45.711 -30.947  1.00  0.00    -0.268 OA
HETATM   25  N3  UNL     1      -7.473  47.873 -31.544  1.00  0.00    -0.357 N 
HETATM   26  H18 UNL     1      -7.403  48.804 -31.154  1.00  0.00     0.162 HD
BRANCH  25  27
HETATM   27  C21 UNL     1      -8.052  47.761 -32.872  1.00  0.00     0.124 C 
BRANCH  27  28
HETATM   28  C22 UNL     1      -6.978  47.442 -33.908  1.00  0.00     0.050 C 
BRANCH  28  29
HETATM   29  C23 UNL     1      -5.606  48.012 -33.528  1.00  0.00     0.273 C 
BRANCH  29  30
HETATM   30  N4  UNL     1      -4.496  47.059 -33.685  1.00  0.00     0.080 N 
HETATM   31  C24 UNL     1      -3.207  47.735 -33.841  1.00  0.00     0.309 C 
HETATM   32  C25 UNL     1      -4.442  46.155 -32.532  1.00  0.00     0.309 C 
ENDBRANCH  29  30
ENDBRANCH  28  29
ENDBRANCH  27  28
ENDBRANCH  25  27
ENDBRANCH  21  23
ENDBRANCH  15  17
ENDBRANCH   8  15
BRANCH   1  33
HETATM   33  C8  UNL     1       0.100  52.355 -22.252  1.00  0.00    -0.014 A 
HETATM   34  C2  UNL     1      -0.001  51.741 -20.978  1.00  0.00    -0.050 A 
HETATM   35  C1  UNL     1      -0.752  50.450 -20.779  1.00  0.00     0.049 C 
HETATM   36  C3  UNL     1       0.606  52.344 -19.864  1.00  0.00     0.007 A 
HETATM   37  C4  UNL     1       1.308  53.537 -19.996  1.00  0.00     0.001 A 
HETATM   38  C5  UNL     1       1.414  54.147 -21.242  1.00  0.00     0.007 A 
HETATM   39  C6  UNL     1       0.819  53.571 -22.375  1.00  0.00    -0.050 A 
HETATM   40  C7  UNL     1       0.964  54.272 -23.702  1.00  0.00     0.049 C 
ENDBRANCH   1  33
TORSDOF 8
ENDMDL
MODEL 5
REMARK minimizedAffinity -9.2997179
REMARK  8 active torsions:
REMARK  status: ('A' for Active; 'I' for Inactive)
REMARK    1  A    between atoms: C8_8  and  C9_9 
REMARK    2  A    between atoms: C14_16  and  N2_17 
REMARK    3  A    between atoms: N2_17  and  C15_18 
REMARK    4  A    between atoms: C19_22  and  C20_23 
REMARK       I    between atoms: C20_23  and  N3_25 
REMARK    5  A    between atoms: N3_25  and  C21_26 
REMARK    6  A    between atoms: C21_26  and  C22_27 
REMARK    7  A    between atoms: C22_27  and  C23_28 
REMARK    8  A    between atoms: C23_28  and  N4_29 
ROOT
HETATM    1  C9  UNL     1      -0.222  51.864 -23.860  1.00  0.00    -0.022 A 
HETATM    2  C10 UNL     1      -0.749  50.831 -23.082  1.00  0.00     0.021 A 
HETATM    3  C11 UNL     1      -0.648  50.860 -21.682  1.00  0.00    -0.032 A 
HETATM    4  C12 UNL     1      -1.225  49.729 -20.874  1.00  0.00     0.050 C 
HETATM    5  C13 UNL     1      -0.014  51.929 -21.035  1.00  0.00     0.083 A 
HETATM    6  N1  UNL     1       0.082  51.953 -19.692  1.00  0.00    -0.188 N 
ATOM      7  H1  UNL     1      -0.306  51.199 -19.125  1.00  0.00     0.184 HD
HETATM    8  C14 UNL     1       0.703  52.995 -19.122  1.00  0.00     0.697 A 
HETATM    9  N5  UNL     1       1.217  54.005 -19.852  1.00  0.00    -0.131 N 
ATOM     10  H5  UNL     1       1.681  54.784 -19.385  1.00  0.00     0.205 HD
HETATM   11  N6  UNL     1       1.121  53.991 -21.214  1.00  0.00    -0.284 N 
ATOM     12  H6  UNL     1       1.509  54.757 -21.765  1.00  0.00     0.187 HD
HETATM   13  C27 UNL     1       0.514  52.966 -21.819  1.00  0.00     0.077 A 
HETATM   14  C28 UNL     1       0.407  52.927 -23.204  1.00  0.00     0.045 A 
ENDROOT
BRANCH   8  15
HETATM   15  N2  UNL     1       0.862  53.095 -17.739  1.00  0.00    -0.190 N 
HETATM   16  H14 UNL     1       0.161  53.723 -17.368  1.00  0.00     0.184 HD
BRANCH  15  17
HETATM   17  C15 UNL     1       1.784  52.576 -16.826  1.00  0.00     0.050 A 
HETATM   18  C16 UNL     1       3.162  52.807 -16.887  1.00  0.00     0.030 A 
HETATM   19  C17 UNL     1       4.036  52.268 -15.935  1.00  0.00     0.003 A 
HETATM   20  C18 UNL     1       3.544  51.473 -14.902  1.00  0.00     0.017 A 
HETATM   21  C19 UNL     1       2.174  51.211 -14.828  1.00  0.00     0.034 A 
HETATM   22  C26 UNL     1       1.307  51.769 -15.780  1.00  0.00     0.047 A 
BRANCH  21  23
HETATM   23  C20 UNL     1       1.587  50.374 -13.745  1.00  0.00     0.251 C 
HETATM   24  O1  UNL     1       2.136  49.331 -13.412  1.00  0.00    -0.268 OA
HETATM   25  N3  UNL     1       0.442  50.864 -13.147  1.00  0.00    -0.357 N 
HETATM   26  H18 UNL     1       0.246  51.849 -13.259  1.00  0.00     0.162 HD
BRANCH  25  27
HETATM   27  C21 UNL     1      -0.110  50.216 -11.969  1.00  0.00     0.124 C 
BRANCH  27  28
HETATM   28  C22 UNL     1      -1.635  50.236 -12.002  1.00  0.00     0.050 C 
BRANCH  28  29
HETATM   29  C23 UNL     1      -2.224  51.443 -11.261  1.00  0.00     0.273 C 
BRANCH  29  30
HETATM   30  N4  UNL     1      -3.662  51.649 -11.499  1.00  0.00     0.080 N 
HETATM   31  C24 UNL     1      -4.488  50.726 -10.718  1.00  0.00     0.309 C 
HETATM   32  C25 UNL     1      -4.031  53.031 -11.178  1.00  0.00     0.309 C 
ENDBRANCH  29  30
ENDBRANCH  28  29
ENDBRANCH  27  28
ENDBRANCH  25  27
ENDBRANCH  21  23
ENDBRANCH  15  17
ENDBRANCH   8  15
BRANCH   1  33
HETATM   33  C8  UNL     1      -0.324  51.836 -25.328  1.00  0.00    -0.014 A 
HETATM   34  C2  UNL     1      -1.562  52.093 -25.969  1.00  0.00    -0.050 A 
HETATM   35  C1  UNL     1      -2.811  52.400 -25.183  1.00  0.00     0.049 C 
HETATM   36  C3  UNL     1      -1.642  52.060 -27.371  1.00  0.00     0.007 A 
HETATM   37  C4  UNL     1      -0.518  51.779 -28.140  1.00  0.00     0.001 A 
HETATM   38  C5  UNL     1       0.702  51.527 -27.522  1.00  0.00     0.007 A 
HETATM   39  C6  UNL     1       0.816  51.552 -26.123  1.00  0.00    -0.050 A 
HETATM   40  C7  UNL     1       2.162  51.272 -25.503  1.00  0.00     0.049 C 
ENDBRANCH   1  33
TORSDOF 8
ENDMDL
MODEL 6
REMARK minimizedAffinity -9.2099371
REMARK  8 active torsions:
REMARK  status: ('A' for Active; 'I' for Inactive)
REMARK    1  A    between atoms: C8_8  and  C9_9 
REMARK    2  A    between atoms: C14_16  and  N2_17 
REMARK    3  A    between atoms: N2_17  and  C15_18 
REMARK    4  A    between atoms: C19_22  and  C20_23 
REMARK       I    between atoms: C20_23  and  N3_25 
REMARK    5  A    between atoms: N3_25  and  C21_26 
REMARK    6  A    between atoms: C21_26  and  C22_27 
REMARK    7  A    between atoms: C22_27  and  C23_28 
REMARK    8  A    between atoms: C23_28  and  N4_29 
ROOT
HETATM    1  C9  UNL     1      -0.182  51.867 -23.860  1.00  0.00    -0.022 A 
HETATM    2  C10 UNL     1      -0.680  50.803 -23.105  1.00  0.00     0.021 A 
HETATM    3  C11 UNL     1      -0.584  50.808 -21.704  1.00  0.00    -0.032 A 
HETATM    4  C12 UNL     1      -1.131  49.645 -20.920  1.00  0.00     0.050 C 
HETATM    5  C13 UNL     1       0.015  51.883 -21.034  1.00  0.00     0.083 A 
HETATM    6  N1  UNL     1       0.107  51.883 -19.690  1.00  0.00    -0.188 N 
ATOM      7  H1  UNL     1      -0.261  51.107 -19.139  1.00  0.00     0.184 HD
HETATM    8  C14 UNL     1       0.695  52.931 -19.097  1.00  0.00     0.697 A 
HETATM    9  N5  UNL     1       1.181  53.970 -19.806  1.00  0.00    -0.131 N 
ATOM     10  H5  UNL     1       1.620  54.753 -19.321  1.00  0.00     0.205 HD
HETATM   11  N6  UNL     1       1.090  53.980 -21.168  1.00  0.00    -0.284 N 
ATOM     12  H6  UNL     1       1.457  54.768 -21.703  1.00  0.00     0.187 HD
HETATM   13  C27 UNL     1       0.515  52.950 -21.795  1.00  0.00     0.077 A 
HETATM   14  C28 UNL     1       0.414  52.935 -23.181  1.00  0.00     0.045 A 
ENDROOT
BRANCH   8  15
HETATM   15  N2  UNL     1       0.846  53.009 -17.713  1.00  0.00    -0.190 N 
HETATM   16  H14 UNL     1       0.094  53.564 -17.325  1.00  0.00     0.184 HD
BRANCH  15  17
HETATM   17  C15 UNL     1       1.811  52.548 -16.812  1.00  0.00     0.050 A 
HETATM   18  C16 UNL     1       3.182  52.792 -16.941  1.00  0.00     0.030 A 
HETATM   19  C17 UNL     1       4.100  52.313 -15.998  1.00  0.00     0.003 A 
HETATM   20  C18 UNL     1       3.661  51.566 -14.907  1.00  0.00     0.017 A 
HETATM   21  C19 UNL     1       2.299  51.291 -14.766  1.00  0.00     0.034 A 
HETATM   22  C26 UNL     1       1.387  51.790 -15.709  1.00  0.00     0.047 A 
BRANCH  21  23
HETATM   23  C20 UNL     1       1.767  50.504 -13.619  1.00  0.00     0.251 C 
HETATM   24  O1  UNL     1       2.193  49.375 -13.401  1.00  0.00    -0.268 OA
HETATM   25  N3  UNL     1       0.821  51.132 -12.832  1.00  0.00    -0.357 N 
HETATM   26  H18 UNL     1       0.765  52.140 -12.891  1.00  0.00     0.162 HD
BRANCH  25  27
HETATM   27  C21 UNL     1       0.367  50.521 -11.594  1.00  0.00     0.124 C 
BRANCH  27  28
HETATM   28  C22 UNL     1      -0.679  51.395 -10.908  1.00  0.00     0.050 C 
BRANCH  28  29
HETATM   29  C23 UNL     1      -1.413  52.315 -11.891  1.00  0.00     0.273 C 
BRANCH  29  30
HETATM   30  N4  UNL     1      -2.791  51.894 -12.190  1.00  0.00     0.080 N 
HETATM   31  C24 UNL     1      -3.762  52.960 -11.935  1.00  0.00     0.309 C 
HETATM   32  C25 UNL     1      -2.893  51.461 -13.588  1.00  0.00     0.309 C 
ENDBRANCH  29  30
ENDBRANCH  28  29
ENDBRANCH  27  28
ENDBRANCH  25  27
ENDBRANCH  21  23
ENDBRANCH  15  17
ENDBRANCH   8  15
BRANCH   1  33
HETATM   33  C8  UNL     1      -0.278  51.865 -25.329  1.00  0.00    -0.014 A 
HETATM   34  C2  UNL     1       0.859  51.574 -26.125  1.00  0.00    -0.050 A 
HETATM   35  C1  UNL     1       2.197  51.260 -25.506  1.00  0.00     0.049 C 
HETATM   36  C3  UNL     1       0.750  51.578 -27.525  1.00  0.00     0.007 A 
HETATM   37  C4  UNL     1      -0.462  51.864 -28.142  1.00  0.00     0.001 A 
HETATM   38  C5  UNL     1      -1.585  52.150 -27.372  1.00  0.00     0.007 A 
HETATM   39  C6  UNL     1      -1.510  52.154 -25.970  1.00  0.00    -0.050 A 
HETATM   40  C7  UNL     1      -2.756  52.470 -25.181  1.00  0.00     0.049 C 
ENDBRANCH   1  33
TORSDOF 8
ENDMDL
MODEL 7
REMARK minimizedAffinity -9.18545628
REMARK  8 active torsions:
REMARK  status: ('A' for Active; 'I' for Inactive)
REMARK    1  A    between atoms: C8_8  and  C9_9 
REMARK    2  A    between atoms: C14_16  and  N2_17 
REMARK    3  A    between atoms: N2_17  and  C15_18 
REMARK    4  A    between atoms: C19_22  and  C20_23 
REMARK       I    between atoms: C20_23  and  N3_25 
REMARK    5  A    between atoms: N3_25  and  C21_26 
REMARK    6  A    between atoms: C21_26  and  C22_27 
REMARK    7  A    between atoms: C22_27  and  C23_28 
REMARK    8  A    between atoms: C23_28  and  N4_29 
ROOT
HETATM    1  C9  UNL     1      -1.645  51.212 -21.924  1.00  0.00    -0.022 A 
HETATM    2  C10 UNL     1      -1.481  49.828 -21.817  1.00  0.00     0.021 A 
HETATM    3  C11 UNL     1      -2.454  48.948 -22.316  1.00  0.00    -0.032 A 
HETATM    4  C12 UNL     1      -2.246  47.463 -22.183  1.00  0.00     0.050 C 
HETATM    5  C13 UNL     1      -3.612  49.439 -22.932  1.00  0.00     0.083 A 
HETATM    6  N1  UNL     1      -4.544  48.591 -23.407  1.00  0.00    -0.188 N 
ATOM      7  H1  UNL     1      -4.422  47.581 -23.332  1.00  0.00     0.184 HD
HETATM    8  C14 UNL     1      -5.637  49.112 -23.982  1.00  0.00     0.697 A 
HETATM    9  N5  UNL     1      -5.816  50.443 -24.099  1.00  0.00    -0.131 N 
ATOM     10  H5  UNL     1      -6.659  50.805 -24.545  1.00  0.00     0.205 HD
HETATM   11  N6  UNL     1      -4.875  51.310 -23.623  1.00  0.00    -0.284 N 
ATOM     12  H6  UNL     1      -5.011  52.318 -23.713  1.00  0.00     0.187 HD
HETATM   13  C27 UNL     1      -3.774  50.829 -23.038  1.00  0.00     0.077 A 
HETATM   14  C28 UNL     1      -2.804  51.692 -22.542  1.00  0.00     0.045 A 
ENDROOT
BRANCH   8  15
HETATM   15  N2  UNL     1      -6.659  48.309 -24.489  1.00  0.00    -0.190 N 
HETATM   16  H14 UNL     1      -7.361  48.171 -23.775  1.00  0.00     0.184 HD
BRANCH  15  17
HETATM   17  C15 UNL     1      -6.864  47.646 -25.704  1.00  0.00     0.050 A 
HETATM   18  C16 UNL     1      -7.774  46.599 -25.880  1.00  0.00     0.030 A 
HETATM   19  C17 UNL     1      -7.943  45.982 -27.125  1.00  0.00     0.003 A 
HETATM   20  C18 UNL     1      -7.192  46.397 -28.223  1.00  0.00     0.017 A 
HETATM   21  C19 UNL     1      -6.262  47.428 -28.069  1.00  0.00     0.034 A 
HETATM   22  C26 UNL     1      -6.113  48.049 -26.820  1.00  0.00     0.047 A 
BRANCH  21  23
HETATM   23  C20 UNL     1      -5.434  47.921 -29.205  1.00  0.00     0.251 C 
HETATM   24  O1  UNL     1      -4.297  48.330 -29.000  1.00  0.00    -0.268 OA
HETATM   25  N3  UNL     1      -6.011  47.849 -30.458  1.00  0.00    -0.357 N 
HETATM   26  H18 UNL     1      -6.798  47.224 -30.571  1.00  0.00     0.162 HD
BRANCH  25  27
HETATM   27  C21 UNL     1      -5.229  48.140 -31.648  1.00  0.00     0.124 C 
BRANCH  27  28
HETATM   28  C22 UNL     1      -4.644  46.862 -32.242  1.00  0.00     0.050 C 
BRANCH  28  29
HETATM   29  C23 UNL     1      -5.711  45.791 -32.496  1.00  0.00     0.273 C 
BRANCH  29  30
HETATM   30  N4  UNL     1      -5.517  44.555 -31.721  1.00  0.00     0.080 N 
HETATM   31  C24 UNL     1      -6.755  44.102 -31.085  1.00  0.00     0.309 C 
HETATM   32  C25 UNL     1      -4.992  43.495 -32.587  1.00  0.00     0.309 C 
ENDBRANCH  29  30
ENDBRANCH  28  29
ENDBRANCH  27  28
ENDBRANCH  25  27
ENDBRANCH  21  23
ENDBRANCH  15  17
ENDBRANCH   8  15
BRANCH   1  33
HETATM   33  C8  UNL     1      -0.628  52.139 -21.400  1.00  0.00    -0.014 A 
HETATM   34  C2  UNL     1       0.321  52.733 -22.270  1.00  0.00    -0.050 A 
HETATM   35  C1  UNL     1       0.328  52.442 -23.749  1.00  0.00     0.049 C 
HETATM   36  C3  UNL     1       1.285  53.613 -21.753  1.00  0.00     0.007 A 
HETATM   37  C4  UNL     1       1.320  53.912 -20.396  1.00  0.00     0.001 A 
HETATM   38  C5  UNL     1       0.393  53.336 -19.533  1.00  0.00     0.007 A 
HETATM   39  C6  UNL     1      -0.584  52.452 -20.018  1.00  0.00    -0.050 A 
HETATM   40  C7  UNL     1      -1.565  51.854 -19.041  1.00  0.00     0.049 C 
ENDBRANCH   1  33
TORSDOF 8
ENDMDL
MODEL 8
REMARK minimizedAffinity -9.11568451
REMARK  8 active torsions:
REMARK  status: ('A' for Active; 'I' for Inactive)
REMARK    1  A    between atoms: C8_8  and  C9_9 
REMARK    2  A    between atoms: C14_16  and  N2_17 
REMARK    3  A    between atoms: N2_17  and  C15_18 
REMARK    4  A    between atoms: C19_22  and  C20_23 
REMARK       I    between atoms: C20_23  and  N3_25 
REMARK    5  A    between atoms: N3_25  and  C21_26 
REMARK    6  A    between atoms: C21_26  and  C22_27 
REMARK    7  A    between atoms: C22_27  and  C23_28 
REMARK    8  A    between atoms: C23_28  and  N4_29 
ROOT
HETATM    1  C9  UNL     1      -0.433  52.163 -23.468  1.00  0.00    -0.022 A 
HETATM    2  C10 UNL     1       0.416  53.269 -23.388  1.00  0.00     0.021 A 
HETATM    3  C11 UNL     1       0.935  53.691 -22.153  1.00  0.00    -0.032 A 
HETATM    4  C12 UNL     1       1.846  54.888 -22.102  1.00  0.00     0.050 C 
HETATM    5  C13 UNL     1       0.611  53.008 -20.974  1.00  0.00     0.083 A 
HETATM    6  N1  UNL     1       1.109  53.416 -19.790  1.00  0.00    -0.188 N 
ATOM      7  H1  UNL     1       1.732  54.222 -19.734  1.00  0.00     0.184 HD
HETATM    8  C14 UNL     1       0.764  52.734 -18.690  1.00  0.00     0.697 A 
HETATM    9  N5  UNL     1      -0.052  51.662 -18.743  1.00  0.00    -0.131 N 
ATOM     10  H5  UNL     1      -0.292  51.164 -17.886  1.00  0.00     0.205 HD
HETATM   11  N6  UNL     1      -0.560  51.239 -19.938  1.00  0.00    -0.284 N 
ATOM     12  H6  UNL     1      -1.176  50.426 -19.977  1.00  0.00     0.187 HD
HETATM   13  C27 UNL     1      -0.242  51.897 -21.057  1.00  0.00     0.077 A 
HETATM   14  C28 UNL     1      -0.750  51.489 -22.284  1.00  0.00     0.045 A 
ENDROOT
BRANCH   8  15
HETATM   15  N2  UNL     1       1.221  53.094 -17.422  1.00  0.00    -0.190 N 
HETATM   16  H14 UNL     1       0.892  54.023 -17.200  1.00  0.00     0.184 HD
BRANCH  15  17
HETATM   17  C15 UNL     1       2.048  52.480 -16.476  1.00  0.00     0.050 A 
HETATM   18  C16 UNL     1       3.446  52.523 -16.513  1.00  0.00     0.030 A 
HETATM   19  C17 UNL     1       4.221  51.898 -15.529  1.00  0.00     0.003 A 
HETATM   20  C18 UNL     1       3.608  51.204 -14.488  1.00  0.00     0.017 A 
HETATM   21  C19 UNL     1       2.214  51.130 -14.438  1.00  0.00     0.034 A 
HETATM   22  C26 UNL     1       1.448  51.773 -15.422  1.00  0.00     0.047 A 
BRANCH  21  23
HETATM   23  C20 UNL     1       1.500  50.409 -13.348  1.00  0.00     0.251 C 
HETATM   24  O1  UNL     1       1.960  49.365 -12.900  1.00  0.00    -0.268 OA
HETATM   25  N3  UNL     1       0.346  51.004 -12.876  1.00  0.00    -0.357 N 
HETATM   26  H18 UNL     1       0.217  51.987 -13.072  1.00  0.00     0.162 HD
BRANCH  25  27
HETATM   27  C21 UNL     1      -0.330  50.476 -11.702  1.00  0.00     0.124 C 
BRANCH  27  28
HETATM   28  C22 UNL     1      -1.321  51.491 -11.142  1.00  0.00     0.050 C 
BRANCH  28  29
HETATM   29  C23 UNL     1      -2.766  50.977 -11.167  1.00  0.00     0.273 C 
BRANCH  29  30
HETATM   30  N4  UNL     1      -3.724  51.912 -11.779  1.00  0.00     0.080 N 
HETATM   31  C24 UNL     1      -3.968  53.084 -10.935  1.00  0.00     0.309 C 
HETATM   32  C25 UNL     1      -3.236  52.345 -13.092  1.00  0.00     0.309 C 
ENDBRANCH  29  30
ENDBRANCH  28  29
ENDBRANCH  27  28
ENDBRANCH  25  27
ENDBRANCH  21  23
ENDBRANCH  15  17
ENDBRANCH   8  15
BRANCH   1  33
HETATM   33  C8  UNL     1      -0.982  51.720 -24.760  1.00  0.00    -0.014 A 
HETATM   34  C2  UNL     1      -2.382  51.705 -24.981  1.00  0.00    -0.050 A 
HETATM   35  C1  UNL     1      -3.355  52.136 -23.914  1.00  0.00     0.049 C 
HETATM   36  C3  UNL     1      -2.888  51.277 -26.219  1.00  0.00     0.007 A 
HETATM   37  C4  UNL     1      -2.031  50.868 -27.234  1.00  0.00     0.001 A 
HETATM   38  C5  UNL     1      -0.655  50.879 -27.029  1.00  0.00     0.007 A 
HETATM   39  C6  UNL     1      -0.117  51.301 -25.803  1.00  0.00    -0.050 A 
HETATM   40  C7  UNL     1       1.382  51.294 -25.632  1.00  0.00     0.049 C 
ENDBRANCH   1  33
TORSDOF 8
ENDMDL
MODEL 9
REMARK minimizedAffinity -9.06944466
REMARK  8 active torsions:
REMARK  status: ('A' for Active; 'I' for Inactive)
REMARK    1  A    between atoms: C8_8  and  C9_9 
REMARK    2  A    between atoms: C14_16  and  N2_17 
REMARK    3  A    between atoms: N2_17  and  C15_18 
REMARK    4  A    between atoms: C19_22  and  C20_23 
REMARK       I    between atoms: C20_23  and  N3_25 
REMARK    5  A    between atoms: N3_25  and  C21_26 
REMARK    6  A    between atoms: C21_26  and  C22_27 
REMARK    7  A    between atoms: C22_27  and  C23_28 
REMARK    8  A    between atoms: C23_28  and  N4_29 
ROOT
HETATM    1  C9  UNL     1      -0.404  52.181 -23.509  1.00  0.00    -0.022 A 
HETATM    2  C10 UNL     1       0.457  53.275 -23.391  1.00  0.00     0.021 A 
HETATM    3  C11 UNL     1       0.937  53.682 -22.136  1.00  0.00    -0.032 A 
HETATM    4  C12 UNL     1       1.862  54.866 -22.046  1.00  0.00     0.050 C 
HETATM    5  C13 UNL     1       0.562  52.997 -20.973  1.00  0.00     0.083 A 
HETATM    6  N1  UNL     1       1.023  53.391 -19.771  1.00  0.00    -0.188 N 
ATOM      7  H1  UNL     1       1.654  54.188 -19.687  1.00  0.00     0.184 HD
HETATM    8  C14 UNL     1       0.630  52.707 -18.688  1.00  0.00     0.697 A 
HETATM    9  N5  UNL     1      -0.198  51.647 -18.777  1.00  0.00    -0.131 N 
ATOM     10  H5  UNL     1      -0.475  51.147 -17.932  1.00  0.00     0.205 HD
HETATM   11  N6  UNL     1      -0.668  51.237 -19.992  1.00  0.00    -0.284 N 
ATOM     12  H6  UNL     1      -1.294  50.434 -20.057  1.00  0.00     0.187 HD
HETATM   13  C27 UNL     1      -0.302  51.898 -21.094  1.00  0.00     0.077 A 
HETATM   14  C28 UNL     1      -0.771  51.503 -22.341  1.00  0.00     0.045 A 
ENDROOT
BRANCH   8  15
HETATM   15  N2  UNL     1       1.046  53.053 -17.402  1.00  0.00    -0.190 N 
HETATM   16  H14 UNL     1       0.620  53.931 -17.138  1.00  0.00     0.184 HD
BRANCH  15  17
HETATM   17  C15 UNL     1       1.934  52.487 -16.482  1.00  0.00     0.050 A 
HETATM   18  C16 UNL     1       3.327  52.564 -16.589  1.00  0.00     0.030 A 
HETATM   19  C17 UNL     1       4.165  51.986 -15.628  1.00  0.00     0.003 A 
HETATM   20  C18 UNL     1       3.622  51.307 -14.540  1.00  0.00     0.017 A 
HETATM   21  C19 UNL     1       2.235  51.199 -14.419  1.00  0.00     0.034 A 
HETATM   22  C26 UNL     1       1.405  51.796 -15.381  1.00  0.00     0.047 A 
BRANCH  21  23
HETATM   23  C20 UNL     1       1.594  50.492 -13.276  1.00  0.00     0.251 C 
HETATM   24  O1  UNL     1       2.284  49.874 -12.474  1.00  0.00    -0.268 OA
HETATM   25  N3  UNL     1       0.221  50.612 -13.175  1.00  0.00    -0.357 N 
HETATM   26  H18 UNL     1      -0.215  51.375 -13.674  1.00  0.00     0.162 HD
BRANCH  25  27
HETATM   27  C21 UNL     1      -0.480  50.108 -12.006  1.00  0.00     0.124 C 
BRANCH  27  28
HETATM   28  C22 UNL     1      -1.114  51.250 -11.217  1.00  0.00     0.050 C 
BRANCH  28  29
HETATM   29  C23 UNL     1      -1.729  52.321 -12.125  1.00  0.00     0.273 C 
BRANCH  29  30
HETATM   30  N4  UNL     1      -3.037  52.817 -11.667  1.00  0.00     0.080 N 
HETATM   31  C24 UNL     1      -3.905  51.734 -11.202  1.00  0.00     0.309 C 
HETATM   32  C25 UNL     1      -2.854  53.797 -10.592  1.00  0.00     0.309 C 
ENDBRANCH  29  30
ENDBRANCH  28  29
ENDBRANCH  27  28
ENDBRANCH  25  27
ENDBRANCH  21  23
ENDBRANCH  15  17
ENDBRANCH   8  15
BRANCH   1  33
HETATM   33  C8  UNL     1      -0.912  51.752 -24.822  1.00  0.00    -0.014 A 
HETATM   34  C2  UNL     1      -0.016  51.336 -25.840  1.00  0.00    -0.050 A 
HETATM   35  C1  UNL     1       1.475  51.318 -25.621  1.00  0.00     0.049 C 
HETATM   36  C3  UNL     1      -0.518  50.933 -27.088  1.00  0.00     0.007 A 
HETATM   37  C4  UNL     1      -1.885  50.935 -27.338  1.00  0.00     0.001 A 
HETATM   38  C5  UNL     1      -2.773  51.339 -26.347  1.00  0.00     0.007 A 
HETATM   39  C6  UNL     1      -2.305  51.749 -25.089  1.00  0.00    -0.050 A 
HETATM   40  C7  UNL     1      -3.309  52.178 -24.049  1.00  0.00     0.049 C 
ENDBRANCH   1  33
TORSDOF 8
ENDMDL
