MODEL 1
REMARK minimizedAffinity -7.68318987
REMARK CNNscore 0.572750568
REMARK CNNaffinity 7.83650732
REMARK  6 active torsions:
REMARK  status: ('A' for Active; 'I' for Inactive)
REMARK    1  A    between atoms: O1_2  and  C2_3 
REMARK    2  A    between atoms: C4_5  and  N1_6 
REMARK    3  A    between atoms: N1_6  and  C5_7 
REMARK    4  A    between atoms: C11_16  and  O2_17 
REMARK    5  A    between atoms: O2_17  and  C12_18 
REMARK    6  A    between atoms: C18_25  and  O3_26 
ROOT
HETATM    1  C5  UNL     1      -1.116  52.043 -21.716  1.00  0.00     0.067 A 
HETATM    2  C6  UNL     1      -0.017  52.401 -20.919  1.00  0.00     0.087 A 
HETATM    3  C7  UNL     1       0.838  53.509 -21.204  1.00  0.00     0.103 C 
HETATM    4  N2  UNL     1       1.521  54.423 -21.416  1.00  0.00    -0.191 NA
HETATM    5  C8  UNL     1       0.222  51.660 -19.775  1.00  0.00     0.113 A 
HETATM    6  N3  UNL     1      -0.555  50.637 -19.358  1.00  0.00    -0.364 N 
ATOM      7  H3  UNL     1      -0.332  50.127 -18.503  1.00  0.00     0.165 HD
HETATM    8  C9  UNL     1      -1.627  50.307 -20.094  1.00  0.00     0.047 A 
HETATM    9  C10 UNL     1      -2.430  49.266 -19.652  1.00  0.00     0.070 A 
HETATM   10  C11 UNL     1      -3.565  48.855 -20.356  1.00  0.00     0.104 A 
HETATM   11  C18 UNL     1      -3.905  49.510 -21.550  1.00  0.00     0.102 A 
HETATM   12  C20 UNL     1      -3.109  50.565 -22.001  1.00  0.00     0.055 A 
HETATM   13  C21 UNL     1      -1.964  50.983 -21.284  1.00  0.00     0.022 A 
ENDROOT
BRANCH   1  14
HETATM   14  N1  UNL     1      -1.502  52.795 -22.871  1.00  0.00    -0.353 N 
HETATM   15  H5  UNL     1      -1.451  53.789 -22.645  1.00  0.00     0.166 HD
BRANCH  14  16
HETATM   16  C4  UNL     1      -1.123  52.540 -24.218  1.00  0.00     0.057 A 
HETATM   17  C3  UNL     1       0.243  52.633 -24.548  1.00  0.00     0.069 A 
HETATM   18  C2  UNL     1       0.697  52.386 -25.851  1.00  0.00     0.092 A 
HETATM   19  C24 UNL     1      -0.233  52.089 -26.853  1.00  0.00     0.069 A 
HETATM   20  C23 UNL     1      -1.593  52.012 -26.555  1.00  0.00     0.052 A 
HETATM   21 CL2  UNL     1       0.258  51.806 -28.485  1.00  0.00    -0.081 Cl
HETATM   22  C22 UNL     1      -2.037  52.237 -25.250  1.00  0.00     0.062 A 
HETATM   23 CL1  UNL     1      -3.750  52.189 -24.996  1.00  0.00    -0.082 Cl
BRANCH  18  24
HETATM   24  O1  UNL     1       2.015  52.473 -26.215  1.00  0.00    -0.354 OA
HETATM   25  C1  UNL     1       2.684  51.234 -26.428  1.00  0.00     0.210 C 
ENDBRANCH  18  24
ENDBRANCH  14  16
ENDBRANCH   1  14
BRANCH  11  26
HETATM   26  O3  UNL     1      -5.030  49.055 -22.193  1.00  0.00    -0.353 OA
HETATM   27  C19 UNL     1      -4.853  48.377 -23.429  1.00  0.00     0.210 C 
ENDBRANCH  11  26
BRANCH  10  28
HETATM   28  O2  UNL     1      -4.399  47.835 -19.978  1.00  0.00    -0.343 OA
BRANCH  28  29
HETATM   29  C12 UNL     1      -3.876  46.522 -19.750  1.00  0.00     0.132 C 
HETATM   30  C13 UNL     1      -4.621  45.485 -20.606  1.00  0.00     0.062 C 
HETATM   31  C14 UNL     1      -4.798  44.138 -19.901  1.00  0.00     0.274 C 
HETATM   32  N4  UNL     1      -3.644  43.864 -19.046  1.00  0.00     0.084 N 
HETATM   33  C15 UNL     1      -3.642  42.483 -18.568  1.00  0.00     0.309 C 
HETATM   34  C16 UNL     1      -3.563  44.810 -17.923  1.00  0.00     0.274 C 
HETATM   35  C17 UNL     1      -4.079  46.208 -18.268  1.00  0.00     0.062 C 
ENDBRANCH  28  29
ENDBRANCH  10  28
TORSDOF 6
ENDMDL
MODEL 2
REMARK minimizedAffinity -7.49462795
REMARK CNNscore 0.566316307
REMARK CNNaffinity 7.8327651
REMARK  6 active torsions:
REMARK  status: ('A' for Active; 'I' for Inactive)
REMARK    1  A    between atoms: O1_2  and  C2_3 
REMARK    2  A    between atoms: C4_5  and  N1_6 
REMARK    3  A    between atoms: N1_6  and  C5_7 
REMARK    4  A    between atoms: C11_16  and  O2_17 
REMARK    5  A    between atoms: O2_17  and  C12_18 
REMARK    6  A    between atoms: C18_25  and  O3_26 
ROOT
HETATM    1  C5  UNL     1      -1.138  51.856 -21.689  1.00  0.00     0.067 A 
HETATM    2  C6  UNL     1      -0.056  52.202 -20.866  1.00  0.00     0.087 A 
HETATM    3  C7  UNL     1       0.768  53.348 -21.085  1.00  0.00     0.103 C 
HETATM    4  N2  UNL     1       1.426  54.291 -21.242  1.00  0.00    -0.191 NA
HETATM    5  C8  UNL     1       0.197  51.408 -19.761  1.00  0.00     0.113 A 
HETATM    6  N3  UNL     1      -0.551  50.342 -19.405  1.00  0.00    -0.364 N 
ATOM      7  H3  UNL     1      -0.319  49.794 -18.577  1.00  0.00     0.165 HD
HETATM    8  C9  UNL     1      -1.609  50.021 -20.166  1.00  0.00     0.047 A 
HETATM    9  C10 UNL     1      -2.384  48.935 -19.787  1.00  0.00     0.070 A 
HETATM   10  C11 UNL     1      -3.502  48.531 -20.521  1.00  0.00     0.104 A 
HETATM   11  C18 UNL     1      -3.854  49.238 -21.681  1.00  0.00     0.102 A 
HETATM   12  C20 UNL     1      -3.086  50.338 -22.069  1.00  0.00     0.055 A 
HETATM   13  C21 UNL     1      -1.958  50.750 -21.322  1.00  0.00     0.022 A 
ENDROOT
BRANCH   1  14
HETATM   14  N1  UNL     1      -1.540  52.658 -22.806  1.00  0.00    -0.353 N 
HETATM   15  H5  UNL     1      -1.480  53.640 -22.538  1.00  0.00     0.166 HD
BRANCH  14  16
HETATM   16  C4  UNL     1      -1.183  52.457 -24.168  1.00  0.00     0.057 A 
HETATM   17  C3  UNL     1       0.181  52.538 -24.512  1.00  0.00     0.069 A 
HETATM   18  C2  UNL     1       0.613  52.343 -25.831  1.00  0.00     0.092 A 
HETATM   19  C24 UNL     1      -0.335  52.112 -26.833  1.00  0.00     0.069 A 
HETATM   20  C23 UNL     1      -1.692  52.049 -26.520  1.00  0.00     0.052 A 
HETATM   21 CL2  UNL     1       0.130  51.895 -28.483  1.00  0.00    -0.081 Cl
HETATM   22  C22 UNL     1      -2.116  52.222 -25.201  1.00  0.00     0.062 A 
HETATM   23 CL1  UNL     1      -3.826  52.196 -24.926  1.00  0.00    -0.082 Cl
BRANCH  18  24
HETATM   24  O1  UNL     1       1.929  52.420 -26.208  1.00  0.00    -0.354 OA
HETATM   25  C1  UNL     1       2.632  51.183 -26.265  1.00  0.00     0.210 C 
ENDBRANCH  18  24
ENDBRANCH  14  16
ENDBRANCH   1  14
BRANCH  11  26
HETATM   26  O3  UNL     1      -4.960  48.786 -22.356  1.00  0.00    -0.353 OA
HETATM   27  C19 UNL     1      -4.783  48.355 -23.698  1.00  0.00     0.210 C 
ENDBRANCH  11  26
BRANCH  10  28
HETATM   28  O2  UNL     1      -4.308  47.467 -20.204  1.00  0.00    -0.343 OA
BRANCH  28  29
HETATM   29  C12 UNL     1      -5.413  47.639 -19.310  1.00  0.00     0.132 C 
HETATM   30  C13 UNL     1      -4.971  47.422 -17.854  1.00  0.00     0.062 C 
HETATM   31  C14 UNL     1      -6.043  46.746 -16.995  1.00  0.00     0.274 C 
HETATM   32  N4  UNL     1      -7.373  47.174 -17.425  1.00  0.00     0.084 N 
HETATM   33  C15 UNL     1      -8.404  46.772 -16.471  1.00  0.00     0.309 C 
HETATM   34  C16 UNL     1      -7.689  46.689 -18.777  1.00  0.00     0.274 C 
HETATM   35  C17 UNL     1      -6.466  46.598 -19.691  1.00  0.00     0.062 C 
ENDBRANCH  28  29
ENDBRANCH  10  28
TORSDOF 6
ENDMDL
MODEL 3
REMARK minimizedAffinity -7.90153646
REMARK CNNscore 0.550469041
REMARK CNNaffinity 7.63553429
REMARK  6 active torsions:
REMARK  status: ('A' for Active; 'I' for Inactive)
REMARK    1  A    between atoms: O1_2  and  C2_3 
REMARK    2  A    between atoms: C4_5  and  N1_6 
REMARK    3  A    between atoms: N1_6  and  C5_7 
REMARK    4  A    between atoms: C11_16  and  O2_17 
REMARK    5  A    between atoms: O2_17  and  C12_18 
REMARK    6  A    between atoms: C18_25  and  O3_26 
ROOT
HETATM    1  C5  UNL     1       0.092  51.959 -21.914  1.00  0.00     0.067 A 
HETATM    2  C6  UNL     1       0.475  53.016 -21.074  1.00  0.00     0.087 A 
HETATM    3  C7  UNL     1       1.348  54.071 -21.480  1.00  0.00     0.103 C 
HETATM    4  N2  UNL     1       2.036  54.945 -21.811  1.00  0.00    -0.191 NA
HETATM    5  C8  UNL     1      -0.058  53.053 -19.797  1.00  0.00     0.113 A 
HETATM    6  N3  UNL     1      -0.948  52.157 -19.320  1.00  0.00    -0.364 N 
ATOM      7  H3  UNL     1      -1.309  52.236 -18.369  1.00  0.00     0.165 HD
HETATM    8  C9  UNL     1      -1.347  51.161 -20.125  1.00  0.00     0.047 A 
HETATM    9  C10 UNL     1      -2.274  50.253 -19.635  1.00  0.00     0.070 A 
HETATM   10  C11 UNL     1      -2.744  49.186 -20.404  1.00  0.00     0.104 A 
HETATM   11  C18 UNL     1      -2.263  49.019 -21.712  1.00  0.00     0.102 A 
HETATM   12  C20 UNL     1      -1.335  49.931 -22.220  1.00  0.00     0.055 A 
HETATM   13  C21 UNL     1      -0.865  51.015 -21.442  1.00  0.00     0.022 A 
ENDROOT
BRANCH   1  14
HETATM   14  N1  UNL     1       0.514  51.873 -23.280  1.00  0.00    -0.353 N 
HETATM   15  H5  UNL     1       1.309  51.235 -23.335  1.00  0.00     0.166 HD
BRANCH  14  16
HETATM   16  C4  UNL     1      -0.324  51.774 -24.424  1.00  0.00     0.057 A 
HETATM   17  C3  UNL     1      -1.693  52.070 -24.268  1.00  0.00     0.069 A 
HETATM   18  C2  UNL     1      -2.581  52.006 -25.350  1.00  0.00     0.092 A 
HETATM   19  C24 UNL     1      -2.106  51.592 -26.599  1.00  0.00     0.069 A 
HETATM   20  C23 UNL     1      -0.760  51.273 -26.773  1.00  0.00     0.052 A 
HETATM   21 CL2  UNL     1      -3.156  51.461 -27.965  1.00  0.00    -0.081 Cl
HETATM   22  C22 UNL     1       0.125  51.360 -25.697  1.00  0.00     0.062 A 
HETATM   23 CL1  UNL     1       1.760  50.876 -25.997  1.00  0.00    -0.082 Cl
BRANCH  18  24
HETATM   24  O1  UNL     1      -3.919  52.279 -25.238  1.00  0.00    -0.354 OA
HETATM   25  C1  UNL     1      -4.549  51.826 -24.044  1.00  0.00     0.210 C 
ENDBRANCH  18  24
ENDBRANCH  14  16
ENDBRANCH   1  14
BRANCH  11  26
HETATM   26  O3  UNL     1      -2.762  47.949 -22.412  1.00  0.00    -0.353 OA
HETATM   27  C19 UNL     1      -3.466  48.220 -23.616  1.00  0.00     0.210 C 
ENDBRANCH  11  26
BRANCH  10  28
HETATM   28  O2  UNL     1      -3.655  48.252 -19.982  1.00  0.00    -0.343 OA
BRANCH  28  29
HETATM   29  C12 UNL     1      -4.856  48.664 -19.321  1.00  0.00     0.132 C 
HETATM   30  C13 UNL     1      -5.434  47.514 -18.479  1.00  0.00     0.062 C 
HETATM   31  C14 UNL     1      -6.964  47.488 -18.467  1.00  0.00     0.274 C 
HETATM   32  N4  UNL     1      -7.490  48.851 -18.516  1.00  0.00     0.084 N 
HETATM   33  C15 UNL     1      -8.923  48.889 -18.236  1.00  0.00     0.309 C 
HETATM   34  C16 UNL     1      -7.188  49.503 -19.801  1.00  0.00     0.274 C 
HETATM   35  C17 UNL     1      -5.855  49.059 -20.408  1.00  0.00     0.062 C 
ENDBRANCH  28  29
ENDBRANCH  10  28
TORSDOF 6
ENDMDL
MODEL 4
REMARK minimizedAffinity -7.48657131
REMARK CNNscore 0.383439749
REMARK CNNaffinity 6.97287369
REMARK  6 active torsions:
REMARK  status: ('A' for Active; 'I' for Inactive)
REMARK    1  A    between atoms: O1_2  and  C2_3 
REMARK    2  A    between atoms: C4_5  and  N1_6 
REMARK    3  A    between atoms: N1_6  and  C5_7 
REMARK    4  A    between atoms: C11_16  and  O2_17 
REMARK    5  A    between atoms: O2_17  and  C12_18 
REMARK    6  A    between atoms: C18_25  and  O3_26 
ROOT
HETATM    1  C5  UNL     1       0.152  51.485 -20.865  1.00  0.00     0.067 A 
HETATM    2  C6  UNL     1       0.571  52.736 -21.343  1.00  0.00     0.087 A 
HETATM    3  C7  UNL     1       0.590  53.087 -22.728  1.00  0.00     0.103 C 
HETATM    4  N2  UNL     1       0.584  53.387 -23.849  1.00  0.00    -0.191 NA
HETATM    5  C8  UNL     1       0.948  53.691 -20.416  1.00  0.00     0.113 A 
HETATM    6  N3  UNL     1       0.905  53.508 -19.078  1.00  0.00    -0.364 N 
ATOM      7  H3  UNL     1       1.193  54.249 -18.440  1.00  0.00     0.165 HD
HETATM    8  C9  UNL     1       0.474  52.327 -18.609  1.00  0.00     0.047 A 
HETATM    9  C10 UNL     1       0.417  52.149 -17.234  1.00  0.00     0.070 A 
HETATM   10  C11 UNL     1      -0.019  50.953 -16.658  1.00  0.00     0.104 A 
HETATM   11  C18 UNL     1      -0.406  49.892 -17.492  1.00  0.00     0.102 A 
HETATM   12  C20 UNL     1      -0.360  50.061 -18.878  1.00  0.00     0.055 A 
HETATM   13  C21 UNL     1       0.075  51.275 -19.459  1.00  0.00     0.022 A 
ENDROOT
BRANCH   1  14
HETATM   14  N1  UNL     1      -0.341  50.458 -21.734  1.00  0.00    -0.353 N 
HETATM   15  H5  UNL     1       0.260  49.638 -21.642  1.00  0.00     0.166 HD
BRANCH  14  16
HETATM   16  C4  UNL     1      -1.701  50.097 -21.936  1.00  0.00     0.057 A 
HETATM   17  C3  UNL     1      -2.606  51.111 -22.306  1.00  0.00     0.069 A 
HETATM   18  C2  UNL     1      -3.961  50.833 -22.533  1.00  0.00     0.092 A 
HETATM   19  C24 UNL     1      -4.431  49.529 -22.341  1.00  0.00     0.069 A 
HETATM   20  C23 UNL     1      -3.559  48.513 -21.955  1.00  0.00     0.052 A 
HETATM   21 CL2  UNL     1      -6.096  49.128 -22.574  1.00  0.00    -0.081 Cl
HETATM   22  C22 UNL     1      -2.206  48.791 -21.751  1.00  0.00     0.062 A 
HETATM   23 CL1  UNL     1      -1.218  47.478 -21.205  1.00  0.00    -0.082 Cl
BRANCH  18  24
HETATM   24  O1  UNL     1      -4.874  51.792 -22.887  1.00  0.00    -0.354 OA
HETATM   25  C1  UNL     1      -4.867  52.182 -24.256  1.00  0.00     0.210 C 
ENDBRANCH  18  24
ENDBRANCH  14  16
ENDBRANCH   1  14
BRANCH  11  26
HETATM   26  O3  UNL     1      -0.820  48.745 -16.863  1.00  0.00    -0.353 OA
HETATM   27  C19 UNL     1      -2.136  48.284 -17.133  1.00  0.00     0.210 C 
ENDBRANCH  11  26
BRANCH  10  28
HETATM   28  O2  UNL     1      -0.097  50.711 -15.311  1.00  0.00    -0.343 OA
BRANCH  28  29
HETATM   29  C12 UNL     1       0.197  51.750 -14.372  1.00  0.00     0.132 C 
HETATM   30  C13 UNL     1       1.581  51.535 -13.740  1.00  0.00     0.062 C 
HETATM   31  C14 UNL     1       1.642  51.956 -12.269  1.00  0.00     0.274 C 
HETATM   32  N4  UNL     1       0.773  53.109 -12.040  1.00  0.00     0.084 N 
HETATM   33  C15 UNL     1       1.003  53.707 -10.728  1.00  0.00     0.309 C 
HETATM   34  C16 UNL     1      -0.646  52.764 -12.220  1.00  0.00     0.274 C 
HETATM   35  C17 UNL     1      -0.880  51.694 -13.288  1.00  0.00     0.062 C 
ENDBRANCH  28  29
ENDBRANCH  10  28
TORSDOF 6
ENDMDL
MODEL 5
REMARK minimizedAffinity -7.15229177
REMARK CNNscore 0.352963835
REMARK CNNaffinity 7.35970163
REMARK  6 active torsions:
REMARK  status: ('A' for Active; 'I' for Inactive)
REMARK    1  A    between atoms: O1_2  and  C2_3 
REMARK    2  A    between atoms: C4_5  and  N1_6 
REMARK    3  A    between atoms: N1_6  and  C5_7 
REMARK    4  A    between atoms: C11_16  and  O2_17 
REMARK    5  A    between atoms: O2_17  and  C12_18 
REMARK    6  A    between atoms: C18_25  and  O3_26 
ROOT
HETATM    1  C5  UNL     1      -0.378  52.264 -20.717  1.00  0.00     0.067 A 
HETATM    2  C6  UNL     1       0.755  53.025 -20.388  1.00  0.00     0.087 A 
HETATM    3  C7  UNL     1       1.267  54.075 -21.209  1.00  0.00     0.103 C 
HETATM    4  N2  UNL     1       1.674  54.946 -21.860  1.00  0.00    -0.191 NA
HETATM    5  C8  UNL     1       1.380  52.766 -19.181  1.00  0.00     0.113 A 
HETATM    6  N3  UNL     1       0.950  51.851 -18.285  1.00  0.00    -0.364 N 
ATOM      7  H3  UNL     1       1.451  51.704 -17.409  1.00  0.00     0.165 HD
HETATM    8  C9  UNL     1      -0.150  51.141 -18.575  1.00  0.00     0.047 A 
HETATM    9  C10 UNL     1      -0.596  50.214 -17.644  1.00  0.00     0.070 A 
HETATM   10  C11 UNL     1      -1.733  49.431 -17.862  1.00  0.00     0.104 A 
HETATM   11  C18 UNL     1      -2.446  49.579 -19.062  1.00  0.00     0.102 A 
HETATM   12  C20 UNL     1      -2.011  50.514 -20.004  1.00  0.00     0.055 A 
HETATM   13  C21 UNL     1      -0.865  51.310 -19.778  1.00  0.00     0.022 A 
ENDROOT
BRANCH   1  14
HETATM   14  N1  UNL     1      -1.149  52.510 -21.899  1.00  0.00    -0.353 N 
HETATM   15  H5  UNL     1      -1.522  53.458 -21.852  1.00  0.00     0.166 HD
BRANCH  14  16
HETATM   16  C4  UNL     1      -0.808  52.139 -23.229  1.00  0.00     0.057 A 
HETATM   17  C3  UNL     1      -0.180  53.102 -24.042  1.00  0.00     0.069 A 
HETATM   18  C2  UNL     1       0.196  52.811 -25.360  1.00  0.00     0.092 A 
HETATM   19  C24 UNL     1      -0.104  51.553 -25.893  1.00  0.00     0.069 A 
HETATM   20  C23 UNL     1      -0.745  50.590 -25.115  1.00  0.00     0.052 A 
HETATM   21 CL2  UNL     1       0.304  51.142 -27.521  1.00  0.00    -0.081 Cl
HETATM   22  C22 UNL     1      -1.098  50.879 -23.794  1.00  0.00     0.062 A 
HETATM   23 CL1  UNL     1      -1.953  49.643 -22.933  1.00  0.00    -0.082 Cl
BRANCH  18  24
HETATM   24  O1  UNL     1       0.803  53.721 -26.186  1.00  0.00    -0.354 OA
HETATM   25  C1  UNL     1      -0.069  54.522 -26.977  1.00  0.00     0.210 C 
ENDBRANCH  18  24
ENDBRANCH  14  16
ENDBRANCH   1  14
BRANCH  11  26
HETATM   26  O3  UNL     1      -3.550  48.778 -19.215  1.00  0.00    -0.353 OA
HETATM   27  C19 UNL     1      -4.783  49.409 -19.532  1.00  0.00     0.210 C 
ENDBRANCH  11  26
BRANCH  10  28
HETATM   28  O2  UNL     1      -2.226  48.497 -16.988  1.00  0.00    -0.343 OA
BRANCH  28  29
HETATM   29  C12 UNL     1      -2.011  48.642 -15.580  1.00  0.00     0.132 C 
HETATM   30  C13 UNL     1      -0.679  47.997 -15.165  1.00  0.00     0.062 C 
HETATM   31  C14 UNL     1      -0.734  47.338 -13.785  1.00  0.00     0.274 C 
HETATM   32  N4  UNL     1      -1.623  48.093 -12.904  1.00  0.00     0.084 N 
HETATM   33  C15 UNL     1      -1.498  47.663 -11.513  1.00  0.00     0.309 C 
HETATM   34  C16 UNL     1      -3.022  48.020 -13.353  1.00  0.00     0.274 C 
HETATM   35  C17 UNL     1      -3.168  47.936 -14.874  1.00  0.00     0.062 C 
ENDBRANCH  28  29
ENDBRANCH  10  28
TORSDOF 6
ENDMDL
MODEL 6
REMARK minimizedAffinity -8.57557964
REMARK CNNscore 0.335045725
REMARK CNNaffinity 7.34150553
REMARK  6 active torsions:
REMARK  status: ('A' for Active; 'I' for Inactive)
REMARK    1  A    between atoms: O1_2  and  C2_3 
REMARK    2  A    between atoms: C4_5  and  N1_6 
REMARK    3  A    between atoms: N1_6  and  C5_7 
REMARK    4  A    between atoms: C11_16  and  O2_17 
REMARK    5  A    between atoms: O2_17  and  C12_18 
REMARK    6  A    between atoms: C18_25  and  O3_26 
ROOT
HETATM    1  C5  UNL     1      -2.427  50.547 -21.794  1.00  0.00     0.067 A 
HETATM    2  C6  UNL     1      -3.007  49.299 -21.517  1.00  0.00     0.087 A 
HETATM    3  C7  UNL     1      -3.863  48.607 -22.427  1.00  0.00     0.103 C 
HETATM    4  N2  UNL     1      -4.539  48.027 -23.171  1.00  0.00    -0.191 NA
HETATM    5  C8  UNL     1      -2.696  48.694 -20.312  1.00  0.00     0.113 A 
HETATM    6  N3  UNL     1      -1.843  49.211 -19.401  1.00  0.00    -0.364 N 
ATOM      7  H3  UNL     1      -1.649  48.718 -18.530  1.00  0.00     0.165 HD
HETATM    8  C9  UNL     1      -1.258  50.388 -19.670  1.00  0.00     0.047 A 
HETATM    9  C10 UNL     1      -0.371  50.907 -18.738  1.00  0.00     0.070 A 
HETATM   10  C11 UNL     1       0.283  52.125 -18.935  1.00  0.00     0.104 A 
HETATM   11  C18 UNL     1       0.035  52.854 -20.109  1.00  0.00     0.102 A 
HETATM   12  C20 UNL     1      -0.850  52.339 -21.058  1.00  0.00     0.055 A 
HETATM   13  C21 UNL     1      -1.506  51.102 -20.860  1.00  0.00     0.022 A 
ENDROOT
BRANCH   1  14
HETATM   14  N1  UNL     1      -2.613  51.218 -23.045  1.00  0.00    -0.353 N 
HETATM   15  H5  UNL     1      -3.133  52.080 -22.879  1.00  0.00     0.166 HD
BRANCH  14  16
HETATM   16  C4  UNL     1      -1.647  51.375 -24.078  1.00  0.00     0.057 A 
HETATM   17  C3  UNL     1      -0.773  52.477 -24.002  1.00  0.00     0.069 A 
HETATM   18  C2  UNL     1       0.212  52.694 -24.975  1.00  0.00     0.092 A 
HETATM   19  C24 UNL     1       0.296  51.825 -26.068  1.00  0.00     0.069 A 
HETATM   20  C23 UNL     1      -0.573  50.740 -26.176  1.00  0.00     0.052 A 
HETATM   21 CL2  UNL     1       1.467  52.056 -27.318  1.00  0.00    -0.081 Cl
HETATM   22  C22 UNL     1      -1.538  50.515 -25.192  1.00  0.00     0.062 A 
HETATM   23 CL1  UNL     1      -2.614  49.183 -25.452  1.00  0.00    -0.082 Cl
BRANCH  18  24
HETATM   24  O1  UNL     1       1.077  53.757 -24.942  1.00  0.00    -0.354 OA
HETATM   25  C1  UNL     1       0.478  55.047 -24.981  1.00  0.00     0.210 C 
ENDBRANCH  18  24
ENDBRANCH  14  16
ENDBRANCH   1  14
BRANCH  11  26
HETATM   26  O3  UNL     1       0.707  54.044 -20.239  1.00  0.00    -0.353 OA
HETATM   27  C19 UNL     1       1.531  54.213 -21.384  1.00  0.00     0.210 C 
ENDBRANCH  11  26
BRANCH  10  28
HETATM   28  O2  UNL     1       1.167  52.696 -18.056  1.00  0.00    -0.343 OA
BRANCH  28  29
HETATM   29  C12 UNL     1       1.682  51.938 -16.956  1.00  0.00     0.132 C 
HETATM   30  C13 UNL     1       0.660  51.886 -15.809  1.00  0.00     0.062 C 
HETATM   31  C14 UNL     1       1.310  51.916 -14.423  1.00  0.00     0.274 C 
HETATM   32  N4  UNL     1       2.590  51.210 -14.454  1.00  0.00     0.084 N 
HETATM   33  C15 UNL     1       3.113  50.981 -13.109  1.00  0.00     0.309 C 
HETATM   34  C16 UNL     1       3.577  51.912 -15.289  1.00  0.00     0.274 C 
HETATM   35  C17 UNL     1       2.954  52.641 -16.482  1.00  0.00     0.062 C 
ENDBRANCH  28  29
ENDBRANCH  10  28
TORSDOF 6
ENDMDL
MODEL 7
REMARK minimizedAffinity -8.16600132
REMARK CNNscore 0.278896183
REMARK CNNaffinity 6.76303291
REMARK  6 active torsions:
REMARK  status: ('A' for Active; 'I' for Inactive)
REMARK    1  A    between atoms: O1_2  and  C2_3 
REMARK    2  A    between atoms: C4_5  and  N1_6 
REMARK    3  A    between atoms: N1_6  and  C5_7 
REMARK    4  A    between atoms: C11_16  and  O2_17 
REMARK    5  A    between atoms: O2_17  and  C12_18 
REMARK    6  A    between atoms: C18_25  and  O3_26 
ROOT
HETATM    1  C5  UNL     1       0.395  52.081 -21.850  1.00  0.00     0.067 A 
HETATM    2  C6  UNL     1       0.829  53.364 -22.219  1.00  0.00     0.087 A 
HETATM    3  C7  UNL     1       0.959  53.794 -23.575  1.00  0.00     0.103 C 
HETATM    4  N2  UNL     1       1.042  54.158 -24.673  1.00  0.00    -0.191 NA
HETATM    5  C8  UNL     1       1.106  54.269 -21.209  1.00  0.00     0.113 A 
HETATM    6  N3  UNL     1       0.952  54.008 -19.893  1.00  0.00    -0.364 N 
ATOM      7  H3  UNL     1       1.170  54.716 -19.192  1.00  0.00     0.165 HD
HETATM    8  C9  UNL     1       0.506  52.796 -19.530  1.00  0.00     0.047 A 
HETATM    9  C10 UNL     1       0.335  52.539 -18.178  1.00  0.00     0.070 A 
HETATM   10  C11 UNL     1      -0.124  51.305 -17.710  1.00  0.00     0.104 A 
HETATM   11  C18 UNL     1      -0.418  50.288 -18.633  1.00  0.00     0.102 A 
HETATM   12  C20 UNL     1      -0.256  50.538 -19.997  1.00  0.00     0.055 A 
HETATM   13  C21 UNL     1       0.202  51.790 -20.469  1.00  0.00     0.022 A 
ENDROOT
BRANCH   1  14
HETATM   14  N1  UNL     1      -0.001  51.099 -22.814  1.00  0.00    -0.353 N 
HETATM   15  H5  UNL     1      -0.313  50.264 -22.318  1.00  0.00     0.166 HD
BRANCH  14  16
HETATM   16  C4  UNL     1      -0.757  51.326 -23.996  1.00  0.00     0.057 A 
HETATM   17  C3  UNL     1      -0.115  51.142 -25.237  1.00  0.00     0.069 A 
HETATM   18  C2  UNL     1      -0.795  51.337 -26.446  1.00  0.00     0.092 A 
HETATM   19  C24 UNL     1      -2.126  51.768 -26.420  1.00  0.00     0.069 A 
HETATM   20  C23 UNL     1      -2.776  51.977 -25.204  1.00  0.00     0.052 A 
HETATM   21 CL2  UNL     1      -3.011  52.056 -27.876  1.00  0.00    -0.081 Cl
HETATM   22  C22 UNL     1      -2.100  51.760 -24.002  1.00  0.00     0.062 A 
HETATM   23 CL1  UNL     1      -2.972  52.115 -22.548  1.00  0.00    -0.082 Cl
BRANCH  18  24
HETATM   24  O1  UNL     1      -0.205  51.176 -27.673  1.00  0.00    -0.354 OA
HETATM   25  C1  UNL     1       0.942  51.981 -27.921  1.00  0.00     0.210 C 
ENDBRANCH  18  24
ENDBRANCH  14  16
ENDBRANCH   1  14
BRANCH  11  26
HETATM   26  O3  UNL     1      -0.861  49.101 -18.107  1.00  0.00    -0.353 OA
HETATM   27  C19 UNL     1      -1.834  48.375 -18.846  1.00  0.00     0.210 C 
ENDBRANCH  11  26
BRANCH  10  28
HETATM   28  O2  UNL     1      -0.312  50.984 -16.390  1.00  0.00    -0.343 OA
BRANCH  28  29
HETATM   29  C12 UNL     1       0.805  50.911 -15.498  1.00  0.00     0.132 C 
HETATM   30  C13 UNL     1       1.024  49.466 -15.021  1.00  0.00     0.062 C 
HETATM   31  C14 UNL     1       1.503  49.379 -13.570  1.00  0.00     0.274 C 
HETATM   32  N4  UNL     1       2.366  50.518 -13.256  1.00  0.00     0.084 N 
HETATM   33  C15 UNL     1       3.057  50.337 -11.982  1.00  0.00     0.309 C 
HETATM   34  C16 UNL     1       1.619  51.785 -13.275  1.00  0.00     0.274 C 
HETATM   35  C17 UNL     1       0.484  51.807 -14.302  1.00  0.00     0.062 C 
ENDBRANCH  28  29
ENDBRANCH  10  28
TORSDOF 6
ENDMDL
MODEL 8
REMARK minimizedAffinity -7.59351063
REMARK CNNscore 0.265251875
REMARK CNNaffinity 6.69544172
REMARK  6 active torsions:
REMARK  status: ('A' for Active; 'I' for Inactive)
REMARK    1  A    between atoms: O1_2  and  C2_3 
REMARK    2  A    between atoms: C4_5  and  N1_6 
REMARK    3  A    between atoms: N1_6  and  C5_7 
REMARK    4  A    between atoms: C11_16  and  O2_17 
REMARK    5  A    between atoms: O2_17  and  C12_18 
REMARK    6  A    between atoms: C18_25  and  O3_26 
ROOT
HETATM    1  C5  UNL     1       0.557  52.216 -21.847  1.00  0.00     0.067 A 
HETATM    2  C6  UNL     1       0.840  53.590 -21.882  1.00  0.00     0.087 A 
HETATM    3  C7  UNL     1       1.250  54.282 -23.062  1.00  0.00     0.103 C 
HETATM    4  N2  UNL     1       1.558  54.856 -24.023  1.00  0.00    -0.191 NA
HETATM    5  C8  UNL     1       0.672  54.316 -20.715  1.00  0.00     0.113 A 
HETATM    6  N3  UNL     1       0.221  53.793 -19.555  1.00  0.00    -0.364 N 
ATOM      7  H3  UNL     1       0.114  54.377 -18.726  1.00  0.00     0.165 HD
HETATM    8  C9  UNL     1      -0.084  52.487 -19.518  1.00  0.00     0.047 A 
HETATM    9  C10 UNL     1      -0.563  51.959 -18.328  1.00  0.00     0.070 A 
HETATM   10  C11 UNL     1      -0.904  50.610 -18.200  1.00  0.00     0.104 A 
HETATM   11  C18 UNL     1      -0.756  49.757 -19.305  1.00  0.00     0.102 A 
HETATM   12  C20 UNL     1      -0.283  50.279 -20.511  1.00  0.00     0.055 A 
HETATM   13  C21 UNL     1       0.057  51.646 -20.641  1.00  0.00     0.022 A 
ENDROOT
BRANCH   1  14
HETATM   14  N1  UNL     1       0.613  51.391 -23.016  1.00  0.00    -0.353 N 
HETATM   15  H5  UNL     1       0.783  50.428 -22.727  1.00  0.00     0.166 HD
BRANCH  14  16
HETATM   16  C4  UNL     1      -0.246  51.461 -24.147  1.00  0.00     0.057 A 
HETATM   17  C3  UNL     1      -1.634  51.360 -23.929  1.00  0.00     0.069 A 
HETATM   18  C2  UNL     1      -2.546  51.430 -24.991  1.00  0.00     0.092 A 
HETATM   19  C24 UNL     1      -2.064  51.552 -26.299  1.00  0.00     0.069 A 
HETATM   20  C23 UNL     1      -0.693  51.632 -26.541  1.00  0.00     0.052 A 
HETATM   21 CL2  UNL     1      -3.134  51.611 -27.654  1.00  0.00    -0.081 Cl
HETATM   22  C22 UNL     1       0.210  51.585 -25.477  1.00  0.00     0.062 A 
HETATM   23 CL1  UNL     1       1.893  51.621 -25.887  1.00  0.00    -0.082 Cl
BRANCH  18  24
HETATM   24  O1  UNL     1      -3.903  51.329 -24.822  1.00  0.00    -0.354 OA
HETATM   25  C1  UNL     1      -4.424  51.901 -23.627  1.00  0.00     0.210 C 
ENDBRANCH  18  24
ENDBRANCH  14  16
ENDBRANCH   1  14
BRANCH  11  26
HETATM   26  O3  UNL     1      -1.107  48.445 -19.111  1.00  0.00    -0.353 OA
HETATM   27  C19 UNL     1      -1.682  47.747 -20.207  1.00  0.00     0.210 C 
ENDBRANCH  11  26
BRANCH  10  28
HETATM   28  O2  UNL     1      -1.379  50.023 -17.055  1.00  0.00    -0.343 OA
BRANCH  28  29
HETATM   29  C12 UNL     1      -1.421  50.762 -15.830  1.00  0.00     0.132 C 
HETATM   30  C13 UNL     1      -0.531  50.098 -14.766  1.00  0.00     0.062 C 
HETATM   31  C14 UNL     1      -1.106  50.204 -13.351  1.00  0.00     0.274 C 
HETATM   32  N4  UNL     1      -1.820  51.470 -13.192  1.00  0.00     0.084 N 
HETATM   33  C15 UNL     1      -2.149  51.733 -11.794  1.00  0.00     0.309 C 
HETATM   34  C16 UNL     1      -3.024  51.523 -14.035  1.00  0.00     0.274 C 
HETATM   35  C17 UNL     1      -2.875  50.766 -15.357  1.00  0.00     0.062 C 
ENDBRANCH  28  29
ENDBRANCH  10  28
TORSDOF 6
ENDMDL
MODEL 9
REMARK minimizedAffinity -8.46085167
REMARK CNNscore 0.239200994
REMARK CNNaffinity 6.83910179
REMARK  6 active torsions:
REMARK  status: ('A' for Active; 'I' for Inactive)
REMARK    1  A    between atoms: O1_2  and  C2_3 
REMARK    2  A    between atoms: C4_5  and  N1_6 
REMARK    3  A    between atoms: N1_6  and  C5_7 
REMARK    4  A    between atoms: C11_16  and  O2_17 
REMARK    5  A    between atoms: O2_17  and  C12_18 
REMARK    6  A    between atoms: C18_25  and  O3_26 
ROOT
HETATM    1  C5  UNL     1       0.044  52.226 -23.194  1.00  0.00     0.067 A 
HETATM    2  C6  UNL     1       0.610  53.213 -24.015  1.00  0.00     0.087 A 
HETATM    3  C7  UNL     1       0.478  53.228 -25.437  1.00  0.00     0.103 C 
HETATM    4  N2  UNL     1       0.352  53.261 -26.591  1.00  0.00    -0.191 NA
HETATM    5  C8  UNL     1       1.299  54.246 -23.405  1.00  0.00     0.113 A 
HETATM    6  N3  UNL     1       1.432  54.384 -22.068  1.00  0.00    -0.364 N 
ATOM      7  H3  UNL     1       1.950  55.169 -21.673  1.00  0.00     0.165 HD
HETATM    8  C9  UNL     1       0.867  53.464 -21.272  1.00  0.00     0.047 A 
HETATM    9  C10 UNL     1       0.993  53.620 -19.899  1.00  0.00     0.070 A 
HETATM   10  C11 UNL     1       0.437  52.710 -18.996  1.00  0.00     0.104 A 
HETATM   11  C18 UNL     1      -0.268  51.600 -19.487  1.00  0.00     0.102 A 
HETATM   12  C20 UNL     1      -0.408  51.437 -20.867  1.00  0.00     0.055 A 
HETATM   13  C21 UNL     1       0.150  52.362 -21.780  1.00  0.00     0.022 A 
ENDROOT
BRANCH   1  14
HETATM   14  N1  UNL     1      -0.761  51.163 -23.716  1.00  0.00    -0.353 N 
HETATM   15  H5  UNL     1      -0.257  50.284 -23.598  1.00  0.00     0.166 HD
BRANCH  14  16
HETATM   16  C4  UNL     1      -2.163  50.995 -23.543  1.00  0.00     0.057 A 
HETATM   17  C3  UNL     1      -2.604  50.114 -22.537  1.00  0.00     0.069 A 
HETATM   18  C2  UNL     1      -3.969  49.902 -22.299  1.00  0.00     0.092 A 
HETATM   19  C24 UNL     1      -4.911  50.544 -23.110  1.00  0.00     0.069 A 
HETATM   20  C23 UNL     1      -4.498  51.404 -24.126  1.00  0.00     0.052 A 
HETATM   21 CL2  UNL     1      -6.607  50.301 -22.889  1.00  0.00    -0.081 Cl
HETATM   22  C22 UNL     1      -3.137  51.629 -24.345  1.00  0.00     0.062 A 
HETATM   23 CL1  UNL     1      -2.725  52.658 -25.675  1.00  0.00    -0.082 Cl
BRANCH  18  24
HETATM   24  O1  UNL     1      -4.438  49.048 -21.335  1.00  0.00    -0.354 OA
HETATM   25  C1  UNL     1      -4.873  49.657 -20.123  1.00  0.00     0.210 C 
ENDBRANCH  18  24
ENDBRANCH  14  16
ENDBRANCH   1  14
BRANCH  11  26
HETATM   26  O3  UNL     1      -0.786  50.745 -18.547  1.00  0.00    -0.353 OA
HETATM   27  C19 UNL     1      -2.162  50.879 -18.221  1.00  0.00     0.210 C 
ENDBRANCH  11  26
BRANCH  10  28
HETATM   28  O2  UNL     1       0.526  52.802 -17.631  1.00  0.00    -0.343 OA
BRANCH  28  29
HETATM   29  C12 UNL     1       1.439  51.969 -16.909  1.00  0.00     0.132 C 
HETATM   30  C13 UNL     1       0.771  51.396 -15.649  1.00  0.00     0.062 C 
HETATM   31  C14 UNL     1       1.731  51.271 -14.463  1.00  0.00     0.274 C 
HETATM   32  N4  UNL     1       3.074  50.942 -14.937  1.00  0.00     0.084 N 
HETATM   33  C15 UNL     1       3.954  50.551 -13.839  1.00  0.00     0.309 C 
HETATM   34  C16 UNL     1       3.661  52.045 -15.714  1.00  0.00     0.274 C 
HETATM   35  C17 UNL     1       2.627  52.844 -16.510  1.00  0.00     0.062 C 
ENDBRANCH  28  29
ENDBRANCH  10  28
TORSDOF 6
ENDMDL
