MODEL 1
REMARK minimizedAffinity -7.97512197
REMARK  9 active torsions:
REMARK  status: ('A' for Active; 'I' for Inactive)
REMARK    1  A    between atoms: O1_2  and  C2_3 
REMARK    2  A    between atoms: C6_8  and  N1_9 
REMARK    3  A    between atoms: N1_9  and  C7_10 
REMARK    4  A    between atoms: C11_18  and  O2_19 
REMARK    5  A    between atoms: O2_19  and  C12_20 
REMARK    6  A    between atoms: C12_20  and  C13_21 
REMARK    7  A    between atoms: C13_21  and  C14_22 
REMARK    8  A    between atoms: C14_22  and  N4_23 
REMARK    9  A    between atoms: C19_29  and  O4_30 
ROOT
HETATM    1  C7  UNL     1      -0.188  52.410 -21.360  1.00  0.00     0.098 A 
HETATM    2  N2  UNL     1       0.427  53.530 -21.782  1.00  0.00    -0.342 N 
ATOM      3  H2  UNL     1       0.336  53.861 -22.743  1.00  0.00     0.167 HD
HETATM    4  C8  UNL     1       1.162  54.185 -20.881  1.00  0.00     0.182 A 
HETATM    5  N3  UNL     1       1.324  53.845 -19.597  1.00  0.00    -0.351 N 
ATOM      6  H3  UNL     1       1.886  54.412 -18.961  1.00  0.00     0.166 HD
HETATM    7  C9  UNL     1       0.716  52.728 -19.188  1.00  0.00     0.049 A 
HETATM    8  C10 UNL     1       0.869  52.341 -17.863  1.00  0.00     0.070 A 
HETATM    9  C11 UNL     1       0.276  51.180 -17.354  1.00  0.00     0.104 A 
HETATM   10  C19 UNL     1      -0.494  50.373 -18.205  1.00  0.00     0.102 A 
HETATM   11  C21 UNL     1      -0.665  50.755 -19.536  1.00  0.00     0.056 A 
HETATM   12  C22 UNL     1      -0.068  51.940 -20.037  1.00  0.00     0.032 A 
ENDROOT
BRANCH   1  13
HETATM   13  N1  UNL     1      -1.009  51.695 -22.278  1.00  0.00    -0.243 NA
HETATM   14  H6  UNL     1      -1.960  52.031 -22.163  1.00  0.00     0.135 HD
BRANCH  13  15
HETATM   15  C6  UNL     1      -0.681  51.522 -23.651  1.00  0.00     0.038 A 
HETATM   16  C5  UNL     1      -1.468  50.746 -24.525  1.00  0.00     0.055 A 
HETATM   17  C4  UNL     1      -1.080  50.565 -25.855  1.00  0.00     0.028 A 
HETATM   18 CL1  UNL     1      -2.974  50.050 -24.031  1.00  0.00    -0.082 Cl
HETATM   19  C3  UNL     1       0.096  51.151 -26.324  1.00  0.00     0.038 A 
HETATM   20  C2  UNL     1       0.893  51.920 -25.475  1.00  0.00     0.070 A 
HETATM   21  C23 UNL     1       0.504  52.102 -24.145  1.00  0.00     0.062 A 
BRANCH  20  22
HETATM   22  O1  UNL     1       2.017  52.432 -26.063  1.00  0.00    -0.356 OA
HETATM   23  C1  UNL     1       2.596  51.679 -27.122  1.00  0.00     0.210 C 
ENDBRANCH  20  22
ENDBRANCH  13  15
ENDBRANCH   1  13
BRANCH  10  24
HETATM   24  O4  UNL     1      -1.052  49.252 -17.645  1.00  0.00    -0.353 OA
HETATM   25  C20 UNL     1      -2.470  49.198 -17.564  1.00  0.00     0.210 C 
ENDBRANCH  10  24
BRANCH   9  26
HETATM   26  O2  UNL     1       0.379  50.754 -16.054  1.00  0.00    -0.348 OA
BRANCH  26  27
HETATM   27  C12 UNL     1       0.547  51.708 -15.005  1.00  0.00     0.177 C 
BRANCH  27  28
HETATM   28  C13 UNL     1      -0.609  51.646 -14.004  1.00  0.00     0.057 C 
BRANCH  28  29
HETATM   29  C14 UNL     1      -0.347  52.464 -12.729  1.00  0.00     0.274 C 
BRANCH  29  30
HETATM   30  N4  UNL     1      -1.340  52.242 -11.666  1.00  0.00     0.092 N 
HETATM   31  C15 UNL     1      -2.617  51.728 -12.209  1.00  0.00     0.298 C 
HETATM   32  C16 UNL     1      -3.688  52.816 -12.384  1.00  0.00     0.198 C 
HETATM   33  O3  UNL     1      -4.027  53.481 -11.158  1.00  0.00    -0.388 OA
HETATM   34  C17 UNL     1      -2.962  53.459 -10.197  1.00  0.00     0.198 C 
HETATM   35  C18 UNL     1      -1.574  53.458 -10.854  1.00  0.00     0.298 C 
ENDBRANCH  29  30
ENDBRANCH  28  29
ENDBRANCH  27  28
ENDBRANCH  26  27
ENDBRANCH   9  26
TORSDOF 9
ENDMDL
MODEL 2
REMARK minimizedAffinity -7.92257452
REMARK  9 active torsions:
REMARK  status: ('A' for Active; 'I' for Inactive)
REMARK    1  A    between atoms: O1_2  and  C2_3 
REMARK    2  A    between atoms: C6_8  and  N1_9 
REMARK    3  A    between atoms: N1_9  and  C7_10 
REMARK    4  A    between atoms: C11_18  and  O2_19 
REMARK    5  A    between atoms: O2_19  and  C12_20 
REMARK    6  A    between atoms: C12_20  and  C13_21 
REMARK    7  A    between atoms: C13_21  and  C14_22 
REMARK    8  A    between atoms: C14_22  and  N4_23 
REMARK    9  A    between atoms: C19_29  and  O4_30 
ROOT
HETATM    1  C7  UNL     1      -1.994  52.375 -26.557  1.00  0.00     0.098 A 
HETATM    2  N2  UNL     1      -1.605  53.095 -27.625  1.00  0.00    -0.342 N 
ATOM      3  H2  UNL     1      -2.157  53.122 -28.483  1.00  0.00     0.167 HD
HETATM    4  C8  UNL     1      -0.460  53.771 -27.507  1.00  0.00     0.182 A 
HETATM    5  N3  UNL     1       0.321  53.816 -26.421  1.00  0.00    -0.351 N 
ATOM      6  H3  UNL     1       1.173  54.376 -26.399  1.00  0.00     0.166 HD
HETATM    7  C9  UNL     1      -0.070  53.092 -25.368  1.00  0.00     0.049 A 
HETATM    8  C10 UNL     1       0.721  53.110 -24.225  1.00  0.00     0.070 A 
HETATM    9  C11 UNL     1       0.393  52.374 -23.082  1.00  0.00     0.104 A 
HETATM   10  C19 UNL     1      -0.768  51.586 -23.083  1.00  0.00     0.102 A 
HETATM   11  C21 UNL     1      -1.577  51.566 -24.220  1.00  0.00     0.056 A 
HETATM   12  C22 UNL     1      -1.239  52.325 -25.369  1.00  0.00     0.032 A 
ENDROOT
BRANCH   1  13
HETATM   13  N1  UNL     1      -3.227  51.663 -26.626  1.00  0.00    -0.243 NA
HETATM   14  H6  UNL     1      -3.280  51.236 -27.545  1.00  0.00     0.135 HD
BRANCH  13  15
HETATM   15  C6  UNL     1      -3.675  50.774 -25.612  1.00  0.00     0.038 A 
HETATM   16  C5  UNL     1      -3.442  49.385 -25.666  1.00  0.00     0.055 A 
HETATM   17  C4  UNL     1      -3.943  48.544 -24.669  1.00  0.00     0.028 A 
HETATM   18 CL1  UNL     1      -2.471  48.665 -26.904  1.00  0.00    -0.082 Cl
HETATM   19  C3  UNL     1      -4.684  49.077 -23.614  1.00  0.00     0.038 A 
HETATM   20  C2  UNL     1      -4.931  50.449 -23.542  1.00  0.00     0.070 A 
HETATM   21  C23 UNL     1      -4.428  51.291 -24.539  1.00  0.00     0.062 A 
BRANCH  20  22
HETATM   22  O1  UNL     1      -5.672  50.835 -22.460  1.00  0.00    -0.356 OA
HETATM   23  C1  UNL     1      -5.053  50.741 -21.183  1.00  0.00     0.210 C 
ENDBRANCH  20  22
ENDBRANCH  13  15
ENDBRANCH   1  13
BRANCH  10  24
HETATM   24  O4  UNL     1      -1.037  50.892 -21.931  1.00  0.00    -0.353 OA
HETATM   25  C20 UNL     1      -1.468  49.545 -22.063  1.00  0.00     0.210 C 
ENDBRANCH  10  24
BRANCH   9  26
HETATM   26  O2  UNL     1       1.125  52.363 -21.922  1.00  0.00    -0.348 OA
BRANCH  26  27
HETATM   27  C12 UNL     1       1.196  53.538 -21.114  1.00  0.00     0.177 C 
BRANCH  27  28
HETATM   28  C13 UNL     1       1.145  53.195 -19.624  1.00  0.00     0.057 C 
BRANCH  28  29
HETATM   29  C14 UNL     1      -0.274  52.880 -19.125  1.00  0.00     0.274 C 
BRANCH  29  30
HETATM   30  N4  UNL     1      -0.519  51.448 -18.894  1.00  0.00     0.092 N 
HETATM   31  C15 UNL     1      -1.944  51.177 -18.599  1.00  0.00     0.298 C 
HETATM   32  C16 UNL     1      -2.240  51.027 -17.099  1.00  0.00     0.198 C 
HETATM   33  O3  UNL     1      -1.506  49.960 -16.480  1.00  0.00    -0.388 OA
HETATM   34  C17 UNL     1      -0.277  49.662 -17.156  1.00  0.00     0.198 C 
HETATM   35  C18 UNL     1       0.345  50.897 -17.824  1.00  0.00     0.298 C 
ENDBRANCH  29  30
ENDBRANCH  28  29
ENDBRANCH  27  28
ENDBRANCH  26  27
ENDBRANCH   9  26
TORSDOF 9
ENDMDL
MODEL 3
REMARK minimizedAffinity -7.87470245
REMARK  9 active torsions:
REMARK  status: ('A' for Active; 'I' for Inactive)
REMARK    1  A    between atoms: O1_2  and  C2_3 
REMARK    2  A    between atoms: C6_8  and  N1_9 
REMARK    3  A    between atoms: N1_9  and  C7_10 
REMARK    4  A    between atoms: C11_18  and  O2_19 
REMARK    5  A    between atoms: O2_19  and  C12_20 
REMARK    6  A    between atoms: C12_20  and  C13_21 
REMARK    7  A    between atoms: C13_21  and  C14_22 
REMARK    8  A    between atoms: C14_22  and  N4_23 
REMARK    9  A    between atoms: C19_29  and  O4_30 
ROOT
HETATM    1  C7  UNL     1       0.214  52.463 -24.409  1.00  0.00     0.098 A 
HETATM    2  N2  UNL     1       0.631  53.581 -25.029  1.00  0.00    -0.342 N 
ATOM      3  H2  UNL     1       1.416  54.129 -24.675  1.00  0.00     0.167 HD
HETATM    4  C8  UNL     1      -0.032  53.938 -26.131  1.00  0.00     0.182 A 
HETATM    5  N3  UNL     1      -1.055  53.277 -26.685  1.00  0.00    -0.351 N 
ATOM      6  H3  UNL     1      -1.499  53.602 -27.545  1.00  0.00     0.166 HD
HETATM    7  C9  UNL     1      -1.468  52.171 -26.058  1.00  0.00     0.049 A 
HETATM    8  C10 UNL     1      -2.532  51.463 -26.602  1.00  0.00     0.070 A 
HETATM    9  C11 UNL     1      -3.036  50.302 -26.006  1.00  0.00     0.104 A 
HETATM   10  C19 UNL     1      -2.455  49.834 -24.818  1.00  0.00     0.102 A 
HETATM   11  C21 UNL     1      -1.378  50.529 -24.265  1.00  0.00     0.056 A 
HETATM   12  C22 UNL     1      -0.871  51.699 -24.885  1.00  0.00     0.032 A 
ENDROOT
BRANCH   1  13
HETATM   13  N1  UNL     1       0.913  52.025 -23.247  1.00  0.00    -0.243 NA
HETATM   14  H6  UNL     1       1.899  52.208 -23.398  1.00  0.00     0.135 HD
BRANCH  13  15
HETATM   15  C6  UNL     1       0.518  52.362 -21.923  1.00  0.00     0.038 A 
HETATM   16  C5  UNL     1       0.899  53.569 -21.304  1.00  0.00     0.055 A 
HETATM   17  C4  UNL     1       0.526  53.835 -19.984  1.00  0.00     0.028 A 
HETATM   18 CL1  UNL     1       1.766  54.803 -22.153  1.00  0.00    -0.082 Cl
HETATM   19  C3  UNL     1      -0.223  52.900 -19.268  1.00  0.00     0.038 A 
HETATM   20  C2  UNL     1      -0.608  51.697 -19.860  1.00  0.00     0.070 A 
HETATM   21  C23 UNL     1      -0.237  51.431 -21.182  1.00  0.00     0.062 A 
BRANCH  20  22
HETATM   22  O1  UNL     1      -1.336  50.873 -19.047  1.00  0.00    -0.356 OA
HETATM   23  C1  UNL     1      -2.563  51.381 -18.539  1.00  0.00     0.210 C 
ENDBRANCH  20  22
ENDBRANCH  13  15
ENDBRANCH   1  13
BRANCH  10  24
HETATM   24  O4  UNL     1      -2.989  48.688 -24.285  1.00  0.00    -0.353 OA
HETATM   25  C20 UNL     1      -2.951  48.544 -22.872  1.00  0.00     0.210 C 
ENDBRANCH  10  24
BRANCH   9  26
HETATM   26  O2  UNL     1      -4.072  49.554 -26.502  1.00  0.00    -0.348 OA
BRANCH  26  27
HETATM   27  C12 UNL     1      -3.881  48.763 -27.675  1.00  0.00     0.177 C 
BRANCH  27  28
HETATM   28  C13 UNL     1      -5.164  48.026 -28.066  1.00  0.00     0.057 C 
BRANCH  28  29
HETATM   29  C14 UNL     1      -5.513  48.171 -29.555  1.00  0.00     0.274 C 
BRANCH  29  30
HETATM   30  N4  UNL     1      -6.810  47.581 -29.923  1.00  0.00     0.092 N 
HETATM   31  C15 UNL     1      -7.305  48.110 -31.214  1.00  0.00     0.298 C 
HETATM   32  C16 UNL     1      -8.348  49.227 -31.056  1.00  0.00     0.198 C 
HETATM   33  O3  UNL     1      -9.516  48.814 -30.332  1.00  0.00    -0.388 OA
HETATM   34  C17 UNL     1      -9.259  47.734 -29.424  1.00  0.00     0.198 C 
HETATM   35  C18 UNL     1      -7.829  47.761 -28.864  1.00  0.00     0.298 C 
ENDBRANCH  29  30
ENDBRANCH  28  29
ENDBRANCH  27  28
ENDBRANCH  26  27
ENDBRANCH   9  26
TORSDOF 9
ENDMDL
MODEL 4
REMARK minimizedAffinity -7.79553556
REMARK  9 active torsions:
REMARK  status: ('A' for Active; 'I' for Inactive)
REMARK    1  A    between atoms: O1_2  and  C2_3 
REMARK    2  A    between atoms: C6_8  and  N1_9 
REMARK    3  A    between atoms: N1_9  and  C7_10 
REMARK    4  A    between atoms: C11_18  and  O2_19 
REMARK    5  A    between atoms: O2_19  and  C12_20 
REMARK    6  A    between atoms: C12_20  and  C13_21 
REMARK    7  A    between atoms: C13_21  and  C14_22 
REMARK    8  A    between atoms: C14_22  and  N4_23 
REMARK    9  A    between atoms: C19_29  and  O4_30 
ROOT
HETATM    1  C7  UNL     1      -0.141  52.057 -21.045  1.00  0.00     0.098 A 
HETATM    2  N2  UNL     1       0.314  53.196 -21.598  1.00  0.00    -0.342 N 
ATOM      3  H2  UNL     1       0.147  53.419 -22.580  1.00  0.00     0.167 HD
HETATM    4  C8  UNL     1       0.995  54.020 -20.798  1.00  0.00     0.182 A 
HETATM    5  N3  UNL     1       1.246  53.828 -19.498  1.00  0.00    -0.351 N 
ATOM      6  H3  UNL     1       1.757  54.517 -18.945  1.00  0.00     0.166 HD
HETATM    7  C9  UNL     1       0.797  52.691 -18.959  1.00  0.00     0.049 A 
HETATM    8  C10 UNL     1       1.046  52.456 -17.612  1.00  0.00     0.070 A 
HETATM    9  C11 UNL     1       0.622  51.287 -16.970  1.00  0.00     0.104 A 
HETATM   10  C19 UNL     1      -0.074  50.315 -17.704  1.00  0.00     0.102 A 
HETATM   11  C21 UNL     1      -0.340  50.542 -19.055  1.00  0.00     0.056 A 
HETATM   12  C22 UNL     1       0.086  51.735 -19.692  1.00  0.00     0.032 A 
ENDROOT
BRANCH   1  13
HETATM   13  N1  UNL     1      -0.901  51.163 -21.852  1.00  0.00    -0.243 NA
HETATM   14  H6  UNL     1      -1.040  50.312 -21.317  1.00  0.00     0.135 HD
BRANCH  13  15
HETATM   15  C6  UNL     1      -2.086  51.543 -22.540  1.00  0.00     0.038 A 
HETATM   16  C5  UNL     1      -3.364  51.447 -21.956  1.00  0.00     0.055 A 
HETATM   17  C4  UNL     1      -4.505  51.788 -22.688  1.00  0.00     0.028 A 
HETATM   18 CL1  UNL     1      -3.586  50.986 -20.302  1.00  0.00    -0.082 Cl
HETATM   19  C3  UNL     1      -4.382  52.223 -24.008  1.00  0.00     0.038 A 
HETATM   20  C2  UNL     1      -3.126  52.322 -24.609  1.00  0.00     0.070 A 
HETATM   21  C23 UNL     1      -1.985  51.982 -23.876  1.00  0.00     0.062 A 
BRANCH  20  22
HETATM   22  O1  UNL     1      -3.151  52.757 -25.904  1.00  0.00    -0.356 OA
HETATM   23  C1  UNL     1      -2.790  51.819 -26.911  1.00  0.00     0.210 C 
ENDBRANCH  20  22
ENDBRANCH  13  15
ENDBRANCH   1  13
BRANCH  10  24
HETATM   24  O4  UNL     1      -0.467  49.195 -17.017  1.00  0.00    -0.353 OA
HETATM   25  C20 UNL     1      -1.863  48.974 -16.870  1.00  0.00     0.210 C 
ENDBRANCH  10  24
BRANCH   9  26
HETATM   26  O2  UNL     1       0.825  51.005 -15.644  1.00  0.00    -0.348 OA
BRANCH  26  27
HETATM   27  C12 UNL     1       0.710  52.044 -14.670  1.00  0.00     0.177 C 
BRANCH  27  28
HETATM   28  C13 UNL     1      -0.494  51.817 -13.753  1.00  0.00     0.057 C 
BRANCH  28  29
HETATM   29  C14 UNL     1      -0.405  52.603 -12.436  1.00  0.00     0.274 C 
BRANCH  29  30
HETATM   30  N4  UNL     1      -1.537  52.368 -11.525  1.00  0.00     0.092 N 
HETATM   31  C15 UNL     1      -2.715  51.835 -12.244  1.00  0.00     0.298 C 
HETATM   32  C16 UNL     1      -3.766  52.907 -12.574  1.00  0.00     0.198 C 
HETATM   33  O3  UNL     1      -4.286  53.569 -11.412  1.00  0.00    -0.388 OA
HETATM   34  C17 UNL     1      -3.370  53.564 -10.309  1.00  0.00     0.198 C 
HETATM   35  C18 UNL     1      -1.902  53.583 -10.760  1.00  0.00     0.298 C 
ENDBRANCH  29  30
ENDBRANCH  28  29
ENDBRANCH  27  28
ENDBRANCH  26  27
ENDBRANCH   9  26
TORSDOF 9
ENDMDL
MODEL 5
REMARK minimizedAffinity -7.69211388
REMARK  9 active torsions:
REMARK  status: ('A' for Active; 'I' for Inactive)
REMARK    1  A    between atoms: O1_2  and  C2_3 
REMARK    2  A    between atoms: C6_8  and  N1_9 
REMARK    3  A    between atoms: N1_9  and  C7_10 
REMARK    4  A    between atoms: C11_18  and  O2_19 
REMARK    5  A    between atoms: O2_19  and  C12_20 
REMARK    6  A    between atoms: C12_20  and  C13_21 
REMARK    7  A    between atoms: C13_21  and  C14_22 
REMARK    8  A    between atoms: C14_22  and  N4_23 
REMARK    9  A    between atoms: C19_29  and  O4_30 
ROOT
HETATM    1  C7  UNL     1      -4.227  49.756 -25.044  1.00  0.00     0.098 A 
HETATM    2  N2  UNL     1      -5.333  50.085 -24.352  1.00  0.00    -0.342 N 
ATOM      3  H2  UNL     1      -6.155  49.480 -24.337  1.00  0.00     0.167 HD
HETATM    4  C8  UNL     1      -5.302  51.242 -23.688  1.00  0.00     0.182 A 
HETATM    5  N3  UNL     1      -4.269  52.090 -23.628  1.00  0.00    -0.351 N 
ATOM      6  H3  UNL     1      -4.314  52.948 -23.078  1.00  0.00     0.166 HD
HETATM    7  C9  UNL     1      -3.177  51.760 -24.323  1.00  0.00     0.049 A 
HETATM    8  C10 UNL     1      -2.088  52.621 -24.290  1.00  0.00     0.070 A 
HETATM    9  C11 UNL     1      -0.909  52.358 -24.996  1.00  0.00     0.104 A 
HETATM   10  C19 UNL     1      -0.820  51.192 -25.771  1.00  0.00     0.102 A 
HETATM   11  C21 UNL     1      -1.902  50.312 -25.806  1.00  0.00     0.056 A 
HETATM   12  C22 UNL     1      -3.087  50.585 -25.077  1.00  0.00     0.032 A 
ENDROOT
BRANCH   1  13
HETATM   13  N1  UNL     1      -4.203  48.515 -25.743  1.00  0.00    -0.243 NA
HETATM   14  H6  UNL     1      -4.297  47.776 -25.054  1.00  0.00     0.135 HD
BRANCH  13  15
HETATM   15  C6  UNL     1      -4.987  48.252 -26.899  1.00  0.00     0.038 A 
HETATM   16  C5  UNL     1      -6.258  47.649 -26.829  1.00  0.00     0.055 A 
HETATM   17  C4  UNL     1      -6.973  47.366 -27.997  1.00  0.00     0.028 A 
HETATM   18 CL1  UNL     1      -7.029  47.302 -25.319  1.00  0.00    -0.082 Cl
HETATM   19  C3  UNL     1      -6.426  47.678 -29.242  1.00  0.00     0.038 A 
HETATM   20  C2  UNL     1      -5.166  48.272 -29.335  1.00  0.00     0.070 A 
HETATM   21  C23 UNL     1      -4.452  48.556 -28.167  1.00  0.00     0.062 A 
BRANCH  20  22
HETATM   22  O1  UNL     1      -4.750  48.520 -30.613  1.00  0.00    -0.356 OA
HETATM   23  C1  UNL     1      -5.140  47.589 -31.615  1.00  0.00     0.210 C 
ENDBRANCH  20  22
ENDBRANCH  13  15
ENDBRANCH   1  13
BRANCH  10  24
HETATM   24  O4  UNL     1       0.363  50.989 -26.436  1.00  0.00    -0.353 OA
HETATM   25  C20 UNL     1       0.446  51.447 -27.778  1.00  0.00     0.210 C 
ENDBRANCH  10  24
BRANCH   9  26
HETATM   26  O2  UNL     1       0.202  53.161 -24.991  1.00  0.00    -0.348 OA
BRANCH  26  27
HETATM   27  C12 UNL     1       0.790  53.553 -23.751  1.00  0.00     0.177 C 
BRANCH  27  28
HETATM   28  C13 UNL     1       0.767  52.408 -22.736  1.00  0.00     0.057 C 
BRANCH  28  29
HETATM   29  C14 UNL     1       1.072  52.867 -21.301  1.00  0.00     0.274 C 
BRANCH  29  30
HETATM   30  N4  UNL     1      -0.116  52.947 -20.437  1.00  0.00     0.092 N 
HETATM   31  C15 UNL     1       0.254  53.046 -19.008  1.00  0.00     0.298 C 
HETATM   32  C16 UNL     1       0.172  51.706 -18.261  1.00  0.00     0.198 C 
HETATM   33  O3  UNL     1      -1.140  51.123 -18.284  1.00  0.00    -0.388 OA
HETATM   34  C17 UNL     1      -1.914  51.532 -19.420  1.00  0.00     0.198 C 
HETATM   35  C18 UNL     1      -1.045  51.815 -20.655  1.00  0.00     0.298 C 
ENDBRANCH  29  30
ENDBRANCH  28  29
ENDBRANCH  27  28
ENDBRANCH  26  27
ENDBRANCH   9  26
TORSDOF 9
ENDMDL
MODEL 6
REMARK minimizedAffinity -7.66167307
REMARK  9 active torsions:
REMARK  status: ('A' for Active; 'I' for Inactive)
REMARK    1  A    between atoms: O1_2  and  C2_3 
REMARK    2  A    between atoms: C6_8  and  N1_9 
REMARK    3  A    between atoms: N1_9  and  C7_10 
REMARK    4  A    between atoms: C11_18  and  O2_19 
REMARK    5  A    between atoms: O2_19  and  C12_20 
REMARK    6  A    between atoms: C12_20  and  C13_21 
REMARK    7  A    between atoms: C13_21  and  C14_22 
REMARK    8  A    between atoms: C14_22  and  N4_23 
REMARK    9  A    between atoms: C19_29  and  O4_30 
ROOT
HETATM    1  C7  UNL     1      -1.453  50.248 -22.894  1.00  0.00     0.098 A 
HETATM    2  N2  UNL     1      -1.880  49.578 -21.808  1.00  0.00    -0.342 N 
ATOM      3  H2  UNL     1      -1.508  49.772 -20.878  1.00  0.00     0.167 HD
HETATM    4  C8  UNL     1      -2.816  48.647 -22.009  1.00  0.00     0.182 A 
HETATM    5  N3  UNL     1      -3.380  48.335 -23.181  1.00  0.00    -0.351 N 
ATOM      6  H3  UNL     1      -4.108  47.624 -23.252  1.00  0.00     0.166 HD
HETATM    7  C9  UNL     1      -2.944  49.001 -24.255  1.00  0.00     0.049 A 
HETATM    8  C10 UNL     1      -3.503  48.698 -25.490  1.00  0.00     0.070 A 
HETATM    9  C11 UNL     1      -3.099  49.337 -26.667  1.00  0.00     0.104 A 
HETATM   10  C19 UNL     1      -2.093  50.313 -26.606  1.00  0.00     0.102 A 
HETATM   11  C21 UNL     1      -1.529  50.635 -25.371  1.00  0.00     0.056 A 
HETATM   12  C22 UNL     1      -1.955  49.987 -24.184  1.00  0.00     0.032 A 
ENDROOT
BRANCH   1  13
HETATM   13  N1  UNL     1      -0.478  51.273 -22.723  1.00  0.00    -0.243 NA
HETATM   14  H6  UNL     1      -0.626  51.959 -23.456  1.00  0.00     0.135 HD
BRANCH  13  15
HETATM   15  C6  UNL     1      -0.208  51.896 -21.474  1.00  0.00     0.038 A 
HETATM   16  C5  UNL     1       0.524  53.096 -21.369  1.00  0.00     0.055 A 
HETATM   17  C4  UNL     1       0.805  53.646 -20.116  1.00  0.00     0.028 A 
HETATM   18 CL1  UNL     1       1.038  53.982 -22.764  1.00  0.00    -0.082 Cl
HETATM   19  C3  UNL     1       0.365  53.005 -18.958  1.00  0.00     0.038 A 
HETATM   20  C2  UNL     1      -0.358  51.814 -19.037  1.00  0.00     0.070 A 
HETATM   21  C23 UNL     1      -0.641  51.264 -20.291  1.00  0.00     0.062 A 
BRANCH  20  22
HETATM   22  O1  UNL     1      -0.724  51.292 -17.828  1.00  0.00    -0.356 OA
HETATM   23  C1  UNL     1       0.278  50.607 -17.086  1.00  0.00     0.210 C 
ENDBRANCH  20  22
ENDBRANCH  13  15
ENDBRANCH   1  13
BRANCH  10  24
HETATM   24  O4  UNL     1      -1.744  50.907 -27.793  1.00  0.00    -0.353 OA
HETATM   25  C20 UNL     1      -0.580  51.722 -27.800  1.00  0.00     0.210 C 
ENDBRANCH  10  24
BRANCH   9  26
HETATM   26  O2  UNL     1      -3.622  49.092 -27.911  1.00  0.00    -0.348 OA
BRANCH  26  27
HETATM   27  C12 UNL     1      -4.810  48.311 -28.041  1.00  0.00     0.177 C 
BRANCH  27  28
HETATM   28  C13 UNL     1      -5.151  48.056 -29.511  1.00  0.00     0.057 C 
BRANCH  28  29
HETATM   29  C14 UNL     1      -6.658  47.882 -29.759  1.00  0.00     0.274 C 
BRANCH  29  30
HETATM   30  N4  UNL     1      -6.978  47.202 -31.024  1.00  0.00     0.092 N 
HETATM   31  C15 UNL     1      -5.759  46.712 -31.705  1.00  0.00     0.298 C 
HETATM   32  C16 UNL     1      -5.273  47.640 -32.829  1.00  0.00     0.198 C 
HETATM   33  O3  UNL     1      -6.246  47.833 -33.866  1.00  0.00    -0.388 OA
HETATM   34  C17 UNL     1      -7.593  47.659 -33.407  1.00  0.00     0.198 C 
HETATM   35  C18 UNL     1      -7.772  48.058 -31.935  1.00  0.00     0.298 C 
ENDBRANCH  29  30
ENDBRANCH  28  29
ENDBRANCH  27  28
ENDBRANCH  26  27
ENDBRANCH   9  26
TORSDOF 9
ENDMDL
MODEL 7
REMARK minimizedAffinity -7.6480751
REMARK  9 active torsions:
REMARK  status: ('A' for Active; 'I' for Inactive)
REMARK    1  A    between atoms: O1_2  and  C2_3 
REMARK    2  A    between atoms: C6_8  and  N1_9 
REMARK    3  A    between atoms: N1_9  and  C7_10 
REMARK    4  A    between atoms: C11_18  and  O2_19 
REMARK    5  A    between atoms: O2_19  and  C12_20 
REMARK    6  A    between atoms: C12_20  and  C13_21 
REMARK    7  A    between atoms: C13_21  and  C14_22 
REMARK    8  A    between atoms: C14_22  and  N4_23 
REMARK    9  A    between atoms: C19_29  and  O4_30 
ROOT
HETATM    1  C7  UNL     1      -3.325  50.181 -24.996  1.00  0.00     0.098 A 
HETATM    2  N2  UNL     1      -3.729  51.094 -25.898  1.00  0.00    -0.342 N 
ATOM      3  H2  UNL     1      -4.376  50.854 -26.650  1.00  0.00     0.167 HD
HETATM    4  C8  UNL     1      -3.239  52.328 -25.761  1.00  0.00     0.182 A 
HETATM    5  N3  UNL     1      -2.406  52.744 -24.801  1.00  0.00    -0.351 N 
ATOM      6  H3  UNL     1      -2.092  53.714 -24.749  1.00  0.00     0.166 HD
HETATM    7  C9  UNL     1      -2.004  51.829 -23.913  1.00  0.00     0.049 A 
HETATM    8  C10 UNL     1      -1.133  52.225 -22.906  1.00  0.00     0.070 A 
HETATM    9  C11 UNL     1      -0.654  51.331 -21.943  1.00  0.00     0.104 A 
HETATM   10  C19 UNL     1      -1.059  49.988 -21.992  1.00  0.00     0.102 A 
HETATM   11  C21 UNL     1      -1.942  49.578 -22.992  1.00  0.00     0.056 A 
HETATM   12  C22 UNL     1      -2.428  50.497 -23.956  1.00  0.00     0.032 A 
ENDROOT
BRANCH   1  13
HETATM   13  N1  UNL     1      -3.847  48.858 -25.084  1.00  0.00    -0.243 NA
HETATM   14  H6  UNL     1      -4.221  48.617 -24.172  1.00  0.00     0.135 HD
BRANCH  13  15
HETATM   15  C6  UNL     1      -4.706  48.423 -26.130  1.00  0.00     0.038 A 
HETATM   16  C5  UNL     1      -5.994  47.907 -25.886  1.00  0.00     0.055 A 
HETATM   17  C4  UNL     1      -6.784  47.447 -26.943  1.00  0.00     0.028 A 
HETATM   18 CL1  UNL     1      -6.691  47.888 -24.302  1.00  0.00    -0.082 Cl
HETATM   19  C3  UNL     1      -6.296  47.492 -28.250  1.00  0.00     0.038 A 
HETATM   20  C2  UNL     1      -5.021  47.995 -28.514  1.00  0.00     0.070 A 
HETATM   21  C23 UNL     1      -4.231  48.457 -27.456  1.00  0.00     0.062 A 
BRANCH  20  22
HETATM   22  O1  UNL     1      -4.668  47.978 -29.835  1.00  0.00    -0.356 OA
HETATM   23  C1  UNL     1      -5.533  47.289 -30.729  1.00  0.00     0.210 C 
ENDBRANCH  20  22
ENDBRANCH  13  15
ENDBRANCH   1  13
BRANCH  10  24
HETATM   24  O4  UNL     1      -0.559  49.163 -21.017  1.00  0.00    -0.353 OA
HETATM   25  C20 UNL     1      -1.339  48.032 -20.653  1.00  0.00     0.210 C 
ENDBRANCH  10  24
BRANCH   9  26
HETATM   26  O2  UNL     1       0.195  51.664 -20.919  1.00  0.00    -0.348 OA
BRANCH  26  27
HETATM   27  C12 UNL     1      -0.102  52.784 -20.085  1.00  0.00     0.177 C 
BRANCH  27  28
HETATM   28  C13 UNL     1       0.633  52.693 -18.746  1.00  0.00     0.057 C 
BRANCH  28  29
HETATM   29  C14 UNL     1       0.358  51.382 -17.994  1.00  0.00     0.274 C 
BRANCH  29  30
HETATM   30  N4  UNL     1       0.418  51.511 -16.530  1.00  0.00     0.092 N 
HETATM   31  C15 UNL     1       1.417  52.520 -16.111  1.00  0.00     0.298 C 
HETATM   32  C16 UNL     1       2.758  51.908 -15.678  1.00  0.00     0.198 C 
HETATM   33  O3  UNL     1       2.637  51.000 -14.574  1.00  0.00    -0.388 OA
HETATM   34  C17 UNL     1       1.340  50.394 -14.487  1.00  0.00     0.198 C 
HETATM   35  C18 UNL     1       0.679  50.215 -15.863  1.00  0.00     0.298 C 
ENDBRANCH  29  30
ENDBRANCH  28  29
ENDBRANCH  27  28
ENDBRANCH  26  27
ENDBRANCH   9  26
TORSDOF 9
ENDMDL
MODEL 8
REMARK minimizedAffinity -7.59203053
REMARK  9 active torsions:
REMARK  status: ('A' for Active; 'I' for Inactive)
REMARK    1  A    between atoms: O1_2  and  C2_3 
REMARK    2  A    between atoms: C6_8  and  N1_9 
REMARK    3  A    between atoms: N1_9  and  C7_10 
REMARK    4  A    between atoms: C11_18  and  O2_19 
REMARK    5  A    between atoms: O2_19  and  C12_20 
REMARK    6  A    between atoms: C12_20  and  C13_21 
REMARK    7  A    between atoms: C13_21  and  C14_22 
REMARK    8  A    between atoms: C14_22  and  N4_23 
REMARK    9  A    between atoms: C19_29  and  O4_30 
ROOT
HETATM    1  C7  UNL     1      -1.716  52.622 -24.559  1.00  0.00     0.098 A 
HETATM    2  N2  UNL     1      -0.924  53.312 -25.400  1.00  0.00    -0.342 N 
ATOM      3  H2  UNL     1      -1.226  53.551 -26.345  1.00  0.00     0.167 HD
HETATM    4  C8  UNL     1       0.275  53.668 -24.936  1.00  0.00     0.182 A 
HETATM    5  N3  UNL     1       0.752  53.423 -23.710  1.00  0.00    -0.351 N 
ATOM      6  H3  UNL     1       1.675  53.748 -23.420  1.00  0.00     0.166 HD
HETATM    7  C9  UNL     1      -0.038  52.730 -22.884  1.00  0.00     0.049 A 
HETATM    8  C10 UNL     1       0.428  52.451 -21.605  1.00  0.00     0.070 A 
HETATM    9  C11 UNL     1      -0.328  51.723 -20.680  1.00  0.00     0.104 A 
HETATM   10  C19 UNL     1      -1.597  51.252 -21.051  1.00  0.00     0.102 A 
HETATM   11  C21 UNL     1      -2.082  51.534 -22.329  1.00  0.00     0.056 A 
HETATM   12  C22 UNL     1      -1.310  52.282 -23.253  1.00  0.00     0.032 A 
ENDROOT
BRANCH   1  13
HETATM   13  N1  UNL     1      -3.018  52.248 -25.000  1.00  0.00    -0.243 NA
HETATM   14  H6  UNL     1      -3.314  52.932 -25.689  1.00  0.00     0.135 HD
BRANCH  13  15
HETATM   15  C6  UNL     1      -3.361  50.927 -25.397  1.00  0.00     0.038 A 
HETATM   16  C5  UNL     1      -2.945  50.374 -26.624  1.00  0.00     0.055 A 
HETATM   17  C4  UNL     1      -3.346  49.087 -26.993  1.00  0.00     0.028 A 
HETATM   18 CL1  UNL     1      -1.867  51.210 -27.690  1.00  0.00    -0.082 Cl
HETATM   19  C3  UNL     1      -4.168  48.343 -26.146  1.00  0.00     0.038 A 
HETATM   20  C2  UNL     1      -4.596  48.872 -24.927  1.00  0.00     0.070 A 
HETATM   21  C23 UNL     1      -4.193  50.160 -24.558  1.00  0.00     0.062 A 
BRANCH  20  22
HETATM   22  O1  UNL     1      -5.398  48.039 -24.198  1.00  0.00    -0.356 OA
HETATM   23  C1  UNL     1      -5.153  47.961 -22.800  1.00  0.00     0.210 C 
ENDBRANCH  20  22
ENDBRANCH  13  15
ENDBRANCH   1  13
BRANCH  10  24
HETATM   24  O4  UNL     1      -2.291  50.550 -20.099  1.00  0.00    -0.353 OA
HETATM   25  C20 UNL     1      -3.411  51.188 -19.501  1.00  0.00     0.210 C 
ENDBRANCH  10  24
BRANCH   9  26
HETATM   26  O2  UNL     1       0.070  51.429 -19.402  1.00  0.00    -0.348 OA
BRANCH  26  27
HETATM   27  C12 UNL     1       0.173  52.471 -18.431  1.00  0.00     0.177 C 
BRANCH  27  28
HETATM   28  C13 UNL     1       1.076  52.061 -17.266  1.00  0.00     0.057 C 
BRANCH  28  29
HETATM   29  C14 UNL     1       0.669  50.722 -16.629  1.00  0.00     0.274 C 
BRANCH  29  30
HETATM   30  N4  UNL     1       0.578  50.765 -15.161  1.00  0.00     0.092 N 
HETATM   31  C15 UNL     1      -0.685  50.168 -14.674  1.00  0.00     0.298 C 
HETATM   32  C16 UNL     1      -1.763  51.210 -14.338  1.00  0.00     0.198 C 
HETATM   33  O3  UNL     1      -1.356  52.140 -13.324  1.00  0.00    -0.388 OA
HETATM   34  C17 UNL     1       0.066  52.313 -13.261  1.00  0.00     0.198 C 
HETATM   35  C18 UNL     1       0.743  52.137 -14.629  1.00  0.00     0.298 C 
ENDBRANCH  29  30
ENDBRANCH  28  29
ENDBRANCH  27  28
ENDBRANCH  26  27
ENDBRANCH   9  26
TORSDOF 9
ENDMDL
MODEL 9
REMARK minimizedAffinity -7.55125046
REMARK  9 active torsions:
REMARK  status: ('A' for Active; 'I' for Inactive)
REMARK    1  A    between atoms: O1_2  and  C2_3 
REMARK    2  A    between atoms: C6_8  and  N1_9 
REMARK    3  A    between atoms: N1_9  and  C7_10 
REMARK    4  A    between atoms: C11_18  and  O2_19 
REMARK    5  A    between atoms: O2_19  and  C12_20 
REMARK    6  A    between atoms: C12_20  and  C13_21 
REMARK    7  A    between atoms: C13_21  and  C14_22 
REMARK    8  A    between atoms: C14_22  and  N4_23 
REMARK    9  A    between atoms: C19_29  and  O4_30 
ROOT
HETATM    1  C7  UNL     1      -0.213  52.395 -19.207  1.00  0.00     0.098 A 
HETATM    2  N2  UNL     1       0.673  53.407 -19.178  1.00  0.00    -0.342 N 
ATOM      3  H2  UNL     1       0.972  53.833 -18.300  1.00  0.00     0.167 HD
HETATM    4  C8  UNL     1       1.142  53.826 -20.356  1.00  0.00     0.182 A 
HETATM    5  N3  UNL     1       0.830  53.320 -21.554  1.00  0.00    -0.351 N 
ATOM      6  H3  UNL     1       1.249  53.681 -22.412  1.00  0.00     0.166 HD
HETATM    7  C9  UNL     1      -0.057  52.321 -21.574  1.00  0.00     0.049 A 
HETATM    8  C10 UNL     1      -0.409  51.776 -22.803  1.00  0.00     0.070 A 
HETATM    9  C11 UNL     1      -1.337  50.735 -22.916  1.00  0.00     0.104 A 
HETATM   10  C19 UNL     1      -1.939  50.223 -21.757  1.00  0.00     0.102 A 
HETATM   11  C21 UNL     1      -1.587  50.754 -20.515  1.00  0.00     0.056 A 
HETATM   12  C22 UNL     1      -0.638  51.802 -20.413  1.00  0.00     0.032 A 
ENDROOT
BRANCH   1  13
HETATM   13  N1  UNL     1      -0.717  51.894 -17.972  1.00  0.00    -0.243 NA
HETATM   14  H6  UNL     1      -1.548  51.351 -18.180  1.00  0.00     0.135 HD
BRANCH  13  15
HETATM   15  C6  UNL     1       0.096  51.250 -16.999  1.00  0.00     0.038 A 
HETATM   16  C5  UNL     1      -0.180  49.953 -16.522  1.00  0.00     0.055 A 
HETATM   17  C4  UNL     1       0.620  49.379 -15.530  1.00  0.00     0.028 A 
HETATM   18 CL1  UNL     1      -1.453  48.983 -17.181  1.00  0.00    -0.082 Cl
HETATM   19  C3  UNL     1       1.697  50.093 -15.003  1.00  0.00     0.038 A 
HETATM   20  C2  UNL     1       1.986  51.380 -15.458  1.00  0.00     0.070 A 
HETATM   21  C23 UNL     1       1.187  51.954 -16.451  1.00  0.00     0.062 A 
BRANCH  20  22
HETATM   22  O1  UNL     1       3.065  51.965 -14.854  1.00  0.00    -0.356 OA
HETATM   23  C1  UNL     1       4.051  52.540 -15.703  1.00  0.00     0.210 C 
ENDBRANCH  20  22
ENDBRANCH  13  15
ENDBRANCH   1  13
BRANCH  10  24
HETATM   24  O4  UNL     1      -2.836  49.201 -21.934  1.00  0.00    -0.353 OA
HETATM   25  C20 UNL     1      -3.167  48.416 -20.797  1.00  0.00     0.210 C 
ENDBRANCH  10  24
BRANCH   9  26
HETATM   26  O2  UNL     1      -1.715  50.148 -24.097  1.00  0.00    -0.348 OA
BRANCH  26  27
HETATM   27  C12 UNL     1      -2.611  50.829 -24.975  1.00  0.00     0.177 C 
BRANCH  27  28
HETATM   28  C13 UNL     1      -2.128  50.763 -26.425  1.00  0.00     0.057 C 
BRANCH  28  29
HETATM   29  C14 UNL     1      -0.611  50.550 -26.547  1.00  0.00     0.274 C 
BRANCH  29  30
HETATM   30  N4  UNL     1       0.107  51.700 -27.121  1.00  0.00     0.092 N 
HETATM   31  C15 UNL     1       0.970  52.361 -26.117  1.00  0.00     0.298 C 
HETATM   32  C16 UNL     1       0.336  53.618 -25.501  1.00  0.00     0.198 C 
HETATM   33  O3  UNL     1       0.022  54.629 -26.470  1.00  0.00    -0.388 OA
HETATM   34  C17 UNL     1      -0.211  54.094 -27.780  1.00  0.00     0.198 C 
HETATM   35  C18 UNL     1      -0.812  52.681 -27.743  1.00  0.00     0.298 C 
ENDBRANCH  29  30
ENDBRANCH  28  29
ENDBRANCH  27  28
ENDBRANCH  26  27
ENDBRANCH   9  26
TORSDOF 9
ENDMDL
