MODEL 1
REMARK minimizedAffinity -7.78556585
REMARK  7 active torsions:
REMARK  status: ('A' for Active; 'I' for Inactive)
REMARK    1  A    between atoms: O1_2  and  C2_3 
REMARK    2  A    between atoms: C2_3  and  C3_4 
REMARK    3  A    between atoms: C3_4  and  O2_5 
REMARK    4  A    between atoms: O2_5  and  C4_6 
REMARK    5  A    between atoms: C10_15  and  N3_16 
REMARK    6  A    between atoms: N3_16  and  C11_17 
REMARK    7  A    between atoms: C19_27  and  O3_28 
ROOT
HETATM    1  C4  UNL     1      -0.004  53.437 -25.250  1.00  0.00     0.104 A 
HETATM    2  C5  UNL     1       0.833  53.339 -24.135  1.00  0.00     0.070 A 
HETATM    3  C6  UNL     1       0.409  52.761 -22.946  1.00  0.00     0.047 A 
HETATM    4  N1  UNL     1       1.279  52.704 -21.927  1.00  0.00    -0.364 N 
ATOM      5  H1  UNL     1       2.220  53.087 -22.020  1.00  0.00     0.165 HD
HETATM    6  C7  UNL     1       0.878  52.128 -20.773  1.00  0.00     0.113 A 
HETATM    7  C8  UNL     1      -0.379  51.586 -20.570  1.00  0.00     0.087 A 
HETATM    8  C9  UNL     1      -0.647  50.941 -19.323  1.00  0.00     0.103 C 
HETATM    9  N2  UNL     1      -0.841  50.403 -18.313  1.00  0.00    -0.191 NA
HETATM   10  C10 UNL     1      -1.309  51.672 -21.617  1.00  0.00     0.067 A 
HETATM   11  C17 UNL     1      -0.902  52.255 -22.852  1.00  0.00     0.022 A 
HETATM   12  C18 UNL     1      -1.755  52.367 -23.975  1.00  0.00     0.055 A 
HETATM   13  C19 UNL     1      -1.320  52.957 -25.164  1.00  0.00     0.102 A 
ENDROOT
BRANCH  10  14
HETATM   14  N3  UNL     1      -2.604  51.065 -21.548  1.00  0.00    -0.353 N 
HETATM   15  H10 UNL     1      -3.228  51.692 -21.040  1.00  0.00     0.166 HD
BRANCH  14  16
HETATM   16  C11 UNL     1      -3.289  50.386 -22.591  1.00  0.00     0.054 A 
HETATM   17  C12 UNL     1      -2.757  49.162 -23.037  1.00  0.00     0.033 A 
HETATM   18  C13 UNL     1      -3.371  48.436 -24.062  1.00  0.00     0.026 A 
HETATM   19  C14 UNL     1      -4.518  48.934 -24.670  1.00  0.00     0.035 A 
HETATM   20 CL1  UNL     1      -5.269  48.042 -25.934  1.00  0.00    -0.084 Cl
HETATM   21  C15 UNL     1      -5.051  50.155 -24.273  1.00  0.00     0.050 A 
HETATM   22  C16 UNL     1      -4.437  50.884 -23.247  1.00  0.00     0.062 A 
HETATM   23 CL2  UNL     1      -5.128  52.428 -22.879  1.00  0.00    -0.082 Cl
ENDBRANCH  14  16
ENDBRANCH  10  14
BRANCH  13  24
HETATM   24  O3  UNL     1      -2.092  53.097 -26.290  1.00  0.00    -0.353 OA
HETATM   25  C20 UNL     1      -2.976  52.034 -26.619  1.00  0.00     0.210 C 
ENDBRANCH  13  24
BRANCH   1  26
HETATM   26  O2  UNL     1       0.350  53.999 -26.450  1.00  0.00    -0.346 OA
BRANCH  26  27
HETATM   27  C3  UNL     1       0.082  53.295 -27.661  1.00  0.00     0.201 C 
BRANCH  27  28
HETATM   28  C2  UNL     1       0.983  52.067 -27.797  1.00  0.00     0.193 C 
BRANCH  28  29
HETATM   29  O1  UNL     1       2.254  52.261 -27.175  1.00  0.00    -0.394 OA
HETATM   30  C1  UNL     1       2.652  51.160 -26.368  1.00  0.00     0.201 C 
ENDBRANCH  28  29
ENDBRANCH  27  28
ENDBRANCH  26  27
ENDBRANCH   1  26
TORSDOF 7
ENDMDL
MODEL 2
REMARK minimizedAffinity -7.56435442
REMARK  7 active torsions:
REMARK  status: ('A' for Active; 'I' for Inactive)
REMARK    1  A    between atoms: O1_2  and  C2_3 
REMARK    2  A    between atoms: C2_3  and  C3_4 
REMARK    3  A    between atoms: C3_4  and  O2_5 
REMARK    4  A    between atoms: O2_5  and  C4_6 
REMARK    5  A    between atoms: C10_15  and  N3_16 
REMARK    6  A    between atoms: N3_16  and  C11_17 
REMARK    7  A    between atoms: C19_27  and  O3_28 
ROOT
HETATM    1  C4  UNL     1      -0.081  53.187 -25.032  1.00  0.00     0.104 A 
HETATM    2  C5  UNL     1       0.730  53.094 -23.897  1.00  0.00     0.070 A 
HETATM    3  C6  UNL     1       0.242  52.637 -22.681  1.00  0.00     0.047 A 
HETATM    4  N1  UNL     1       1.090  52.575 -21.643  1.00  0.00    -0.364 N 
ATOM      5  H1  UNL     1       2.061  52.868 -21.745  1.00  0.00     0.165 HD
HETATM    6  C7  UNL     1       0.625  52.115 -20.461  1.00  0.00     0.113 A 
HETATM    7  C8  UNL     1      -0.677  51.698 -20.247  1.00  0.00     0.087 A 
HETATM    8  C9  UNL     1      -1.017  51.165 -18.965  1.00  0.00     0.103 C 
HETATM    9  N2  UNL     1      -1.270  50.715 -17.926  1.00  0.00    -0.191 NA
HETATM   10  C10 UNL     1      -1.582  51.792 -21.315  1.00  0.00     0.067 A 
HETATM   11  C17 UNL     1      -1.110  52.253 -22.578  1.00  0.00     0.022 A 
HETATM   12  C18 UNL     1      -1.935  52.362 -23.722  1.00  0.00     0.055 A 
HETATM   13  C19 UNL     1      -1.435  52.830 -24.939  1.00  0.00     0.102 A 
ENDROOT
BRANCH  10  14
HETATM   14  N3  UNL     1      -2.926  51.306 -21.230  1.00  0.00    -0.353 N 
HETATM   15  H10 UNL     1      -3.524  52.063 -20.900  1.00  0.00     0.166 HD
BRANCH  14  16
HETATM   16  C11 UNL     1      -3.601  50.486 -22.174  1.00  0.00     0.054 A 
HETATM   17  C12 UNL     1      -4.794  50.977 -22.735  1.00  0.00     0.033 A 
HETATM   18  C13 UNL     1      -5.518  50.228 -23.668  1.00  0.00     0.026 A 
HETATM   19  C14 UNL     1      -5.067  48.966 -24.040  1.00  0.00     0.035 A 
HETATM   20 CL1  UNL     1      -5.961  48.044 -25.184  1.00  0.00    -0.084 Cl
HETATM   21  C15 UNL     1      -3.908  48.440 -23.481  1.00  0.00     0.050 A 
HETATM   22  C16 UNL     1      -3.182  49.189 -22.547  1.00  0.00     0.062 A 
HETATM   23 CL2  UNL     1      -1.799  48.417 -21.848  1.00  0.00    -0.082 Cl
ENDBRANCH  14  16
ENDBRANCH  10  14
BRANCH  13  24
HETATM   24  O3  UNL     1      -2.177  52.958 -26.086  1.00  0.00    -0.353 OA
HETATM   25  C20 UNL     1      -3.200  52.001 -26.320  1.00  0.00     0.210 C 
ENDBRANCH  13  24
BRANCH   1  26
HETATM   26  O2  UNL     1       0.337  53.634 -26.260  1.00  0.00    -0.346 OA
BRANCH  26  27
HETATM   27  C3  UNL     1       0.176  52.797 -27.403  1.00  0.00     0.201 C 
BRANCH  27  28
HETATM   28  C2  UNL     1       1.525  52.274 -27.898  1.00  0.00     0.193 C 
BRANCH  28  29
HETATM   29  O1  UNL     1       2.504  52.242 -26.858  1.00  0.00    -0.394 OA
HETATM   30  C1  UNL     1       2.597  50.975 -26.221  1.00  0.00     0.201 C 
ENDBRANCH  28  29
ENDBRANCH  27  28
ENDBRANCH  26  27
ENDBRANCH   1  26
TORSDOF 7
ENDMDL
MODEL 3
REMARK minimizedAffinity -7.54577017
REMARK  7 active torsions:
REMARK  status: ('A' for Active; 'I' for Inactive)
REMARK    1  A    between atoms: O1_2  and  C2_3 
REMARK    2  A    between atoms: C2_3  and  C3_4 
REMARK    3  A    between atoms: C3_4  and  O2_5 
REMARK    4  A    between atoms: O2_5  and  C4_6 
REMARK    5  A    between atoms: C10_15  and  N3_16 
REMARK    6  A    between atoms: N3_16  and  C11_17 
REMARK    7  A    between atoms: C19_27  and  O3_28 
ROOT
HETATM    1  C4  UNL     1      -2.585  52.190 -24.980  1.00  0.00     0.104 A 
HETATM    2  C5  UNL     1      -3.706  52.127 -24.148  1.00  0.00     0.070 A 
HETATM    3  C6  UNL     1      -3.641  51.599 -22.865  1.00  0.00     0.047 A 
HETATM    4  N1  UNL     1      -4.763  51.582 -22.132  1.00  0.00    -0.364 N 
ATOM      5  H1  UNL     1      -5.641  51.934 -22.512  1.00  0.00     0.165 HD
HETATM    6  C7  UNL     1      -4.702  51.085 -20.877  1.00  0.00     0.113 A 
HETATM    7  C8  UNL     1      -3.550  50.591 -20.291  1.00  0.00     0.087 A 
HETATM    8  C9  UNL     1      -3.612  50.163 -18.929  1.00  0.00     0.103 C 
HETATM    9  N2  UNL     1      -3.673  49.839 -17.817  1.00  0.00    -0.191 NA
HETATM   10  C10 UNL     1      -2.377  50.572 -21.061  1.00  0.00     0.067 A 
HETATM   11  C17 UNL     1      -2.411  51.111 -22.380  1.00  0.00     0.022 A 
HETATM   12  C18 UNL     1      -1.279  51.160 -23.227  1.00  0.00     0.055 A 
HETATM   13  C19 UNL     1      -1.358  51.687 -24.518  1.00  0.00     0.102 A 
ENDROOT
BRANCH  10  14
HETATM   14  N3  UNL     1      -1.112  50.168 -20.526  1.00  0.00    -0.353 N 
HETATM   15  H10 UNL     1      -0.472  50.000 -21.302  1.00  0.00     0.166 HD
BRANCH  14  16
HETATM   16  C11 UNL     1      -0.437  50.727 -19.409  1.00  0.00     0.054 A 
HETATM   17  C12 UNL     1      -0.321  49.938 -18.250  1.00  0.00     0.033 A 
HETATM   18  C13 UNL     1       0.326  50.419 -17.107  1.00  0.00     0.026 A 
HETATM   19  C14 UNL     1       0.852  51.706 -17.102  1.00  0.00     0.035 A 
HETATM   20 CL1  UNL     1       1.643  52.299 -15.694  1.00  0.00    -0.084 Cl
HETATM   21  C15 UNL     1       0.727  52.522 -18.221  1.00  0.00     0.050 A 
HETATM   22  C16 UNL     1       0.079  52.042 -19.365  1.00  0.00     0.062 A 
HETATM   23 CL2  UNL     1      -0.096  53.158 -20.677  1.00  0.00    -0.082 Cl
ENDBRANCH  14  16
ENDBRANCH  10  14
BRANCH  13  24
HETATM   24  O3  UNL     1      -0.302  51.767 -25.390  1.00  0.00    -0.353 OA
HETATM   25  C20 UNL     1       0.834  52.517 -24.983  1.00  0.00     0.210 C 
ENDBRANCH  13  24
BRANCH   1  26
HETATM   26  O2  UNL     1      -2.582  52.693 -26.256  1.00  0.00    -0.346 OA
BRANCH  26  27
HETATM   27  C3  UNL     1      -2.557  51.796 -27.364  1.00  0.00     0.201 C 
BRANCH  27  28
HETATM   28  C2  UNL     1      -3.265  50.484 -27.027  1.00  0.00     0.193 C 
BRANCH  28  29
HETATM   29  O1  UNL     1      -3.523  49.698 -28.191  1.00  0.00    -0.394 OA
HETATM   30  C1  UNL     1      -4.318  48.550 -27.922  1.00  0.00     0.201 C 
ENDBRANCH  28  29
ENDBRANCH  27  28
ENDBRANCH  26  27
ENDBRANCH   1  26
TORSDOF 7
ENDMDL
MODEL 4
REMARK minimizedAffinity -7.54391098
REMARK  7 active torsions:
REMARK  status: ('A' for Active; 'I' for Inactive)
REMARK    1  A    between atoms: O1_2  and  C2_3 
REMARK    2  A    between atoms: C2_3  and  C3_4 
REMARK    3  A    between atoms: C3_4  and  O2_5 
REMARK    4  A    between atoms: O2_5  and  C4_6 
REMARK    5  A    between atoms: C10_15  and  N3_16 
REMARK    6  A    between atoms: N3_16  and  C11_17 
REMARK    7  A    between atoms: C19_27  and  O3_28 
ROOT
HETATM    1  C4  UNL     1       0.216  51.514 -17.499  1.00  0.00     0.104 A 
HETATM    2  C5  UNL     1       0.793  52.625 -18.120  1.00  0.00     0.070 A 
HETATM    3  C6  UNL     1       0.779  52.787 -19.499  1.00  0.00     0.047 A 
HETATM    4  N1  UNL     1       1.351  53.887 -20.011  1.00  0.00    -0.364 N 
ATOM      5  H1  UNL     1       1.794  54.576 -19.405  1.00  0.00     0.165 HD
HETATM    6  C7  UNL     1       1.326  54.058 -21.351  1.00  0.00     0.113 A 
HETATM    7  C8  UNL     1       0.743  53.170 -22.238  1.00  0.00     0.087 A 
HETATM    8  C9  UNL     1       0.724  53.511 -23.626  1.00  0.00     0.103 C 
HETATM    9  N2  UNL     1       0.698  53.812 -24.746  1.00  0.00    -0.191 NA
HETATM   10  C10 UNL     1       0.173  51.999 -21.716  1.00  0.00     0.067 A 
HETATM   11  C17 UNL     1       0.166  51.806 -20.304  1.00  0.00     0.022 A 
HETATM   12  C18 UNL     1      -0.403  50.673 -19.678  1.00  0.00     0.055 A 
HETATM   13  C19 UNL     1      -0.377  50.518 -18.290  1.00  0.00     0.102 A 
ENDROOT
BRANCH  10  14
HETATM   14  N3  UNL     1      -0.535  51.058 -22.531  1.00  0.00    -0.353 N 
HETATM   15  H10 UNL     1      -0.041  50.166 -22.498  1.00  0.00     0.166 HD
BRANCH  14  16
HETATM   16  C11 UNL     1      -1.942  50.870 -22.598  1.00  0.00     0.054 A 
HETATM   17  C12 UNL     1      -2.744  52.000 -22.840  1.00  0.00     0.033 A 
HETATM   18  C13 UNL     1      -4.136  51.898 -22.916  1.00  0.00     0.026 A 
HETATM   19  C14 UNL     1      -4.749  50.664 -22.733  1.00  0.00     0.035 A 
HETATM   20 CL1  UNL     1      -6.462  50.540 -22.821  1.00  0.00    -0.084 Cl
HETATM   21  C15 UNL     1      -3.986  49.533 -22.462  1.00  0.00     0.050 A 
HETATM   22  C16 UNL     1      -2.592  49.634 -22.386  1.00  0.00     0.062 A 
HETATM   23 CL2  UNL     1      -1.737  48.188 -21.965  1.00  0.00    -0.082 Cl
ENDBRANCH  14  16
ENDBRANCH  10  14
BRANCH  13  24
HETATM   24  O3  UNL     1      -0.911  49.447 -17.619  1.00  0.00    -0.353 OA
HETATM   25  C20 UNL     1      -1.682  48.517 -18.367  1.00  0.00     0.210 C 
ENDBRANCH  13  24
BRANCH   1  26
HETATM   26  O2  UNL     1       0.200  51.291 -16.146  1.00  0.00    -0.346 OA
BRANCH  26  27
HETATM   27  C3  UNL     1       1.028  52.080 -15.295  1.00  0.00     0.201 C 
BRANCH  27  28
HETATM   28  C2  UNL     1       2.317  51.338 -14.938  1.00  0.00     0.193 C 
BRANCH  28  29
HETATM   29  O1  UNL     1       3.435  52.221 -14.836  1.00  0.00    -0.394 OA
HETATM   30  C1  UNL     1       4.110  52.408 -16.073  1.00  0.00     0.201 C 
ENDBRANCH  28  29
ENDBRANCH  27  28
ENDBRANCH  26  27
ENDBRANCH   1  26
TORSDOF 7
ENDMDL
MODEL 5
REMARK minimizedAffinity -7.48999929
REMARK  7 active torsions:
REMARK  status: ('A' for Active; 'I' for Inactive)
REMARK    1  A    between atoms: O1_2  and  C2_3 
REMARK    2  A    between atoms: C2_3  and  C3_4 
REMARK    3  A    between atoms: C3_4  and  O2_5 
REMARK    4  A    between atoms: O2_5  and  C4_6 
REMARK    5  A    between atoms: C10_15  and  N3_16 
REMARK    6  A    between atoms: N3_16  and  C11_17 
REMARK    7  A    between atoms: C19_27  and  O3_28 
ROOT
HETATM    1  C4  UNL     1       0.725  53.166 -24.870  1.00  0.00     0.104 A 
HETATM    2  C5  UNL     1       1.030  53.950 -23.753  1.00  0.00     0.070 A 
HETATM    3  C6  UNL     1       0.829  53.495 -22.458  1.00  0.00     0.047 A 
HETATM    4  N1  UNL     1       1.154  54.311 -21.444  1.00  0.00    -0.364 N 
ATOM      5  H1  UNL     1       1.526  55.243 -21.623  1.00  0.00     0.165 HD
HETATM    6  C7  UNL     1       0.976  53.867 -20.181  1.00  0.00     0.113 A 
HETATM    7  C8  UNL     1       0.478  52.617 -19.858  1.00  0.00     0.087 A 
HETATM    8  C9  UNL     1       0.410  52.248 -18.479  1.00  0.00     0.103 C 
HETATM    9  N2  UNL     1       0.380  51.957 -17.356  1.00  0.00    -0.191 NA
HETATM   10  C10 UNL     1       0.101  51.768 -20.910  1.00  0.00     0.067 A 
HETATM   11  C17 UNL     1       0.301  52.204 -22.252  1.00  0.00     0.022 A 
HETATM   12  C18 UNL     1      -0.023  51.416 -23.381  1.00  0.00     0.055 A 
HETATM   13  C19 UNL     1       0.177  51.887 -24.680  1.00  0.00     0.102 A 
ENDROOT
BRANCH  10  14
HETATM   14  N3  UNL     1      -0.339  50.423 -20.694  1.00  0.00    -0.353 N 
HETATM   15  H10 UNL     1      -0.023  50.124 -19.771  1.00  0.00     0.166 HD
BRANCH  14  16
HETATM   16  C11 UNL     1      -1.613  49.877 -21.008  1.00  0.00     0.054 A 
HETATM   17  C12 UNL     1      -1.676  48.894 -22.012  1.00  0.00     0.033 A 
HETATM   18  C13 UNL     1      -2.893  48.312 -22.380  1.00  0.00     0.026 A 
HETATM   19  C14 UNL     1      -4.069  48.719 -21.761  1.00  0.00     0.035 A 
HETATM   20 CL1  UNL     1      -5.566  48.007 -22.218  1.00  0.00    -0.084 Cl
HETATM   21  C15 UNL     1      -4.044  49.711 -20.786  1.00  0.00     0.050 A 
HETATM   22  C16 UNL     1      -2.826  50.294 -20.416  1.00  0.00     0.062 A 
HETATM   23 CL2  UNL     1      -2.907  51.575 -19.253  1.00  0.00    -0.082 Cl
ENDBRANCH  14  16
ENDBRANCH  10  14
BRANCH  13  24
HETATM   24  O3  UNL     1      -0.113  51.176 -25.817  1.00  0.00    -0.353 OA
HETATM   25  C20 UNL     1       0.974  50.611 -26.537  1.00  0.00     0.210 C 
ENDBRANCH  13  24
BRANCH   1  26
HETATM   26  O2  UNL     1       0.895  53.556 -26.173  1.00  0.00    -0.346 OA
BRANCH  26  27
HETATM   27  C3  UNL     1      -0.027  54.474 -26.757  1.00  0.00     0.201 C 
BRANCH  27  28
HETATM   28  C2  UNL     1      -0.708  53.867 -27.984  1.00  0.00     0.193 C 
BRANCH  28  29
HETATM   29  O1  UNL     1      -2.109  53.677 -27.782  1.00  0.00    -0.394 OA
HETATM   30  C1  UNL     1      -2.446  52.337 -27.447  1.00  0.00     0.201 C 
ENDBRANCH  28  29
ENDBRANCH  27  28
ENDBRANCH  26  27
ENDBRANCH   1  26
TORSDOF 7
ENDMDL
MODEL 6
REMARK minimizedAffinity -7.43331242
REMARK  7 active torsions:
REMARK  status: ('A' for Active; 'I' for Inactive)
REMARK    1  A    between atoms: O1_2  and  C2_3 
REMARK    2  A    between atoms: C2_3  and  C3_4 
REMARK    3  A    between atoms: C3_4  and  O2_5 
REMARK    4  A    between atoms: O2_5  and  C4_6 
REMARK    5  A    between atoms: C10_15  and  N3_16 
REMARK    6  A    between atoms: N3_16  and  C11_17 
REMARK    7  A    between atoms: C19_27  and  O3_28 
ROOT
HETATM    1  C4  UNL     1      -0.421  51.239 -19.135  1.00  0.00     0.104 A 
HETATM    2  C5  UNL     1      -0.957  49.994 -19.474  1.00  0.00     0.070 A 
HETATM    3  C6  UNL     1      -1.495  49.742 -20.728  1.00  0.00     0.047 A 
HETATM    4  N1  UNL     1      -1.984  48.517 -20.971  1.00  0.00    -0.364 N 
ATOM      5  H1  UNL     1      -1.972  47.797 -20.249  1.00  0.00     0.165 HD
HETATM    6  C7  UNL     1      -2.493  48.260 -22.196  1.00  0.00     0.113 A 
HETATM    7  C8  UNL     1      -2.542  49.182 -23.226  1.00  0.00     0.087 A 
HETATM    8  C9  UNL     1      -3.041  48.755 -24.496  1.00  0.00     0.103 C 
HETATM    9  N2  UNL     1      -3.429  48.387 -25.526  1.00  0.00    -0.191 NA
HETATM   10  C10 UNL     1      -2.065  50.477 -22.973  1.00  0.00     0.067 A 
HETATM   11  C17 UNL     1      -1.503  50.766 -21.696  1.00  0.00     0.022 A 
HETATM   12  C18 UNL     1      -0.975  52.031 -21.349  1.00  0.00     0.055 A 
HETATM   13  C19 UNL     1      -0.443  52.276 -20.081  1.00  0.00     0.102 A 
ENDROOT
BRANCH  10  14
HETATM   14  N3  UNL     1      -1.985  51.481 -23.991  1.00  0.00    -0.353 N 
HETATM   15  H10 UNL     1      -2.123  52.393 -23.557  1.00  0.00     0.166 HD
BRANCH  14  16
HETATM   16  C11 UNL     1      -1.046  51.548 -25.055  1.00  0.00     0.054 A 
HETATM   17  C12 UNL     1       0.317  51.643 -24.722  1.00  0.00     0.033 A 
HETATM   18  C13 UNL     1       1.302  51.716 -25.712  1.00  0.00     0.026 A 
HETATM   19  C14 UNL     1       0.934  51.715 -27.053  1.00  0.00     0.035 A 
HETATM   20 CL1  UNL     1       2.146  51.811 -28.270  1.00  0.00    -0.084 Cl
HETATM   21  C15 UNL     1      -0.407  51.653 -27.415  1.00  0.00     0.050 A 
HETATM   22  C16 UNL     1      -1.394  51.579 -26.425  1.00  0.00     0.062 A 
HETATM   23 CL2  UNL     1      -3.036  51.586 -26.972  1.00  0.00    -0.082 Cl
ENDBRANCH  14  16
ENDBRANCH  10  14
BRANCH  13  24
HETATM   24  O3  UNL     1       0.086  53.476 -19.679  1.00  0.00    -0.353 OA
HETATM   25  C20 UNL     1       0.763  54.258 -20.654  1.00  0.00     0.210 C 
ENDBRANCH  13  24
BRANCH   1  26
HETATM   26  O2  UNL     1       0.120  51.555 -17.914  1.00  0.00    -0.346 OA
BRANCH  26  27
HETATM   27  C3  UNL     1       1.284  52.376 -17.854  1.00  0.00     0.201 C 
BRANCH  27  28
HETATM   28  C2  UNL     1       1.790  52.512 -16.418  1.00  0.00     0.193 C 
BRANCH  28  29
HETATM   29  O1  UNL     1       3.153  52.935 -16.365  1.00  0.00    -0.394 OA
HETATM   30  C1  UNL     1       3.965  52.094 -15.557  1.00  0.00     0.201 C 
ENDBRANCH  28  29
ENDBRANCH  27  28
ENDBRANCH  26  27
ENDBRANCH   1  26
TORSDOF 7
ENDMDL
MODEL 7
REMARK minimizedAffinity -7.40325832
REMARK  7 active torsions:
REMARK  status: ('A' for Active; 'I' for Inactive)
REMARK    1  A    between atoms: O1_2  and  C2_3 
REMARK    2  A    between atoms: C2_3  and  C3_4 
REMARK    3  A    between atoms: C3_4  and  O2_5 
REMARK    4  A    between atoms: O2_5  and  C4_6 
REMARK    5  A    between atoms: C10_15  and  N3_16 
REMARK    6  A    between atoms: N3_16  and  C11_17 
REMARK    7  A    between atoms: C19_27  and  O3_28 
ROOT
HETATM    1  C4  UNL     1      -1.310  50.660 -19.998  1.00  0.00     0.104 A 
HETATM    2  C5  UNL     1      -0.182  51.346 -20.457  1.00  0.00     0.070 A 
HETATM    3  C6  UNL     1      -0.147  51.955 -21.703  1.00  0.00     0.047 A 
HETATM    4  N1  UNL     1       0.974  52.597 -22.062  1.00  0.00    -0.364 N 
ATOM      5  H1  UNL     1       1.782  52.624 -21.440  1.00  0.00     0.165 HD
HETATM    6  C7  UNL     1       1.008  53.207 -23.267  1.00  0.00     0.113 A 
HETATM    7  C8  UNL     1      -0.046  53.216 -24.163  1.00  0.00     0.087 A 
HETATM    8  C9  UNL     1       0.099  53.963 -25.373  1.00  0.00     0.103 C 
HETATM    9  N2  UNL     1       0.225  54.590 -26.341  1.00  0.00    -0.191 NA
HETATM   10  C10 UNL     1      -1.212  52.518 -23.814  1.00  0.00     0.067 A 
HETATM   11  C17 UNL     1      -1.280  51.887 -22.539  1.00  0.00     0.022 A 
HETATM   12  C18 UNL     1      -2.417  51.179 -22.083  1.00  0.00     0.055 A 
HETATM   13  C19 UNL     1      -2.438  50.563 -20.829  1.00  0.00     0.102 A 
ENDROOT
BRANCH  10  14
HETATM   14  N3  UNL     1      -2.393  52.538 -24.624  1.00  0.00    -0.353 N 
HETATM   15  H10 UNL     1      -2.487  53.466 -25.035  1.00  0.00     0.166 HD
BRANCH  14  16
HETATM   16  C11 UNL     1      -2.833  51.527 -25.520  1.00  0.00     0.054 A 
HETATM   17  C12 UNL     1      -3.351  50.341 -24.967  1.00  0.00     0.033 A 
HETATM   18  C13 UNL     1      -3.802  49.298 -25.783  1.00  0.00     0.026 A 
HETATM   19  C14 UNL     1      -3.724  49.420 -27.165  1.00  0.00     0.035 A 
HETATM   20 CL1  UNL     1      -4.274  48.134 -28.167  1.00  0.00    -0.084 Cl
HETATM   21  C15 UNL     1      -3.189  50.566 -27.742  1.00  0.00     0.050 A 
HETATM   22  C16 UNL     1      -2.738  51.611 -26.927  1.00  0.00     0.062 A 
HETATM   23 CL2  UNL     1      -2.016  52.962 -27.735  1.00  0.00    -0.082 Cl
ENDBRANCH  14  16
ENDBRANCH  10  14
BRANCH  13  24
HETATM   24  O3  UNL     1      -3.505  49.864 -20.325  1.00  0.00    -0.353 OA
HETATM   25  C20 UNL     1      -4.770  50.511 -20.313  1.00  0.00     0.210 C 
ENDBRANCH  13  24
BRANCH   1  26
HETATM   26  O2  UNL     1      -1.408  50.033 -18.783  1.00  0.00    -0.346 OA
BRANCH  26  27
HETATM   27  C3  UNL     1      -1.036  50.736 -17.599  1.00  0.00     0.201 C 
BRANCH  27  28
HETATM   28  C2  UNL     1       0.139  50.053 -16.899  1.00  0.00     0.193 C 
BRANCH  28  29
HETATM   29  O1  UNL     1       1.151  50.985 -16.513  1.00  0.00    -0.394 OA
HETATM   30  C1  UNL     1       0.989  52.262 -17.117  1.00  0.00     0.201 C 
ENDBRANCH  28  29
ENDBRANCH  27  28
ENDBRANCH  26  27
ENDBRANCH   1  26
TORSDOF 7
ENDMDL
MODEL 8
REMARK minimizedAffinity -7.36135244
REMARK  7 active torsions:
REMARK  status: ('A' for Active; 'I' for Inactive)
REMARK    1  A    between atoms: O1_2  and  C2_3 
REMARK    2  A    between atoms: C2_3  and  C3_4 
REMARK    3  A    between atoms: C3_4  and  O2_5 
REMARK    4  A    between atoms: O2_5  and  C4_6 
REMARK    5  A    between atoms: C10_15  and  N3_16 
REMARK    6  A    between atoms: N3_16  and  C11_17 
REMARK    7  A    between atoms: C19_27  and  O3_28 
ROOT
HETATM    1  C4  UNL     1      -4.523  50.894 -23.976  1.00  0.00     0.104 A 
HETATM    2  C5  UNL     1      -3.856  50.485 -25.134  1.00  0.00     0.070 A 
HETATM    3  C6  UNL     1      -2.526  50.807 -25.369  1.00  0.00     0.047 A 
HETATM    4  N1  UNL     1      -1.961  50.369 -26.504  1.00  0.00    -0.364 N 
ATOM      5  H1  UNL     1      -2.499  49.826 -27.179  1.00  0.00     0.165 HD
HETATM    6  C7  UNL     1      -0.663  50.665 -26.730  1.00  0.00     0.113 A 
HETATM    7  C8  UNL     1       0.131  51.394 -25.862  1.00  0.00     0.087 A 
HETATM    8  C9  UNL     1       1.511  51.572 -26.192  1.00  0.00     0.103 C 
HETATM    9  N2  UNL     1       2.633  51.690 -26.464  1.00  0.00    -0.191 NA
HETATM   10  C10 UNL     1      -0.458  51.887 -24.688  1.00  0.00     0.067 A 
HETATM   11  C17 UNL     1      -1.820  51.569 -24.416  1.00  0.00     0.022 A 
HETATM   12  C18 UNL     1      -2.499  51.997 -23.252  1.00  0.00     0.055 A 
HETATM   13  C19 UNL     1      -3.839  51.672 -23.029  1.00  0.00     0.102 A 
ENDROOT
BRANCH  10  14
HETATM   14  N3  UNL     1       0.292  52.574 -23.680  1.00  0.00    -0.353 N 
HETATM   15  H10 UNL     1       0.222  53.576 -23.851  1.00  0.00     0.166 HD
BRANCH  14  16
HETATM   16  C11 UNL     1       0.320  52.286 -22.289  1.00  0.00     0.054 A 
HETATM   17  C12 UNL     1      -0.261  51.079 -21.857  1.00  0.00     0.033 A 
HETATM   18  C13 UNL     1      -0.276  50.726 -20.504  1.00  0.00     0.026 A 
HETATM   19  C14 UNL     1       0.275  51.586 -19.560  1.00  0.00     0.035 A 
HETATM   20 CL1  UNL     1       0.251  51.153 -17.895  1.00  0.00    -0.084 Cl
HETATM   21  C15 UNL     1       0.830  52.799 -19.952  1.00  0.00     0.050 A 
HETATM   22  C16 UNL     1       0.845  53.154 -21.306  1.00  0.00     0.062 A 
HETATM   23 CL2  UNL     1       1.484  54.718 -21.685  1.00  0.00    -0.082 Cl
ENDBRANCH  14  16
ENDBRANCH  10  14
BRANCH  13  24
HETATM   24  O3  UNL     1      -4.557  52.052 -21.923  1.00  0.00    -0.353 OA
HETATM   25  C20 UNL     1      -4.232  51.439 -20.684  1.00  0.00     0.210 C 
ENDBRANCH  13  24
BRANCH   1  26
HETATM   26  O2  UNL     1      -5.834  50.614 -23.685  1.00  0.00    -0.346 OA
BRANCH  26  27
HETATM   27  C3  UNL     1      -6.242  49.258 -23.518  1.00  0.00     0.201 C 
BRANCH  27  28
HETATM   28  C2  UNL     1      -7.703  49.171 -23.078  1.00  0.00     0.193 C 
BRANCH  28  29
HETATM   29  O1  UNL     1      -7.932  48.079 -22.187  1.00  0.00    -0.394 OA
HETATM   30  C1  UNL     1      -8.266  48.497 -20.869  1.00  0.00     0.201 C 
ENDBRANCH  28  29
ENDBRANCH  27  28
ENDBRANCH  26  27
ENDBRANCH   1  26
TORSDOF 7
ENDMDL
MODEL 9
REMARK minimizedAffinity -7.32750893
REMARK  7 active torsions:
REMARK  status: ('A' for Active; 'I' for Inactive)
REMARK    1  A    between atoms: O1_2  and  C2_3 
REMARK    2  A    between atoms: C2_3  and  C3_4 
REMARK    3  A    between atoms: C3_4  and  O2_5 
REMARK    4  A    between atoms: O2_5  and  C4_6 
REMARK    5  A    between atoms: C10_15  and  N3_16 
REMARK    6  A    between atoms: N3_16  and  C11_17 
REMARK    7  A    between atoms: C19_27  and  O3_28 
ROOT
HETATM    1  C4  UNL     1      -0.895  52.569 -25.071  1.00  0.00     0.104 A 
HETATM    2  C5  UNL     1       0.193  52.953 -24.282  1.00  0.00     0.070 A 
HETATM    3  C6  UNL     1       0.192  52.798 -22.902  1.00  0.00     0.047 A 
HETATM    4  N1  UNL     1       1.281  53.188 -22.222  1.00  0.00    -0.364 N 
ATOM      5  H1  UNL     1       2.079  53.599 -22.706  1.00  0.00     0.165 HD
HETATM    6  C7  UNL     1       1.292  53.025 -20.882  1.00  0.00     0.113 A 
HETATM    7  C8  UNL     1       0.250  52.475 -20.156  1.00  0.00     0.087 A 
HETATM    8  C9  UNL     1       0.425  52.293 -18.749  1.00  0.00     0.103 C 
HETATM    9  N2  UNL     1       0.590  52.133 -17.612  1.00  0.00    -0.191 NA
HETATM   10  C10 UNL     1      -0.907  52.096 -20.852  1.00  0.00     0.067 A 
HETATM   11  C17 UNL     1      -0.935  52.237 -22.270  1.00  0.00     0.022 A 
HETATM   12  C18 UNL     1      -2.043  51.863 -23.066  1.00  0.00     0.055 A 
HETATM   13  C19 UNL     1      -2.034  52.030 -24.452  1.00  0.00     0.102 A 
ENDROOT
BRANCH  10  14
HETATM   14  N3  UNL     1      -2.007  51.435 -20.216  1.00  0.00    -0.353 N 
HETATM   15  H10 UNL     1      -2.811  52.063 -20.225  1.00  0.00     0.166 HD
BRANCH  14  16
HETATM   16  C11 UNL     1      -2.404  50.081 -20.380  1.00  0.00     0.054 A 
HETATM   17  C12 UNL     1      -1.395  49.101 -20.413  1.00  0.00     0.033 A 
HETATM   18  C13 UNL     1      -1.705  47.747 -20.575  1.00  0.00     0.026 A 
HETATM   19  C14 UNL     1      -3.031  47.356 -20.726  1.00  0.00     0.035 A 
HETATM   20 CL1  UNL     1      -3.411  45.691 -20.931  1.00  0.00    -0.084 Cl
HETATM   21  C15 UNL     1      -4.049  48.303 -20.728  1.00  0.00     0.050 A 
HETATM   22  C16 UNL     1      -3.739  49.659 -20.566  1.00  0.00     0.062 A 
HETATM   23 CL2  UNL     1      -5.065  50.768 -20.663  1.00  0.00    -0.082 Cl
ENDBRANCH  14  16
ENDBRANCH  10  14
BRANCH  13  24
HETATM   24  O3  UNL     1      -3.071  51.687 -25.283  1.00  0.00    -0.353 OA
HETATM   25  C20 UNL     1      -2.957  52.031 -26.656  1.00  0.00     0.210 C 
ENDBRANCH  13  24
BRANCH   1  26
HETATM   26  O2  UNL     1      -0.960  52.698 -26.435  1.00  0.00    -0.346 OA
BRANCH  26  27
HETATM   27  C3  UNL     1       0.205  53.088 -27.159  1.00  0.00     0.201 C 
BRANCH  27  28
HETATM   28  C2  UNL     1       0.724  51.941 -28.026  1.00  0.00     0.193 C 
BRANCH  28  29
HETATM   29  O1  UNL     1       2.141  51.790 -27.926  1.00  0.00    -0.394 OA
HETATM   30  C1  UNL     1       2.569  51.417 -26.623  1.00  0.00     0.201 C 
ENDBRANCH  28  29
ENDBRANCH  27  28
ENDBRANCH  26  27
ENDBRANCH   1  26
TORSDOF 7
ENDMDL
