MODEL 1
REMARK minimizedAffinity -5.5960927
REMARK CNNscore 0.498717546
REMARK CNNaffinity 4.91583109
REMARK  1 active torsions:
REMARK  status: ('A' for Active; 'I' for Inactive)
REMARK    1  A    between atoms: O1_2  and  C2_3 
ROOT
HETATM    1  C2  UNL     1     -15.770  49.165  -9.999  1.00  0.00     0.103 A 
HETATM    2  C3  UNL     1     -15.367  48.195 -10.929  1.00  0.00     0.070 A 
HETATM    3  C4  UNL     1     -14.344  47.282 -10.660  1.00  0.00     0.049 A 
HETATM    4  N1  UNL     1     -14.015  46.362 -11.575  1.00  0.00    -0.351 N 
ATOM      5  H1  UNL     1     -14.488  46.313 -12.478  1.00  0.00     0.166 HD
HETATM    6  C5  UNL     1     -13.032  45.507 -11.251  1.00  0.00     0.182 A 
HETATM    7  N2  UNL     1     -12.313  45.508 -10.121  1.00  0.00    -0.342 N 
ATOM      8  H2  UNL     1     -11.572  44.828  -9.948  1.00  0.00     0.167 HD
HETATM    9  C6  UNL     1     -12.631  46.462  -9.232  1.00  0.00     0.098 A 
HETATM   10  C7  UNL     1     -13.692  47.356  -9.429  1.00  0.00     0.032 A 
HETATM   11  C8  UNL     1     -14.129  48.283  -8.470  1.00  0.00     0.056 A 
HETATM   12  C9  UNL     1     -15.129  49.198  -8.760  1.00  0.00     0.103 A 
HETATM   13  O2  UNL     1     -15.487  50.043  -7.744  1.00  0.00    -0.348 OA
HETATM   14  C10 UNL     1     -14.982  51.368  -7.953  1.00  0.00     0.176 C 
HETATM   15  C11 UNL     1     -14.857  52.065  -6.594  1.00  0.00     0.027 C 
HETATM   16  C12 UNL     1     -13.516  51.863  -5.869  1.00  0.00     0.004 C 
HETATM   17  C13 UNL     1     -13.108  50.402  -5.664  1.00  0.00     0.019 C 
HETATM   18  C14 UNL     1     -11.890  50.266  -4.738  1.00  0.00     0.117 C 
HETATM   19  N3  UNL     1     -11.499  48.887  -4.427  1.00  0.00    -0.413 N 
HETATM   20  C15 UNL     1     -10.461  48.801  -3.412  1.00  0.00     0.143 C 
HETATM   21  C16 UNL     1     -11.349  47.922  -5.529  1.00  0.00     0.156 C 
HETATM   22  C17 UNL     1     -10.532  48.273  -6.766  1.00  0.00    -0.019 A 
HETATM   23  C18 UNL     1      -9.463  49.187  -6.718  1.00  0.00     0.012 A 
HETATM   24  C19 UNL     1      -8.722  49.514  -7.857  1.00  0.00     0.020 A 
HETATM   25  C20 UNL     1      -9.021  48.908  -9.068  1.00  0.00     0.012 A 
HETATM   26 BR1  UNL     1      -8.017  49.339 -10.609  1.00  0.00    -0.051 Br
HETATM   27  C21 UNL     1     -10.043  47.968  -9.146  1.00  0.00     0.043 A 
HETATM   28  C22 UNL     1     -10.807  47.641  -8.006  1.00  0.00     0.023 A 
HETATM   29  N4  UNL     1     -11.775  46.577  -8.095  1.00  0.00    -0.244 NA
HETATM   30  H25 UNL     1     -11.210  45.726  -8.188  1.00  0.00     0.135 HD
ENDROOT
BRANCH   1  31
HETATM   31  O1  UNL     1     -16.763  50.085 -10.197  1.00  0.00    -0.353 OA
HETATM   32  C1  UNL     1     -18.105  49.626 -10.113  1.00  0.00     0.210 C 
ENDBRANCH   1  31
TORSDOF 1
ENDMDL
MODEL 2
REMARK minimizedAffinity -5.58432198
REMARK CNNscore 0.34904775
REMARK CNNaffinity 5.08723831
REMARK  1 active torsions:
REMARK  status: ('A' for Active; 'I' for Inactive)
REMARK    1  A    between atoms: O1_2  and  C2_3 
ROOT
HETATM    1  C2  UNL     1       4.275  58.524  -5.002  1.00  0.00     0.103 A 
HETATM    2  C3  UNL     1       5.584  58.327  -4.536  1.00  0.00     0.070 A 
HETATM    3  C4  UNL     1       6.484  57.472  -5.176  1.00  0.00     0.049 A 
HETATM    4  N1  UNL     1       7.729  57.338  -4.703  1.00  0.00    -0.351 N 
ATOM      5  H1  UNL     1       8.041  57.841  -3.872  1.00  0.00     0.166 HD
HETATM    6  C5  UNL     1       8.548  56.510  -5.371  1.00  0.00     0.182 A 
HETATM    7  N2  UNL     1       8.234  55.766  -6.439  1.00  0.00    -0.342 N 
ATOM      8  H2  UNL     1       8.910  55.151  -6.890  1.00  0.00     0.167 HD
HETATM    9  C6  UNL     1       6.970  55.884  -6.876  1.00  0.00     0.098 A 
HETATM   10  C7  UNL     1       6.052  56.778  -6.307  1.00  0.00     0.032 A 
HETATM   11  C8  UNL     1       4.766  57.015  -6.816  1.00  0.00     0.056 A 
HETATM   12  C9  UNL     1       3.876  57.848  -6.155  1.00  0.00     0.103 A 
HETATM   13  O2  UNL     1       2.655  58.021  -6.750  1.00  0.00    -0.348 OA
HETATM   14  C10 UNL     1       1.625  57.298  -6.064  1.00  0.00     0.176 C 
HETATM   15  C11 UNL     1       0.489  57.009  -7.051  1.00  0.00     0.027 C 
HETATM   16  C12 UNL     1       0.623  55.702  -7.850  1.00  0.00     0.004 C 
HETATM   17  C13 UNL     1       1.937  55.550  -8.620  1.00  0.00     0.019 C 
HETATM   18  C14 UNL     1       1.913  54.345  -9.572  1.00  0.00     0.117 C 
HETATM   19  N3  UNL     1       3.108  54.192 -10.408  1.00  0.00    -0.413 N 
HETATM   20  C15 UNL     1       2.973  53.152 -11.417  1.00  0.00     0.143 C 
HETATM   21  C16 UNL     1       4.435  54.249  -9.772  1.00  0.00     0.156 C 
HETATM   22  C17 UNL     1       4.738  53.423  -8.529  1.00  0.00    -0.019 A 
HETATM   23  C18 UNL     1       4.078  52.209  -8.261  1.00  0.00     0.012 A 
HETATM   24  C19 UNL     1       4.353  51.459  -7.114  1.00  0.00     0.020 A 
HETATM   25  C20 UNL     1       5.319  51.898  -6.221  1.00  0.00     0.012 A 
HETATM   26 BR1  UNL     1       5.701  50.884  -4.674  1.00  0.00    -0.051 Br
HETATM   27  C21 UNL     1       6.022  53.071  -6.474  1.00  0.00     0.043 A 
HETATM   28  C22 UNL     1       5.744  53.843  -7.621  1.00  0.00     0.023 A 
HETATM   29  N4  UNL     1       6.573  54.985  -7.913  1.00  0.00    -0.244 NA
HETATM   30  H25 UNL     1       7.478  54.581  -8.178  1.00  0.00     0.135 HD
ENDROOT
BRANCH   1  31
HETATM   31  O1  UNL     1       3.347  59.347  -4.424  1.00  0.00    -0.353 OA
HETATM   32  C1  UNL     1       3.822  60.332  -3.517  1.00  0.00     0.210 C 
ENDBRANCH   1  31
TORSDOF 1
ENDMDL
MODEL 3
REMARK minimizedAffinity -5.98290014
REMARK CNNscore 0.265368283
REMARK CNNaffinity 4.81010962
REMARK  1 active torsions:
REMARK  status: ('A' for Active; 'I' for Inactive)
REMARK    1  A    between atoms: O1_2  and  C2_3 
ROOT
HETATM    1  C2  UNL     1      -0.455  56.621  -4.219  1.00  0.00     0.103 A 
HETATM    2  C3  UNL     1       0.252  57.442  -3.327  1.00  0.00     0.070 A 
HETATM    3  C4  UNL     1       1.444  58.078  -3.683  1.00  0.00     0.049 A 
HETATM    4  N1  UNL     1       2.067  58.869  -2.800  1.00  0.00    -0.351 N 
ATOM      5  H1  UNL     1       1.697  59.016  -1.862  1.00  0.00     0.166 HD
HETATM    6  C5  UNL     1       3.201  59.460  -3.208  1.00  0.00     0.182 A 
HETATM    7  N2  UNL     1       3.802  59.303  -4.395  1.00  0.00    -0.342 N 
ATOM      8  H2  UNL     1       4.672  59.780  -4.631  1.00  0.00     0.167 HD
HETATM    9  C6  UNL     1       3.184  58.475  -5.252  1.00  0.00     0.098 A 
HETATM   10  C7  UNL     1       1.953  57.868  -4.965  1.00  0.00     0.032 A 
HETATM   11  C8  UNL     1       1.222  57.099  -5.883  1.00  0.00     0.056 A 
HETATM   12  C9  UNL     1       0.053  56.455  -5.508  1.00  0.00     0.103 A 
HETATM   13  O2  UNL     1      -0.587  55.745  -6.488  1.00  0.00    -0.348 OA
HETATM   14  C10 UNL     1      -0.412  54.332  -6.321  1.00  0.00     0.176 C 
HETATM   15  C11 UNL     1      -0.577  53.653  -7.684  1.00  0.00     0.027 C 
HETATM   16  C12 UNL     1       0.708  53.531  -8.521  1.00  0.00     0.004 C 
HETATM   17  C13 UNL     1       1.448  54.849  -8.762  1.00  0.00     0.019 C 
HETATM   18  C14 UNL     1       2.581  54.695  -9.788  1.00  0.00     0.117 C 
HETATM   19  N3  UNL     1       3.276  55.940 -10.133  1.00  0.00    -0.413 N 
HETATM   20  C15 UNL     1       4.216  55.786 -11.232  1.00  0.00     0.143 C 
HETATM   21  C16 UNL     1       3.752  56.816  -9.049  1.00  0.00     0.156 C 
HETATM   22  C17 UNL     1       4.555  56.248  -7.885  1.00  0.00    -0.019 A 
HETATM   23  C18 UNL     1       5.355  55.099  -8.023  1.00  0.00     0.012 A 
HETATM   24  C19 UNL     1       6.083  54.576  -6.950  1.00  0.00     0.020 A 
HETATM   25  C20 UNL     1       6.045  55.213  -5.719  1.00  0.00     0.012 A 
HETATM   26 BR1  UNL     1       7.034  54.516  -4.268  1.00  0.00    -0.051 Br
HETATM   27  C21 UNL     1       5.299  56.376  -5.556  1.00  0.00     0.043 A 
HETATM   28  C22 UNL     1       4.550  56.905  -6.627  1.00  0.00     0.023 A 
HETATM   29  N4  UNL     1       3.887  58.173  -6.458  1.00  0.00    -0.244 NA
HETATM   30  H25 UNL     1       4.652  58.856  -6.414  1.00  0.00     0.135 HD
ENDROOT
BRANCH   1  31
HETATM   31  O1  UNL     1      -1.626  55.973  -3.935  1.00  0.00    -0.353 OA
HETATM   32  C1  UNL     1      -2.352  56.406  -2.793  1.00  0.00     0.210 C 
ENDBRANCH   1  31
TORSDOF 1
ENDMDL
MODEL 4
REMARK minimizedAffinity -5.91922235
REMARK CNNscore 0.19295603
REMARK CNNaffinity 4.80089426
REMARK  1 active torsions:
REMARK  status: ('A' for Active; 'I' for Inactive)
REMARK    1  A    between atoms: O1_2  and  C2_3 
ROOT
HETATM    1  C2  UNL     1       6.339  54.831  -8.431  1.00  0.00     0.103 A 
HETATM    2  C3  UNL     1       6.902  53.580  -8.728  1.00  0.00     0.070 A 
HETATM    3  C4  UNL     1       6.169  52.558  -9.335  1.00  0.00     0.049 A 
HETATM    4  N1  UNL     1       6.760  51.390  -9.618  1.00  0.00    -0.351 N 
ATOM      5  H1  UNL     1       7.740  51.220  -9.392  1.00  0.00     0.166 HD
HETATM    6  C5  UNL     1       6.004  50.454 -10.212  1.00  0.00     0.182 A 
HETATM    7  N2  UNL     1       4.702  50.549 -10.511  1.00  0.00    -0.342 N 
ATOM      8  H2  UNL     1       4.189  49.788 -10.957  1.00  0.00     0.167 HD
HETATM    9  C6  UNL     1       4.116  51.712 -10.185  1.00  0.00     0.098 A 
HETATM   10  C7  UNL     1       4.826  52.789  -9.636  1.00  0.00     0.032 A 
HETATM   11  C8  UNL     1       4.272  54.056  -9.398  1.00  0.00     0.056 A 
HETATM   12  C9  UNL     1       5.006  55.054  -8.773  1.00  0.00     0.103 A 
HETATM   13  O2  UNL     1       4.371  56.256  -8.607  1.00  0.00    -0.348 OA
HETATM   14  C10 UNL     1       3.975  56.463  -7.245  1.00  0.00     0.176 C 
HETATM   15  C11 UNL     1       2.793  57.437  -7.221  1.00  0.00     0.027 C 
HETATM   16  C12 UNL     1       1.402  56.791  -7.338  1.00  0.00     0.004 C 
HETATM   17  C13 UNL     1       1.213  55.884  -8.556  1.00  0.00     0.019 C 
HETATM   18  C14 UNL     1      -0.252  55.460  -8.739  1.00  0.00     0.117 C 
HETATM   19  N3  UNL     1      -0.520  54.661  -9.939  1.00  0.00    -0.413 N 
HETATM   20  C15 UNL     1      -1.938  54.433 -10.171  1.00  0.00     0.143 C 
HETATM   21  C16 UNL     1       0.335  53.498 -10.228  1.00  0.00     0.156 C 
HETATM   22  C17 UNL     1       0.633  52.464  -9.149  1.00  0.00    -0.019 A 
HETATM   23  C18 UNL     1      -0.261  52.212  -8.092  1.00  0.00     0.012 A 
HETATM   24  C19 UNL     1       0.021  51.269  -7.099  1.00  0.00     0.020 A 
HETATM   25  C20 UNL     1       1.198  50.538  -7.160  1.00  0.00     0.012 A 
HETATM   26 BR1  UNL     1       1.580  49.257  -5.826  1.00  0.00    -0.051 Br
HETATM   27  C21 UNL     1       2.086  50.730  -8.213  1.00  0.00     0.043 A 
HETATM   28  C22 UNL     1       1.819  51.688  -9.213  1.00  0.00     0.023 A 
HETATM   29  N4  UNL     1       2.699  51.775 -10.351  1.00  0.00    -0.244 NA
HETATM   30  H25 UNL     1       2.525  50.910 -10.874  1.00  0.00     0.135 HD
ENDROOT
BRANCH   1  31
HETATM   31  O1  UNL     1       7.001  55.873  -7.840  1.00  0.00    -0.353 OA
HETATM   32  C1  UNL     1       7.605  55.632  -6.577  1.00  0.00     0.210 C 
ENDBRANCH   1  31
TORSDOF 1
ENDMDL
MODEL 5
REMARK minimizedAffinity -5.69657516
REMARK CNNscore 0.166924536
REMARK CNNaffinity 4.96694756
REMARK  1 active torsions:
REMARK  status: ('A' for Active; 'I' for Inactive)
REMARK    1  A    between atoms: O1_2  and  C2_3 
ROOT
HETATM    1  C2  UNL     1       0.880  56.686  -6.995  1.00  0.00     0.103 A 
HETATM    2  C3  UNL     1       2.123  57.101  -6.493  1.00  0.00     0.070 A 
HETATM    3  C4  UNL     1       3.330  56.729  -7.090  1.00  0.00     0.049 A 
HETATM    4  N1  UNL     1       4.488  57.172  -6.583  1.00  0.00    -0.351 N 
ATOM      5  H1  UNL     1       4.515  57.772  -5.759  1.00  0.00     0.166 HD
HETATM    6  C5  UNL     1       5.612  56.788  -7.210  1.00  0.00     0.182 A 
HETATM    7  N2  UNL     1       5.698  55.968  -8.265  1.00  0.00    -0.342 N 
ATOM      8  H2  UNL     1       6.592  55.714  -8.684  1.00  0.00     0.167 HD
HETATM    9  C6  UNL     1       4.530  55.504  -8.735  1.00  0.00     0.098 A 
HETATM   10  C7  UNL     1       3.291  55.901  -8.212  1.00  0.00     0.032 A 
HETATM   11  C8  UNL     1       2.052  55.532  -8.757  1.00  0.00     0.056 A 
HETATM   12  C9  UNL     1       0.862  55.888  -8.140  1.00  0.00     0.103 A 
HETATM   13  O2  UNL     1      -0.287  55.489  -8.768  1.00  0.00    -0.348 OA
HETATM   14  C10 UNL     1      -0.909  54.391  -8.087  1.00  0.00     0.176 C 
HETATM   15  C11 UNL     1      -1.763  53.612  -9.093  1.00  0.00     0.027 C 
HETATM   16  C12 UNL     1      -1.033  52.493  -9.853  1.00  0.00     0.004 C 
HETATM   17  C13 UNL     1       0.235  52.934 -10.588  1.00  0.00     0.019 C 
HETATM   18  C14 UNL     1       0.782  51.832 -11.509  1.00  0.00     0.117 C 
HETATM   19  N3  UNL     1       1.947  52.219 -12.311  1.00  0.00    -0.413 N 
HETATM   20  C15 UNL     1       2.323  51.215 -13.296  1.00  0.00     0.143 C 
HETATM   21  C16 UNL     1       3.088  52.871 -11.646  1.00  0.00     0.156 C 
HETATM   22  C17 UNL     1       3.686  52.283 -10.375  1.00  0.00    -0.019 A 
HETATM   23  C18 UNL     1       3.628  50.906 -10.090  1.00  0.00     0.012 A 
HETATM   24  C19 UNL     1       4.171  50.373  -8.918  1.00  0.00     0.020 A 
HETATM   25  C20 UNL     1       4.809  51.209  -8.014  1.00  0.00     0.012 A 
HETATM   26 BR1  UNL     1       5.553  50.492  -6.433  1.00  0.00    -0.051 Br
HETATM   27  C21 UNL     1       4.924  52.569  -8.281  1.00  0.00     0.043 A 
HETATM   28  C22 UNL     1       4.368  53.121  -9.454  1.00  0.00     0.023 A 
HETATM   29  N4  UNL     1       4.610  54.509  -9.757  1.00  0.00    -0.244 NA
HETATM   30  H25 UNL     1       5.608  54.548  -9.990  1.00  0.00     0.135 HD
ENDROOT
BRANCH   1  31
HETATM   31  O1  UNL     1      -0.337  57.015  -6.462  1.00  0.00    -0.353 OA
HETATM   32  C1  UNL     1      -0.429  57.093  -5.046  1.00  0.00     0.210 C 
ENDBRANCH   1  31
TORSDOF 1
ENDMDL
MODEL 6
REMARK minimizedAffinity -6.06792831
REMARK CNNscore 0.161810935
REMARK CNNaffinity 4.60808134
REMARK  1 active torsions:
REMARK  status: ('A' for Active; 'I' for Inactive)
REMARK    1  A    between atoms: O1_2  and  C2_3 
ROOT
HETATM    1  C2  UNL     1     -16.730  49.004 -10.707  1.00  0.00     0.103 A 
HETATM    2  C3  UNL     1     -17.340  50.131 -10.137  1.00  0.00     0.070 A 
HETATM    3  C4  UNL     1     -16.674  50.965  -9.235  1.00  0.00     0.049 A 
HETATM    4  N1  UNL     1     -17.296  52.042  -8.738  1.00  0.00    -0.351 N 
ATOM      5  H1  UNL     1     -18.256  52.269  -8.995  1.00  0.00     0.166 HD
HETATM    6  C5  UNL     1     -16.597  52.808  -7.886  1.00  0.00     0.182 A 
HETATM    7  N2  UNL     1     -15.353  52.581  -7.444  1.00  0.00    -0.342 N 
ATOM      8  H2  UNL     1     -14.888  53.207  -6.786  1.00  0.00     0.167 HD
HETATM    9  C6  UNL     1     -14.760  51.476  -7.922  1.00  0.00     0.098 A 
HETATM   10  C7  UNL     1     -15.363  50.647  -8.879  1.00  0.00     0.032 A 
HETATM   11  C8  UNL     1     -14.725  49.557  -9.489  1.00  0.00     0.056 A 
HETATM   12  C9  UNL     1     -15.407  48.725 -10.364  1.00  0.00     0.103 A 
HETATM   13  O2  UNL     1     -14.681  47.702 -10.915  1.00  0.00    -0.348 OA
HETATM   14  C10 UNL     1     -15.017  46.438 -10.328  1.00  0.00     0.176 C 
HETATM   15  C11 UNL     1     -13.825  45.490 -10.492  1.00  0.00     0.027 C 
HETATM   16  C12 UNL     1     -12.785  45.535  -9.359  1.00  0.00     0.004 C 
HETATM   17  C13 UNL     1     -12.216  46.924  -9.061  1.00  0.00     0.019 C 
HETATM   18  C14 UNL     1     -11.027  46.866  -8.091  1.00  0.00     0.117 C 
HETATM   19  N3  UNL     1     -10.377  48.154  -7.830  1.00  0.00    -0.413 N 
HETATM   20  C15 UNL     1      -9.153  48.032  -7.054  1.00  0.00     0.143 C 
HETATM   21  C16 UNL     1     -11.210  49.314  -7.467  1.00  0.00     0.156 C 
HETATM   22  C17 UNL     1     -12.269  49.200  -6.378  1.00  0.00    -0.019 A 
HETATM   23  C18 UNL     1     -12.151  48.284  -5.316  1.00  0.00     0.012 A 
HETATM   24  C19 UNL     1     -13.130  48.177  -4.324  1.00  0.00     0.020 A 
HETATM   25  C20 UNL     1     -14.239  49.009  -4.361  1.00  0.00     0.012 A 
HETATM   26 BR1  UNL     1     -15.560  48.875  -3.017  1.00  0.00    -0.051 Br
HETATM   27  C21 UNL     1     -14.369  49.956  -5.371  1.00  0.00     0.043 A 
HETATM   28  C22 UNL     1     -13.395  50.064  -6.385  1.00  0.00     0.023 A 
HETATM   29  N4  UNL     1     -13.500  51.134  -7.344  1.00  0.00    -0.244 NA
HETATM   30  H25 UNL     1     -13.297  51.981  -6.804  1.00  0.00     0.135 HD
ENDROOT
BRANCH   1  31
HETATM   31  O1  UNL     1     -17.324  48.149 -11.596  1.00  0.00    -0.353 OA
HETATM   32  C1  UNL     1     -18.744  48.141 -11.644  1.00  0.00     0.210 C 
ENDBRANCH   1  31
TORSDOF 1
ENDMDL
MODEL 7
REMARK minimizedAffinity -5.61888218
REMARK CNNscore 0.154700756
REMARK CNNaffinity 4.45861673
REMARK  1 active torsions:
REMARK  status: ('A' for Active; 'I' for Inactive)
REMARK    1  A    between atoms: O1_2  and  C2_3 
ROOT
HETATM    1  C2  UNL     1     -13.866  48.303  -9.687  1.00  0.00     0.103 A 
HETATM    2  C3  UNL     1     -15.018  48.981 -10.114  1.00  0.00     0.070 A 
HETATM    3  C4  UNL     1     -15.493  50.125  -9.470  1.00  0.00     0.049 A 
HETATM    4  N1  UNL     1     -16.585  50.747  -9.933  1.00  0.00    -0.351 N 
ATOM      5  H1  UNL     1     -17.092  50.400 -10.747  1.00  0.00     0.166 HD
HETATM    6  C5  UNL     1     -16.982  51.848  -9.275  1.00  0.00     0.182 A 
HETATM    7  N2  UNL     1     -16.425  52.365  -8.172  1.00  0.00    -0.342 N 
ATOM      8  H2  UNL     1     -16.790  53.203  -7.721  1.00  0.00     0.167 HD
HETATM    9  C6  UNL     1     -15.356  51.706  -7.700  1.00  0.00     0.098 A 
HETATM   10  C7  UNL     1     -14.804  50.593  -8.350  1.00  0.00     0.032 A 
HETATM   11  C8  UNL     1     -13.617  49.958  -7.953  1.00  0.00     0.056 A 
HETATM   12  C9  UNL     1     -13.172  48.809  -8.588  1.00  0.00     0.103 A 
HETATM   13  O2  UNL     1     -11.993  48.283  -8.129  1.00  0.00    -0.348 OA
HETATM   14  C10 UNL     1     -12.210  47.100  -7.349  1.00  0.00     0.176 C 
HETATM   15  C11 UNL     1     -11.029  46.924  -6.389  1.00  0.00     0.027 C 
HETATM   16  C12 UNL     1     -11.172  47.628  -5.029  1.00  0.00     0.004 C 
HETATM   17  C13 UNL     1     -11.466  49.128  -5.108  1.00  0.00     0.019 C 
HETATM   18  C14 UNL     1     -11.368  49.810  -3.735  1.00  0.00     0.117 C 
HETATM   19  N3  UNL     1     -11.552  51.264  -3.752  1.00  0.00    -0.413 N 
HETATM   20  C15 UNL     1     -11.274  51.892  -2.469  1.00  0.00     0.143 C 
HETATM   21  C16 UNL     1     -12.711  51.829  -4.463  1.00  0.00     0.156 C 
HETATM   22  C17 UNL     1     -14.111  51.277  -4.230  1.00  0.00    -0.019 A 
HETATM   23  C18 UNL     1     -14.482  50.675  -3.013  1.00  0.00     0.012 A 
HETATM   24  C19 UNL     1     -15.766  50.161  -2.808  1.00  0.00     0.020 A 
HETATM   25  C20 UNL     1     -16.716  50.264  -3.813  1.00  0.00     0.012 A 
HETATM   26 BR1  UNL     1     -18.455  49.579  -3.536  1.00  0.00    -0.051 Br
HETATM   27  C21 UNL     1     -16.399  50.890  -5.013  1.00  0.00     0.043 A 
HETATM   28  C22 UNL     1     -15.103  51.400  -5.237  1.00  0.00     0.023 A 
HETATM   29  N4  UNL     1     -14.845  52.148  -6.442  1.00  0.00    -0.244 NA
HETATM   30  H25 UNL     1     -15.367  53.022  -6.316  1.00  0.00     0.135 HD
ENDROOT
BRANCH   1  31
HETATM   31  O1  UNL     1     -13.347  47.180 -10.274  1.00  0.00    -0.353 OA
HETATM   32  C1  UNL     1     -14.220  46.073 -10.451  1.00  0.00     0.210 C 
ENDBRANCH   1  31
TORSDOF 1
ENDMDL
MODEL 8
REMARK minimizedAffinity -5.89350796
REMARK CNNscore 0.151691183
REMARK CNNaffinity 4.9667263
REMARK  1 active torsions:
REMARK  status: ('A' for Active; 'I' for Inactive)
REMARK    1  A    between atoms: O1_2  and  C2_3 
ROOT
HETATM    1  C2  UNL     1       0.144  55.015  -8.928  1.00  0.00     0.103 A 
HETATM    2  C3  UNL     1       1.477  54.695  -8.626  1.00  0.00     0.070 A 
HETATM    3  C4  UNL     1       2.231  53.821  -9.411  1.00  0.00     0.049 A 
HETATM    4  N1  UNL     1       3.506  53.567  -9.091  1.00  0.00    -0.351 N 
ATOM      5  H1  UNL     1       3.946  53.993  -8.275  1.00  0.00     0.166 HD
HETATM    6  C5  UNL     1       4.180  52.727  -9.893  1.00  0.00     0.182 A 
HETATM    7  N2  UNL     1       3.693  52.078 -10.958  1.00  0.00    -0.342 N 
ATOM      8  H2  UNL     1       4.266  51.446 -11.517  1.00  0.00     0.167 HD
HETATM    9  C6  UNL     1       2.402  52.314 -11.241  1.00  0.00     0.098 A 
HETATM   10  C7  UNL     1       1.625  53.233 -10.522  1.00  0.00     0.032 A 
HETATM   11  C8  UNL     1       0.314  53.593 -10.867  1.00  0.00     0.056 A 
HETATM   12  C9  UNL     1      -0.430  54.444 -10.064  1.00  0.00     0.103 A 
HETATM   13  O2  UNL     1      -1.692  54.742 -10.505  1.00  0.00    -0.348 OA
HETATM   14  C10 UNL     1      -2.695  54.052  -9.747  1.00  0.00     0.176 C 
HETATM   15  C11 UNL     1      -3.951  53.909 -10.613  1.00  0.00     0.027 C 
HETATM   16  C12 UNL     1      -4.007  52.650 -11.493  1.00  0.00     0.004 C 
HETATM   17  C13 UNL     1      -2.802  52.454 -12.416  1.00  0.00     0.019 C 
HETATM   18  C14 UNL     1      -3.025  51.317 -13.424  1.00  0.00     0.117 C 
HETATM   19  N3  UNL     1      -1.944  51.132 -14.398  1.00  0.00    -0.413 N 
HETATM   20  C15 UNL     1      -2.270  50.172 -15.441  1.00  0.00     0.143 C 
HETATM   21  C16 UNL     1      -0.555  51.053 -13.915  1.00  0.00     0.156 C 
HETATM   22  C17 UNL     1      -0.183  50.129 -12.763  1.00  0.00    -0.019 A 
HETATM   23  C18 UNL     1      -0.903  48.951 -12.489  1.00  0.00     0.012 A 
HETATM   24  C19 UNL     1      -0.564  48.112 -11.424  1.00  0.00     0.020 A 
HETATM   25  C20 UNL     1       0.525  48.423 -10.624  1.00  0.00     0.012 A 
HETATM   26 BR1  UNL     1       0.994  47.287  -9.190  1.00  0.00    -0.051 Br
HETATM   27  C21 UNL     1       1.287  49.556 -10.890  1.00  0.00     0.043 A 
HETATM   28  C22 UNL     1       0.946  50.418 -11.953  1.00  0.00     0.023 A 
HETATM   29  N4  UNL     1       1.825  51.514 -12.274  1.00  0.00    -0.244 NA
HETATM   30  H25 UNL     1       2.661  51.064 -12.663  1.00  0.00     0.135 HD
ENDROOT
BRANCH   1  31
HETATM   31  O1  UNL     1      -0.648  55.863  -8.203  1.00  0.00    -0.353 OA
HETATM   32  C1  UNL     1       0.003  56.859  -7.425  1.00  0.00     0.210 C 
ENDBRANCH   1  31
TORSDOF 1
ENDMDL
MODEL 9
REMARK minimizedAffinity -6.31897402
REMARK CNNscore 0.150703952
REMARK CNNaffinity 4.99480581
REMARK  1 active torsions:
REMARK  status: ('A' for Active; 'I' for Inactive)
REMARK    1  A    between atoms: O1_2  and  C2_3 
ROOT
HETATM    1  C2  UNL     1       0.555  55.888  -8.073  1.00  0.00     0.103 A 
HETATM    2  C3  UNL     1       1.925  56.110  -7.866  1.00  0.00     0.070 A 
HETATM    3  C4  UNL     1       2.896  55.678  -8.773  1.00  0.00     0.049 A 
HETATM    4  N1  UNL     1       4.189  55.936  -8.539  1.00  0.00    -0.351 N 
ATOM      5  H1  UNL     1       4.491  56.437  -7.703  1.00  0.00     0.166 HD
HETATM    6  C5  UNL     1       5.071  55.504  -9.454  1.00  0.00     0.182 A 
HETATM    7  N2  UNL     1       4.795  54.799 -10.559  1.00  0.00    -0.342 N 
ATOM      8  H2  UNL     1       5.523  54.498 -11.207  1.00  0.00     0.167 HD
HETATM    9  C6  UNL     1       3.498  54.517 -10.757  1.00  0.00     0.098 A 
HETATM   10  C7  UNL     1       2.483  54.985  -9.911  1.00  0.00     0.032 A 
HETATM   11  C8  UNL     1       1.112  54.812 -10.156  1.00  0.00     0.056 A 
HETATM   12  C9  UNL     1       0.161  55.225  -9.235  1.00  0.00     0.103 A 
HETATM   13  O2  UNL     1      -1.147  55.022  -9.585  1.00  0.00    -0.348 OA
HETATM   14  C10 UNL     1      -1.726  53.930  -8.860  1.00  0.00     0.176 C 
HETATM   15  C11 UNL     1      -2.890  53.362  -9.678  1.00  0.00     0.027 C 
HETATM   16  C12 UNL     1      -2.516  52.259 -10.682  1.00  0.00     0.004 C 
HETATM   17  C13 UNL     1      -1.413  52.639 -11.674  1.00  0.00     0.019 C 
HETATM   18  C14 UNL     1      -1.250  51.591 -12.786  1.00  0.00     0.117 C 
HETATM   19  N3  UNL     1      -0.270  51.935 -13.821  1.00  0.00    -0.413 N 
HETATM   20  C15 UNL     1      -0.274  51.010 -14.944  1.00  0.00     0.143 C 
HETATM   21  C16 UNL     1       1.071  52.385 -13.413  1.00  0.00     0.156 C 
HETATM   22  C17 UNL     1       1.874  51.602 -12.382  1.00  0.00    -0.019 A 
HETATM   23  C18 UNL     1       1.706  50.216 -12.202  1.00  0.00     0.012 A 
HETATM   24  C19 UNL     1       2.439  49.504 -11.248  1.00  0.00     0.020 A 
HETATM   25  C20 UNL     1       3.378  50.164 -10.469  1.00  0.00     0.012 A 
HETATM   26 BR1  UNL     1       4.376  49.204  -9.185  1.00  0.00    -0.051 Br
HETATM   27  C21 UNL     1       3.602  51.525 -10.648  1.00  0.00     0.043 A 
HETATM   28  C22 UNL     1       2.860  52.257 -11.598  1.00  0.00     0.023 A 
HETATM   29  N4  UNL     1       3.201  53.635 -11.841  1.00  0.00    -0.244 NA
HETATM   30  H25 UNL     1       4.111  53.593 -12.313  1.00  0.00     0.135 HD
ENDROOT
BRANCH   1  31
HETATM   31  O1  UNL     1      -0.445  56.286  -7.227  1.00  0.00    -0.353 OA
HETATM   32  C1  UNL     1      -0.072  56.681  -5.915  1.00  0.00     0.210 C 
ENDBRANCH   1  31
TORSDOF 1
ENDMDL
