MODEL 1
REMARK minimizedAffinity -9.82791901
REMARK CNNscore 0.253605455
REMARK CNNaffinity 7.95288086
REMARK  6 active torsions:
REMARK  status: ('A' for Active; 'I' for Inactive)
REMARK    1  A    between atoms: C2_2  and  C3_3 
REMARK       I    between atoms: C3_3  and  N1_5 
REMARK    2  A    between atoms: C7_9  and  C8_10 
REMARK    3  A    between atoms: C13_17  and  C14_18 
REMARK       I    between atoms: C14_18  and  N3_20 
REMARK    4  A    between atoms: N3_20  and  C15_21 
REMARK    5  A    between atoms: C17_23  and  C18_24 
REMARK    6  A    between atoms: C24_36  and  N5_37 
ROOT
HETATM    1  C8  UNL     1      -4.224   4.657  12.421  1.00  0.00     0.094 A 
HETATM    2  N2  UNL     1      -5.098   5.470  12.988  1.00  0.00    -0.342 N 
ATOM      3  H2  UNL     1      -4.918   6.406  13.351  1.00  0.00     0.167 HD
HETATM    4  C9  UNL     1      -6.297   4.801  12.990  1.00  0.00     0.077 A 
HETATM    5  C10 UNL     1      -7.499   5.412  13.499  1.00  0.00     0.032 A 
HETATM    6  C11 UNL     1      -7.644   5.612  14.875  1.00  0.00     0.018 A 
HETATM    7  C12 UNL     1      -8.778   6.260  15.378  1.00  0.00     0.018 A 
HETATM    8  C13 UNL     1      -9.765   6.742  14.502  1.00  0.00     0.035 A 
HETATM    9  C21 UNL     1      -9.624   6.522  13.125  1.00  0.00     0.060 A 
HETATM   10  C22 UNL     1      -8.498   5.865  12.636  1.00  0.00     0.130 A 
HETATM   11  F4  UNL     1      -8.390   5.687  11.311  1.00  0.00    -0.205 F 
HETATM   12  C23 UNL     1      -6.144   3.527  12.497  1.00  0.00     0.106 A 
HETATM   13  C24 UNL     1      -7.003   2.383  12.305  1.00  0.00     0.107 A 
HETATM   14  N6  UNL     1      -6.513   1.274  11.798  1.00  0.00    -0.354 N 
ATOM     15  H6  UNL     1      -7.111   0.458  11.665  1.00  0.00     0.166 HD
HETATM   16  C25 UNL     1      -5.181   1.229  11.449  1.00  0.00     0.107 A 
HETATM   17  C26 UNL     1      -4.330   2.255  11.603  1.00  0.00     0.116 A 
HETATM   18  N7  UNL     1      -4.815   3.437  12.135  1.00  0.00    -0.305 N 
ENDROOT
BRANCH   1  19
HETATM   19  C7  UNL     1      -2.798   5.047  12.154  1.00  0.00     0.072 C 
HETATM   20  C6  UNL     1      -1.788   3.932  12.445  1.00  0.00     0.015 C 
HETATM   21  C5  UNL     1      -0.344   4.354  12.146  1.00  0.00     0.021 C 
HETATM   22  C4  UNL     1      -0.184   5.850  11.884  1.00  0.00     0.126 C 
HETATM   23  N1  UNL     1      -0.974   6.633  12.832  1.00  0.00    -0.351 N 
HETATM   24  C3  UNL     1      -0.340   7.639  13.575  1.00  0.00     0.232 C 
HETATM   25  C27 UNL     1      -2.416   6.372  12.835  1.00  0.00     0.138 C 
HETATM   26  O1  UNL     1       0.891   7.776  13.509  1.00  0.00    -0.272 OA
BRANCH  24  27
HETATM   27  C2  UNL     1      -1.186   8.553  14.508  1.00  0.00     0.080 C 
HETATM   28  C1  UNL     1      -2.041   9.559  13.731  1.00  0.00     0.030 C 
HETATM   29  C28 UNL     1      -2.073   7.780  15.522  1.00  0.00     0.188 C 
HETATM   30  O3  UNL     1      -1.661   8.661  16.600  1.00  0.00    -0.389 OA
HETATM   31  C29 UNL     1      -0.540   9.104  15.798  1.00  0.00     0.188 C 
ENDBRANCH  24  27
ENDBRANCH   1  19
BRANCH  13  32
HETATM   32  N5  UNL     1      -8.324   2.349  12.641  1.00  0.00    -0.287 NA
HETATM   33  H18 UNL     1      -8.605   2.900  13.441  1.00  0.00     0.125 HD
HETATM   34  H19 UNL     1      -8.685   1.402  12.652  1.00  0.00     0.125 HD
ENDBRANCH  13  32
BRANCH   8  35
HETATM   35  C14 UNL     1     -10.977   7.476  14.974  1.00  0.00     0.257 C 
HETATM   36  O2  UNL     1     -12.078   6.971  14.775  1.00  0.00    -0.267 OA
HETATM   37  N3  UNL     1     -10.749   8.693  15.568  1.00  0.00    -0.309 N 
HETATM   38  H13 UNL     1      -9.820   9.088  15.597  1.00  0.00     0.170 HD
BRANCH  37  39
HETATM   39  C15 UNL     1     -11.678   9.563  16.141  1.00  0.00     0.108 A 
HETATM   40  C16 UNL     1     -11.713  10.932  15.923  1.00  0.00     0.064 A 
HETATM   41  C17 UNL     1     -12.705  11.699  16.551  1.00  0.00     0.052 A 
HETATM   42  C19 UNL     1     -13.624  11.054  17.380  1.00  0.00     0.033 A 
HETATM   43  C20 UNL     1     -13.513   9.685  17.540  1.00  0.00     0.090 A 
HETATM   44  N4  UNL     1     -12.565   8.933  16.940  1.00  0.00    -0.352 N 
ATOM     45  H4  UNL     1     -12.521   7.924  17.084  1.00  0.00     0.166 HD
BRANCH  41  46
HETATM   46  C18 UNL     1     -12.746  13.191  16.348  1.00  0.00     0.417 C 
HETATM   47  F1  UNL     1     -13.830  13.763  16.939  1.00  0.00    -0.166 F 
HETATM   48  F2  UNL     1     -12.803  13.551  15.035  1.00  0.00    -0.166 F 
HETATM   49  F3  UNL     1     -11.656  13.826  16.858  1.00  0.00    -0.166 F 
ENDBRANCH  41  46
ENDBRANCH  37  39
ENDBRANCH   8  35
TORSDOF 6
ENDMDL
MODEL 2
REMARK minimizedAffinity -8.86573315
REMARK CNNscore 0.227907658
REMARK CNNaffinity 7.98974848
REMARK  6 active torsions:
REMARK  status: ('A' for Active; 'I' for Inactive)
REMARK    1  A    between atoms: C2_2  and  C3_3 
REMARK       I    between atoms: C3_3  and  N1_5 
REMARK    2  A    between atoms: C7_9  and  C8_10 
REMARK    3  A    between atoms: C13_17  and  C14_18 
REMARK       I    between atoms: C14_18  and  N3_20 
REMARK    4  A    between atoms: N3_20  and  C15_21 
REMARK    5  A    between atoms: C17_23  and  C18_24 
REMARK    6  A    between atoms: C24_36  and  N5_37 
ROOT
HETATM    1  C8  UNL     1      -4.819   6.572  13.686  1.00  0.00     0.094 A 
HETATM    2  N2  UNL     1      -6.004   7.091  13.955  1.00  0.00    -0.342 N 
ATOM      3  H2  UNL     1      -6.195   8.012  14.348  1.00  0.00     0.167 HD
HETATM    4  C9  UNL     1      -6.927   6.140  13.598  1.00  0.00     0.077 A 
HETATM    5  C10 UNL     1      -8.343   6.384  13.712  1.00  0.00     0.032 A 
HETATM    6  C11 UNL     1      -8.935   6.439  14.978  1.00  0.00     0.018 A 
HETATM    7  C12 UNL     1     -10.296   6.738  15.108  1.00  0.00     0.018 A 
HETATM    8  C13 UNL     1     -11.072   7.015  13.969  1.00  0.00     0.035 A 
HETATM    9  C21 UNL     1     -10.478   6.940  12.702  1.00  0.00     0.060 A 
HETATM   10  C22 UNL     1      -9.126   6.629  12.583  1.00  0.00     0.130 A 
HETATM   11  F4  UNL     1      -8.588   6.583  11.356  1.00  0.00    -0.205 F 
HETATM   12  C23 UNL     1      -6.303   4.986  13.185  1.00  0.00     0.106 A 
HETATM   13  C24 UNL     1      -6.731   3.678  12.750  1.00  0.00     0.107 A 
HETATM   14  N6  UNL     1      -5.838   2.772  12.424  1.00  0.00    -0.354 N 
ATOM     15  H6  UNL     1      -6.130   1.842  12.123  1.00  0.00     0.166 HD
HETATM   16  C25 UNL     1      -4.500   3.094  12.497  1.00  0.00     0.107 A 
HETATM   17  C26 UNL     1      -4.037   4.289  12.894  1.00  0.00     0.116 A 
HETATM   18  N7  UNL     1      -4.952   5.266  13.244  1.00  0.00    -0.305 N 
ENDROOT
BRANCH   1  19
HETATM   19  C7  UNL     1      -3.535   7.332  13.862  1.00  0.00     0.072 C 
HETATM   20  C6  UNL     1      -3.674   8.841  13.631  1.00  0.00     0.015 C 
HETATM   21  C5  UNL     1      -2.351   9.591  13.836  1.00  0.00     0.021 C 
HETATM   22  C4  UNL     1      -1.138   8.672  13.958  1.00  0.00     0.126 C 
HETATM   23  N1  UNL     1      -1.200   7.591  12.976  1.00  0.00    -0.351 N 
HETATM   24  C3  UNL     1      -0.107   7.386  12.122  1.00  0.00     0.232 C 
HETATM   25  C27 UNL     1      -2.378   6.723  13.052  1.00  0.00     0.138 C 
HETATM   26  O1  UNL     1       0.842   8.185  12.128  1.00  0.00    -0.272 OA
BRANCH  24  27
HETATM   27  C2  UNL     1      -0.112   6.174  11.146  1.00  0.00     0.080 C 
HETATM   28  C1  UNL     1       0.065   6.595   9.683  1.00  0.00     0.030 C 
HETATM   29  C28 UNL     1       0.917   5.067  11.503  1.00  0.00     0.188 C 
HETATM   30  O3  UNL     1      -0.079   4.032  11.293  1.00  0.00    -0.389 OA
HETATM   31  C29 UNL     1      -1.123   5.031  11.380  1.00  0.00     0.188 C 
ENDBRANCH  24  27
ENDBRANCH   1  19
BRANCH  13  32
HETATM   32  N5  UNL     1      -8.034   3.284  12.668  1.00  0.00    -0.287 NA
HETATM   33  H18 UNL     1      -8.674   3.684  13.341  1.00  0.00     0.125 HD
HETATM   34  H19 UNL     1      -8.117   2.278  12.577  1.00  0.00     0.125 HD
ENDBRANCH  13  32
BRANCH   8  35
HETATM   35  C14 UNL     1     -12.519   7.378  14.045  1.00  0.00     0.257 C 
HETATM   36  O2  UNL     1     -12.887   8.121  14.949  1.00  0.00    -0.267 OA
HETATM   37  N3  UNL     1     -13.331   6.805  13.097  1.00  0.00    -0.309 N 
HETATM   38  H13 UNL     1     -12.969   6.118  12.452  1.00  0.00     0.170 HD
BRANCH  37  39
HETATM   39  C15 UNL     1     -14.699   7.000  12.899  1.00  0.00     0.108 A 
HETATM   40  C16 UNL     1     -15.260   8.136  12.337  1.00  0.00     0.064 A 
HETATM   41  C17 UNL     1     -16.652   8.208  12.182  1.00  0.00     0.052 A 
HETATM   42  C19 UNL     1     -17.427   7.127  12.606  1.00  0.00     0.033 A 
HETATM   43  C20 UNL     1     -16.783   6.035  13.156  1.00  0.00     0.090 A 
HETATM   44  N4  UNL     1     -15.444   5.951  13.309  1.00  0.00    -0.352 N 
ATOM     45  H4  UNL     1     -15.010   5.123  13.718  1.00  0.00     0.166 HD
BRANCH  41  46
HETATM   46  C18 UNL     1     -17.284   9.443  11.598  1.00  0.00     0.417 C 
HETATM   47  F1  UNL     1     -18.636   9.453  11.749  1.00  0.00    -0.166 F 
HETATM   48  F2  UNL     1     -17.056   9.579  10.262  1.00  0.00    -0.166 F 
HETATM   49  F3  UNL     1     -16.830  10.593  12.168  1.00  0.00    -0.166 F 
ENDBRANCH  41  46
ENDBRANCH  37  39
ENDBRANCH   8  35
TORSDOF 6
ENDMDL
MODEL 3
REMARK minimizedAffinity -10.2968102
REMARK CNNscore 0.214940801
REMARK CNNaffinity 7.84856462
REMARK  6 active torsions:
REMARK  status: ('A' for Active; 'I' for Inactive)
REMARK    1  A    between atoms: C2_2  and  C3_3 
REMARK       I    between atoms: C3_3  and  N1_5 
REMARK    2  A    between atoms: C7_9  and  C8_10 
REMARK    3  A    between atoms: C13_17  and  C14_18 
REMARK       I    between atoms: C14_18  and  N3_20 
REMARK    4  A    between atoms: N3_20  and  C15_21 
REMARK    5  A    between atoms: C17_23  and  C18_24 
REMARK    6  A    between atoms: C24_36  and  N5_37 
ROOT
HETATM    1  C8  UNL     1      -4.209   4.780  12.516  1.00  0.00     0.094 A 
HETATM    2  N2  UNL     1      -5.138   5.555  13.049  1.00  0.00    -0.342 N 
ATOM      3  H2  UNL     1      -5.011   6.498  13.416  1.00  0.00     0.167 HD
HETATM    4  C9  UNL     1      -6.306   4.836  13.007  1.00  0.00     0.077 A 
HETATM    5  C10 UNL     1      -7.551   5.395  13.468  1.00  0.00     0.032 A 
HETATM    6  C11 UNL     1      -7.756   5.589  14.838  1.00  0.00     0.018 A 
HETATM    7  C12 UNL     1      -8.934   6.189  15.297  1.00  0.00     0.018 A 
HETATM    8  C13 UNL     1      -9.907   6.629  14.383  1.00  0.00     0.035 A 
HETATM    9  C21 UNL     1      -9.706   6.415  13.013  1.00  0.00     0.060 A 
HETATM   10  C22 UNL     1      -8.536   5.805  12.568  1.00  0.00     0.130 A 
HETATM   11  F4  UNL     1      -8.369   5.632  11.249  1.00  0.00    -0.205 F 
HETATM   12  C23 UNL     1      -6.081   3.569  12.522  1.00  0.00     0.106 A 
HETATM   13  C24 UNL     1      -6.883   2.390  12.300  1.00  0.00     0.107 A 
HETATM   14  N6  UNL     1      -6.328   1.303  11.814  1.00  0.00    -0.354 N 
ATOM     15  H6  UNL     1      -6.885   0.462  11.660  1.00  0.00     0.166 HD
HETATM   16  C25 UNL     1      -4.983   1.314  11.515  1.00  0.00     0.107 A 
HETATM   17  C26 UNL     1      -4.182   2.375  11.699  1.00  0.00     0.116 A 
HETATM   18  N7  UNL     1      -4.736   3.536  12.210  1.00  0.00    -0.305 N 
ENDROOT
BRANCH   1  19
HETATM   19  C7  UNL     1      -2.792   5.230  12.302  1.00  0.00     0.072 C 
HETATM   20  C6  UNL     1      -1.764   4.096  12.388  1.00  0.00     0.015 C 
HETATM   21  C5  UNL     1      -0.330   4.583  12.147  1.00  0.00     0.021 C 
HETATM   22  C4  UNL     1      -0.192   6.104  12.141  1.00  0.00     0.126 C 
HETATM   23  N1  UNL     1      -0.977   6.704  13.218  1.00  0.00    -0.351 N 
HETATM   24  C3  UNL     1      -0.345   7.578  14.113  1.00  0.00     0.232 C 
HETATM   25  C27 UNL     1      -2.416   6.425  13.194  1.00  0.00     0.138 C 
HETATM   26  O1  UNL     1       0.884   7.741  14.057  1.00  0.00    -0.272 OA
BRANCH  24  27
HETATM   27  C2  UNL     1      -1.188   8.309  15.198  1.00  0.00     0.080 C 
HETATM   28  C1  UNL     1      -0.321   9.083  16.197  1.00  0.00     0.030 C 
HETATM   29  C28 UNL     1      -2.291   9.241  14.625  1.00  0.00     0.188 C 
HETATM   30  O3  UNL     1      -3.264   8.720  15.569  1.00  0.00    -0.389 OA
HETATM   31  C29 UNL     1      -2.403   7.582  15.814  1.00  0.00     0.188 C 
ENDBRANCH  24  27
ENDBRANCH   1  19
BRANCH  13  32
HETATM   32  N5  UNL     1      -8.213   2.300  12.586  1.00  0.00    -0.287 NA
HETATM   33  H18 UNL     1      -8.546   2.839  13.374  1.00  0.00     0.125 HD
HETATM   34  H19 UNL     1      -8.534   1.339  12.585  1.00  0.00     0.125 HD
ENDBRANCH  13  32
BRANCH   8  35
HETATM   35  C14 UNL     1     -11.167   7.311  14.809  1.00  0.00     0.257 C 
HETATM   36  O2  UNL     1     -11.096   8.467  15.213  1.00  0.00    -0.267 OA
HETATM   37  N3  UNL     1     -12.310   6.553  14.742  1.00  0.00    -0.309 N 
HETATM   38  H13 UNL     1     -12.269   5.574  14.501  1.00  0.00     0.170 HD
BRANCH  37  39
HETATM   39  C15 UNL     1     -13.621   6.940  15.026  1.00  0.00     0.108 A 
HETATM   40  C16 UNL     1     -14.727   6.597  14.263  1.00  0.00     0.064 A 
HETATM   41  C17 UNL     1     -15.997   7.041  14.661  1.00  0.00     0.052 A 
HETATM   42  C19 UNL     1     -16.101   7.820  15.814  1.00  0.00     0.033 A 
HETATM   43  C20 UNL     1     -14.945   8.114  16.513  1.00  0.00     0.090 A 
HETATM   44  N4  UNL     1     -13.716   7.691  16.144  1.00  0.00    -0.352 N 
ATOM     45  H4  UNL     1     -12.889   7.930  16.691  1.00  0.00     0.166 HD
BRANCH  41  46
HETATM   46  C18 UNL     1     -17.207   6.701  13.832  1.00  0.00     0.417 C 
HETATM   47  F1  UNL     1     -16.938   6.705  12.499  1.00  0.00    -0.166 F 
HETATM   48  F2  UNL     1     -18.237   7.576  14.008  1.00  0.00    -0.166 F 
HETATM   49  F3  UNL     1     -17.716   5.471  14.114  1.00  0.00    -0.166 F 
ENDBRANCH  41  46
ENDBRANCH  37  39
ENDBRANCH   8  35
TORSDOF 6
ENDMDL
MODEL 4
REMARK minimizedAffinity -10.2342215
REMARK CNNscore 0.188584372
REMARK CNNaffinity 7.78217363
REMARK  6 active torsions:
REMARK  status: ('A' for Active; 'I' for Inactive)
REMARK    1  A    between atoms: C2_2  and  C3_3 
REMARK       I    between atoms: C3_3  and  N1_5 
REMARK    2  A    between atoms: C7_9  and  C8_10 
REMARK    3  A    between atoms: C13_17  and  C14_18 
REMARK       I    between atoms: C14_18  and  N3_20 
REMARK    4  A    between atoms: N3_20  and  C15_21 
REMARK    5  A    between atoms: C17_23  and  C18_24 
REMARK    6  A    between atoms: C24_36  and  N5_37 
ROOT
HETATM    1  C8  UNL     1      -4.134   4.461  12.417  1.00  0.00     0.094 A 
HETATM    2  N2  UNL     1      -4.800   5.327  13.160  1.00  0.00    -0.342 N 
ATOM      3  H2  UNL     1      -4.439   6.191  13.565  1.00  0.00     0.167 HD
HETATM    4  C9  UNL     1      -6.074   4.832  13.277  1.00  0.00     0.077 A 
HETATM    5  C10 UNL     1      -7.099   5.550  13.992  1.00  0.00     0.032 A 
HETATM    6  C11 UNL     1      -7.039   5.635  15.386  1.00  0.00     0.018 A 
HETATM    7  C12 UNL     1      -7.991   6.382  16.089  1.00  0.00     0.018 A 
HETATM    8  C13 UNL     1      -8.998   7.076  15.397  1.00  0.00     0.035 A 
HETATM    9  C21 UNL     1      -9.066   6.971  14.001  1.00  0.00     0.060 A 
HETATM   10  C22 UNL     1      -8.121   6.216  13.312  1.00  0.00     0.130 A 
HETATM   11  F4  UNL     1      -8.207   6.152  11.976  1.00  0.00    -0.205 F 
HETATM   12  C23 UNL     1      -6.176   3.602  12.671  1.00  0.00     0.106 A 
HETATM   13  C24 UNL     1      -7.212   2.610  12.512  1.00  0.00     0.107 A 
HETATM   14  N6  UNL     1      -6.960   1.498  11.859  1.00  0.00    -0.354 N 
ATOM     15  H6  UNL     1      -7.684   0.788  11.748  1.00  0.00     0.166 HD
HETATM   16  C25 UNL     1      -5.704   1.304  11.327  1.00  0.00     0.107 A 
HETATM   17  C26 UNL     1      -4.697   2.185  11.440  1.00  0.00     0.116 A 
HETATM   18  N7  UNL     1      -4.931   3.366  12.122  1.00  0.00    -0.305 N 
ENDROOT
BRANCH   1  19
HETATM   19  C7  UNL     1      -2.711   4.676  11.986  1.00  0.00     0.072 C 
HETATM   20  C6  UNL     1      -1.812   3.451  12.193  1.00  0.00     0.015 C 
HETATM   21  C5  UNL     1      -0.371   3.696  11.727  1.00  0.00     0.021 C 
HETATM   22  C4  UNL     1      -0.068   5.159  11.412  1.00  0.00     0.126 C 
HETATM   23  N1  UNL     1      -0.650   6.042  12.422  1.00  0.00    -0.351 N 
HETATM   24  C3  UNL     1       0.175   6.974  13.066  1.00  0.00     0.232 C 
HETATM   25  C27 UNL     1      -2.104   5.953  12.589  1.00  0.00     0.138 C 
HETATM   26  O1  UNL     1       1.399   6.962  12.862  1.00  0.00    -0.272 OA
BRANCH  24  27
HETATM   27  C2  UNL     1      -0.448   7.993  14.063  1.00  0.00     0.080 C 
HETATM   28  C1  UNL     1      -1.352   9.019  13.369  1.00  0.00     0.030 C 
HETATM   29  C28 UNL     1      -1.209   7.338  15.248  1.00  0.00     0.188 C 
HETATM   30  O3  UNL     1      -0.573   8.239  16.193  1.00  0.00    -0.389 OA
HETATM   31  C29 UNL     1       0.430   8.558  15.199  1.00  0.00     0.188 C 
ENDBRANCH  24  27
ENDBRANCH   1  19
BRANCH  13  32
HETATM   32  N5  UNL     1      -8.471   2.725  13.024  1.00  0.00    -0.287 NA
HETATM   33  H18 UNL     1      -8.563   3.230  13.895  1.00  0.00     0.125 HD
HETATM   34  H19 UNL     1      -8.964   1.840  13.012  1.00  0.00     0.125 HD
ENDBRANCH  13  32
BRANCH   8  35
HETATM   35  C14 UNL     1     -10.019   7.920  16.088  1.00  0.00     0.257 C 
HETATM   36  O2  UNL     1      -9.759   8.351  17.207  1.00  0.00    -0.267 OA
HETATM   37  N3  UNL     1     -11.197   8.111  15.408  1.00  0.00    -0.309 N 
HETATM   38  H13 UNL     1     -11.376   7.632  14.538  1.00  0.00     0.170 HD
BRANCH  37  39
HETATM   39  C15 UNL     1     -12.296   8.885  15.785  1.00  0.00     0.108 A 
HETATM   40  C16 UNL     1     -13.113   9.575  14.903  1.00  0.00     0.064 A 
HETATM   41  C17 UNL     1     -14.196  10.312  15.406  1.00  0.00     0.052 A 
HETATM   42  C19 UNL     1     -14.410  10.326  16.785  1.00  0.00     0.033 A 
HETATM   43  C20 UNL     1     -13.544   9.609  17.590  1.00  0.00     0.090 A 
HETATM   44  N4  UNL     1     -12.500   8.893  17.120  1.00  0.00    -0.352 N 
ATOM     45  H4  UNL     1     -11.887   8.377  17.750  1.00  0.00     0.166 HD
BRANCH  41  46
HETATM   46  C18 UNL     1     -15.080  11.089  14.468  1.00  0.00     0.417 C 
HETATM   47  F1  UNL     1     -14.885  10.741  13.167  1.00  0.00    -0.166 F 
HETATM   48  F2  UNL     1     -14.873  12.435  14.529  1.00  0.00    -0.166 F 
HETATM   49  F3  UNL     1     -16.406  10.909  14.715  1.00  0.00    -0.166 F 
ENDBRANCH  41  46
ENDBRANCH  37  39
ENDBRANCH   8  35
TORSDOF 6
ENDMDL
MODEL 5
REMARK minimizedAffinity -10.5502272
REMARK CNNscore 0.158318713
REMARK CNNaffinity 7.42730951
REMARK  6 active torsions:
REMARK  status: ('A' for Active; 'I' for Inactive)
REMARK    1  A    between atoms: C2_2  and  C3_3 
REMARK       I    between atoms: C3_3  and  N1_5 
REMARK    2  A    between atoms: C7_9  and  C8_10 
REMARK    3  A    between atoms: C13_17  and  C14_18 
REMARK       I    between atoms: C14_18  and  N3_20 
REMARK    4  A    between atoms: N3_20  and  C15_21 
REMARK    5  A    between atoms: C17_23  and  C18_24 
REMARK    6  A    between atoms: C24_36  and  N5_37 
ROOT
HETATM    1  C8  UNL     1      -4.173   4.387  12.344  1.00  0.00     0.094 A 
HETATM    2  N2  UNL     1      -4.907   5.248  13.025  1.00  0.00    -0.342 N 
ATOM      3  H2  UNL     1      -4.602   6.140  13.415  1.00  0.00     0.167 HD
HETATM    4  C9  UNL     1      -6.164   4.702  13.103  1.00  0.00     0.077 A 
HETATM    5  C10 UNL     1      -7.250   5.399  13.745  1.00  0.00     0.032 A 
HETATM    6  C11 UNL     1      -7.257   5.534  15.137  1.00  0.00     0.018 A 
HETATM    7  C12 UNL     1      -8.271   6.262  15.770  1.00  0.00     0.018 A 
HETATM    8  C13 UNL     1      -9.273   6.888  15.010  1.00  0.00     0.035 A 
HETATM    9  C21 UNL     1      -9.273   6.734  13.617  1.00  0.00     0.060 A 
HETATM   10  C22 UNL     1      -8.266   5.997  12.998  1.00  0.00     0.130 A 
HETATM   11  F4  UNL     1      -8.288   5.885  11.662  1.00  0.00    -0.205 F 
HETATM   12  C23 UNL     1      -6.186   3.449  12.537  1.00  0.00     0.106 A 
HETATM   13  C24 UNL     1      -7.171   2.409  12.368  1.00  0.00     0.107 A 
HETATM   14  N6  UNL     1      -6.843   1.287  11.767  1.00  0.00    -0.354 N 
ATOM     15  H6  UNL     1      -7.531   0.543  11.650  1.00  0.00     0.166 HD
HETATM   16  C25 UNL     1      -5.557   1.130  11.298  1.00  0.00     0.107 A 
HETATM   17  C26 UNL     1      -4.595   2.057  11.424  1.00  0.00     0.116 A 
HETATM   18  N7  UNL     1      -4.908   3.249  12.053  1.00  0.00    -0.305 N 
ENDROOT
BRANCH   1  19
HETATM   19  C7  UNL     1      -2.742   4.649  11.969  1.00  0.00     0.072 C 
HETATM   20  C6  UNL     1      -1.816   3.447  12.189  1.00  0.00     0.015 C 
HETATM   21  C5  UNL     1      -0.366   3.739  11.781  1.00  0.00     0.021 C 
HETATM   22  C4  UNL     1      -0.094   5.215  11.501  1.00  0.00     0.126 C 
HETATM   23  N1  UNL     1      -0.738   6.064  12.502  1.00  0.00    -0.351 N 
HETATM   24  C3  UNL     1       0.037   7.008  13.190  1.00  0.00     0.232 C 
HETATM   25  C27 UNL     1      -2.193   5.933  12.613  1.00  0.00     0.138 C 
HETATM   26  O1  UNL     1       1.268   7.034  13.032  1.00  0.00    -0.272 OA
BRANCH  24  27
HETATM   27  C2  UNL     1      -0.651   7.993  14.180  1.00  0.00     0.080 C 
HETATM   28  C1  UNL     1      -1.451   9.086  13.462  1.00  0.00     0.030 C 
HETATM   29  C28 UNL     1      -1.544   7.301  15.246  1.00  0.00     0.188 C 
HETATM   30  O3  UNL     1      -0.978   8.127  16.298  1.00  0.00    -0.389 OA
HETATM   31  C29 UNL     1       0.127   8.464  15.426  1.00  0.00     0.188 C 
ENDBRANCH  24  27
ENDBRANCH   1  19
BRANCH  13  32
HETATM   32  N5  UNL     1      -8.456   2.487  12.819  1.00  0.00    -0.287 NA
HETATM   33  H18 UNL     1      -8.610   3.016  13.667  1.00  0.00     0.125 HD
HETATM   34  H19 UNL     1      -8.911   1.581  12.817  1.00  0.00     0.125 HD
ENDBRANCH  13  32
BRANCH   8  35
HETATM   35  C14 UNL     1     -10.359   7.710  15.623  1.00  0.00     0.257 C 
HETATM   36  O2  UNL     1     -11.473   7.679  15.110  1.00  0.00    -0.267 OA
HETATM   37  N3  UNL     1      -9.996   8.471  16.708  1.00  0.00    -0.309 N 
HETATM   38  H13 UNL     1      -9.032   8.524  17.003  1.00  0.00     0.170 HD
BRANCH  37  39
HETATM   39  C15 UNL     1     -10.804   9.287  17.500  1.00  0.00     0.108 A 
HETATM   40  C16 UNL     1     -10.924   9.179  18.877  1.00  0.00     0.064 A 
HETATM   41  C17 UNL     1     -11.764  10.068  19.563  1.00  0.00     0.052 A 
HETATM   42  C19 UNL     1     -12.455  11.034  18.830  1.00  0.00     0.033 A 
HETATM   43  C20 UNL     1     -12.276  11.068  17.460  1.00  0.00     0.090 A 
HETATM   44  N4  UNL     1     -11.469  10.220  16.786  1.00  0.00    -0.352 N 
ATOM     45  H4  UNL     1     -11.364  10.283  15.773  1.00  0.00     0.166 HD
BRANCH  41  46
HETATM   46  C18 UNL     1     -11.928   9.952  21.056  1.00  0.00     0.417 C 
HETATM   47  F1  UNL     1     -12.540   8.792  21.418  1.00  0.00    -0.166 F 
HETATM   48  F2  UNL     1     -12.680  10.954  21.591  1.00  0.00    -0.166 F 
HETATM   49  F3  UNL     1     -10.744   9.982  21.725  1.00  0.00    -0.166 F 
ENDBRANCH  41  46
ENDBRANCH  37  39
ENDBRANCH   8  35
TORSDOF 6
ENDMDL
MODEL 6
REMARK minimizedAffinity -9.14232254
REMARK CNNscore 0.0859635323
REMARK CNNaffinity 7.15428114
REMARK  6 active torsions:
REMARK  status: ('A' for Active; 'I' for Inactive)
REMARK    1  A    between atoms: C2_2  and  C3_3 
REMARK       I    between atoms: C3_3  and  N1_5 
REMARK    2  A    between atoms: C7_9  and  C8_10 
REMARK    3  A    between atoms: C13_17  and  C14_18 
REMARK       I    between atoms: C14_18  and  N3_20 
REMARK    4  A    between atoms: N3_20  and  C15_21 
REMARK    5  A    between atoms: C17_23  and  C18_24 
REMARK    6  A    between atoms: C24_36  and  N5_37 
ROOT
HETATM    1  C8  UNL     1      -2.100   6.020  14.495  1.00  0.00     0.094 A 
HETATM    2  N2  UNL     1      -3.188   6.495  15.076  1.00  0.00    -0.342 N 
ATOM      3  H2  UNL     1      -3.228   7.145  15.861  1.00  0.00     0.167 HD
HETATM    4  C9  UNL     1      -4.252   5.936  14.413  1.00  0.00     0.077 A 
HETATM    5  C10 UNL     1      -5.611   6.270  14.754  1.00  0.00     0.032 A 
HETATM    6  C11 UNL     1      -6.157   5.804  15.955  1.00  0.00     0.018 A 
HETATM    7  C12 UNL     1      -7.454   6.171  16.330  1.00  0.00     0.018 A 
HETATM    8  C13 UNL     1      -8.208   7.035  15.517  1.00  0.00     0.035 A 
HETATM    9  C21 UNL     1      -7.665   7.483  14.306  1.00  0.00     0.060 A 
HETATM   10  C22 UNL     1      -6.377   7.102  13.936  1.00  0.00     0.130 A 
HETATM   11  F4  UNL     1      -5.884   7.564  12.778  1.00  0.00    -0.205 F 
HETATM   12  C23 UNL     1      -3.817   5.039  13.465  1.00  0.00     0.106 A 
HETATM   13  C24 UNL     1      -4.447   4.143  12.525  1.00  0.00     0.107 A 
HETATM   14  N6  UNL     1      -3.707   3.390  11.744  1.00  0.00    -0.354 N 
ATOM     15  H6  UNL     1      -4.143   2.748  11.081  1.00  0.00     0.166 HD
HETATM   16  C25 UNL     1      -2.335   3.477  11.832  1.00  0.00     0.107 A 
HETATM   17  C26 UNL     1      -1.689   4.287  12.684  1.00  0.00     0.116 A 
HETATM   18  N7  UNL     1      -2.439   5.094  13.522  1.00  0.00    -0.305 N 
ENDROOT
BRANCH   1  19
HETATM   19  C7  UNL     1      -0.713   6.451  14.878  1.00  0.00     0.072 C 
HETATM   20  C6  UNL     1      -0.665   7.798  15.608  1.00  0.00     0.015 C 
HETATM   21  C5  UNL     1       0.762   8.202  16.002  1.00  0.00     0.021 C 
HETATM   22  C4  UNL     1       1.843   7.333  15.364  1.00  0.00     0.126 C 
HETATM   23  N1  UNL     1       1.540   7.069  13.959  1.00  0.00    -0.351 N 
HETATM   24  C3  UNL     1       2.508   7.362  12.989  1.00  0.00     0.232 C 
HETATM   25  C27 UNL     1       0.266   6.394  13.694  1.00  0.00     0.138 C 
HETATM   26  O1  UNL     1       3.555   7.945  13.314  1.00  0.00    -0.272 OA
BRANCH  24  27
HETATM   27  C2  UNL     1       2.244   6.988  11.502  1.00  0.00     0.080 C 
HETATM   28  C1  UNL     1       1.354   8.009  10.785  1.00  0.00     0.030 C 
HETATM   29  C28 UNL     1       3.533   6.738  10.671  1.00  0.00     0.188 C 
HETATM   30  O3  UNL     1       2.961   5.535  10.091  1.00  0.00    -0.389 OA
HETATM   31  C29 UNL     1       1.966   5.512  11.142  1.00  0.00     0.188 C 
ENDBRANCH  24  27
ENDBRANCH   1  19
BRANCH  13  32
HETATM   32  N5  UNL     1      -5.796   3.992  12.393  1.00  0.00    -0.287 NA
HETATM   33  H18 UNL     1      -6.351   4.110  13.229  1.00  0.00     0.125 HD
HETATM   34  H19 UNL     1      -6.031   3.161  11.862  1.00  0.00     0.125 HD
ENDBRANCH  13  32
BRANCH   8  35
HETATM   35  C14 UNL     1      -9.582   7.494  15.881  1.00  0.00     0.257 C 
HETATM   36  O2  UNL     1     -10.528   7.085  15.215  1.00  0.00    -0.267 OA
HETATM   37  N3  UNL     1      -9.661   8.379  16.928  1.00  0.00    -0.309 N 
HETATM   38  H13 UNL     1      -8.825   8.751  17.355  1.00  0.00     0.170 HD
BRANCH  37  39
HETATM   39  C15 UNL     1     -10.804   8.931  17.510  1.00  0.00     0.108 A 
HETATM   40  C16 UNL     1     -10.926   9.257  18.852  1.00  0.00     0.064 A 
HETATM   41  C17 UNL     1     -12.126   9.816  19.314  1.00  0.00     0.052 A 
HETATM   42  C19 UNL     1     -13.163  10.020  18.401  1.00  0.00     0.033 A 
HETATM   43  C20 UNL     1     -12.954   9.663  17.082  1.00  0.00     0.090 A 
HETATM   44  N4  UNL     1     -11.802   9.128  16.622  1.00  0.00    -0.352 N 
ATOM     45  H4  UNL     1     -11.690   8.881  15.639  1.00  0.00     0.166 HD
BRANCH  41  46
HETATM   46  C18 UNL     1     -12.289  10.155  20.772  1.00  0.00     0.417 C 
HETATM   47  F1  UNL     1     -13.573  10.005  21.197  1.00  0.00    -0.166 F 
HETATM   48  F2  UNL     1     -11.947  11.441  21.063  1.00  0.00    -0.166 F 
HETATM   49  F3  UNL     1     -11.526   9.376  21.586  1.00  0.00    -0.166 F 
ENDBRANCH  41  46
ENDBRANCH  37  39
ENDBRANCH   8  35
TORSDOF 6
ENDMDL
MODEL 7
REMARK minimizedAffinity -8.94917679
REMARK CNNscore 0.0821201876
REMARK CNNaffinity 5.6400547
REMARK  6 active torsions:
REMARK  status: ('A' for Active; 'I' for Inactive)
REMARK    1  A    between atoms: C2_2  and  C3_3 
REMARK       I    between atoms: C3_3  and  N1_5 
REMARK    2  A    between atoms: C7_9  and  C8_10 
REMARK    3  A    between atoms: C13_17  and  C14_18 
REMARK       I    between atoms: C14_18  and  N3_20 
REMARK    4  A    between atoms: N3_20  and  C15_21 
REMARK    5  A    between atoms: C17_23  and  C18_24 
REMARK    6  A    between atoms: C24_36  and  N5_37 
ROOT
HETATM    1  C8  UNL     1     -10.951  -9.232  13.621  1.00  0.00     0.094 A 
HETATM    2  N2  UNL     1     -11.656  -8.235  13.116  1.00  0.00    -0.342 N 
ATOM      3  H2  UNL     1     -11.816  -8.037  12.128  1.00  0.00     0.167 HD
HETATM    4  C9  UNL     1     -12.130  -7.520  14.187  1.00  0.00     0.077 A 
HETATM    5  C10 UNL     1     -12.986  -6.375  14.009  1.00  0.00     0.032 A 
HETATM    6  C11 UNL     1     -12.456  -5.188  13.492  1.00  0.00     0.018 A 
HETATM    7  C12 UNL     1     -13.287  -4.088  13.254  1.00  0.00     0.018 A 
HETATM    8  C13 UNL     1     -14.667  -4.177  13.505  1.00  0.00     0.035 A 
HETATM    9  C21 UNL     1     -15.191  -5.361  14.041  1.00  0.00     0.060 A 
HETATM   10  C22 UNL     1     -14.352  -6.446  14.286  1.00  0.00     0.130 A 
HETATM   11  F4  UNL     1     -14.891  -7.568  14.784  1.00  0.00    -0.205 F 
HETATM   12  C23 UNL     1     -11.641  -8.030  15.367  1.00  0.00     0.106 A 
HETATM   13  C24 UNL     1     -11.746  -7.685  16.765  1.00  0.00     0.107 A 
HETATM   14  N6  UNL     1     -11.120  -8.406  17.666  1.00  0.00    -0.354 N 
ATOM     15  H6  UNL     1     -11.183  -8.166  18.656  1.00  0.00     0.166 HD
HETATM   16  C25 UNL     1     -10.378  -9.493  17.257  1.00  0.00     0.107 A 
HETATM   17  C26 UNL     1     -10.239  -9.866  15.976  1.00  0.00     0.116 A 
HETATM   18  N7  UNL     1     -10.885  -9.126  15.001  1.00  0.00    -0.305 N 
ENDROOT
BRANCH   1  19
HETATM   19  C7  UNL     1     -10.322 -10.301  12.774  1.00  0.00     0.072 C 
HETATM   20  C6  UNL     1     -10.129 -11.635  13.505  1.00  0.00     0.015 C 
HETATM   21  C5  UNL     1      -9.503 -12.711  12.609  1.00  0.00     0.021 C 
HETATM   22  C4  UNL     1      -8.963 -12.170  11.287  1.00  0.00     0.126 C 
HETATM   23  N1  UNL     1      -8.252 -10.909  11.491  1.00  0.00    -0.351 N 
HETATM   24  C3  UNL     1      -6.941 -10.784  11.010  1.00  0.00     0.232 C 
HETATM   25  C27 UNL     1      -9.033  -9.822  12.087  1.00  0.00     0.138 C 
HETATM   26  O1  UNL     1      -6.361 -11.769  10.527  1.00  0.00    -0.272 OA
BRANCH  24  27
HETATM   27  C2  UNL     1      -6.209  -9.415  11.122  1.00  0.00     0.080 C 
HETATM   28  C1  UNL     1      -4.690  -9.544  10.964  1.00  0.00     0.030 C 
HETATM   29  C28 UNL     1      -6.748  -8.326  10.154  1.00  0.00     0.188 C 
HETATM   30  O3  UNL     1      -6.754  -7.340  11.220  1.00  0.00    -0.389 OA
HETATM   31  C29 UNL     1      -6.672  -8.407  12.195  1.00  0.00     0.188 C 
ENDBRANCH  24  27
ENDBRANCH   1  19
BRANCH  13  32
HETATM   32  N5  UNL     1     -12.448  -6.617  17.242  1.00  0.00    -0.287 NA
HETATM   33  H18 UNL     1     -12.493  -5.800  16.648  1.00  0.00     0.125 HD
HETATM   34  H19 UNL     1     -12.207  -6.408  18.204  1.00  0.00     0.125 HD
ENDBRANCH  13  32
BRANCH   8  35
HETATM   35  C14 UNL     1     -15.612  -3.052  13.236  1.00  0.00     0.257 C 
HETATM   36  O2  UNL     1     -16.786  -3.320  13.001  1.00  0.00    -0.267 OA
HETATM   37  N3  UNL     1     -15.062  -1.794  13.238  1.00  0.00    -0.309 N 
HETATM   38  H13 UNL     1     -14.065  -1.665  13.332  1.00  0.00     0.170 HD
BRANCH  37  39
HETATM   39  C15 UNL     1     -15.708  -0.568  13.067  1.00  0.00     0.108 A 
HETATM   40  C16 UNL     1     -15.550   0.529  13.901  1.00  0.00     0.064 A 
HETATM   41  C17 UNL     1     -16.249   1.711  13.617  1.00  0.00     0.052 A 
HETATM   42  C19 UNL     1     -17.085   1.740  12.500  1.00  0.00     0.033 A 
HETATM   43  C20 UNL     1     -17.183   0.599  11.724  1.00  0.00     0.090 A 
HETATM   44  N4  UNL     1     -16.514  -0.545  11.984  1.00  0.00    -0.352 N 
ATOM     45  H4  UNL     1     -16.613  -1.363  11.384  1.00  0.00     0.166 HD
BRANCH  41  46
HETATM   46  C18 UNL     1     -16.112   2.905  14.524  1.00  0.00     0.417 C 
HETATM   47  F1  UNL     1     -16.695   2.702  15.736  1.00  0.00    -0.166 F 
HETATM   48  F2  UNL     1     -16.688   4.031  14.017  1.00  0.00    -0.166 F 
HETATM   49  F3  UNL     1     -14.816   3.235  14.776  1.00  0.00    -0.166 F 
ENDBRANCH  41  46
ENDBRANCH  37  39
ENDBRANCH   8  35
TORSDOF 6
ENDMDL
MODEL 8
REMARK minimizedAffinity -9.46718597
REMARK CNNscore 0.069793798
REMARK CNNaffinity 6.9493289
REMARK  6 active torsions:
REMARK  status: ('A' for Active; 'I' for Inactive)
REMARK    1  A    between atoms: C2_2  and  C3_3 
REMARK       I    between atoms: C3_3  and  N1_5 
REMARK    2  A    between atoms: C7_9  and  C8_10 
REMARK    3  A    between atoms: C13_17  and  C14_18 
REMARK       I    between atoms: C14_18  and  N3_20 
REMARK    4  A    between atoms: N3_20  and  C15_21 
REMARK    5  A    between atoms: C17_23  and  C18_24 
REMARK    6  A    between atoms: C24_36  and  N5_37 
ROOT
HETATM    1  C8  UNL     1      -8.541   6.362  13.795  1.00  0.00     0.094 A 
HETATM    2  N2  UNL     1      -7.581   7.227  14.071  1.00  0.00    -0.342 N 
ATOM      3  H2  UNL     1      -7.697   8.197  14.365  1.00  0.00     0.167 HD
HETATM    4  C9  UNL     1      -6.397   6.558  13.883  1.00  0.00     0.077 A 
HETATM    5  C10 UNL     1      -5.127   7.189  14.139  1.00  0.00     0.032 A 
HETATM    6  C11 UNL     1      -4.664   8.187  13.276  1.00  0.00     0.018 A 
HETATM    7  C12 UNL     1      -3.463   8.852  13.547  1.00  0.00     0.018 A 
HETATM    8  C13 UNL     1      -2.729   8.543  14.705  1.00  0.00     0.035 A 
HETATM    9  C21 UNL     1      -3.186   7.529  15.556  1.00  0.00     0.060 A 
HETATM   10  C22 UNL     1      -4.377   6.864  15.271  1.00  0.00     0.130 A 
HETATM   11  F4  UNL     1      -4.793   5.911  16.116  1.00  0.00    -0.205 F 
HETATM   12  C23 UNL     1      -6.626   5.291  13.402  1.00  0.00     0.106 A 
HETATM   13  C24 UNL     1      -5.804   4.180  12.985  1.00  0.00     0.107 A 
HETATM   14  N6  UNL     1      -6.367   3.075  12.552  1.00  0.00    -0.354 N 
ATOM     15  H6  UNL     1      -5.795   2.287  12.248  1.00  0.00     0.166 HD
HETATM   16  C25 UNL     1      -7.743   2.995  12.513  1.00  0.00     0.107 A 
HETATM   17  C26 UNL     1      -8.562   3.990  12.884  1.00  0.00     0.116 A 
HETATM   18  N7  UNL     1      -8.000   5.168  13.345  1.00  0.00    -0.305 N 
ENDROOT
BRANCH   1  19
HETATM   19  C7  UNL     1     -10.000   6.680  13.955  1.00  0.00     0.072 C 
HETATM   20  C6  UNL     1     -10.728   6.925  12.628  1.00  0.00     0.015 C 
HETATM   21  C5  UNL     1     -12.219   7.229  12.823  1.00  0.00     0.021 C 
HETATM   22  C4  UNL     1     -12.607   7.488  14.277  1.00  0.00     0.126 C 
HETATM   23  N1  UNL     1     -11.614   8.332  14.940  1.00  0.00    -0.351 N 
HETATM   24  C3  UNL     1     -12.040   9.499  15.589  1.00  0.00     0.232 C 
HETATM   25  C27 UNL     1     -10.245   7.808  14.971  1.00  0.00     0.138 C 
HETATM   26  O1  UNL     1     -13.223   9.863  15.497  1.00  0.00    -0.272 OA
BRANCH  24  27
HETATM   27  C2  UNL     1     -11.014  10.350  16.391  1.00  0.00     0.080 C 
HETATM   28  C1  UNL     1     -10.808   9.834  17.820  1.00  0.00     0.030 C 
HETATM   29  C28 UNL     1      -9.639  10.516  15.689  1.00  0.00     0.188 C 
HETATM   30  O3  UNL     1      -9.625  11.938  15.986  1.00  0.00    -0.389 OA
HETATM   31  C29 UNL     1     -11.048  11.887  16.250  1.00  0.00     0.188 C 
ENDBRANCH  24  27
ENDBRANCH   1  19
BRANCH  13  32
HETATM   32  N5  UNL     1      -4.440   4.192  12.981  1.00  0.00    -0.287 NA
HETATM   33  H18 UNL     1      -3.994   5.080  12.797  1.00  0.00     0.125 HD
HETATM   34  H19 UNL     1      -4.059   3.425  12.439  1.00  0.00     0.125 HD
ENDBRANCH  13  32
BRANCH   8  35
HETATM   35  C14 UNL     1      -1.460   9.244  15.069  1.00  0.00     0.257 C 
HETATM   36  O2  UNL     1      -0.812   9.779  14.174  1.00  0.00    -0.267 OA
HETATM   37  N3  UNL     1      -1.107   9.194  16.395  1.00  0.00    -0.309 N 
HETATM   38  H13 UNL     1      -1.638   8.641  17.051  1.00  0.00     0.170 HD
BRANCH  37  39
HETATM   39  C15 UNL     1      -0.013   9.795  17.021  1.00  0.00     0.108 A 
HETATM   40  C16 UNL     1      -0.093  10.594  18.151  1.00  0.00     0.064 A 
HETATM   41  C17 UNL     1       1.083  11.132  18.693  1.00  0.00     0.052 A 
HETATM   42  C19 UNL     1       2.298  10.845  18.069  1.00  0.00     0.033 A 
HETATM   43  C20 UNL     1       2.283  10.040  16.946  1.00  0.00     0.090 A 
HETATM   44  N4  UNL     1       1.159   9.512  16.415  1.00  0.00    -0.352 N 
ATOM     45  H4  UNL     1       1.195   8.920  15.585  1.00  0.00     0.166 HD
BRANCH  41  46
HETATM   46  C18 UNL     1       1.016  12.024  19.905  1.00  0.00     0.417 C 
HETATM   47  F1  UNL     1      -0.181  12.662  20.011  1.00  0.00    -0.166 F 
HETATM   48  F2  UNL     1       1.962  13.004  19.901  1.00  0.00    -0.166 F 
HETATM   49  F3  UNL     1       1.190  11.348  21.073  1.00  0.00    -0.166 F 
ENDBRANCH  41  46
ENDBRANCH  37  39
ENDBRANCH   8  35
TORSDOF 6
ENDMDL
MODEL 9
REMARK minimizedAffinity -9.32152748
REMARK CNNscore 0.0542164966
REMARK CNNaffinity 7.17299509
REMARK  6 active torsions:
REMARK  status: ('A' for Active; 'I' for Inactive)
REMARK    1  A    between atoms: C2_2  and  C3_3 
REMARK       I    between atoms: C3_3  and  N1_5 
REMARK    2  A    between atoms: C7_9  and  C8_10 
REMARK    3  A    between atoms: C13_17  and  C14_18 
REMARK       I    between atoms: C14_18  and  N3_20 
REMARK    4  A    between atoms: N3_20  and  C15_21 
REMARK    5  A    between atoms: C17_23  and  C18_24 
REMARK    6  A    between atoms: C24_36  and  N5_37 
ROOT
HETATM    1  C8  UNL     1      -2.099   5.806  14.247  1.00  0.00     0.094 A 
HETATM    2  N2  UNL     1      -3.117   6.393  14.852  1.00  0.00    -0.342 N 
ATOM      3  H2  UNL     1      -3.069   7.086  15.598  1.00  0.00     0.167 HD
HETATM    4  C9  UNL     1      -4.252   5.882  14.273  1.00  0.00     0.077 A 
HETATM    5  C10 UNL     1      -5.564   6.336  14.660  1.00  0.00     0.032 A 
HETATM    6  C11 UNL     1      -6.079   5.979  15.910  1.00  0.00     0.018 A 
HETATM    7  C12 UNL     1      -7.324   6.463  16.325  1.00  0.00     0.018 A 
HETATM    8  C13 UNL     1      -8.054   7.337  15.501  1.00  0.00     0.035 A 
HETATM    9  C21 UNL     1      -7.544   7.677  14.241  1.00  0.00     0.060 A 
HETATM   10  C22 UNL     1      -6.309   7.179  13.833  1.00  0.00     0.130 A 
HETATM   11  F4  UNL     1      -5.844   7.539  12.628  1.00  0.00    -0.205 F 
HETATM   12  C23 UNL     1      -3.935   4.905  13.360  1.00  0.00     0.106 A 
HETATM   13  C24 UNL     1      -4.677   4.010  12.504  1.00  0.00     0.107 A 
HETATM   14  N6  UNL     1      -4.037   3.161  11.733  1.00  0.00    -0.354 N 
ATOM     15  H6  UNL     1      -4.553   2.519  11.130  1.00  0.00     0.166 HD
HETATM   16  C25 UNL     1      -2.659   3.148  11.750  1.00  0.00     0.107 A 
HETATM   17  C26 UNL     1      -1.911   3.951  12.522  1.00  0.00     0.116 A 
HETATM   18  N7  UNL     1      -2.555   4.857  13.346  1.00  0.00    -0.305 N 
ENDROOT
BRANCH   1  19
HETATM   19  C7  UNL     1      -0.666   6.150  14.538  1.00  0.00     0.072 C 
HETATM   20  C6  UNL     1      -0.494   7.423  15.376  1.00  0.00     0.015 C 
HETATM   21  C5  UNL     1       0.978   7.737  15.671  1.00  0.00     0.021 C 
HETATM   22  C4  UNL     1       1.959   6.892  14.863  1.00  0.00     0.126 C 
HETATM   23  N1  UNL     1       1.522   6.769  13.473  1.00  0.00    -0.351 N 
HETATM   24  C3  UNL     1       2.413   7.115  12.448  1.00  0.00     0.232 C 
HETATM   25  C27 UNL     1       0.201   6.166  13.268  1.00  0.00     0.138 C 
HETATM   26  O1  UNL     1       3.508   7.627  12.726  1.00  0.00    -0.272 OA
BRANCH  24  27
HETATM   27  C2  UNL     1       2.002   6.887  10.964  1.00  0.00     0.080 C 
HETATM   28  C1  UNL     1       1.076   7.987  10.433  1.00  0.00     0.030 C 
HETATM   29  C28 UNL     1       3.201   6.696   9.996  1.00  0.00     0.188 C 
HETATM   30  O3  UNL     1       2.548   5.563   9.364  1.00  0.00    -0.389 OA
HETATM   31  C29 UNL     1       1.654   5.458  10.497  1.00  0.00     0.188 C 
ENDBRANCH  24  27
ENDBRANCH   1  19
BRANCH  13  32
HETATM   32  N5  UNL     1      -6.039   3.955  12.446  1.00  0.00    -0.287 NA
HETATM   33  H18 UNL     1      -6.539   4.160  13.300  1.00  0.00     0.125 HD
HETATM   34  H19 UNL     1      -6.361   3.117  11.976  1.00  0.00     0.125 HD
ENDBRANCH  13  32
BRANCH   8  35
HETATM   35  C14 UNL     1      -9.370   7.918  15.904  1.00  0.00     0.257 C 
HETATM   36  O2  UNL     1      -9.552   8.185  17.088  1.00  0.00    -0.267 OA
HETATM   37  N3  UNL     1     -10.292   8.070  14.897  1.00  0.00    -0.309 N 
HETATM   38  H13 UNL     1     -10.104   7.725  13.967  1.00  0.00     0.170 HD
BRANCH  37  39
HETATM   39  C15 UNL     1     -11.570   8.626  14.972  1.00  0.00     0.108 A 
HETATM   40  C16 UNL     1     -11.962   9.790  14.331  1.00  0.00     0.064 A 
HETATM   41  C17 UNL     1     -13.282  10.242  14.477  1.00  0.00     0.052 A 
HETATM   42  C19 UNL     1     -14.157   9.499  15.271  1.00  0.00     0.033 A 
HETATM   43  C20 UNL     1     -13.680   8.350  15.874  1.00  0.00     0.090 A 
HETATM   44  N4  UNL     1     -12.413   7.902  15.739  1.00  0.00    -0.352 N 
ATOM     45  H4  UNL     1     -12.103   7.046  16.201  1.00  0.00     0.166 HD
BRANCH  41  46
HETATM   46  C18 UNL     1     -13.721  11.518  13.810  1.00  0.00     0.417 C 
HETATM   47  F1  UNL     1     -14.971  11.897  14.193  1.00  0.00    -0.166 F 
HETATM   48  F2  UNL     1     -13.759  11.426  12.451  1.00  0.00    -0.166 F 
HETATM   49  F3  UNL     1     -12.903  12.570  14.085  1.00  0.00    -0.166 F 
ENDBRANCH  41  46
ENDBRANCH  37  39
ENDBRANCH   8  35
TORSDOF 6
ENDMDL
