MODEL 1
REMARK minimizedAffinity -9.18162346
REMARK CNNscore 0.133934185
REMARK CNNaffinity 6.90040445
REMARK  10 active torsions:
REMARK  status: ('A' for Active; 'I' for Inactive)
REMARK    1  A    between atoms: C2_2  and  C3_3 
REMARK       I    between atoms: C3_3  and  N1_5 
REMARK    2  A    between atoms: C6_8  and  N2_9 
REMARK    3  A    between atoms: C7_12  and  C8_13 
REMARK    4  A    between atoms: C9_14  and  C10_15 
REMARK    5  A    between atoms: C12_17  and  C13_18 
REMARK       I    between atoms: C13_18  and  N4_20 
REMARK    6  A    between atoms: N4_20  and  C14_21 
REMARK    7  A    between atoms: C17_24  and  C18_25 
REMARK    8  A    between atoms: C18_25  and  N5_26 
REMARK    9  A    between atoms: C24_33  and  C25_34 
REMARK   10  A    between atoms: C32_44  and  N7_45 
ROOT
HETATM    1  C10 UNL     1       0.143  50.246 -15.685  1.00  0.00     0.025 A 
HETATM    2  C11 UNL     1       1.066  51.089 -15.053  1.00  0.00     0.038 A 
HETATM    3  C12 UNL     1       1.202  51.052 -13.662  1.00  0.00     0.033 A 
HETATM    4  C27 UNL     1       0.415  50.185 -12.900  1.00  0.00     0.017 A 
HETATM    5  C28 UNL     1      -0.491  49.332 -13.530  1.00  0.00     0.009 A 
HETATM    6  C29 UNL     1      -0.638  49.353 -14.925  1.00  0.00    -0.043 A 
HETATM    7  C30 UNL     1      -1.640  48.433 -15.569  1.00  0.00     0.049 C 
ENDROOT
BRANCH   1   8
HETATM    8  C9  UNL     1      -0.008  50.326 -17.109  1.00  0.00    -0.059 C 
HETATM    9  C8  UNL     1      -0.152  50.463 -18.294  1.00  0.00    -0.041 C 
BRANCH   9  10
HETATM   10  C7  UNL     1      -0.374  50.683 -19.684  1.00  0.00     0.119 A 
HETATM   11  N3  UNL     1      -1.093  49.780 -20.354  1.00  0.00    -0.287 N 
HETATM   12  N2  UNL     1      -1.071  50.238 -21.632  1.00  0.00    -0.270 N 
ATOM     13  H3  UNL     1      -1.551  48.943 -19.991  1.00  0.00     0.188 HD
HETATM   14  C34 UNL     1      -0.357  51.405 -21.767  1.00  0.00     0.140 A 
HETATM   15  C31 UNL     1       0.112  51.721 -20.500  1.00  0.00     0.084 A 
HETATM   16  N9  UNL     1      -0.136  52.111 -22.889  1.00  0.00    -0.337 N 
HETATM   17  C32 UNL     1       0.886  52.876 -20.374  1.00  0.00     0.095 A 
HETATM   18  N8  UNL     1       1.126  53.614 -21.476  1.00  0.00    -0.342 N 
HETATM   19  C33 UNL     1       0.609  53.203 -22.649  1.00  0.00     0.183 A 
ATOM     20  H8  UNL     1       1.687  54.465 -21.423  1.00  0.00     0.167 HD
ATOM     21  H9  UNL     1      -0.490  51.850 -23.810  1.00  0.00     0.168 HD
BRANCH  12  22
HETATM   22  C6  UNL     1      -1.722  49.422 -22.656  1.00  0.00     0.113 C 
HETATM   23  C5  UNL     1      -2.769  50.261 -23.410  1.00  0.00     0.047 C 
HETATM   24  C4  UNL     1      -3.811  49.377 -24.079  1.00  0.00     0.128 C 
HETATM   25  N1  UNL     1      -4.540  48.591 -23.085  1.00  0.00    -0.349 N 
HETATM   26  C3  UNL     1      -5.895  48.365 -23.303  1.00  0.00     0.242 C 
HETATM   27  C36 UNL     1      -3.779  48.097 -21.936  1.00  0.00     0.128 C 
HETATM   28  O1  UNL     1      -6.460  48.680 -24.352  1.00  0.00    -0.268 OA
HETATM   29  C35 UNL     1      -2.276  48.059 -22.200  1.00  0.00     0.047 C 
BRANCH  26  30
HETATM   30  C2  UNL     1      -6.670  47.737 -22.195  1.00  0.00     0.064 C 
HETATM   31  C1  UNL     1      -7.605  48.443 -21.542  1.00  0.00     0.017 C 
ENDBRANCH  26  30
ENDBRANCH  12  22
BRANCH  17  32
HETATM   32  N7  UNL     1       1.442  53.328 -19.188  1.00  0.00    -0.288 NA
HETATM   33  H32 UNL     1       1.656  52.620 -18.496  1.00  0.00     0.125 HD
HETATM   34  H33 UNL     1       2.162  54.022 -19.362  1.00  0.00     0.125 HD
ENDBRANCH  17  32
ENDBRANCH   9  10
ENDBRANCH   1   8
BRANCH   3  35
HETATM   35  C13 UNL     1       2.146  51.945 -12.948  1.00  0.00     0.256 C 
HETATM   36  O2  UNL     1       3.286  52.032 -13.385  1.00  0.00    -0.267 OA
HETATM   37  N4  UNL     1       1.600  52.623 -11.875  1.00  0.00    -0.323 N 
HETATM   38  H10 UNL     1       0.621  52.464 -11.683  1.00  0.00     0.169 HD
BRANCH  37  39
HETATM   39  C14 UNL     1       2.234  53.605 -11.083  1.00  0.00     0.035 A 
HETATM   40  C15 UNL     1       1.635  54.801 -10.704  1.00  0.00     0.030 A 
HETATM   41  C16 UNL     1       2.312  55.713  -9.887  1.00  0.00     0.012 A 
HETATM   42  C17 UNL     1       3.613  55.450  -9.426  1.00  0.00    -0.015 A 
HETATM   43  C24 UNL     1       4.238  54.242  -9.804  1.00  0.00     0.058 A 
HETATM   44  C26 UNL     1       3.537  53.341 -10.640  1.00  0.00     0.046 A 
BRANCH  42  45
HETATM   45  C18 UNL     1       4.287  56.469  -8.526  1.00  0.00     0.311 C 
BRANCH  45  46
HETATM   46  N5  UNL     1       3.632  56.577  -7.221  1.00  0.00     0.096 N 
HETATM   47  C19 UNL     1       4.540  56.271  -6.094  1.00  0.00     0.303 C 
HETATM   48  C20 UNL     1       5.103  57.516  -5.369  1.00  0.00     0.302 C 
HETATM   49  N6  UNL     1       4.079  58.450  -4.858  1.00  0.00     0.087 N 
HETATM   50  C21 UNL     1       3.868  58.298  -3.421  1.00  0.00     0.310 C 
HETATM   51  C22 UNL     1       2.799  58.295  -5.583  1.00  0.00     0.302 C 
HETATM   52  C23 UNL     1       3.018  57.915  -7.062  1.00  0.00     0.303 C 
ENDBRANCH  45  46
ENDBRANCH  42  45
BRANCH  43  53
HETATM   53  C25 UNL     1       5.642  53.874  -9.364  1.00  0.00     0.418 C 
HETATM   54  F1  UNL     1       6.078  52.668  -9.828  1.00  0.00    -0.166 F 
HETATM   55  F2  UNL     1       6.573  54.774  -9.825  1.00  0.00    -0.166 F 
HETATM   56  F3  UNL     1       5.803  53.864  -8.013  1.00  0.00    -0.166 F 
ENDBRANCH  43  53
ENDBRANCH  37  39
ENDBRANCH   3  35
TORSDOF 10
ENDMDL
MODEL 2
REMARK minimizedAffinity -9.48466873
REMARK CNNscore 0.100144163
REMARK CNNaffinity 6.81748199
REMARK  10 active torsions:
REMARK  status: ('A' for Active; 'I' for Inactive)
REMARK    1  A    between atoms: C2_2  and  C3_3 
REMARK       I    between atoms: C3_3  and  N1_5 
REMARK    2  A    between atoms: C6_8  and  N2_9 
REMARK    3  A    between atoms: C7_12  and  C8_13 
REMARK    4  A    between atoms: C9_14  and  C10_15 
REMARK    5  A    between atoms: C12_17  and  C13_18 
REMARK       I    between atoms: C13_18  and  N4_20 
REMARK    6  A    between atoms: N4_20  and  C14_21 
REMARK    7  A    between atoms: C17_24  and  C18_25 
REMARK    8  A    between atoms: C18_25  and  N5_26 
REMARK    9  A    between atoms: C24_33  and  C25_34 
REMARK   10  A    between atoms: C32_44  and  N7_45 
ROOT
HETATM    1  C10 UNL     1      -0.029  52.145 -20.631  1.00  0.00     0.025 A 
HETATM    2  C11 UNL     1      -0.724  51.275 -19.781  1.00  0.00     0.038 A 
HETATM    3  C12 UNL     1      -0.491  51.316 -18.404  1.00  0.00     0.033 A 
HETATM    4  C27 UNL     1       0.437  52.214 -17.872  1.00  0.00     0.017 A 
HETATM    5  C28 UNL     1       1.116  53.093 -18.715  1.00  0.00     0.009 A 
HETATM    6  C29 UNL     1       0.893  53.069 -20.101  1.00  0.00    -0.043 A 
HETATM    7  C30 UNL     1       1.659  54.019 -20.982  1.00  0.00     0.049 C 
ENDROOT
BRANCH   1   8
HETATM    8  C9  UNL     1      -0.254  52.062 -22.045  1.00  0.00    -0.059 C 
HETATM    9  C8  UNL     1      -0.509  51.965 -23.215  1.00  0.00    -0.041 C 
BRANCH   9  10
HETATM   10  C7  UNL     1      -0.859  51.789 -24.585  1.00  0.00     0.119 A 
HETATM   11  N3  UNL     1      -1.465  50.652 -24.935  1.00  0.00    -0.287 N 
HETATM   12  N2  UNL     1      -1.606  50.766 -26.281  1.00  0.00    -0.270 N 
ATOM     13  H3  UNL     1      -1.755  49.881 -24.334  1.00  0.00     0.188 HD
HETATM   14  C34 UNL     1      -1.102  51.948 -26.770  1.00  0.00     0.140 A 
HETATM   15  C31 UNL     1      -0.606  52.640 -25.676  1.00  0.00     0.084 A 
HETATM   16  N9  UNL     1      -1.076  52.368 -28.047  1.00  0.00    -0.337 N 
HETATM   17  C32 UNL     1      -0.022  53.887 -25.917  1.00  0.00     0.095 A 
HETATM   18  N8  UNL     1       0.018  54.344 -27.185  1.00  0.00    -0.342 N 
HETATM   19  C33 UNL     1      -0.505  53.577 -28.160  1.00  0.00     0.183 A 
ATOM     20  H8  UNL     1       0.435  55.250 -27.400  1.00  0.00     0.167 HD
ATOM     21  H9  UNL     1      -1.446  51.832 -28.834  1.00  0.00     0.168 HD
BRANCH  12  22
HETATM   22  C6  UNL     1      -2.184  49.632 -27.000  1.00  0.00     0.113 C 
HETATM   23  C5  UNL     1      -3.353  50.109 -27.881  1.00  0.00     0.047 C 
HETATM   24  C4  UNL     1      -4.298  48.964 -28.215  1.00  0.00     0.128 C 
HETATM   25  N1  UNL     1      -4.889  48.407 -26.999  1.00  0.00    -0.349 N 
HETATM   26  C3  UNL     1      -6.211  47.980 -27.056  1.00  0.00     0.242 C 
HETATM   27  C36 UNL     1      -4.033  48.337 -25.813  1.00  0.00     0.128 C 
HETATM   28  O1  UNL     1      -6.846  47.929 -28.111  1.00  0.00    -0.268 OA
HETATM   29  C35 UNL     1      -2.547  48.395 -26.158  1.00  0.00     0.047 C 
BRANCH  26  30
HETATM   30  C2  UNL     1      -6.863  47.600 -25.771  1.00  0.00     0.064 C 
HETATM   31  C1  UNL     1      -7.731  46.579 -25.731  1.00  0.00     0.017 C 
ENDBRANCH  26  30
ENDBRANCH  12  22
BRANCH  17  32
HETATM   32  N7  UNL     1       0.532  54.700 -24.942  1.00  0.00    -0.288 NA
HETATM   33  H32 UNL     1       0.906  54.230 -24.127  1.00  0.00     0.125 HD
HETATM   34  H33 UNL     1       1.116  55.421 -25.356  1.00  0.00     0.125 HD
ENDBRANCH  17  32
ENDBRANCH   9  10
ENDBRANCH   1   8
BRANCH   3  35
HETATM   35  C13 UNL     1      -1.183  50.395 -17.470  1.00  0.00     0.256 C 
HETATM   36  O2  UNL     1      -1.471  50.823 -16.360  1.00  0.00    -0.267 OA
HETATM   37  N4  UNL     1      -1.466  49.148 -17.992  1.00  0.00    -0.323 N 
HETATM   38  H10 UNL     1      -1.194  48.981 -18.951  1.00  0.00     0.169 HD
BRANCH  37  39
HETATM   39  C14 UNL     1      -2.198  48.114 -17.368  1.00  0.00     0.035 A 
HETATM   40  C15 UNL     1      -2.379  48.014 -15.993  1.00  0.00     0.030 A 
HETATM   41  C16 UNL     1      -3.149  46.981 -15.447  1.00  0.00     0.012 A 
HETATM   42  C17 UNL     1      -3.758  46.016 -16.266  1.00  0.00    -0.015 A 
HETATM   43  C24 UNL     1      -3.582  46.101 -17.664  1.00  0.00     0.058 A 
HETATM   44  C26 UNL     1      -2.791  47.149 -18.192  1.00  0.00     0.046 A 
BRANCH  42  45
HETATM   45  C18 UNL     1      -4.597  44.931 -15.615  1.00  0.00     0.311 C 
BRANCH  45  46
HETATM   46  N5  UNL     1      -5.689  45.482 -14.810  1.00  0.00     0.096 N 
HETATM   47  C19 UNL     1      -6.741  46.123 -15.629  1.00  0.00     0.303 C 
HETATM   48  C20 UNL     1      -7.998  45.249 -15.852  1.00  0.00     0.302 C 
HETATM   49  N6  UNL     1      -8.645  44.768 -14.615  1.00  0.00     0.087 N 
HETATM   50  C21 UNL     1      -9.832  45.549 -14.278  1.00  0.00     0.310 C 
HETATM   51  C22 UNL     1      -7.698  44.760 -13.479  1.00  0.00     0.302 C 
HETATM   52  C23 UNL     1      -6.260  44.435 -13.932  1.00  0.00     0.303 C 
ENDBRANCH  45  46
ENDBRANCH  42  45
BRANCH  43  53
HETATM   53  C25 UNL     1      -4.193  45.102 -18.629  1.00  0.00     0.418 C 
HETATM   54  F1  UNL     1      -3.869  45.314 -19.937  1.00  0.00    -0.166 F 
HETATM   55  F2  UNL     1      -3.766  43.821 -18.375  1.00  0.00    -0.166 F 
HETATM   56  F3  UNL     1      -5.550  45.040 -18.559  1.00  0.00    -0.166 F 
ENDBRANCH  43  53
ENDBRANCH  37  39
ENDBRANCH   3  35
TORSDOF 10
ENDMDL
MODEL 3
REMARK minimizedAffinity -10.7299862
REMARK CNNscore 0.0985331237
REMARK CNNaffinity 6.55848265
REMARK  10 active torsions:
REMARK  status: ('A' for Active; 'I' for Inactive)
REMARK    1  A    between atoms: C2_2  and  C3_3 
REMARK       I    between atoms: C3_3  and  N1_5 
REMARK    2  A    between atoms: C6_8  and  N2_9 
REMARK    3  A    between atoms: C7_12  and  C8_13 
REMARK    4  A    between atoms: C9_14  and  C10_15 
REMARK    5  A    between atoms: C12_17  and  C13_18 
REMARK       I    between atoms: C13_18  and  N4_20 
REMARK    6  A    between atoms: N4_20  and  C14_21 
REMARK    7  A    between atoms: C17_24  and  C18_25 
REMARK    8  A    between atoms: C18_25  and  N5_26 
REMARK    9  A    between atoms: C24_33  and  C25_34 
REMARK   10  A    between atoms: C32_44  and  N7_45 
ROOT
HETATM    1  C10 UNL     1      -0.027  52.177 -20.506  1.00  0.00     0.025 A 
HETATM    2  C11 UNL     1      -0.731  51.373 -19.600  1.00  0.00     0.038 A 
HETATM    3  C12 UNL     1      -0.381  51.382 -18.247  1.00  0.00     0.033 A 
HETATM    4  C27 UNL     1       0.671  52.182 -17.795  1.00  0.00     0.017 A 
HETATM    5  C28 UNL     1       1.360  52.997 -18.693  1.00  0.00     0.009 A 
HETATM    6  C29 UNL     1       1.021  53.004 -20.055  1.00  0.00    -0.043 A 
HETATM    7  C30 UNL     1       1.799  53.881 -20.999  1.00  0.00     0.049 C 
ENDROOT
BRANCH   1   8
HETATM    8  C9  UNL     1      -0.376  52.126 -21.896  1.00  0.00    -0.059 C 
HETATM    9  C8  UNL     1      -0.660  52.011 -23.058  1.00  0.00    -0.041 C 
BRANCH   9  10
HETATM   10  C7  UNL     1      -0.951  51.809 -24.438  1.00  0.00     0.119 A 
HETATM   11  N3  UNL     1      -1.559  50.674 -24.790  1.00  0.00    -0.287 N 
HETATM   12  N2  UNL     1      -1.638  50.760 -26.143  1.00  0.00    -0.270 N 
ATOM     13  H3  UNL     1      -1.887  49.921 -24.186  1.00  0.00     0.188 HD
HETATM   14  C34 UNL     1      -1.094  51.923 -26.635  1.00  0.00     0.140 A 
HETATM   15  C31 UNL     1      -0.636  52.632 -25.534  1.00  0.00     0.084 A 
HETATM   16  N9  UNL     1      -1.005  52.313 -27.918  1.00  0.00    -0.337 N 
HETATM   17  C32 UNL     1      -0.023  53.864 -25.776  1.00  0.00     0.095 A 
HETATM   18  N8  UNL     1       0.081  54.292 -27.050  1.00  0.00    -0.342 N 
HETATM   19  C33 UNL     1      -0.410  53.511 -28.032  1.00  0.00     0.183 A 
ATOM     20  H8  UNL     1       0.522  55.186 -27.266  1.00  0.00     0.167 HD
ATOM     21  H9  UNL     1      -1.347  51.766 -28.709  1.00  0.00     0.168 HD
BRANCH  12  22
HETATM   22  C6  UNL     1      -2.201  49.619 -26.863  1.00  0.00     0.113 C 
HETATM   23  C5  UNL     1      -3.376  50.081 -27.744  1.00  0.00     0.047 C 
HETATM   24  C4  UNL     1      -4.306  48.925 -28.079  1.00  0.00     0.128 C 
HETATM   25  N1  UNL     1      -4.891  48.360 -26.864  1.00  0.00    -0.349 N 
HETATM   26  C3  UNL     1      -6.207  47.916 -26.922  1.00  0.00     0.242 C 
HETATM   27  C36 UNL     1      -4.034  48.301 -25.677  1.00  0.00     0.128 C 
HETATM   28  O1  UNL     1      -6.841  47.857 -27.977  1.00  0.00    -0.268 OA
HETATM   29  C35 UNL     1      -2.549  48.377 -26.021  1.00  0.00     0.047 C 
BRANCH  26  30
HETATM   30  C2  UNL     1      -6.855  47.528 -25.637  1.00  0.00     0.064 C 
HETATM   31  C1  UNL     1      -7.580  48.424 -24.950  1.00  0.00     0.017 C 
ENDBRANCH  26  30
ENDBRANCH  12  22
BRANCH  17  32
HETATM   32  N7  UNL     1       0.500  54.690 -24.795  1.00  0.00    -0.288 NA
HETATM   33  H32 UNL     1       0.830  54.233 -23.954  1.00  0.00     0.125 HD
HETATM   34  H33 UNL     1       1.113  55.393 -25.198  1.00  0.00     0.125 HD
ENDBRANCH  17  32
ENDBRANCH   9  10
ENDBRANCH   1   8
BRANCH   3  35
HETATM   35  C13 UNL     1      -1.080  50.526 -17.257  1.00  0.00     0.256 C 
HETATM   36  O2  UNL     1      -1.157  49.328 -17.498  1.00  0.00    -0.267 OA
HETATM   37  N4  UNL     1      -1.533  51.192 -16.135  1.00  0.00    -0.323 N 
HETATM   38  H10 UNL     1      -1.340  52.182 -16.081  1.00  0.00     0.169 HD
BRANCH  37  39
HETATM   39  C14 UNL     1      -2.138  50.617 -14.996  1.00  0.00     0.035 A 
HETATM   40  C15 UNL     1      -2.476  49.272 -14.893  1.00  0.00     0.030 A 
HETATM   41  C16 UNL     1      -3.042  48.765 -13.718  1.00  0.00     0.012 A 
HETATM   42  C17 UNL     1      -3.287  49.595 -12.611  1.00  0.00    -0.015 A 
HETATM   43  C24 UNL     1      -2.954  50.964 -12.701  1.00  0.00     0.058 A 
HETATM   44  C26 UNL     1      -2.393  51.456 -13.903  1.00  0.00     0.046 A 
BRANCH  42  45
HETATM   45  C18 UNL     1      -3.885  48.982 -11.358  1.00  0.00     0.311 C 
BRANCH  45  46
HETATM   46  N5  UNL     1      -5.344  48.883 -11.430  1.00  0.00     0.096 N 
HETATM   47  C19 UNL     1      -5.834  47.497 -11.266  1.00  0.00     0.303 C 
HETATM   48  C20 UNL     1      -6.370  47.172  -9.851  1.00  0.00     0.302 C 
HETATM   49  N6  UNL     1      -7.440  48.070  -9.373  1.00  0.00     0.087 N 
HETATM   50  C21 UNL     1      -8.762  47.461  -9.494  1.00  0.00     0.310 C 
HETATM   51  C22 UNL     1      -7.409  49.369 -10.079  1.00  0.00     0.302 C 
HETATM   52  C23 UNL     1      -5.971  49.791 -10.444  1.00  0.00     0.303 C 
ENDBRANCH  45  46
ENDBRANCH  42  45
BRANCH  43  53
HETATM   53  C25 UNL     1      -3.189  51.940 -11.563  1.00  0.00     0.418 C 
HETATM   54  F1  UNL     1      -2.987  51.414 -10.321  1.00  0.00    -0.166 F 
HETATM   55  F2  UNL     1      -2.330  53.011 -11.623  1.00  0.00    -0.166 F 
HETATM   56  F3  UNL     1      -4.434  52.489 -11.567  1.00  0.00    -0.166 F 
ENDBRANCH  43  53
ENDBRANCH  37  39
ENDBRANCH   3  35
TORSDOF 10
ENDMDL
MODEL 4
REMARK minimizedAffinity -9.95031643
REMARK CNNscore 0.0960905477
REMARK CNNaffinity 6.50993395
REMARK  10 active torsions:
REMARK  status: ('A' for Active; 'I' for Inactive)
REMARK    1  A    between atoms: C2_2  and  C3_3 
REMARK       I    between atoms: C3_3  and  N1_5 
REMARK    2  A    between atoms: C6_8  and  N2_9 
REMARK    3  A    between atoms: C7_12  and  C8_13 
REMARK    4  A    between atoms: C9_14  and  C10_15 
REMARK    5  A    between atoms: C12_17  and  C13_18 
REMARK       I    between atoms: C13_18  and  N4_20 
REMARK    6  A    between atoms: N4_20  and  C14_21 
REMARK    7  A    between atoms: C17_24  and  C18_25 
REMARK    8  A    between atoms: C18_25  and  N5_26 
REMARK    9  A    between atoms: C24_33  and  C25_34 
REMARK   10  A    between atoms: C32_44  and  N7_45 
ROOT
HETATM    1  C10 UNL     1      -1.603  50.699 -13.758  1.00  0.00     0.025 A 
HETATM    2  C11 UNL     1      -1.634  50.933 -15.139  1.00  0.00     0.038 A 
HETATM    3  C12 UNL     1      -2.221  49.992 -15.990  1.00  0.00     0.033 A 
HETATM    4  C27 UNL     1      -2.769  48.817 -15.471  1.00  0.00     0.017 A 
HETATM    5  C28 UNL     1      -2.755  48.592 -14.095  1.00  0.00     0.009 A 
HETATM    6  C29 UNL     1      -2.173  49.527 -13.225  1.00  0.00    -0.043 A 
HETATM    7  C30 UNL     1      -2.158  49.240 -11.747  1.00  0.00     0.049 C 
ENDROOT
BRANCH   1   8
HETATM    8  C9  UNL     1      -0.962  51.658 -12.906  1.00  0.00    -0.059 C 
HETATM    9  C8  UNL     1      -0.381  52.409 -12.170  1.00  0.00    -0.041 C 
BRANCH   9  10
HETATM   10  C7  UNL     1       0.327  53.237 -11.252  1.00  0.00     0.119 A 
HETATM   11  N3  UNL     1       1.508  53.729 -11.635  1.00  0.00    -0.287 N 
HETATM   12  N2  UNL     1       1.940  54.409 -10.542  1.00  0.00    -0.270 N 
ATOM     13  H3  UNL     1       1.975  53.620 -12.535  1.00  0.00     0.188 HD
HETATM   14  C34 UNL     1       1.054  54.350  -9.493  1.00  0.00     0.140 A 
HETATM   15  C31 UNL     1      -0.017  53.587  -9.934  1.00  0.00     0.084 A 
HETATM   16  N9  UNL     1       1.179  54.905  -8.274  1.00  0.00    -0.337 N 
HETATM   17  C32 UNL     1      -1.063  53.369  -9.033  1.00  0.00     0.095 A 
HETATM   18  N8  UNL     1      -0.976  53.913  -7.802  1.00  0.00    -0.342 N 
HETATM   19  C33 UNL     1       0.116  54.641  -7.498  1.00  0.00     0.183 A 
ATOM     20  H8  UNL     1      -1.719  53.777  -7.117  1.00  0.00     0.167 HD
ATOM     21  H9  UNL     1       1.983  55.458  -7.977  1.00  0.00     0.168 HD
BRANCH  12  22
HETATM   22  C6  UNL     1       3.267  55.021 -10.606  1.00  0.00     0.113 C 
HETATM   23  C5  UNL     1       4.313  54.075  -9.991  1.00  0.00     0.047 C 
HETATM   24  C4  UNL     1       5.556  54.834  -9.550  1.00  0.00     0.128 C 
HETATM   25  N1  UNL     1       5.225  55.818  -8.521  1.00  0.00    -0.349 N 
HETATM   26  C3  UNL     1       6.149  56.030  -7.503  1.00  0.00     0.242 C 
HETATM   27  C36 UNL     1       3.942  56.512  -8.650  1.00  0.00     0.128 C 
HETATM   28  O1  UNL     1       7.274  55.527  -7.514  1.00  0.00    -0.268 OA
HETATM   29  C35 UNL     1       3.387  56.460 -10.071  1.00  0.00     0.047 C 
BRANCH  26  30
HETATM   30  C2  UNL     1       5.722  56.883  -6.359  1.00  0.00     0.064 C 
HETATM   31  C1  UNL     1       6.533  57.846  -5.896  1.00  0.00     0.017 C 
ENDBRANCH  26  30
ENDBRANCH  12  22
BRANCH  17  32
HETATM   32  N7  UNL     1      -2.197  52.622  -9.306  1.00  0.00    -0.288 NA
HETATM   33  H32 UNL     1      -2.090  51.881  -9.988  1.00  0.00     0.125 HD
HETATM   34  H33 UNL     1      -2.691  52.382  -8.452  1.00  0.00     0.125 HD
ENDBRANCH  17  32
ENDBRANCH   9  10
ENDBRANCH   1   8
BRANCH   3  35
HETATM   35  C13 UNL     1      -2.252  50.185 -17.460  1.00  0.00     0.256 C 
HETATM   36  O2  UNL     1      -3.338  50.112 -18.020  1.00  0.00    -0.267 OA
HETATM   37  N4  UNL     1      -1.027  50.474 -18.031  1.00  0.00    -0.323 N 
HETATM   38  H10 UNL     1      -0.236  50.541 -17.406  1.00  0.00     0.169 HD
BRANCH  37  39
HETATM   39  C14 UNL     1      -0.778  50.800 -19.382  1.00  0.00     0.035 A 
HETATM   40  C15 UNL     1      -1.213  50.033 -20.457  1.00  0.00     0.030 A 
HETATM   41  C16 UNL     1      -0.959  50.437 -21.772  1.00  0.00     0.012 A 
HETATM   42  C17 UNL     1      -0.260  51.624 -22.047  1.00  0.00    -0.015 A 
HETATM   43  C24 UNL     1       0.192  52.412 -20.967  1.00  0.00     0.058 A 
HETATM   44  C26 UNL     1      -0.067  51.978 -19.645  1.00  0.00     0.046 A 
BRANCH  42  45
HETATM   45  C18 UNL     1      -0.033  52.018 -23.495  1.00  0.00     0.311 C 
BRANCH  45  46
HETATM   46  N5  UNL     1      -0.728  51.129 -24.428  1.00  0.00     0.096 N 
HETATM   47  C19 UNL     1      -2.144  51.503 -24.632  1.00  0.00     0.303 C 
HETATM   48  C20 UNL     1      -2.417  52.286 -25.938  1.00  0.00     0.302 C 
HETATM   49  N6  UNL     1      -1.965  51.609 -27.171  1.00  0.00     0.087 N 
HETATM   50  C21 UNL     1      -3.071  50.974 -27.883  1.00  0.00     0.310 C 
HETATM   51  C22 UNL     1      -0.904  50.619 -26.885  1.00  0.00     0.302 C 
HETATM   52  C23 UNL     1      -0.002  51.065 -25.716  1.00  0.00     0.303 C 
ENDBRANCH  45  46
ENDBRANCH  42  45
BRANCH  43  53
HETATM   53  C25 UNL     1       0.963  53.705 -21.162  1.00  0.00     0.418 C 
HETATM   54  F1  UNL     1       0.593  54.712 -20.321  1.00  0.00    -0.166 F 
HETATM   55  F2  UNL     1       2.307  53.538 -20.925  1.00  0.00    -0.166 F 
HETATM   56  F3  UNL     1       0.889  54.194 -22.430  1.00  0.00    -0.166 F 
ENDBRANCH  43  53
ENDBRANCH  37  39
ENDBRANCH   3  35
TORSDOF 10
ENDMDL
MODEL 5
REMARK minimizedAffinity -9.41873646
REMARK CNNscore 0.0915010422
REMARK CNNaffinity 5.79032516
REMARK  10 active torsions:
REMARK  status: ('A' for Active; 'I' for Inactive)
REMARK    1  A    between atoms: C2_2  and  C3_3 
REMARK       I    between atoms: C3_3  and  N1_5 
REMARK    2  A    between atoms: C6_8  and  N2_9 
REMARK    3  A    between atoms: C7_12  and  C8_13 
REMARK    4  A    between atoms: C9_14  and  C10_15 
REMARK    5  A    between atoms: C12_17  and  C13_18 
REMARK       I    between atoms: C13_18  and  N4_20 
REMARK    6  A    between atoms: N4_20  and  C14_21 
REMARK    7  A    between atoms: C17_24  and  C18_25 
REMARK    8  A    between atoms: C18_25  and  N5_26 
REMARK    9  A    between atoms: C24_33  and  C25_34 
REMARK   10  A    between atoms: C32_44  and  N7_45 
ROOT
HETATM    1  C10 UNL     1      -1.713  50.530 -14.423  1.00  0.00     0.025 A 
HETATM    2  C11 UNL     1      -1.833  50.977 -15.745  1.00  0.00     0.038 A 
HETATM    3  C12 UNL     1      -2.507  50.193 -16.686  1.00  0.00     0.033 A 
HETATM    4  C27 UNL     1      -3.054  48.962 -16.315  1.00  0.00     0.017 A 
HETATM    5  C28 UNL     1      -2.952  48.525 -14.994  1.00  0.00     0.009 A 
HETATM    6  C29 UNL     1      -2.282  49.301 -14.036  1.00  0.00    -0.043 A 
HETATM    7  C30 UNL     1      -2.174  48.788 -12.625  1.00  0.00     0.049 C 
ENDROOT
BRANCH   1   8
HETATM    8  C9  UNL     1      -0.986  51.332 -13.482  1.00  0.00    -0.059 C 
HETATM    9  C8  UNL     1      -0.392  52.061 -12.735  1.00  0.00    -0.041 C 
BRANCH   9  10
HETATM   10  C7  UNL     1       0.326  52.975 -11.910  1.00  0.00     0.119 A 
HETATM   11  N3  UNL     1       1.660  52.954 -11.968  1.00  0.00    -0.287 N 
HETATM   12  N2  UNL     1       2.034  53.876 -11.044  1.00  0.00    -0.270 N 
ATOM     13  H3  UNL     1       2.257  52.381 -12.564  1.00  0.00     0.188 HD
HETATM   14  C34 UNL     1       0.963  54.468 -10.419  1.00  0.00     0.140 A 
HETATM   15  C31 UNL     1      -0.173  53.895 -10.971  1.00  0.00     0.084 A 
HETATM   16  N9  UNL     1       0.984  55.409  -9.458  1.00  0.00    -0.337 N 
HETATM   17  C32 UNL     1      -1.410  54.328 -10.487  1.00  0.00     0.095 A 
HETATM   18  N8  UNL     1      -1.429  55.274  -9.526  1.00  0.00    -0.342 N 
HETATM   19  C33 UNL     1      -0.255  55.756  -9.076  1.00  0.00     0.183 A 
ATOM     20  H8  UNL     1      -2.313  55.617  -9.148  1.00  0.00     0.167 HD
ATOM     21  H9  UNL     1       1.838  55.808  -9.067  1.00  0.00     0.168 HD
BRANCH  12  22
HETATM   22  C6  UNL     1       3.466  54.051 -10.802  1.00  0.00     0.113 C 
HETATM   23  C5  UNL     1       3.882  53.284  -9.534  1.00  0.00     0.047 C 
HETATM   24  C4  UNL     1       5.172  53.840  -8.949  1.00  0.00     0.128 C 
HETATM   25  N1  UNL     1       5.003  55.238  -8.557  1.00  0.00    -0.349 N 
HETATM   26  C3  UNL     1       5.658  55.675  -7.410  1.00  0.00     0.242 C 
HETATM   27  C36 UNL     1       4.160  56.074  -9.414  1.00  0.00     0.128 C 
HETATM   28  O1  UNL     1       6.468  54.974  -6.802  1.00  0.00    -0.268 OA
HETATM   29  C35 UNL     1       3.995  55.497 -10.817  1.00  0.00     0.047 C 
BRANCH  26  30
HETATM   30  C2  UNL     1       5.325  57.039  -6.910  1.00  0.00     0.064 C 
HETATM   31  C1  UNL     1       6.212  57.721  -6.172  1.00  0.00     0.017 C 
ENDBRANCH  26  30
ENDBRANCH  12  22
BRANCH  17  32
HETATM   32  N7  UNL     1      -2.637  53.852 -10.918  1.00  0.00    -0.288 NA
HETATM   33  H32 UNL     1      -2.650  52.901 -11.266  1.00  0.00     0.125 HD
HETATM   34  H33 UNL     1      -3.376  54.106 -10.270  1.00  0.00     0.125 HD
ENDBRANCH  17  32
ENDBRANCH   9  10
ENDBRANCH   1   8
BRANCH   3  35
HETATM   35  C13 UNL     1      -2.632  50.613 -18.102  1.00  0.00     0.256 C 
HETATM   36  O2  UNL     1      -2.695  51.813 -18.335  1.00  0.00    -0.267 OA
HETATM   37  N4  UNL     1      -2.620  49.576 -19.016  1.00  0.00    -0.323 N 
HETATM   38  H10 UNL     1      -2.515  48.642 -18.646  1.00  0.00     0.169 HD
BRANCH  37  39
HETATM   39  C14 UNL     1      -2.625  49.688 -20.423  1.00  0.00     0.035 A 
HETATM   40  C15 UNL     1      -1.499  49.504 -21.219  1.00  0.00     0.030 A 
HETATM   41  C16 UNL     1      -1.587  49.595 -22.613  1.00  0.00     0.012 A 
HETATM   42  C17 UNL     1      -2.808  49.874 -23.248  1.00  0.00    -0.015 A 
HETATM   43  C24 UNL     1      -3.960  50.067 -22.455  1.00  0.00     0.058 A 
HETATM   44  C26 UNL     1      -3.844  49.981 -21.047  1.00  0.00     0.046 A 
BRANCH  42  45
HETATM   45  C18 UNL     1      -2.842  49.940 -24.764  1.00  0.00     0.311 C 
BRANCH  45  46
HETATM   46  N5  UNL     1      -2.316  51.207 -25.277  1.00  0.00     0.096 N 
HETATM   47  C19 UNL     1      -0.842  51.213 -25.392  1.00  0.00     0.303 C 
HETATM   48  C20 UNL     1      -0.311  50.975 -26.825  1.00  0.00     0.302 C 
HETATM   49  N6  UNL     1      -0.829  51.915 -27.841  1.00  0.00     0.087 N 
HETATM   50  C21 UNL     1       0.140  52.957 -28.168  1.00  0.00     0.310 C 
HETATM   51  C22 UNL     1      -2.108  52.521 -27.412  1.00  0.00     0.302 C 
HETATM   52  C23 UNL     1      -2.954  51.544 -26.570  1.00  0.00     0.303 C 
ENDBRANCH  45  46
ENDBRANCH  42  45
BRANCH  43  53
HETATM   53  C25 UNL     1      -5.320  50.381 -23.049  1.00  0.00     0.418 C 
HETATM   54  F1  UNL     1      -5.343  51.488 -23.845  1.00  0.00    -0.166 F 
HETATM   55  F2  UNL     1      -5.769  49.368 -23.862  1.00  0.00    -0.166 F 
HETATM   56  F3  UNL     1      -6.297  50.540 -22.115  1.00  0.00    -0.166 F 
ENDBRANCH  43  53
ENDBRANCH  37  39
ENDBRANCH   3  35
TORSDOF 10
ENDMDL
MODEL 6
REMARK minimizedAffinity -9.25204754
REMARK CNNscore 0.0879193842
REMARK CNNaffinity 5.81402826
REMARK  10 active torsions:
REMARK  status: ('A' for Active; 'I' for Inactive)
REMARK    1  A    between atoms: C2_2  and  C3_3 
REMARK       I    between atoms: C3_3  and  N1_5 
REMARK    2  A    between atoms: C6_8  and  N2_9 
REMARK    3  A    between atoms: C7_12  and  C8_13 
REMARK    4  A    between atoms: C9_14  and  C10_15 
REMARK    5  A    between atoms: C12_17  and  C13_18 
REMARK       I    between atoms: C13_18  and  N4_20 
REMARK    6  A    between atoms: N4_20  and  C14_21 
REMARK    7  A    between atoms: C17_24  and  C18_25 
REMARK    8  A    between atoms: C18_25  and  N5_26 
REMARK    9  A    between atoms: C24_33  and  C25_34 
REMARK   10  A    between atoms: C32_44  and  N7_45 
ROOT
HETATM    1  C10 UNL     1      -9.666  48.181 -18.575  1.00  0.00     0.025 A 
HETATM    2  C11 UNL     1     -10.842  48.381 -19.311  1.00  0.00     0.038 A 
HETATM    3  C12 UNL     1     -12.053  47.866 -18.838  1.00  0.00     0.033 A 
HETATM    4  C27 UNL     1     -12.094  47.147 -17.642  1.00  0.00     0.017 A 
HETATM    5  C28 UNL     1     -10.928  46.964 -16.899  1.00  0.00     0.009 A 
HETATM    6  C29 UNL     1      -9.704  47.476 -17.356  1.00  0.00    -0.043 A 
HETATM    7  C30 UNL     1      -8.462  47.242 -16.538  1.00  0.00     0.049 C 
ENDROOT
BRANCH   1   8
HETATM    8  C9  UNL     1      -8.428  48.684 -19.095  1.00  0.00    -0.059 C 
HETATM    9  C8  UNL     1      -7.430  49.144 -19.580  1.00  0.00    -0.041 C 
BRANCH   9  10
HETATM   10  C7  UNL     1      -6.284  49.695 -20.223  1.00  0.00     0.119 A 
HETATM   11  N3  UNL     1      -6.447  50.245 -21.428  1.00  0.00    -0.287 N 
HETATM   12  N2  UNL     1      -5.190  50.614 -21.784  1.00  0.00    -0.270 N 
ATOM     13  H3  UNL     1      -7.312  50.362 -21.957  1.00  0.00     0.188 HD
HETATM   14  C34 UNL     1      -4.253  50.305 -20.826  1.00  0.00     0.140 A 
HETATM   15  C31 UNL     1      -4.946  49.702 -19.787  1.00  0.00     0.084 A 
HETATM   16  N9  UNL     1      -2.928  50.527 -20.867  1.00  0.00    -0.337 N 
HETATM   17  C32 UNL     1      -4.204  49.281 -18.681  1.00  0.00     0.095 A 
HETATM   18  N8  UNL     1      -2.872  49.490 -18.683  1.00  0.00    -0.342 N 
HETATM   19  C33 UNL     1      -2.318  50.093 -19.752  1.00  0.00     0.183 A 
ATOM     20  H8  UNL     1      -2.297  49.197 -17.893  1.00  0.00     0.167 HD
ATOM     21  H9  UNL     1      -2.445  50.969 -21.649  1.00  0.00     0.168 HD
BRANCH  12  22
HETATM   22  C6  UNL     1      -5.005  51.196 -23.113  1.00  0.00     0.113 C 
HETATM   23  C5  UNL     1      -4.352  50.166 -24.052  1.00  0.00     0.047 C 
HETATM   24  C4  UNL     1      -3.667  50.845 -25.229  1.00  0.00     0.128 C 
HETATM   25  N1  UNL     1      -2.597  51.728 -24.767  1.00  0.00    -0.349 N 
HETATM   26  C3  UNL     1      -1.444  51.811 -25.540  1.00  0.00     0.242 C 
HETATM   27  C36 UNL     1      -2.829  52.463 -23.522  1.00  0.00     0.128 C 
HETATM   28  O1  UNL     1      -1.351  51.284 -26.650  1.00  0.00    -0.268 OA
HETATM   29  C35 UNL     1      -4.311  52.570 -23.172  1.00  0.00     0.047 C 
BRANCH  26  30
HETATM   30  C2  UNL     1      -0.287  52.554 -24.965  1.00  0.00     0.064 C 
HETATM   31  C1  UNL     1       0.104  53.717 -25.507  1.00  0.00     0.017 C 
ENDBRANCH  26  30
ENDBRANCH  12  22
BRANCH  17  32
HETATM   32  N7  UNL     1      -4.736  48.651 -17.568  1.00  0.00    -0.288 NA
HETATM   33  H32 UNL     1      -5.577  48.109 -17.720  1.00  0.00     0.125 HD
HETATM   34  H33 UNL     1      -4.008  48.211 -17.014  1.00  0.00     0.125 HD
ENDBRANCH  17  32
ENDBRANCH   9  10
ENDBRANCH   1   8
BRANCH   3  35
HETATM   35  C13 UNL     1     -13.316  48.028 -19.598  1.00  0.00     0.256 C 
HETATM   36  O2  UNL     1     -13.529  49.115 -20.120  1.00  0.00    -0.267 OA
HETATM   37  N4  UNL     1     -14.101  46.893 -19.664  1.00  0.00    -0.323 N 
HETATM   38  H10 UNL     1     -13.745  46.064 -19.209  1.00  0.00     0.169 HD
BRANCH  37  39
HETATM   39  C14 UNL     1     -15.297  46.732 -20.396  1.00  0.00     0.035 A 
HETATM   40  C15 UNL     1     -16.552  46.601 -19.812  1.00  0.00     0.030 A 
HETATM   41  C16 UNL     1     -17.700  46.481 -20.603  1.00  0.00     0.012 A 
HETATM   42  C17 UNL     1     -17.621  46.486 -22.005  1.00  0.00    -0.015 A 
HETATM   43  C24 UNL     1     -16.354  46.613 -22.615  1.00  0.00     0.058 A 
HETATM   44  C26 UNL     1     -15.206  46.723 -21.794  1.00  0.00     0.046 A 
BRANCH  42  45
HETATM   45  C18 UNL     1     -18.904  46.371 -22.808  1.00  0.00     0.311 C 
BRANCH  45  46
HETATM   46  N5  UNL     1     -19.499  45.036 -22.716  1.00  0.00     0.096 N 
HETATM   47  C19 UNL     1     -20.372  44.716 -23.867  1.00  0.00     0.303 C 
HETATM   48  C20 UNL     1     -19.714  43.815 -24.938  1.00  0.00     0.302 C 
HETATM   49  N6  UNL     1     -19.182  42.535 -24.428  1.00  0.00     0.087 N 
HETATM   50  C21 UNL     1     -20.073  41.416 -24.720  1.00  0.00     0.310 C 
HETATM   51  C22 UNL     1     -18.907  42.605 -22.977  1.00  0.00     0.302 C 
HETATM   52  C23 UNL     1     -18.444  44.012 -22.547  1.00  0.00     0.303 C 
ENDBRANCH  45  46
ENDBRANCH  42  45
BRANCH  43  53
HETATM   53  C25 UNL     1     -16.166  46.620 -24.121  1.00  0.00     0.418 C 
HETATM   54  F1  UNL     1     -16.417  45.423 -24.723  1.00  0.00    -0.166 F 
HETATM   55  F2  UNL     1     -17.024  47.499 -24.738  1.00  0.00    -0.166 F 
HETATM   56  F3  UNL     1     -14.923  47.011 -24.511  1.00  0.00    -0.166 F 
ENDBRANCH  43  53
ENDBRANCH  37  39
ENDBRANCH   3  35
TORSDOF 10
ENDMDL
MODEL 7
REMARK minimizedAffinity -10.0572929
REMARK CNNscore 0.0784481913
REMARK CNNaffinity 6.46042776
REMARK  10 active torsions:
REMARK  status: ('A' for Active; 'I' for Inactive)
REMARK    1  A    between atoms: C2_2  and  C3_3 
REMARK       I    between atoms: C3_3  and  N1_5 
REMARK    2  A    between atoms: C6_8  and  N2_9 
REMARK    3  A    between atoms: C7_12  and  C8_13 
REMARK    4  A    between atoms: C9_14  and  C10_15 
REMARK    5  A    between atoms: C12_17  and  C13_18 
REMARK       I    between atoms: C13_18  and  N4_20 
REMARK    6  A    between atoms: N4_20  and  C14_21 
REMARK    7  A    between atoms: C17_24  and  C18_25 
REMARK    8  A    between atoms: C18_25  and  N5_26 
REMARK    9  A    between atoms: C24_33  and  C25_34 
REMARK   10  A    between atoms: C32_44  and  N7_45 
ROOT
HETATM    1  C10 UNL     1      -0.034  52.222 -20.602  1.00  0.00     0.025 A 
HETATM    2  C11 UNL     1      -0.802  51.439 -19.730  1.00  0.00     0.038 A 
HETATM    3  C12 UNL     1      -0.530  51.458 -18.359  1.00  0.00     0.033 A 
HETATM    4  C27 UNL     1       0.507  52.246 -17.856  1.00  0.00     0.017 A 
HETATM    5  C28 UNL     1       1.259  53.041 -18.721  1.00  0.00     0.009 A 
HETATM    6  C29 UNL     1       0.999  53.038 -20.100  1.00  0.00    -0.043 A 
HETATM    7  C30 UNL     1       1.844  53.893 -21.006  1.00  0.00     0.049 C 
ENDROOT
BRANCH   1   8
HETATM    8  C9  UNL     1      -0.304  52.161 -22.010  1.00  0.00    -0.059 C 
HETATM    9  C8  UNL     1      -0.572  52.052 -23.176  1.00  0.00    -0.041 C 
BRANCH   9  10
HETATM   10  C7  UNL     1      -0.901  51.845 -24.547  1.00  0.00     0.119 A 
HETATM   11  N3  UNL     1      -1.512  50.705 -24.878  1.00  0.00    -0.287 N 
HETATM   12  N2  UNL     1      -1.630  50.787 -26.229  1.00  0.00    -0.270 N 
ATOM     13  H3  UNL     1      -1.818  49.951 -24.263  1.00  0.00     0.188 HD
HETATM   14  C34 UNL     1      -1.107  51.952 -26.739  1.00  0.00     0.140 A 
HETATM   15  C31 UNL     1      -0.622  52.667 -25.653  1.00  0.00     0.084 A 
HETATM   16  N9  UNL     1      -1.056  52.339 -28.025  1.00  0.00    -0.337 N 
HETATM   17  C32 UNL     1      -0.024  53.901 -25.916  1.00  0.00     0.095 A 
HETATM   18  N8  UNL     1       0.042  54.327 -27.193  1.00  0.00    -0.342 N 
HETATM   19  C33 UNL     1      -0.472  53.541 -28.158  1.00  0.00     0.183 A 
ATOM     20  H8  UNL     1       0.470  55.223 -27.424  1.00  0.00     0.167 HD
ATOM     21  H9  UNL     1      -1.418  51.788 -28.804  1.00  0.00     0.168 HD
BRANCH  12  22
HETATM   22  C6  UNL     1      -2.206  49.640 -26.929  1.00  0.00     0.113 C 
HETATM   23  C5  UNL     1      -3.407  50.093 -27.780  1.00  0.00     0.047 C 
HETATM   24  C4  UNL     1      -4.339  48.931 -28.086  1.00  0.00     0.128 C 
HETATM   25  N1  UNL     1      -4.887  48.367 -26.853  1.00  0.00    -0.349 N 
HETATM   26  C3  UNL     1      -6.203  47.916 -26.874  1.00  0.00     0.242 C 
HETATM   27  C36 UNL     1      -3.999  48.316 -25.690  1.00  0.00     0.128 C 
HETATM   28  O1  UNL     1      -6.865  47.850 -27.910  1.00  0.00    -0.268 OA
HETATM   29  C35 UNL     1      -2.524  48.399 -26.075  1.00  0.00     0.047 C 
BRANCH  26  30
HETATM   30  C2  UNL     1      -6.813  47.529 -25.570  1.00  0.00     0.064 C 
HETATM   31  C1  UNL     1      -7.428  48.449 -24.814  1.00  0.00     0.017 C 
ENDBRANCH  26  30
ENDBRANCH  12  22
BRANCH  17  32
HETATM   32  N7  UNL     1       0.522  54.734 -24.952  1.00  0.00    -0.288 NA
HETATM   33  H32 UNL     1       0.878  54.281 -24.119  1.00  0.00     0.125 HD
HETATM   34  H33 UNL     1       1.119  55.439 -25.373  1.00  0.00     0.125 HD
ENDBRANCH  17  32
ENDBRANCH   9  10
ENDBRANCH   1   8
BRANCH   3  35
HETATM   35  C13 UNL     1      -1.298  50.623 -17.403  1.00  0.00     0.256 C 
HETATM   36  O2  UNL     1      -1.707  49.539 -17.798  1.00  0.00    -0.267 OA
HETATM   37  N4  UNL     1      -1.425  51.163 -16.138  1.00  0.00    -0.323 N 
HETATM   38  H10 UNL     1      -0.980  52.055 -15.974  1.00  0.00     0.169 HD
BRANCH  37  39
HETATM   39  C14 UNL     1      -2.013  50.549 -15.010  1.00  0.00     0.035 A 
HETATM   40  C15 UNL     1      -2.452  51.245 -13.889  1.00  0.00     0.030 A 
HETATM   41  C16 UNL     1      -3.059  50.573 -12.823  1.00  0.00     0.012 A 
HETATM   42  C17 UNL     1      -3.243  49.181 -12.850  1.00  0.00    -0.015 A 
HETATM   43  C24 UNL     1      -2.800  48.458 -13.979  1.00  0.00     0.058 A 
HETATM   44  C26 UNL     1      -2.179  49.158 -15.040  1.00  0.00     0.046 A 
BRANCH  42  45
HETATM   45  C18 UNL     1      -3.926  48.513 -11.671  1.00  0.00     0.311 C 
BRANCH  45  46
HETATM   46  N5  UNL     1      -5.345  48.862 -11.580  1.00  0.00     0.096 N 
HETATM   47  C19 UNL     1      -6.231  47.678 -11.605  1.00  0.00     0.303 C 
HETATM   48  C20 UNL     1      -6.752  47.240 -10.216  1.00  0.00     0.302 C 
HETATM   49  N6  UNL     1      -7.458  48.294  -9.459  1.00  0.00     0.087 N 
HETATM   50  C21 UNL     1      -8.908  48.137  -9.523  1.00  0.00     0.310 C 
HETATM   51  C22 UNL     1      -7.068  49.643  -9.922  1.00  0.00     0.302 C 
HETATM   52  C23 UNL     1      -5.596  49.691 -10.380  1.00  0.00     0.303 C 
ENDBRANCH  45  46
ENDBRANCH  42  45
BRANCH  43  53
HETATM   53  C25 UNL     1      -2.946  46.952 -14.096  1.00  0.00     0.418 C 
HETATM   54  F1  UNL     1      -2.380  46.419 -15.216  1.00  0.00    -0.166 F 
HETATM   55  F2  UNL     1      -2.329  46.298 -13.057  1.00  0.00    -0.166 F 
HETATM   56  F3  UNL     1      -4.238  46.528 -14.060  1.00  0.00    -0.166 F 
ENDBRANCH  43  53
ENDBRANCH  37  39
ENDBRANCH   3  35
TORSDOF 10
ENDMDL
MODEL 8
REMARK minimizedAffinity -9.09691334
REMARK CNNscore 0.0562103838
REMARK CNNaffinity 6.57749796
REMARK  10 active torsions:
REMARK  status: ('A' for Active; 'I' for Inactive)
REMARK    1  A    between atoms: C2_2  and  C3_3 
REMARK       I    between atoms: C3_3  and  N1_5 
REMARK    2  A    between atoms: C6_8  and  N2_9 
REMARK    3  A    between atoms: C7_12  and  C8_13 
REMARK    4  A    between atoms: C9_14  and  C10_15 
REMARK    5  A    between atoms: C12_17  and  C13_18 
REMARK       I    between atoms: C13_18  and  N4_20 
REMARK    6  A    between atoms: N4_20  and  C14_21 
REMARK    7  A    between atoms: C17_24  and  C18_25 
REMARK    8  A    between atoms: C18_25  and  N5_26 
REMARK    9  A    between atoms: C24_33  and  C25_34 
REMARK   10  A    between atoms: C32_44  and  N7_45 
ROOT
HETATM    1  C10 UNL     1      -2.073  50.276 -14.956  1.00  0.00     0.025 A 
HETATM    2  C11 UNL     1      -1.658  51.070 -13.879  1.00  0.00     0.038 A 
HETATM    3  C12 UNL     1      -1.824  50.607 -12.571  1.00  0.00     0.033 A 
HETATM    4  C27 UNL     1      -2.410  49.361 -12.333  1.00  0.00     0.017 A 
HETATM    5  C28 UNL     1      -2.806  48.562 -13.405  1.00  0.00     0.009 A 
HETATM    6  C29 UNL     1      -2.644  49.010 -14.726  1.00  0.00    -0.043 A 
HETATM    7  C30 UNL     1      -3.101  48.129 -15.857  1.00  0.00     0.049 C 
ENDROOT
BRANCH   1   8
HETATM    8  C9  UNL     1      -1.928  50.785 -16.289  1.00  0.00    -0.059 C 
HETATM    9  C8  UNL     1      -1.772  51.149 -17.424  1.00  0.00    -0.041 C 
BRANCH   9  10
HETATM   10  C7  UNL     1      -1.521  51.536 -18.772  1.00  0.00     0.119 A 
HETATM   11  N3  UNL     1      -2.357  51.095 -19.715  1.00  0.00    -0.287 N 
HETATM   12  N2  UNL     1      -1.823  51.577 -20.866  1.00  0.00    -0.270 N 
ATOM     13  H3  UNL     1      -3.197  50.528 -19.598  1.00  0.00     0.188 HD
HETATM   14  C34 UNL     1      -0.678  52.309 -20.656  1.00  0.00     0.140 A 
HETATM   15  C31 UNL     1      -0.458  52.299 -19.287  1.00  0.00     0.084 A 
HETATM   16  N9  UNL     1       0.094  52.914 -21.576  1.00  0.00    -0.337 N 
HETATM   17  C32 UNL     1       0.669  52.976 -18.815  1.00  0.00     0.095 A 
HETATM   18  N8  UNL     1       1.466  53.600 -19.706  1.00  0.00    -0.342 N 
HETATM   19  C33 UNL     1       1.139  53.540 -21.011  1.00  0.00     0.183 A 
ATOM     20  H8  UNL     1       2.297  54.105 -19.399  1.00  0.00     0.167 HD
ATOM     21  H9  UNL     1      -0.091  52.900 -22.579  1.00  0.00     0.168 HD
BRANCH  12  22
HETATM   22  C6  UNL     1      -2.473  51.206 -22.123  1.00  0.00     0.113 C 
HETATM   23  C5  UNL     1      -1.607  50.184 -22.881  1.00  0.00     0.047 C 
HETATM   24  C4  UNL     1      -1.937  50.171 -24.366  1.00  0.00     0.128 C 
HETATM   25  N1  UNL     1      -1.669  51.476 -24.968  1.00  0.00    -0.349 N 
HETATM   26  C3  UNL     1      -1.164  51.501 -26.264  1.00  0.00     0.242 C 
HETATM   27  C36 UNL     1      -1.962  52.659 -24.156  1.00  0.00     0.128 C 
HETATM   28  O1  UNL     1      -1.066  50.488 -26.958  1.00  0.00    -0.268 OA
HETATM   29  C35 UNL     1      -2.942  52.364 -23.023  1.00  0.00     0.047 C 
BRANCH  26  30
HETATM   30  C2  UNL     1      -0.710  52.818 -26.794  1.00  0.00     0.064 C 
HETATM   31  C1  UNL     1      -1.322  53.366 -27.854  1.00  0.00     0.017 C 
ENDBRANCH  26  30
ENDBRANCH  12  22
BRANCH  17  32
HETATM   32  N7  UNL     1       1.042  53.053 -17.483  1.00  0.00    -0.288 NA
HETATM   33  H32 UNL     1       0.758  52.281 -16.893  1.00  0.00     0.125 HD
HETATM   34  H33 UNL     1       2.004  53.363 -17.390  1.00  0.00     0.125 HD
ENDBRANCH  17  32
ENDBRANCH   9  10
ENDBRANCH   1   8
BRANCH   3  35
HETATM   35  C13 UNL     1      -1.426  51.425 -11.399  1.00  0.00     0.256 C 
HETATM   36  O2  UNL     1      -1.505  50.907 -10.293  1.00  0.00    -0.267 OA
HETATM   37  N4  UNL     1      -0.961  52.688 -11.708  1.00  0.00    -0.323 N 
HETATM   38  H10 UNL     1      -0.921  52.935 -12.687  1.00  0.00     0.169 HD
BRANCH  37  39
HETATM   39  C14 UNL     1      -0.427  53.637 -10.809  1.00  0.00     0.035 A 
HETATM   40  C15 UNL     1      -1.120  54.146  -9.716  1.00  0.00     0.030 A 
HETATM   41  C16 UNL     1      -0.512  55.058  -8.846  1.00  0.00     0.012 A 
HETATM   42  C17 UNL     1       0.810  55.488  -9.050  1.00  0.00    -0.015 A 
HETATM   43  C24 UNL     1       1.526  54.984 -10.157  1.00  0.00     0.058 A 
HETATM   44  C26 UNL     1       0.887  54.071 -11.028  1.00  0.00     0.046 A 
BRANCH  42  45
HETATM   45  C18 UNL     1       1.419  56.464  -8.060  1.00  0.00     0.311 C 
BRANCH  45  46
HETATM   46  N5  UNL     1       1.497  55.908  -6.708  1.00  0.00     0.096 N 
HETATM   47  C19 UNL     1       1.693  54.441  -6.700  1.00  0.00     0.303 C 
HETATM   48  C20 UNL     1       3.151  53.993  -6.442  1.00  0.00     0.302 C 
HETATM   49  N6  UNL     1       3.749  54.517  -5.197  1.00  0.00     0.087 N 
HETATM   50  C21 UNL     1       3.757  53.519  -4.131  1.00  0.00     0.310 C 
HETATM   51  C22 UNL     1       3.060  55.745  -4.744  1.00  0.00     0.302 C 
HETATM   52  C23 UNL     1       2.555  56.591  -5.929  1.00  0.00     0.303 C 
ENDBRANCH  45  46
ENDBRANCH  42  45
BRANCH  43  53
HETATM   53  C25 UNL     1       2.954  55.395 -10.464  1.00  0.00     0.418 C 
HETATM   54  F1  UNL     1       3.087  56.679 -10.903  1.00  0.00    -0.166 F 
HETATM   55  F2  UNL     1       3.755  55.331  -9.348  1.00  0.00    -0.166 F 
HETATM   56  F3  UNL     1       3.564  54.595 -11.380  1.00  0.00    -0.166 F 
ENDBRANCH  43  53
ENDBRANCH  37  39
ENDBRANCH   3  35
TORSDOF 10
ENDMDL
MODEL 9
REMARK minimizedAffinity -9.94381714
REMARK CNNscore 0.0539249666
REMARK CNNaffinity 5.43269491
REMARK  10 active torsions:
REMARK  status: ('A' for Active; 'I' for Inactive)
REMARK    1  A    between atoms: C2_2  and  C3_3 
REMARK       I    between atoms: C3_3  and  N1_5 
REMARK    2  A    between atoms: C6_8  and  N2_9 
REMARK    3  A    between atoms: C7_12  and  C8_13 
REMARK    4  A    between atoms: C9_14  and  C10_15 
REMARK    5  A    between atoms: C12_17  and  C13_18 
REMARK       I    between atoms: C13_18  and  N4_20 
REMARK    6  A    between atoms: N4_20  and  C14_21 
REMARK    7  A    between atoms: C17_24  and  C18_25 
REMARK    8  A    between atoms: C18_25  and  N5_26 
REMARK    9  A    between atoms: C24_33  and  C25_34 
REMARK   10  A    between atoms: C32_44  and  N7_45 
ROOT
HETATM    1  C10 UNL     1      -9.598  48.159 -19.052  1.00  0.00     0.025 A 
HETATM    2  C11 UNL     1     -10.796  48.385 -19.742  1.00  0.00     0.038 A 
HETATM    3  C12 UNL     1     -12.009  47.975 -19.181  1.00  0.00     0.033 A 
HETATM    4  C27 UNL     1     -12.031  47.334 -17.940  1.00  0.00     0.017 A 
HETATM    5  C28 UNL     1     -10.841  47.125 -17.244  1.00  0.00     0.009 A 
HETATM    6  C29 UNL     1      -9.614  47.533 -17.790  1.00  0.00    -0.043 A 
HETATM    7  C30 UNL     1      -8.348  47.273 -17.019  1.00  0.00     0.049 C 
ENDROOT
BRANCH   1   8
HETATM    8  C9  UNL     1      -8.361  48.553 -19.661  1.00  0.00    -0.059 C 
HETATM    9  C8  UNL     1      -7.305  48.912 -20.107  1.00  0.00    -0.041 C 
BRANCH   9  10
HETATM   10  C7  UNL     1      -6.051  49.395 -20.582  1.00  0.00     0.119 A 
HETATM   11  N3  UNL     1      -5.003  49.329 -19.759  1.00  0.00    -0.287 N 
HETATM   12  N2  UNL     1      -4.001  49.908 -20.470  1.00  0.00    -0.270 N 
ATOM     13  H3  UNL     1      -4.963  48.937 -18.818  1.00  0.00     0.188 HD
HETATM   14  C34 UNL     1      -4.407  50.328 -21.715  1.00  0.00     0.140 A 
HETATM   15  C31 UNL     1      -5.751  50.001 -21.815  1.00  0.00     0.084 A 
HETATM   16  N9  UNL     1      -3.671  50.941 -22.659  1.00  0.00    -0.337 N 
HETATM   17  C32 UNL     1      -6.405  50.340 -23.002  1.00  0.00     0.095 A 
HETATM   18  N8  UNL     1      -5.700  50.952 -23.975  1.00  0.00    -0.342 N 
HETATM   19  C33 UNL     1      -4.396  51.209 -23.756  1.00  0.00     0.183 A 
ATOM     20  H8  UNL     1      -6.143  51.213 -24.855  1.00  0.00     0.167 HD
ATOM     21  H9  UNL     1      -2.683  51.173 -22.554  1.00  0.00     0.168 HD
BRANCH  12  22
HETATM   22  C6  UNL     1      -2.704  50.063 -19.813  1.00  0.00     0.113 C 
HETATM   23  C5  UNL     1      -2.611  51.451 -19.154  1.00  0.00     0.047 C 
HETATM   24  C4  UNL     1      -1.163  51.865 -18.936  1.00  0.00     0.128 C 
HETATM   25  N1  UNL     1      -0.452  51.957 -20.210  1.00  0.00    -0.349 N 
HETATM   26  C3  UNL     1       0.495  52.964 -20.354  1.00  0.00     0.242 C 
HETATM   27  C36 UNL     1      -0.792  50.969 -21.237  1.00  0.00     0.128 C 
HETATM   28  O1  UNL     1       0.847  53.682 -19.416  1.00  0.00    -0.268 OA
HETATM   29  C35 UNL     1      -1.460  49.725 -20.656  1.00  0.00     0.047 C 
BRANCH  26  30
HETATM   30  C2  UNL     1       1.069  53.174 -21.713  1.00  0.00     0.064 C 
HETATM   31  C1  UNL     1       1.429  54.403 -22.111  1.00  0.00     0.017 C 
ENDBRANCH  26  30
ENDBRANCH  12  22
BRANCH  17  32
HETATM   32  N7  UNL     1      -7.745  50.099 -23.260  1.00  0.00    -0.288 NA
HETATM   33  H32 UNL     1      -8.358  50.070 -22.455  1.00  0.00     0.125 HD
HETATM   34  H33 UNL     1      -8.068  50.642 -24.055  1.00  0.00     0.125 HD
ENDBRANCH  17  32
ENDBRANCH   9  10
ENDBRANCH   1   8
BRANCH   3  35
HETATM   35  C13 UNL     1     -13.298  48.168 -19.888  1.00  0.00     0.256 C 
HETATM   36  O2  UNL     1     -13.710  49.314 -20.014  1.00  0.00    -0.267 OA
HETATM   37  N4  UNL     1     -13.873  47.008 -20.369  1.00  0.00    -0.323 N 
HETATM   38  H10 UNL     1     -13.367  46.148 -20.212  1.00  0.00     0.169 HD
BRANCH  37  39
HETATM   39  C14 UNL     1     -15.039  46.905 -21.159  1.00  0.00     0.035 A 
HETATM   40  C15 UNL     1     -15.038  46.932 -22.549  1.00  0.00     0.030 A 
HETATM   41  C16 UNL     1     -16.230  46.788 -23.268  1.00  0.00     0.012 A 
HETATM   42  C17 UNL     1     -17.459  46.613 -22.610  1.00  0.00    -0.015 A 
HETATM   43  C24 UNL     1     -17.478  46.587 -21.199  1.00  0.00     0.058 A 
HETATM   44  C26 UNL     1     -16.262  46.746 -20.494  1.00  0.00     0.046 A 
BRANCH  42  45
HETATM   45  C18 UNL     1     -18.715  46.443 -23.446  1.00  0.00     0.311 C 
BRANCH  45  46
HETATM   46  N5  UNL     1     -18.887  45.066 -23.915  1.00  0.00     0.096 N 
HETATM   47  C19 UNL     1     -19.566  44.987 -25.227  1.00  0.00     0.303 C 
HETATM   48  C20 UNL     1     -18.616  44.759 -26.425  1.00  0.00     0.302 C 
HETATM   49  N6  UNL     1     -17.751  43.566 -26.312  1.00  0.00     0.087 N 
HETATM   50  C21 UNL     1     -18.251  42.449 -27.108  1.00  0.00     0.310 C 
HETATM   51  C22 UNL     1     -17.583  43.155 -24.901  1.00  0.00     0.302 C 
HETATM   52  C23 UNL     1     -17.584  44.365 -23.945  1.00  0.00     0.303 C 
ENDBRANCH  45  46
ENDBRANCH  42  45
BRANCH  43  53
HETATM   53  C25 UNL     1     -18.757  46.412 -20.400  1.00  0.00     0.418 C 
HETATM   54  F1  UNL     1     -18.561  46.160 -19.075  1.00  0.00    -0.166 F 
HETATM   55  F2  UNL     1     -19.531  47.548 -20.421  1.00  0.00    -0.166 F 
HETATM   56  F3  UNL     1     -19.565  45.428 -20.879  1.00  0.00    -0.166 F 
ENDBRANCH  43  53
ENDBRANCH  37  39
ENDBRANCH   3  35
TORSDOF 10
ENDMDL
