MODEL 1
REMARK minimizedAffinity -9.4974041
REMARK CNNscore 0.367612869
REMARK CNNaffinity 7.5218749
REMARK  9 active torsions:
REMARK  status: ('A' for Active; 'I' for Inactive)
REMARK    1  A    between atoms: C2_2  and  S1_3 
REMARK    2  A    between atoms: S1_3  and  C3_6 
REMARK    3  A    between atoms: C10_13  and  C11_14 
REMARK    4  A    between atoms: C14_18  and  C15_19 
REMARK    5  A    between atoms: C15_19  and  C16_20 
REMARK    6  A    between atoms: C16_20  and  C17_21 
REMARK    7  A    between atoms: C17_21  and  N2_22 
REMARK       I    between atoms: N3_25  and  C20_26 
REMARK    8  A    between atoms: C20_26  and  C21_28 
REMARK    9  A    between atoms: C21_28  and  O4_29 
ROOT
HETATM    1  C11 UNL     1      -6.795   6.128  13.612  1.00  0.00     0.040 A 
HETATM    2  N1  UNL     1      -7.977   5.986  12.923  1.00  0.00    -0.359 N 
HETATM    3  C12 UNL     1      -8.996   6.552  13.632  1.00  0.00     0.016 A 
HETATM    4  C13 UNL     1      -8.480   7.091  14.787  1.00  0.00    -0.027 A 
HETATM    5  C14 UNL     1      -7.079   6.832  14.783  1.00  0.00    -0.023 A 
HETATM    6  C24 UNL     1      -9.340   7.763  15.803  1.00  0.00     0.041 C 
HETATM    7  C25 UNL     1     -10.730   8.102  15.232  1.00  0.00     0.005 C 
HETATM    8  C26 UNL     1     -11.318   6.955  14.384  1.00  0.00     0.006 C 
HETATM    9  C27 UNL     1     -10.417   6.578  13.195  1.00  0.00     0.057 C 
HETATM   10  H10 UNL     1      -8.092   5.504  12.036  1.00  0.00     0.166 HD
ENDROOT
BRANCH   1  11
HETATM   11  C10 UNL     1      -5.564   5.609  13.125  1.00  0.00     0.048 C 
HETATM   12  C9  UNL     1      -5.293   4.407  12.589  1.00  0.00     0.047 A 
HETATM   13  C7  UNL     1      -3.924   3.985  12.225  1.00  0.00     0.008 A 
HETATM   14  C28 UNL     1      -6.187   3.227  12.292  1.00  0.00     0.257 A 
HETATM   15  C6  UNL     1      -4.020   2.652  11.804  1.00  0.00     0.046 A 
HETATM   16  C8  UNL     1      -2.693   4.621  12.253  1.00  0.00     0.038 A 
HETATM   17  C5  UNL     1      -2.924   1.908  11.409  1.00  0.00     0.032 A 
HETATM   18  N4  UNL     1      -5.339   2.224  11.845  1.00  0.00    -0.322 N 
HETATM   19  C4  UNL     1      -1.675   2.531  11.448  1.00  0.00     0.026 A 
HETATM   20  C3  UNL     1      -1.567   3.872  11.878  1.00  0.00     0.060 A 
HETATM   21  H36 UNL     1      -5.674   1.313  11.572  1.00  0.00     0.169 HD
HETATM   22  O5  UNL     1      -7.394   3.145  12.400  1.00  0.00    -0.267 OA
BRANCH  20  23
HETATM   23  S1  UNL     1       0.036   4.646  11.947  1.00  0.00     0.175 S 
HETATM   24  O1  UNL     1       0.896   3.889  11.057  1.00  0.00    -0.223 OA
HETATM   25  O2  UNL     1       0.383   4.821  13.344  1.00  0.00    -0.223 OA
BRANCH  23  26
HETATM   26  C2  UNL     1      -0.217   6.256  11.230  1.00  0.00     0.141 C 
HETATM   27  C1  UNL     1       0.812   6.619  10.178  1.00  0.00     0.021 C 
ENDBRANCH  23  26
ENDBRANCH  20  23
ENDBRANCH   1  11
BRANCH   5  28
HETATM   28  C15 UNL     1      -6.112   7.227  15.859  1.00  0.00     0.043 C 
BRANCH  28  29
HETATM   29  C16 UNL     1      -5.104   8.277  15.376  1.00  0.00     0.035 C 
BRANCH  29  30
HETATM   30  C17 UNL     1      -3.703   7.664  15.248  1.00  0.00     0.273 C 
BRANCH  30  31
HETATM   31  N2  UNL     1      -2.624   8.647  15.411  1.00  0.00     0.091 N 
HETATM   32  C18 UNL     1      -1.629   8.562  14.321  1.00  0.00     0.292 C 
HETATM   33  C19 UNL     1      -0.318   7.838  14.682  1.00  0.00     0.156 C 
HETATM   34  N3  UNL     1       0.324   8.412  15.868  1.00  0.00    -0.347 N 
HETATM   35  C20 UNL     1       1.684   8.391  16.121  1.00  0.00     0.243 C 
HETATM   36  C22 UNL     1      -0.559   9.143  16.779  1.00  0.00     0.156 C 
HETATM   37  O3  UNL     1       2.187   9.009  17.064  1.00  0.00    -0.271 OA
HETATM   38  C23 UNL     1      -1.993   8.586  16.748  1.00  0.00     0.292 C 
BRANCH  35  39
HETATM   39  C21 UNL     1       2.574   7.560  15.181  1.00  0.00     0.267 C 
BRANCH  39  40
HETATM   40  O4  UNL     1       3.326   6.544  15.821  1.00  0.00    -0.392 OA
HETATM   41  H23 UNL     1       3.858   6.988  16.505  1.00  0.00     0.210 HD
ENDBRANCH  39  40
ENDBRANCH  35  39
ENDBRANCH  30  31
ENDBRANCH  29  30
ENDBRANCH  28  29
ENDBRANCH   5  28
TORSDOF 9
ENDMDL
MODEL 2
REMARK minimizedAffinity -9.68483067
REMARK CNNscore 0.332803488
REMARK CNNaffinity 7.63222122
REMARK  9 active torsions:
REMARK  status: ('A' for Active; 'I' for Inactive)
REMARK    1  A    between atoms: C2_2  and  S1_3 
REMARK    2  A    between atoms: S1_3  and  C3_6 
REMARK    3  A    between atoms: C10_13  and  C11_14 
REMARK    4  A    between atoms: C14_18  and  C15_19 
REMARK    5  A    between atoms: C15_19  and  C16_20 
REMARK    6  A    between atoms: C16_20  and  C17_21 
REMARK    7  A    between atoms: C17_21  and  N2_22 
REMARK       I    between atoms: N3_25  and  C20_26 
REMARK    8  A    between atoms: C20_26  and  C21_28 
REMARK    9  A    between atoms: C21_28  and  O4_29 
ROOT
HETATM    1  C11 UNL     1      -0.796   5.521  12.169  1.00  0.00     0.040 A 
HETATM    2  N1  UNL     1      -0.137   5.531  10.962  1.00  0.00    -0.359 N 
HETATM    3  C12 UNL     1       1.048   6.194  11.088  1.00  0.00     0.016 A 
HETATM    4  C13 UNL     1       1.183   6.607  12.394  1.00  0.00    -0.027 A 
HETATM    5  C14 UNL     1       0.017   6.179  13.093  1.00  0.00    -0.023 A 
HETATM    6  C24 UNL     1       2.363   7.389  12.860  1.00  0.00     0.041 C 
HETATM    7  C25 UNL     1       3.520   7.330  11.845  1.00  0.00     0.005 C 
HETATM    8  C26 UNL     1       3.036   7.489  10.388  1.00  0.00     0.006 C 
HETATM    9  C27 UNL     1       2.019   6.408   9.982  1.00  0.00     0.057 C 
HETATM   10  H10 UNL     1      -0.487   5.138  10.093  1.00  0.00     0.166 HD
ENDROOT
BRANCH   1  11
HETATM   11  C10 UNL     1      -2.075   4.920  12.333  1.00  0.00     0.048 C 
HETATM   12  C9  UNL     1      -2.510   3.711  11.941  1.00  0.00     0.047 A 
HETATM   13  C7  UNL     1      -3.914   3.277  12.100  1.00  0.00     0.008 A 
HETATM   14  C28 UNL     1      -1.800   2.580  11.236  1.00  0.00     0.257 A 
HETATM   15  C6  UNL     1      -4.012   2.021  11.487  1.00  0.00     0.046 A 
HETATM   16  C8  UNL     1      -5.031   3.862  12.675  1.00  0.00     0.038 A 
HETATM   17  C5  UNL     1      -5.195   1.310  11.413  1.00  0.00     0.032 A 
HETATM   18  N4  UNL     1      -2.778   1.626  10.991  1.00  0.00    -0.322 N 
HETATM   19  C4  UNL     1      -6.332   1.895  11.974  1.00  0.00     0.026 A 
HETATM   20  C3  UNL     1      -6.245   3.164  12.587  1.00  0.00     0.060 A 
HETATM   21  H36 UNL     1      -2.578   0.753  10.525  1.00  0.00     0.169 HD
HETATM   22  O5  UNL     1      -0.626   2.490  10.941  1.00  0.00    -0.267 OA
BRANCH  20  23
HETATM   23  S1  UNL     1      -7.710   3.908  13.277  1.00  0.00     0.175 S 
HETATM   24  O1  UNL     1      -7.486   4.007  14.707  1.00  0.00    -0.223 OA
HETATM   25  O2  UNL     1      -8.858   3.193  12.753  1.00  0.00    -0.223 OA
BRANCH  23  26
HETATM   26  C2  UNL     1      -7.728   5.557  12.608  1.00  0.00     0.141 C 
HETATM   27  C1  UNL     1      -8.892   5.820  11.673  1.00  0.00     0.021 C 
ENDBRANCH  23  26
ENDBRANCH  20  23
ENDBRANCH   1  11
BRANCH   5  28
HETATM   28  C15 UNL     1      -0.272   6.423  14.543  1.00  0.00     0.043 C 
BRANCH  28  29
HETATM   29  C16 UNL     1      -0.763   7.852  14.805  1.00  0.00     0.035 C 
BRANCH  29  30
HETATM   30  C17 UNL     1      -1.959   8.189  13.904  1.00  0.00     0.273 C 
BRANCH  30  31
HETATM   31  N2  UNL     1      -3.087   7.264  14.070  1.00  0.00     0.091 N 
HETATM   32  C18 UNL     1      -4.259   7.671  13.267  1.00  0.00     0.292 C 
HETATM   33  C19 UNL     1      -5.387   8.366  14.054  1.00  0.00     0.156 C 
HETATM   34  N3  UNL     1      -5.847   7.561  15.191  1.00  0.00    -0.347 N 
HETATM   35  C20 UNL     1      -7.120   7.604  15.727  1.00  0.00     0.243 C 
HETATM   36  C22 UNL     1      -4.889   6.579  15.703  1.00  0.00     0.156 C 
HETATM   37  O3  UNL     1      -7.495   6.809  16.594  1.00  0.00    -0.271 OA
HETATM   38  C23 UNL     1      -3.436   7.039  15.491  1.00  0.00     0.292 C 
BRANCH  35  39
HETATM   39  C21 UNL     1      -8.079   8.691  15.211  1.00  0.00     0.267 C 
BRANCH  39  40
HETATM   40  O4  UNL     1      -9.342   8.213  14.782  1.00  0.00    -0.392 OA
HETATM   41  H23 UNL     1      -9.163   7.549  14.093  1.00  0.00     0.210 HD
ENDBRANCH  39  40
ENDBRANCH  35  39
ENDBRANCH  30  31
ENDBRANCH  29  30
ENDBRANCH  28  29
ENDBRANCH   5  28
TORSDOF 9
ENDMDL
MODEL 3
REMARK minimizedAffinity -7.75279379
REMARK CNNscore 0.331951708
REMARK CNNaffinity 6.06238794
REMARK  9 active torsions:
REMARK  status: ('A' for Active; 'I' for Inactive)
REMARK    1  A    between atoms: C2_2  and  S1_3 
REMARK    2  A    between atoms: S1_3  and  C3_6 
REMARK    3  A    between atoms: C10_13  and  C11_14 
REMARK    4  A    between atoms: C14_18  and  C15_19 
REMARK    5  A    between atoms: C15_19  and  C16_20 
REMARK    6  A    between atoms: C16_20  and  C17_21 
REMARK    7  A    between atoms: C17_21  and  N2_22 
REMARK       I    between atoms: N3_25  and  C20_26 
REMARK    8  A    between atoms: C20_26  and  C21_28 
REMARK    9  A    between atoms: C21_28  and  O4_29 
ROOT
HETATM    1  C11 UNL     1     -11.273   9.654  23.068  1.00  0.00     0.040 A 
HETATM    2  N1  UNL     1     -10.739  10.449  24.056  1.00  0.00    -0.359 N 
HETATM    3  C12 UNL     1     -10.140  11.540  23.498  1.00  0.00     0.016 A 
HETATM    4  C13 UNL     1     -10.298  11.477  22.132  1.00  0.00    -0.027 A 
HETATM    5  C14 UNL     1     -11.022  10.283  21.847  1.00  0.00    -0.023 A 
HETATM    6  C24 UNL     1      -9.731  12.510  21.220  1.00  0.00     0.041 C 
HETATM    7  C25 UNL     1      -9.320  13.781  21.988  1.00  0.00     0.005 C 
HETATM    8  C26 UNL     1      -8.594  13.462  23.312  1.00  0.00     0.006 C 
HETATM    9  C27 UNL     1      -9.451  12.610  24.266  1.00  0.00     0.057 C 
HETATM   10  H10 UNL     1     -10.753  10.246  25.051  1.00  0.00     0.166 HD
ENDROOT
BRANCH   1  11
HETATM   11  C10 UNL     1     -11.938   8.429  23.352  1.00  0.00     0.048 C 
HETATM   12  C9  UNL     1     -12.861   8.154  24.288  1.00  0.00     0.047 A 
HETATM   13  C7  UNL     1     -13.381   6.790  24.520  1.00  0.00     0.008 A 
HETATM   14  C28 UNL     1     -13.525   9.035  25.320  1.00  0.00     0.257 A 
HETATM   15  C6  UNL     1     -14.233   6.874  25.630  1.00  0.00     0.046 A 
HETATM   16  C8  UNL     1     -13.165   5.571  23.898  1.00  0.00     0.038 A 
HETATM   17  C5  UNL     1     -14.886   5.778  26.161  1.00  0.00     0.032 A 
HETATM   18  N4  UNL     1     -14.310   8.183  26.084  1.00  0.00    -0.322 N 
HETATM   19  C4  UNL     1     -14.664   4.541  25.554  1.00  0.00     0.026 A 
HETATM   20  C3  UNL     1     -13.802   4.444  24.440  1.00  0.00     0.060 A 
HETATM   21  H36 UNL     1     -14.872   8.510  26.855  1.00  0.00     0.169 HD
HETATM   22  O5  UNL     1     -13.422  10.236  25.469  1.00  0.00    -0.267 OA
BRANCH  20  23
HETATM   23  S1  UNL     1     -13.509   2.854  23.691  1.00  0.00     0.175 S 
HETATM   24  O1  UNL     1     -13.624   3.049  22.258  1.00  0.00    -0.223 OA
HETATM   25  O2  UNL     1     -14.340   1.883  24.377  1.00  0.00    -0.223 OA
BRANCH  23  26
HETATM   26  C2  UNL     1     -11.806   2.494  24.062  1.00  0.00     0.141 C 
HETATM   27  C1  UNL     1     -11.628   1.355  25.047  1.00  0.00     0.021 C 
ENDBRANCH  23  26
ENDBRANCH  20  23
ENDBRANCH   1  11
BRANCH   5  28
HETATM   28  C15 UNL     1     -11.409   9.800  20.482  1.00  0.00     0.043 C 
BRANCH  28  29
HETATM   29  C16 UNL     1     -12.510  10.661  19.851  1.00  0.00     0.035 C 
BRANCH  29  30
HETATM   30  C17 UNL     1     -12.267  10.835  18.346  1.00  0.00     0.273 C 
BRANCH  30  31
HETATM   31  N2  UNL     1     -12.309   9.569  17.603  1.00  0.00     0.091 N 
HETATM   32  C18 UNL     1     -11.166   9.433  16.676  1.00  0.00     0.292 C 
HETATM   33  C19 UNL     1     -11.485   9.713  15.194  1.00  0.00     0.156 C 
HETATM   34  N3  UNL     1     -12.595   8.893  14.702  1.00  0.00    -0.347 N 
HETATM   35  C20 UNL     1     -12.764   8.495  13.388  1.00  0.00     0.243 C 
HETATM   36  C22 UNL     1     -13.518   8.392  15.723  1.00  0.00     0.156 C 
HETATM   37  O3  UNL     1     -13.640   7.692  13.052  1.00  0.00    -0.271 OA
HETATM   38  C23 UNL     1     -13.606   9.348  16.926  1.00  0.00     0.292 C 
BRANCH  35  39
HETATM   39  C21 UNL     1     -11.818   9.091  12.332  1.00  0.00     0.267 C 
BRANCH  39  40
HETATM   40  O4  UNL     1     -12.412  10.056  11.481  1.00  0.00    -0.392 OA
HETATM   41  H23 UNL     1     -13.173   9.619  11.061  1.00  0.00     0.210 HD
ENDBRANCH  39  40
ENDBRANCH  35  39
ENDBRANCH  30  31
ENDBRANCH  29  30
ENDBRANCH  28  29
ENDBRANCH   5  28
TORSDOF 9
ENDMDL
MODEL 4
REMARK minimizedAffinity -8.75908756
REMARK CNNscore 0.256987423
REMARK CNNaffinity 7.42564201
REMARK  9 active torsions:
REMARK  status: ('A' for Active; 'I' for Inactive)
REMARK    1  A    between atoms: C2_2  and  S1_3 
REMARK    2  A    between atoms: S1_3  and  C3_6 
REMARK    3  A    between atoms: C10_13  and  C11_14 
REMARK    4  A    between atoms: C14_18  and  C15_19 
REMARK    5  A    between atoms: C15_19  and  C16_20 
REMARK    6  A    between atoms: C16_20  and  C17_21 
REMARK    7  A    between atoms: C17_21  and  N2_22 
REMARK       I    between atoms: N3_25  and  C20_26 
REMARK    8  A    between atoms: C20_26  and  C21_28 
REMARK    9  A    between atoms: C21_28  and  O4_29 
ROOT
HETATM    1  C11 UNL     1      -6.621   6.459  13.763  1.00  0.00     0.040 A 
HETATM    2  N1  UNL     1      -7.843   6.183  13.193  1.00  0.00    -0.359 N 
HETATM    3  C12 UNL     1      -8.833   6.795  13.902  1.00  0.00     0.016 A 
HETATM    4  C13 UNL     1      -8.260   7.500  14.936  1.00  0.00    -0.027 A 
HETATM    5  C14 UNL     1      -6.853   7.298  14.854  1.00  0.00    -0.023 A 
HETATM    6  C24 UNL     1      -9.076   8.265  15.922  1.00  0.00     0.041 C 
HETATM    7  C25 UNL     1     -10.520   8.472  15.424  1.00  0.00     0.005 C 
HETATM    8  C26 UNL     1     -11.111   7.201  14.779  1.00  0.00     0.006 C 
HETATM    9  C27 UNL     1     -10.282   6.708  13.579  1.00  0.00     0.057 C 
HETATM   10  H10 UNL     1      -7.998   5.584  12.386  1.00  0.00     0.166 HD
ENDROOT
BRANCH   1  11
HETATM   11  C10 UNL     1      -5.405   5.930  13.250  1.00  0.00     0.048 C 
HETATM   12  C9  UNL     1      -5.163   4.740  12.676  1.00  0.00     0.047 A 
HETATM   13  C7  UNL     1      -3.806   4.301  12.288  1.00  0.00     0.008 A 
HETATM   14  C28 UNL     1      -6.084   3.588  12.351  1.00  0.00     0.257 A 
HETATM   15  C6  UNL     1      -3.933   2.984  11.827  1.00  0.00     0.046 A 
HETATM   16  C8  UNL     1      -2.563   4.911  12.325  1.00  0.00     0.038 A 
HETATM   17  C5  UNL     1      -2.856   2.229  11.401  1.00  0.00     0.032 A 
HETATM   18  N4  UNL     1      -5.260   2.582  11.867  1.00  0.00    -0.322 N 
HETATM   19  C4  UNL     1      -1.594   2.825  11.449  1.00  0.00     0.026 A 
HETATM   20  C3  UNL     1      -1.455   4.150  11.918  1.00  0.00     0.060 A 
HETATM   21  H36 UNL     1      -5.617   1.686  11.569  1.00  0.00     0.169 HD
HETATM   22  O5  UNL     1      -7.291   3.527  12.467  1.00  0.00    -0.267 OA
BRANCH  20  23
HETATM   23  S1  UNL     1       0.164   4.889  11.996  1.00  0.00     0.175 S 
HETATM   24  O1  UNL     1       1.056   4.000  11.276  1.00  0.00    -0.223 OA
HETATM   25  O2  UNL     1       0.423   5.240  13.380  1.00  0.00    -0.223 OA
BRANCH  23  26
HETATM   26  C2  UNL     1       0.012   6.394  11.058  1.00  0.00     0.141 C 
HETATM   27  C1  UNL     1       1.048   6.531   9.961  1.00  0.00     0.021 C 
ENDBRANCH  23  26
ENDBRANCH  20  23
ENDBRANCH   1  11
BRANCH   5  28
HETATM   28  C15 UNL     1      -5.831   7.869  15.791  1.00  0.00     0.043 C 
BRANCH  28  29
HETATM   29  C16 UNL     1      -4.692   8.578  15.047  1.00  0.00     0.035 C 
BRANCH  29  30
HETATM   30  C17 UNL     1      -3.329   8.142  15.600  1.00  0.00     0.273 C 
BRANCH  30  31
HETATM   31  N2  UNL     1      -2.362   9.243  15.687  1.00  0.00     0.091 N 
HETATM   32  C18 UNL     1      -2.870  10.362  16.509  1.00  0.00     0.292 C 
HETATM   33  C19 UNL     1      -3.394  11.576  15.718  1.00  0.00     0.156 C 
HETATM   34  N3  UNL     1      -2.398  12.094  14.775  1.00  0.00    -0.347 N 
HETATM   35  C20 UNL     1      -2.319  13.407  14.350  1.00  0.00     0.243 C 
HETATM   36  C22 UNL     1      -1.367  11.144  14.352  1.00  0.00     0.156 C 
HETATM   37  O3  UNL     1      -1.380  13.820  13.663  1.00  0.00    -0.271 OA
HETATM   38  C23 UNL     1      -1.892   9.697  14.359  1.00  0.00     0.292 C 
BRANCH  35  39
HETATM   39  C21 UNL     1      -3.453  14.362  14.759  1.00  0.00     0.267 C 
BRANCH  39  40
HETATM   40  O4  UNL     1      -3.965  15.161  13.706  1.00  0.00    -0.392 OA
HETATM   41  H23 UNL     1      -3.207  15.653  13.343  1.00  0.00     0.210 HD
ENDBRANCH  39  40
ENDBRANCH  35  39
ENDBRANCH  30  31
ENDBRANCH  29  30
ENDBRANCH  28  29
ENDBRANCH   5  28
TORSDOF 9
ENDMDL
MODEL 5
REMARK minimizedAffinity -8.25388432
REMARK CNNscore 0.182562575
REMARK CNNaffinity 7.04472494
REMARK  9 active torsions:
REMARK  status: ('A' for Active; 'I' for Inactive)
REMARK    1  A    between atoms: C2_2  and  S1_3 
REMARK    2  A    between atoms: S1_3  and  C3_6 
REMARK    3  A    between atoms: C10_13  and  C11_14 
REMARK    4  A    between atoms: C14_18  and  C15_19 
REMARK    5  A    between atoms: C15_19  and  C16_20 
REMARK    6  A    between atoms: C16_20  and  C17_21 
REMARK    7  A    between atoms: C17_21  and  N2_22 
REMARK       I    between atoms: N3_25  and  C20_26 
REMARK    8  A    between atoms: C20_26  and  C21_28 
REMARK    9  A    between atoms: C21_28  and  O4_29 
ROOT
HETATM    1  C11 UNL     1      -8.142   6.175  14.238  1.00  0.00     0.040 A 
HETATM    2  N1  UNL     1      -8.477   4.875  13.940  1.00  0.00    -0.359 N 
HETATM    3  C12 UNL     1      -7.428   4.257  13.324  1.00  0.00     0.016 A 
HETATM    4  C13 UNL     1      -6.385   5.150  13.234  1.00  0.00    -0.027 A 
HETATM    5  C14 UNL     1      -6.826   6.373  13.817  1.00  0.00    -0.023 A 
HETATM    6  C24 UNL     1      -5.092   4.795  12.584  1.00  0.00     0.041 C 
HETATM    7  C25 UNL     1      -4.950   3.272  12.398  1.00  0.00     0.005 C 
HETATM    8  C26 UNL     1      -6.252   2.613  11.898  1.00  0.00     0.006 C 
HETATM    9  C27 UNL     1      -7.437   2.847  12.852  1.00  0.00     0.057 C 
HETATM   10  H10 UNL     1      -9.379   4.440  14.115  1.00  0.00     0.166 HD
ENDROOT
BRANCH   1  11
HETATM   11  C10 UNL     1      -9.054   7.072  14.861  1.00  0.00     0.048 C 
HETATM   12  C9  UNL     1     -10.172   7.635  14.372  1.00  0.00     0.047 A 
HETATM   13  C7  UNL     1     -10.956   8.636  15.125  1.00  0.00     0.008 A 
HETATM   14  C28 UNL     1     -10.854   7.489  13.033  1.00  0.00     0.257 A 
HETATM   15  C6  UNL     1     -11.975   9.067  14.265  1.00  0.00     0.046 A 
HETATM   16  C8  UNL     1     -10.843   9.172  16.397  1.00  0.00     0.038 A 
HETATM   17  C5  UNL     1     -12.899  10.033  14.619  1.00  0.00     0.032 A 
HETATM   18  N4  UNL     1     -11.906   8.393  13.054  1.00  0.00    -0.322 N 
HETATM   19  C4  UNL     1     -12.786  10.594  15.892  1.00  0.00     0.026 A 
HETATM   20  C3  UNL     1     -11.759  10.171  16.763  1.00  0.00     0.060 A 
HETATM   21  H36 UNL     1     -12.538   8.507  12.276  1.00  0.00     0.169 HD
HETATM   22  O5  UNL     1     -10.572   6.743  12.117  1.00  0.00    -0.267 OA
BRANCH  20  23
HETATM   23  S1  UNL     1     -11.613  10.914  18.376  1.00  0.00     0.175 S 
HETATM   24  O1  UNL     1     -12.890  11.544  18.655  1.00  0.00    -0.223 OA
HETATM   25  O2  UNL     1     -10.384  11.685  18.398  1.00  0.00    -0.223 OA
BRANCH  23  26
HETATM   26  C2  UNL     1     -11.426   9.535  19.486  1.00  0.00     0.141 C 
HETATM   27  C1  UNL     1     -12.738   8.879  19.865  1.00  0.00     0.021 C 
ENDBRANCH  23  26
ENDBRANCH  20  23
ENDBRANCH   1  11
BRANCH   5  28
HETATM   28  C15 UNL     1      -6.020   7.632  13.925  1.00  0.00     0.043 C 
BRANCH  28  29
HETATM   29  C16 UNL     1      -5.315   7.756  15.281  1.00  0.00     0.035 C 
BRANCH  29  30
HETATM   30  C17 UNL     1      -4.291   6.629  15.466  1.00  0.00     0.273 C 
BRANCH  30  31
HETATM   31  N2  UNL     1      -2.900   7.090  15.367  1.00  0.00     0.091 N 
HETATM   32  C18 UNL     1      -2.786   8.340  14.587  1.00  0.00     0.292 C 
HETATM   33  C19 UNL     1      -2.286   8.169  13.139  1.00  0.00     0.156 C 
HETATM   34  N3  UNL     1      -1.009   7.451  13.075  1.00  0.00    -0.347 N 
HETATM   35  C20 UNL     1      -0.063   7.606  12.079  1.00  0.00     0.243 C 
HETATM   36  C22 UNL     1      -0.705   6.591  14.220  1.00  0.00     0.156 C 
HETATM   37  O3  UNL     1       1.052   7.081  12.144  1.00  0.00    -0.271 OA
HETATM   38  C23 UNL     1      -1.985   6.037  14.871  1.00  0.00     0.292 C 
BRANCH  35  39
HETATM   39  C21 UNL     1      -0.441   8.464  10.859  1.00  0.00     0.267 C 
BRANCH  39  40
HETATM   40  O4  UNL     1       0.627   8.732   9.967  1.00  0.00    -0.392 OA
HETATM   41  H23 UNL     1       1.322   9.162  10.496  1.00  0.00     0.210 HD
ENDBRANCH  39  40
ENDBRANCH  35  39
ENDBRANCH  30  31
ENDBRANCH  29  30
ENDBRANCH  28  29
ENDBRANCH   5  28
TORSDOF 9
ENDMDL
MODEL 6
REMARK minimizedAffinity -7.14934254
REMARK CNNscore 0.171559244
REMARK CNNaffinity 5.73986101
REMARK  9 active torsions:
REMARK  status: ('A' for Active; 'I' for Inactive)
REMARK    1  A    between atoms: C2_2  and  S1_3 
REMARK    2  A    between atoms: S1_3  and  C3_6 
REMARK    3  A    between atoms: C10_13  and  C11_14 
REMARK    4  A    between atoms: C14_18  and  C15_19 
REMARK    5  A    between atoms: C15_19  and  C16_20 
REMARK    6  A    between atoms: C16_20  and  C17_21 
REMARK    7  A    between atoms: C17_21  and  N2_22 
REMARK       I    between atoms: N3_25  and  C20_26 
REMARK    8  A    between atoms: C20_26  and  C21_28 
REMARK    9  A    between atoms: C21_28  and  O4_29 
ROOT
HETATM    1  C11 UNL     1     -11.163  11.000  18.527  1.00  0.00     0.040 A 
HETATM    2  N1  UNL     1     -10.852  12.331  18.684  1.00  0.00    -0.359 N 
HETATM    3  C12 UNL     1     -10.369  12.834  17.511  1.00  0.00     0.016 A 
HETATM    4  C13 UNL     1     -10.382  11.834  16.567  1.00  0.00    -0.027 A 
HETATM    5  C14 UNL     1     -10.889  10.663  17.200  1.00  0.00    -0.023 A 
HETATM    6  C24 UNL     1      -9.887  12.050  15.177  1.00  0.00     0.041 C 
HETATM    7  C25 UNL     1      -9.746  13.549  14.852  1.00  0.00     0.005 C 
HETATM    8  C26 UNL     1      -9.114  14.348  16.011  1.00  0.00     0.006 C 
HETATM    9  C27 UNL     1      -9.924  14.239  17.315  1.00  0.00     0.057 C 
HETATM   10  H10 UNL     1     -10.932  12.860  19.547  1.00  0.00     0.166 HD
ENDROOT
BRANCH   1  11
HETATM   11  C10 UNL     1     -11.664  10.204  19.594  1.00  0.00     0.048 C 
HETATM   12  C9  UNL     1     -11.369  10.244  20.904  1.00  0.00     0.047 A 
HETATM   13  C7  UNL     1     -11.907   9.268  21.874  1.00  0.00     0.008 A 
HETATM   14  C28 UNL     1     -10.448  11.149  21.688  1.00  0.00     0.257 A 
HETATM   15  C6  UNL     1     -11.302   9.558  23.104  1.00  0.00     0.046 A 
HETATM   16  C8  UNL     1     -12.799   8.214  21.767  1.00  0.00     0.038 A 
HETATM   17  C5  UNL     1     -11.544   8.827  24.252  1.00  0.00     0.032 A 
HETATM   18  N4  UNL     1     -10.459  10.653  22.984  1.00  0.00    -0.322 N 
HETATM   19  C4  UNL     1     -12.429   7.751  24.155  1.00  0.00     0.026 A 
HETATM   20  C3  UNL     1     -13.038   7.446  22.918  1.00  0.00     0.060 A 
HETATM   21  H36 UNL     1      -9.924  11.073  23.729  1.00  0.00     0.169 HD
HETATM   22  O5  UNL     1      -9.826  12.117  21.300  1.00  0.00    -0.267 OA
BRANCH  20  23
HETATM   23  S1  UNL     1     -14.146   6.056  22.803  1.00  0.00     0.175 S 
HETATM   24  O1  UNL     1     -13.945   5.478  21.487  1.00  0.00    -0.223 OA
HETATM   25  O2  UNL     1     -15.460   6.501  23.224  1.00  0.00    -0.223 OA
BRANCH  23  26
HETATM   26  C2  UNL     1     -13.535   4.899  24.010  1.00  0.00     0.141 C 
HETATM   27  C1  UNL     1     -14.579   3.906  24.480  1.00  0.00     0.021 C 
ENDBRANCH  23  26
ENDBRANCH  20  23
ENDBRANCH   1  11
BRANCH   5  28
HETATM   28  C15 UNL     1     -11.065   9.323  16.551  1.00  0.00     0.043 C 
BRANCH  28  29
HETATM   29  C16 UNL     1      -9.726   8.622  16.293  1.00  0.00     0.035 C 
BRANCH  29  30
HETATM   30  C17 UNL     1      -9.811   7.732  15.047  1.00  0.00     0.273 C 
BRANCH  30  31
HETATM   31  N2  UNL     1      -8.918   6.567  15.106  1.00  0.00     0.091 N 
HETATM   32  C18 UNL     1      -7.910   6.697  16.178  1.00  0.00     0.292 C 
HETATM   33  C19 UNL     1      -6.498   7.101  15.710  1.00  0.00     0.156 C 
HETATM   34  N3  UNL     1      -5.979   6.200  14.676  1.00  0.00    -0.347 N 
HETATM   35  C20 UNL     1      -4.640   5.938  14.454  1.00  0.00     0.243 C 
HETATM   36  C22 UNL     1      -6.986   5.464  13.909  1.00  0.00     0.156 C 
HETATM   37  O3  UNL     1      -4.262   5.069  13.664  1.00  0.00    -0.271 OA
HETATM   38  C23 UNL     1      -8.303   6.252  13.797  1.00  0.00     0.292 C 
BRANCH  35  39
HETATM   39  C21 UNL     1      -3.609   6.776  15.229  1.00  0.00     0.267 C 
BRANCH  39  40
HETATM   40  O4  UNL     1      -3.243   6.248  16.492  1.00  0.00    -0.392 OA
HETATM   41  H23 UNL     1      -4.069   6.155  16.999  1.00  0.00     0.210 HD
ENDBRANCH  39  40
ENDBRANCH  35  39
ENDBRANCH  30  31
ENDBRANCH  29  30
ENDBRANCH  28  29
ENDBRANCH   5  28
TORSDOF 9
ENDMDL
MODEL 7
REMARK minimizedAffinity -8.69948673
REMARK CNNscore 0.165727347
REMARK CNNaffinity 7.06354761
REMARK  9 active torsions:
REMARK  status: ('A' for Active; 'I' for Inactive)
REMARK    1  A    between atoms: C2_2  and  S1_3 
REMARK    2  A    between atoms: S1_3  and  C3_6 
REMARK    3  A    between atoms: C10_13  and  C11_14 
REMARK    4  A    between atoms: C14_18  and  C15_19 
REMARK    5  A    between atoms: C15_19  and  C16_20 
REMARK    6  A    between atoms: C16_20  and  C17_21 
REMARK    7  A    between atoms: C17_21  and  N2_22 
REMARK       I    between atoms: N3_25  and  C20_26 
REMARK    8  A    between atoms: C20_26  and  C21_28 
REMARK    9  A    between atoms: C21_28  and  O4_29 
ROOT
HETATM    1  C11 UNL     1      -0.359   5.773  11.650  1.00  0.00     0.040 A 
HETATM    2  N1  UNL     1       0.043   5.903  10.341  1.00  0.00    -0.359 N 
HETATM    3  C12 UNL     1       1.359   6.259  10.295  1.00  0.00     0.016 A 
HETATM    4  C13 UNL     1       1.835   6.344  11.583  1.00  0.00    -0.027 A 
HETATM    5  C14 UNL     1       0.752   6.032  12.454  1.00  0.00    -0.023 A 
HETATM    6  C24 UNL     1       3.240   6.742  11.885  1.00  0.00     0.041 C 
HETATM    7  C25 UNL     1       4.134   6.660  10.632  1.00  0.00     0.005 C 
HETATM    8  C26 UNL     1       3.442   7.226   9.375  1.00  0.00     0.006 C 
HETATM    9  C27 UNL     1       2.128   6.496   9.044  1.00  0.00     0.057 C 
HETATM   10  H10 UNL     1      -0.550   5.789   9.524  1.00  0.00     0.166 HD
ENDROOT
BRANCH   1  11
HETATM   11  C10 UNL     1      -1.694   5.435  12.005  1.00  0.00     0.048 C 
HETATM   12  C9  UNL     1      -2.383   4.305  11.771  1.00  0.00     0.047 A 
HETATM   13  C7  UNL     1      -3.811   4.153  12.121  1.00  0.00     0.008 A 
HETATM   14  C28 UNL     1      -1.979   3.018  11.093  1.00  0.00     0.257 A 
HETATM   15  C6  UNL     1      -4.206   2.900  11.635  1.00  0.00     0.046 A 
HETATM   16  C8  UNL     1      -4.725   4.973  12.762  1.00  0.00     0.038 A 
HETATM   17  C5  UNL     1      -5.497   2.420  11.755  1.00  0.00     0.032 A 
HETATM   18  N4  UNL     1      -3.133   2.250  11.042  1.00  0.00    -0.322 N 
HETATM   19  C4  UNL     1      -6.433   3.243  12.384  1.00  0.00     0.026 A 
HETATM   20  C3  UNL     1      -6.046   4.511  12.871  1.00  0.00     0.060 A 
HETATM   21  H36 UNL     1      -3.152   1.326  10.636  1.00  0.00     0.169 HD
HETATM   22  O5  UNL     1      -0.885   2.690  10.680  1.00  0.00    -0.267 OA
BRANCH  20  23
HETATM   23  S1  UNL     1      -7.257   5.559  13.650  1.00  0.00     0.175 S 
HETATM   24  O1  UNL     1      -8.517   5.302  12.978  1.00  0.00    -0.223 OA
HETATM   25  O2  UNL     1      -6.708   6.901  13.709  1.00  0.00    -0.223 OA
BRANCH  23  26
HETATM   26  C2  UNL     1      -7.383   4.935  15.312  1.00  0.00     0.141 C 
HETATM   27  C1  UNL     1      -6.876   5.902  16.363  1.00  0.00     0.021 C 
ENDBRANCH  23  26
ENDBRANCH  20  23
ENDBRANCH   1  11
BRANCH   5  28
HETATM   28  C15 UNL     1       0.810   6.015  13.952  1.00  0.00     0.043 C 
BRANCH  28  29
HETATM   29  C16 UNL     1       0.632   7.413  14.556  1.00  0.00     0.035 C 
BRANCH  29  30
HETATM   30  C17 UNL     1       1.949   7.914  15.162  1.00  0.00     0.273 C 
BRANCH  30  31
HETATM   31  N2  UNL     1       2.091   9.375  15.110  1.00  0.00     0.091 N 
HETATM   32  C18 UNL     1       2.296   9.861  13.729  1.00  0.00     0.292 C 
HETATM   33  C19 UNL     1       3.749  10.227  13.368  1.00  0.00     0.156 C 
HETATM   34  N3  UNL     1       4.324  11.198  14.304  1.00  0.00    -0.347 N 
HETATM   35  C20 UNL     1       5.317  12.108  13.989  1.00  0.00     0.243 C 
HETATM   36  C22 UNL     1       3.705  11.247  15.630  1.00  0.00     0.156 C 
HETATM   37  O3  UNL     1       5.669  12.994  14.773  1.00  0.00    -0.271 OA
HETATM   38  C23 UNL     1       3.127   9.880  16.038  1.00  0.00     0.292 C 
BRANCH  35  39
HETATM   39  C21 UNL     1       5.990  11.986  12.612  1.00  0.00     0.267 C 
BRANCH  39  40
HETATM   40  O4  UNL     1       5.461  12.843  11.615  1.00  0.00    -0.392 OA
HETATM   41  H23 UNL     1       4.510  12.642  11.558  1.00  0.00     0.210 HD
ENDBRANCH  39  40
ENDBRANCH  35  39
ENDBRANCH  30  31
ENDBRANCH  29  30
ENDBRANCH  28  29
ENDBRANCH   5  28
TORSDOF 9
ENDMDL
MODEL 8
REMARK minimizedAffinity -9.38515568
REMARK CNNscore 0.144287363
REMARK CNNaffinity 7.16486931
REMARK  9 active torsions:
REMARK  status: ('A' for Active; 'I' for Inactive)
REMARK    1  A    between atoms: C2_2  and  S1_3 
REMARK    2  A    between atoms: S1_3  and  C3_6 
REMARK    3  A    between atoms: C10_13  and  C11_14 
REMARK    4  A    between atoms: C14_18  and  C15_19 
REMARK    5  A    between atoms: C15_19  and  C16_20 
REMARK    6  A    between atoms: C16_20  and  C17_21 
REMARK    7  A    between atoms: C17_21  and  N2_22 
REMARK       I    between atoms: N3_25  and  C20_26 
REMARK    8  A    between atoms: C20_26  and  C21_28 
REMARK    9  A    between atoms: C21_28  and  O4_29 
ROOT
HETATM    1  C11 UNL     1      -0.230   5.794  12.072  1.00  0.00     0.040 A 
HETATM    2  N1  UNL     1       0.408   5.462  10.899  1.00  0.00    -0.359 N 
HETATM    3  C12 UNL     1       1.684   5.946  10.914  1.00  0.00     0.016 A 
HETATM    4  C13 UNL     1       1.897   6.584  12.114  1.00  0.00    -0.027 A 
HETATM    5  C14 UNL     1       0.687   6.489  12.862  1.00  0.00    -0.023 A 
HETATM    6  C24 UNL     1       3.189   7.252  12.439  1.00  0.00     0.041 C 
HETATM    7  C25 UNL     1       4.311   6.814  11.477  1.00  0.00     0.005 C 
HETATM    8  C26 UNL     1       3.840   6.752  10.009  1.00  0.00     0.006 C 
HETATM    9  C27 UNL     1       2.662   5.783   9.806  1.00  0.00     0.057 C 
HETATM   10  H10 UNL     1      -0.009   4.963  10.119  1.00  0.00     0.166 HD
ENDROOT
BRANCH   1  11
HETATM   11  C10 UNL     1      -1.584   5.443  12.327  1.00  0.00     0.048 C 
HETATM   12  C9  UNL     1      -2.247   4.313  12.030  1.00  0.00     0.047 A 
HETATM   13  C7  UNL     1      -3.695   4.148  12.275  1.00  0.00     0.008 A 
HETATM   14  C28 UNL     1      -1.788   3.037  11.365  1.00  0.00     0.257 A 
HETATM   15  C6  UNL     1      -4.046   2.899  11.746  1.00  0.00     0.046 A 
HETATM   16  C8  UNL     1      -4.658   4.954  12.861  1.00  0.00     0.038 A 
HETATM   17  C5  UNL     1      -5.339   2.410  11.767  1.00  0.00     0.032 A 
HETATM   18  N4  UNL     1      -2.930   2.263  11.222  1.00  0.00    -0.322 N 
HETATM   19  C4  UNL     1      -6.323   3.219  12.339  1.00  0.00     0.026 A 
HETATM   20  C3  UNL     1      -5.980   4.482  12.869  1.00  0.00     0.060 A 
HETATM   21  H36 UNL     1      -2.914   1.345  10.803  1.00  0.00     0.169 HD
HETATM   22  O5  UNL     1      -0.665   2.721  11.026  1.00  0.00    -0.267 OA
BRANCH  20  23
HETATM   23  S1  UNL     1      -7.251   5.513  13.574  1.00  0.00     0.175 S 
HETATM   24  O1  UNL     1      -8.472   5.211  12.852  1.00  0.00    -0.223 OA
HETATM   25  O2  UNL     1      -6.738   6.869  13.631  1.00  0.00    -0.223 OA
BRANCH  23  26
HETATM   26  C2  UNL     1      -7.435   4.916  15.240  1.00  0.00     0.141 C 
HETATM   27  C1  UNL     1      -6.921   5.880  16.290  1.00  0.00     0.021 C 
ENDBRANCH  23  26
ENDBRANCH  20  23
ENDBRANCH   1  11
BRANCH   5  28
HETATM   28  C15 UNL     1       0.457   7.059  14.229  1.00  0.00     0.043 C 
BRANCH  28  29
HETATM   29  C16 UNL     1      -0.968   6.801  14.734  1.00  0.00     0.035 C 
BRANCH  29  30
HETATM   30  C17 UNL     1      -1.408   7.904  15.705  1.00  0.00     0.273 C 
BRANCH  30  31
HETATM   31  N2  UNL     1      -2.431   8.795  15.143  1.00  0.00     0.091 N 
HETATM   32  C18 UNL     1      -1.910   9.591  14.012  1.00  0.00     0.292 C 
HETATM   33  C19 UNL     1      -1.560  11.055  14.344  1.00  0.00     0.156 C 
HETATM   34  N3  UNL     1      -2.688  11.771  14.949  1.00  0.00    -0.347 N 
HETATM   35  C20 UNL     1      -2.902  13.133  14.855  1.00  0.00     0.243 C 
HETATM   36  C22 UNL     1      -3.694  10.934  15.606  1.00  0.00     0.156 C 
HETATM   37  O3  UNL     1      -3.938  13.665  15.266  1.00  0.00    -0.271 OA
HETATM   38  C23 UNL     1      -3.076   9.642  16.171  1.00  0.00     0.292 C 
BRANCH  35  39
HETATM   39  C21 UNL     1      -1.796  13.991  14.218  1.00  0.00     0.267 C 
BRANCH  39  40
HETATM   40  O4  UNL     1      -2.078  14.445  12.906  1.00  0.00    -0.392 OA
HETATM   41  H23 UNL     1      -2.255  13.650  12.373  1.00  0.00     0.210 HD
ENDBRANCH  39  40
ENDBRANCH  35  39
ENDBRANCH  30  31
ENDBRANCH  29  30
ENDBRANCH  28  29
ENDBRANCH   5  28
TORSDOF 9
ENDMDL
MODEL 9
REMARK minimizedAffinity -8.01874352
REMARK CNNscore 0.143128529
REMARK CNNaffinity 6.54947805
REMARK  9 active torsions:
REMARK  status: ('A' for Active; 'I' for Inactive)
REMARK    1  A    between atoms: C2_2  and  S1_3 
REMARK    2  A    between atoms: S1_3  and  C3_6 
REMARK    3  A    between atoms: C10_13  and  C11_14 
REMARK    4  A    between atoms: C14_18  and  C15_19 
REMARK    5  A    between atoms: C15_19  and  C16_20 
REMARK    6  A    between atoms: C16_20  and  C17_21 
REMARK    7  A    between atoms: C17_21  and  N2_22 
REMARK       I    between atoms: N3_25  and  C20_26 
REMARK    8  A    between atoms: C20_26  and  C21_28 
REMARK    9  A    between atoms: C21_28  and  O4_29 
ROOT
HETATM    1  C11 UNL     1      -7.907   6.259  14.649  1.00  0.00     0.040 A 
HETATM    2  N1  UNL     1      -8.289   5.111  13.994  1.00  0.00    -0.359 N 
HETATM    3  C12 UNL     1      -7.209   4.545  13.383  1.00  0.00     0.016 A 
HETATM    4  C13 UNL     1      -6.100   5.313  13.655  1.00  0.00    -0.027 A 
HETATM    5  C14 UNL     1      -6.531   6.404  14.464  1.00  0.00    -0.023 A 
HETATM    6  C24 UNL     1      -4.753   4.982  13.108  1.00  0.00     0.041 C 
HETATM    7  C25 UNL     1      -4.700   3.541  12.566  1.00  0.00     0.005 C 
HETATM    8  C26 UNL     1      -5.958   3.168  11.753  1.00  0.00     0.006 C 
HETATM    9  C27 UNL     1      -7.252   3.298  12.575  1.00  0.00     0.057 C 
HETATM   10  H10 UNL     1      -9.237   4.749  13.938  1.00  0.00     0.166 HD
ENDROOT
BRANCH   1  11
HETATM   11  C10 UNL     1      -8.832   7.076  15.356  1.00  0.00     0.048 C 
HETATM   12  C9  UNL     1      -9.980   7.632  14.934  1.00  0.00     0.047 A 
HETATM   13  C7  UNL     1     -10.779   8.549  15.773  1.00  0.00     0.008 A 
HETATM   14  C28 UNL     1     -10.691   7.556  13.604  1.00  0.00     0.257 A 
HETATM   15  C6  UNL     1     -11.833   9.003  14.970  1.00  0.00     0.046 A 
HETATM   16  C8  UNL     1     -10.652   8.999  17.078  1.00  0.00     0.038 A 
HETATM   17  C5  UNL     1     -12.780   9.908  15.412  1.00  0.00     0.032 A 
HETATM   18  N4  UNL     1     -11.772   8.419  13.713  1.00  0.00    -0.322 N 
HETATM   19  C4  UNL     1     -12.654  10.382  16.719  1.00  0.00     0.026 A 
HETATM   20  C3  UNL     1     -11.591   9.936  17.535  1.00  0.00     0.060 A 
HETATM   21  H36 UNL     1     -12.427   8.564  12.960  1.00  0.00     0.169 HD
HETATM   22  O5  UNL     1     -10.407   6.887  12.630  1.00  0.00    -0.267 OA
BRANCH  20  23
HETATM   23  S1  UNL     1     -11.430  10.569  19.192  1.00  0.00     0.175 S 
HETATM   24  O1  UNL     1     -10.550  11.719  19.109  1.00  0.00    -0.223 OA
HETATM   25  O2  UNL     1     -11.112   9.453  20.062  1.00  0.00    -0.223 OA
BRANCH  23  26
HETATM   26  C2  UNL     1     -13.060  11.152  19.607  1.00  0.00     0.141 C 
HETATM   27  C1  UNL     1     -13.756  10.310  20.657  1.00  0.00     0.021 C 
ENDBRANCH  23  26
ENDBRANCH  20  23
ENDBRANCH   1  11
BRANCH   5  28
HETATM   28  C15 UNL     1      -5.657   7.504  14.987  1.00  0.00     0.043 C 
BRANCH  28  29
HETATM   29  C16 UNL     1      -5.176   8.443  13.874  1.00  0.00     0.035 C 
BRANCH  29  30
HETATM   30  C17 UNL     1      -4.067   9.369  14.388  1.00  0.00     0.273 C 
BRANCH  30  31
HETATM   31  N2  UNL     1      -2.733   8.755  14.343  1.00  0.00     0.091 N 
HETATM   32  C18 UNL     1      -2.243   8.399  15.691  1.00  0.00     0.292 C 
HETATM   33  C19 UNL     1      -1.206   9.368  16.292  1.00  0.00     0.156 C 
HETATM   34  N3  UNL     1      -0.056   9.568  15.406  1.00  0.00    -0.347 N 
HETATM   35  C20 UNL     1       1.221   9.890  15.827  1.00  0.00     0.243 C 
HETATM   36  C22 UNL     1      -0.292   9.299  13.986  1.00  0.00     0.156 C 
HETATM   37  O3  UNL     1       2.183   9.912  15.054  1.00  0.00    -0.271 OA
HETATM   38  C23 UNL     1      -1.754   9.572  13.592  1.00  0.00     0.292 C 
BRANCH  35  39
HETATM   39  C21 UNL     1       1.421  10.231  17.314  1.00  0.00     0.267 C 
BRANCH  39  40
HETATM   40  O4  UNL     1       2.431   9.480  17.965  1.00  0.00    -0.392 OA
HETATM   41  H23 UNL     1       2.192   8.543  17.850  1.00  0.00     0.210 HD
ENDBRANCH  39  40
ENDBRANCH  35  39
ENDBRANCH  30  31
ENDBRANCH  29  30
ENDBRANCH  28  29
ENDBRANCH   5  28
TORSDOF 9
ENDMDL
