MODEL 1
REMARK minimizedAffinity -9.2267828
REMARK CNNscore 0.469491005
REMARK CNNaffinity 7.20398855
REMARK  3 active torsions:
REMARK  status: ('A' for Active; 'I' for Inactive)
REMARK    1  A    between atoms: C3_4  and  C4_5 
REMARK    2  A    between atoms: C13_17  and  N2_18 
REMARK    3  A    between atoms: N2_18  and  C14_19 
ROOT
HETATM    1  F1  UNL     1      -3.207  52.729 -22.926  1.00  0.00    -0.204 F 
HETATM    2  C1  UNL     1      -2.530  51.692 -22.406  1.00  0.00     0.143 A 
HETATM    3  C2  UNL     1      -1.856  51.866 -21.199  1.00  0.00     0.059 A 
HETATM    4  C3  UNL     1      -1.146  50.805 -20.618  1.00  0.00     0.001 A 
HETATM    5  C11 UNL     1      -1.154  49.572 -21.291  1.00  0.00     0.017 A 
HETATM    6  C12 UNL     1      -1.837  49.408 -22.506  1.00  0.00     0.034 A 
HETATM    7  C13 UNL     1      -2.515  50.474 -23.099  1.00  0.00     0.072 A 
ENDROOT
BRANCH   7   8
HETATM    8  N2  UNL     1      -3.271  50.348 -24.288  1.00  0.00    -0.339 N 
HETATM    9  H8  UNL     1      -4.205  50.729 -24.147  1.00  0.00     0.167 HD
BRANCH   8  10
HETATM   10  C14 UNL     1      -2.855  50.584 -25.624  1.00  0.00     0.119 A 
HETATM   11  N3  UNL     1      -3.756  50.492 -26.618  1.00  0.00    -0.338 N 
HETATM   12  C15 UNL     1      -3.308  50.695 -27.860  1.00  0.00     0.182 A 
ATOM     13  H3  UNL     1      -4.736  50.278 -26.433  1.00  0.00     0.168 HD
HETATM   14  N4  UNL     1      -2.051  50.986 -28.209  1.00  0.00    -0.351 N 
HETATM   15  C16 UNL     1      -1.161  51.094 -27.217  1.00  0.00     0.048 A 
ATOM     16  H4  UNL     1      -1.783  51.119 -29.184  1.00  0.00     0.166 HD
HETATM   17  C17 UNL     1       0.151  51.407 -27.543  1.00  0.00     0.054 A 
HETATM   18  C21 UNL     1      -1.504  50.907 -25.869  1.00  0.00     0.035 A 
HETATM   19  C18 UNL     1       1.129  51.545 -26.560  1.00  0.00     0.036 A 
HETATM   20 CL1  UNL     1       2.743  51.936 -27.007  1.00  0.00    -0.084 Cl
HETATM   21  C19 UNL     1       0.807  51.375 -25.221  1.00  0.00     0.025 A 
HETATM   22  C20 UNL     1      -0.505  51.059 -24.873  1.00  0.00     0.019 A 
ENDBRANCH   8  10
ENDBRANCH   7   8
BRANCH   4  23
HETATM   23  C4  UNL     1      -0.446  51.039 -19.336  1.00  0.00     0.085 A 
HETATM   24  N1  UNL     1      -0.374  50.137 -18.375  1.00  0.00    -0.349 N 
HETATM   25  C5  UNL     1       0.335  50.630 -17.294  1.00  0.00     0.050 A 
ATOM     26  H1  UNL     1      -0.785  49.205 -18.423  1.00  0.00     0.166 HD
HETATM   27  C6  UNL     1       0.605  49.937 -16.097  1.00  0.00     0.031 A 
HETATM   28  C10 UNL     1       0.807  51.934 -17.435  1.00  0.00     0.033 A 
HETATM   29  C7  UNL     1       1.338  50.561 -15.081  1.00  0.00     0.002 A 
HETATM   30  C8  UNL     1       1.799  51.863 -15.245  1.00  0.00     0.002 A 
HETATM   31  C9  UNL     1       1.542  52.572 -16.422  1.00  0.00     0.021 A 
HETATM   32  S1  UNL     1       0.334  52.531 -18.975  1.00  0.00    -0.070 SA
ENDBRANCH   4  23
TORSDOF 3
ENDMDL
MODEL 2
REMARK minimizedAffinity -8.91675282
REMARK CNNscore 0.395868152
REMARK CNNaffinity 7.05286026
REMARK  3 active torsions:
REMARK  status: ('A' for Active; 'I' for Inactive)
REMARK    1  A    between atoms: C3_4  and  C4_5 
REMARK    2  A    between atoms: C13_17  and  N2_18 
REMARK    3  A    between atoms: N2_18  and  C14_19 
ROOT
HETATM    1  F1  UNL     1       1.875  54.494 -21.869  1.00  0.00    -0.204 F 
HETATM    2  C1  UNL     1       1.154  53.530 -21.275  1.00  0.00     0.143 A 
HETATM    3  C2  UNL     1       1.385  53.247 -19.931  1.00  0.00     0.059 A 
HETATM    4  C3  UNL     1       0.647  52.253 -19.272  1.00  0.00     0.001 A 
HETATM    5  C11 UNL     1      -0.333  51.572 -20.013  1.00  0.00     0.017 A 
HETATM    6  C12 UNL     1      -0.558  51.865 -21.368  1.00  0.00     0.034 A 
HETATM    7  C13 UNL     1       0.201  52.832 -22.030  1.00  0.00     0.072 A 
ENDROOT
BRANCH   7   8
HETATM    8  N2  UNL     1      -0.026  53.210 -23.374  1.00  0.00    -0.339 N 
HETATM    9  H8  UNL     1       0.291  54.166 -23.522  1.00  0.00     0.167 HD
BRANCH   8  10
HETATM   10  C14 UNL     1       0.189  52.447 -24.551  1.00  0.00     0.119 A 
HETATM   11  N3  UNL     1       1.326  52.623 -25.249  1.00  0.00    -0.338 N 
HETATM   12  C15 UNL     1       1.466  51.902 -26.365  1.00  0.00     0.182 A 
ATOM     13  H3  UNL     1       2.046  53.276 -24.941  1.00  0.00     0.168 HD
HETATM   14  N4  UNL     1       0.588  51.019 -26.851  1.00  0.00    -0.351 N 
HETATM   15  C16 UNL     1      -0.532  50.834 -26.146  1.00  0.00     0.048 A 
ATOM     16  H4  UNL     1       0.764  50.511 -27.718  1.00  0.00     0.166 HD
HETATM   17  C17 UNL     1      -1.460  49.916 -26.617  1.00  0.00     0.054 A 
HETATM   18  C21 UNL     1      -0.800  51.527 -24.956  1.00  0.00     0.035 A 
HETATM   19  C18 UNL     1      -2.645  49.665 -25.927  1.00  0.00     0.036 A 
HETATM   20 CL1  UNL     1      -3.768  48.517 -26.544  1.00  0.00    -0.084 Cl
HETATM   21  C19 UNL     1      -2.923  50.332 -24.742  1.00  0.00     0.025 A 
HETATM   22  C20 UNL     1      -2.004  51.259 -24.255  1.00  0.00     0.019 A 
ENDBRANCH   8  10
ENDBRANCH   7   8
BRANCH   4  23
HETATM   23  C4  UNL     1       0.928  51.990 -17.844  1.00  0.00     0.085 A 
HETATM   24  N1  UNL     1       2.054  52.339 -17.251  1.00  0.00    -0.349 N 
HETATM   25  C5  UNL     1       2.043  51.963 -15.919  1.00  0.00     0.050 A 
ATOM     26  H1  UNL     1       2.827  52.820 -17.711  1.00  0.00     0.166 HD
HETATM   27  C6  UNL     1       3.080  52.180 -14.990  1.00  0.00     0.031 A 
HETATM   28  C10 UNL     1       0.887  51.311 -15.494  1.00  0.00     0.033 A 
HETATM   29  C7  UNL     1       2.933  51.745 -13.669  1.00  0.00     0.002 A 
HETATM   30  C8  UNL     1       1.771  51.095 -13.267  1.00  0.00     0.002 A 
HETATM   31  C9  UNL     1       0.728  50.867 -14.170  1.00  0.00     0.021 A 
HETATM   32  S1  UNL     1      -0.196  51.181 -16.821  1.00  0.00    -0.070 SA
ENDBRANCH   4  23
TORSDOF 3
ENDMDL
MODEL 3
REMARK minimizedAffinity -9.32614231
REMARK CNNscore 0.356491774
REMARK CNNaffinity 6.54495955
REMARK  3 active torsions:
REMARK  status: ('A' for Active; 'I' for Inactive)
REMARK    1  A    between atoms: C3_4  and  C4_5 
REMARK    2  A    between atoms: C13_17  and  N2_18 
REMARK    3  A    between atoms: N2_18  and  C14_19 
ROOT
HETATM    1  F1  UNL     1      -0.396  48.068 -20.974  1.00  0.00    -0.204 F 
HETATM    2  C1  UNL     1      -1.542  48.708 -21.259  1.00  0.00     0.143 A 
HETATM    3  C2  UNL     1      -2.181  48.436 -22.466  1.00  0.00     0.059 A 
HETATM    4  C3  UNL     1      -3.385  49.077 -22.798  1.00  0.00     0.001 A 
HETATM    5  C11 UNL     1      -3.917  49.983 -21.866  1.00  0.00     0.017 A 
HETATM    6  C12 UNL     1      -3.263  50.250 -20.652  1.00  0.00     0.034 A 
HETATM    7  C13 UNL     1      -2.049  49.636 -20.340  1.00  0.00     0.072 A 
ENDROOT
BRANCH   7   8
HETATM    8  N2  UNL     1      -1.381  49.820 -19.107  1.00  0.00    -0.339 N 
HETATM    9  H8  UNL     1      -1.013  48.929 -18.776  1.00  0.00     0.167 HD
BRANCH   8  10
HETATM   10  C14 UNL     1      -0.503  50.869 -18.729  1.00  0.00     0.119 A 
HETATM   11  N3  UNL     1      -0.138  50.987 -17.440  1.00  0.00    -0.338 N 
HETATM   12  C15 UNL     1       0.666  52.009 -17.131  1.00  0.00     0.182 A 
ATOM     13  H3  UNL     1      -0.460  50.328 -16.730  1.00  0.00     0.168 HD
HETATM   14  N4  UNL     1       1.146  52.921 -17.982  1.00  0.00    -0.351 N 
HETATM   15  C16 UNL     1       0.795  52.791 -19.265  1.00  0.00     0.048 A 
ATOM     16  H4  UNL     1       1.751  53.680 -17.667  1.00  0.00     0.166 HD
HETATM   17  C17 UNL     1       1.286  53.714 -20.177  1.00  0.00     0.054 A 
HETATM   18  C21 UNL     1      -0.042  51.760 -19.720  1.00  0.00     0.035 A 
HETATM   19  C18 UNL     1       0.970  53.633 -21.532  1.00  0.00     0.036 A 
HETATM   20 CL1  UNL     1       1.601  54.798 -22.630  1.00  0.00    -0.084 Cl
HETATM   21  C19 UNL     1       0.152  52.615 -22.003  1.00  0.00     0.025 A 
HETATM   22  C20 UNL     1      -0.352  51.679 -21.102  1.00  0.00     0.019 A 
ENDBRANCH   8  10
ENDBRANCH   7   8
BRANCH   4  23
HETATM   23  C4  UNL     1      -4.027  48.755 -24.090  1.00  0.00     0.085 A 
HETATM   24  N1  UNL     1      -5.270  48.325 -24.195  1.00  0.00    -0.349 N 
HETATM   25  C5  UNL     1      -5.601  48.101 -25.520  1.00  0.00     0.050 A 
ATOM     26  H1  UNL     1      -5.901  48.179 -23.408  1.00  0.00     0.166 HD
HETATM   27  C6  UNL     1      -6.846  47.642 -25.996  1.00  0.00     0.031 A 
HETATM   28  C10 UNL     1      -4.586  48.362 -26.439  1.00  0.00     0.033 A 
HETATM   29  C7  UNL     1      -7.042  47.459 -27.368  1.00  0.00     0.002 A 
HETATM   30  C8  UNL     1      -6.014  47.725 -28.268  1.00  0.00     0.002 A 
HETATM   31  C9  UNL     1      -4.770  48.181 -27.821  1.00  0.00     0.021 A 
HETATM   32  S1  UNL     1      -3.194  48.901 -25.590  1.00  0.00    -0.070 SA
ENDBRANCH   4  23
TORSDOF 3
ENDMDL
MODEL 4
REMARK minimizedAffinity -9.61301899
REMARK CNNscore 0.307472408
REMARK CNNaffinity 6.81331444
REMARK  3 active torsions:
REMARK  status: ('A' for Active; 'I' for Inactive)
REMARK    1  A    between atoms: C3_4  and  C4_5 
REMARK    2  A    between atoms: C13_17  and  N2_18 
REMARK    3  A    between atoms: N2_18  and  C14_19 
ROOT
HETATM    1  F1  UNL     1      -0.606  50.786 -19.217  1.00  0.00    -0.204 F 
HETATM    2  C1  UNL     1      -0.030  51.742 -19.964  1.00  0.00     0.143 A 
HETATM    3  C2  UNL     1      -0.078  51.631 -21.351  1.00  0.00     0.059 A 
HETATM    4  C3  UNL     1       0.503  52.614 -22.167  1.00  0.00     0.001 A 
HETATM    5  C11 UNL     1       1.117  53.706 -21.532  1.00  0.00     0.017 A 
HETATM    6  C12 UNL     1       1.160  53.807 -20.133  1.00  0.00     0.034 A 
HETATM    7  C13 UNL     1       0.609  52.812 -19.323  1.00  0.00     0.072 A 
ENDROOT
BRANCH   7   8
HETATM    8  N2  UNL     1       0.569  52.894 -17.912  1.00  0.00    -0.339 N 
HETATM    9  H8  UNL     1      -0.333  52.566 -17.572  1.00  0.00     0.167 HD
BRANCH   8  10
HETATM   10  C14 UNL     1       1.584  52.552 -16.981  1.00  0.00     0.119 A 
HETATM   11  N3  UNL     1       2.746  53.230 -16.998  1.00  0.00    -0.338 N 
HETATM   12  C15 UNL     1       3.679  52.851 -16.121  1.00  0.00     0.182 A 
ATOM     13  H3  UNL     1       2.907  53.998 -17.650  1.00  0.00     0.168 HD
HETATM   14  N4  UNL     1       3.567  51.865 -15.225  1.00  0.00    -0.351 N 
HETATM   15  C16 UNL     1       2.406  51.205 -15.198  1.00  0.00     0.048 A 
ATOM     16  H4  UNL     1       4.331  51.628 -14.591  1.00  0.00     0.166 HD
HETATM   17  C17 UNL     1       2.251  50.184 -14.272  1.00  0.00     0.054 A 
HETATM   18  C21 UNL     1       1.344  51.507 -16.065  1.00  0.00     0.035 A 
HETATM   19  C18 UNL     1       1.064  49.460 -14.181  1.00  0.00     0.036 A 
HETATM   20 CL1  UNL     1       0.913  48.203 -13.017  1.00  0.00    -0.084 Cl
HETATM   21  C19 UNL     1      -0.002  49.752 -15.022  1.00  0.00     0.025 A 
HETATM   22  C20 UNL     1       0.134  50.773 -15.961  1.00  0.00     0.019 A 
ENDBRANCH   8  10
ENDBRANCH   7   8
BRANCH   4  23
HETATM   23  C4  UNL     1       0.426  52.453 -23.635  1.00  0.00     0.085 A 
HETATM   24  N1  UNL     1       1.470  52.164 -24.389  1.00  0.00    -0.349 N 
HETATM   25  C5  UNL     1       1.105  52.079 -25.721  1.00  0.00     0.050 A 
ATOM     26  H1  UNL     1       2.417  52.022 -24.037  1.00  0.00     0.166 HD
HETATM   27  C6  UNL     1       1.966  51.786 -26.797  1.00  0.00     0.031 A 
HETATM   28  C10 UNL     1      -0.244  52.313 -25.984  1.00  0.00     0.033 A 
HETATM   29  C7  UNL     1       1.458  51.733 -28.100  1.00  0.00     0.002 A 
HETATM   30  C8  UNL     1       0.108  51.970 -28.339  1.00  0.00     0.002 A 
HETATM   31  C9  UNL     1      -0.766  52.264 -27.288  1.00  0.00     0.021 A 
HETATM   32  S1  UNL     1      -1.048  52.645 -24.504  1.00  0.00    -0.070 SA
ENDBRANCH   4  23
TORSDOF 3
ENDMDL
MODEL 5
REMARK minimizedAffinity -8.48421383
REMARK CNNscore 0.291156888
REMARK CNNaffinity 7.11124086
REMARK  3 active torsions:
REMARK  status: ('A' for Active; 'I' for Inactive)
REMARK    1  A    between atoms: C3_4  and  C4_5 
REMARK    2  A    between atoms: C13_17  and  N2_18 
REMARK    3  A    between atoms: N2_18  and  C14_19 
ROOT
HETATM    1  F1  UNL     1      -3.272  50.676 -20.734  1.00  0.00    -0.204 F 
HETATM    2  C1  UNL     1      -2.085  51.244 -20.467  1.00  0.00     0.143 A 
HETATM    3  C2  UNL     1      -1.477  50.985 -19.241  1.00  0.00     0.059 A 
HETATM    4  C3  UNL     1      -0.233  51.552 -18.926  1.00  0.00     0.001 A 
HETATM    5  C11 UNL     1       0.372  52.370 -19.894  1.00  0.00     0.017 A 
HETATM    6  C12 UNL     1      -0.250  52.624 -21.127  1.00  0.00     0.034 A 
HETATM    7  C13 UNL     1      -1.503  52.086 -21.424  1.00  0.00     0.072 A 
ENDROOT
BRANCH   7   8
HETATM    8  N2  UNL     1      -2.146  52.257 -22.672  1.00  0.00    -0.339 N 
HETATM    9  H8  UNL     1      -2.089  53.233 -22.959  1.00  0.00     0.167 HD
BRANCH   8  10
HETATM   10  C14 UNL     1      -2.086  51.419 -23.816  1.00  0.00     0.119 A 
HETATM   11  N3  UNL     1      -3.067  50.522 -24.024  1.00  0.00    -0.338 N 
HETATM   12  C15 UNL     1      -2.949  49.737 -25.098  1.00  0.00     0.182 A 
ATOM     13  H3  UNL     1      -3.864  50.445 -23.391  1.00  0.00     0.168 HD
HETATM   14  N4  UNL     1      -1.953  49.761 -25.989  1.00  0.00    -0.351 N 
HETATM   15  C16 UNL     1      -0.989  50.664 -25.789  1.00  0.00     0.048 A 
ATOM     16  H4  UNL     1      -1.929  49.121 -26.783  1.00  0.00     0.166 HD
HETATM   17  C17 UNL     1       0.055  50.724 -26.702  1.00  0.00     0.054 A 
HETATM   18  C21 UNL     1      -0.995  51.550 -24.700  1.00  0.00     0.035 A 
HETATM   19  C18 UNL     1       1.089  51.648 -26.561  1.00  0.00     0.036 A 
HETATM   20 CL1  UNL     1       2.363  51.690 -27.716  1.00  0.00    -0.084 Cl
HETATM   21  C19 UNL     1       1.094  52.540 -25.497  1.00  0.00     0.025 A 
HETATM   22  C20 UNL     1       0.056  52.494 -24.569  1.00  0.00     0.019 A 
ENDBRANCH   8  10
ENDBRANCH   7   8
BRANCH   4  23
HETATM   23  C4  UNL     1       0.373  51.248 -17.612  1.00  0.00     0.085 A 
HETATM   24  N1  UNL     1       1.371  51.940 -17.096  1.00  0.00    -0.349 N 
HETATM   25  C5  UNL     1       1.735  51.429 -15.862  1.00  0.00     0.050 A 
ATOM     26  H1  UNL     1       1.812  52.743 -17.544  1.00  0.00     0.166 HD
HETATM   27  C6  UNL     1       2.761  51.925 -15.032  1.00  0.00     0.031 A 
HETATM   28  C10 UNL     1       1.003  50.323 -15.436  1.00  0.00     0.033 A 
HETATM   29  C7  UNL     1       3.022  51.307 -13.805  1.00  0.00     0.002 A 
HETATM   30  C8  UNL     1       2.279  50.204 -13.400  1.00  0.00     0.002 A 
HETATM   31  C9  UNL     1       1.257  49.692 -14.206  1.00  0.00     0.021 A 
HETATM   32  S1  UNL     1      -0.167  49.938 -16.633  1.00  0.00    -0.070 SA
ENDBRANCH   4  23
TORSDOF 3
ENDMDL
MODEL 6
REMARK minimizedAffinity -8.84698009
REMARK CNNscore 0.265976071
REMARK CNNaffinity 6.59046936
REMARK  3 active torsions:
REMARK  status: ('A' for Active; 'I' for Inactive)
REMARK    1  A    between atoms: C3_4  and  C4_5 
REMARK    2  A    between atoms: C13_17  and  N2_18 
REMARK    3  A    between atoms: N2_18  and  C14_19 
ROOT
HETATM    1  F1  UNL     1       2.064  52.959 -20.637  1.00  0.00    -0.204 F 
HETATM    2  C1  UNL     1       0.791  52.533 -20.615  1.00  0.00     0.143 A 
HETATM    3  C2  UNL     1       0.263  51.933 -21.757  1.00  0.00     0.059 A 
HETATM    4  C3  UNL     1      -1.060  51.465 -21.772  1.00  0.00     0.001 A 
HETATM    5  C11 UNL     1      -1.815  51.614 -20.598  1.00  0.00     0.017 A 
HETATM    6  C12 UNL     1      -1.273  52.220 -19.453  1.00  0.00     0.034 A 
HETATM    7  C13 UNL     1       0.032  52.714 -19.451  1.00  0.00     0.072 A 
ENDROOT
BRANCH   7   8
HETATM    8  N2  UNL     1       0.648  53.275 -18.308  1.00  0.00    -0.339 N 
HETATM    9  H8  UNL     1       0.029  53.966 -17.886  1.00  0.00     0.167 HD
BRANCH   8  10
HETATM   10  C14 UNL     1       1.390  52.615 -17.294  1.00  0.00     0.119 A 
HETATM   11  N3  UNL     1       2.602  53.090 -16.954  1.00  0.00    -0.338 N 
HETATM   12  C15 UNL     1       3.272  52.415 -16.016  1.00  0.00     0.182 A 
ATOM     13  H3  UNL     1       2.992  53.925 -17.393  1.00  0.00     0.168 HD
HETATM   14  N4  UNL     1       2.852  51.318 -15.379  1.00  0.00    -0.351 N 
HETATM   15  C16 UNL     1       1.640  50.860 -15.706  1.00  0.00     0.048 A 
ATOM     16  H4  UNL     1       3.428  50.853 -14.677  1.00  0.00     0.166 HD
HETATM   17  C17 UNL     1       1.167  49.729 -15.055  1.00  0.00     0.054 A 
HETATM   18  C21 UNL     1       0.834  51.477 -16.674  1.00  0.00     0.035 A 
HETATM   19  C18 UNL     1      -0.091  49.202 -15.339  1.00  0.00     0.036 A 
HETATM   20 CL1  UNL     1      -0.640  47.800 -14.507  1.00  0.00    -0.084 Cl
HETATM   21  C19 UNL     1      -0.908  49.806 -16.285  1.00  0.00     0.025 A 
HETATM   22  C20 UNL     1      -0.450  50.941 -16.952  1.00  0.00     0.019 A 
ENDBRANCH   8  10
ENDBRANCH   7   8
BRANCH   4  23
HETATM   23  C4  UNL     1      -1.575  50.836 -23.007  1.00  0.00     0.085 A 
HETATM   24  N1  UNL     1      -2.581  49.983 -23.021  1.00  0.00    -0.349 N 
HETATM   25  C5  UNL     1      -2.842  49.554 -24.311  1.00  0.00     0.050 A 
ATOM     26  H1  UNL     1      -3.097  49.682 -22.195  1.00  0.00     0.166 HD
HETATM   27  C6  UNL     1      -3.849  48.644 -24.691  1.00  0.00     0.031 A 
HETATM   28  C10 UNL     1      -2.013  50.088 -25.295  1.00  0.00     0.033 A 
HETATM   29  C7  UNL     1      -4.000  48.297 -26.038  1.00  0.00     0.002 A 
HETATM   30  C8  UNL     1      -3.161  48.843 -27.004  1.00  0.00     0.002 A 
HETATM   31  C9  UNL     1      -2.154  49.747 -26.651  1.00  0.00     0.021 A 
HETATM   32  S1  UNL     1      -0.888  51.154 -24.554  1.00  0.00    -0.070 SA
ENDBRANCH   4  23
TORSDOF 3
ENDMDL
MODEL 7
REMARK minimizedAffinity -8.6616869
REMARK CNNscore 0.229573354
REMARK CNNaffinity 6.5363636
REMARK  3 active torsions:
REMARK  status: ('A' for Active; 'I' for Inactive)
REMARK    1  A    between atoms: C3_4  and  C4_5 
REMARK    2  A    between atoms: C13_17  and  N2_18 
REMARK    3  A    between atoms: N2_18  and  C14_19 
ROOT
HETATM    1  F1  UNL     1       0.040  53.997 -18.844  1.00  0.00    -0.204 F 
HETATM    2  C1  UNL     1      -0.102  52.786 -19.407  1.00  0.00     0.143 A 
HETATM    3  C2  UNL     1      -0.278  52.704 -20.787  1.00  0.00     0.059 A 
HETATM    4  C3  UNL     1      -0.420  51.457 -21.416  1.00  0.00     0.001 A 
HETATM    5  C11 UNL     1      -0.367  50.311 -20.606  1.00  0.00     0.017 A 
HETATM    6  C12 UNL     1      -0.190  50.406 -19.217  1.00  0.00     0.034 A 
HETATM    7  C13 UNL     1      -0.081  51.649 -18.590  1.00  0.00     0.072 A 
ENDROOT
BRANCH   7   8
HETATM    8  N2  UNL     1       0.161  51.800 -17.204  1.00  0.00    -0.339 N 
HETATM    9  H8  UNL     1      -0.405  51.136 -16.680  1.00  0.00     0.167 HD
BRANCH   8  10
HETATM   10  C14 UNL     1       1.402  51.997 -16.544  1.00  0.00     0.119 A 
HETATM   11  N3  UNL     1       2.236  52.955 -16.986  1.00  0.00    -0.338 N 
HETATM   12  C15 UNL     1       3.403  53.080 -16.348  1.00  0.00     0.182 A 
ATOM     13  H3  UNL     1       1.989  53.558 -17.772  1.00  0.00     0.168 HD
HETATM   14  N4  UNL     1       3.818  52.349 -15.309  1.00  0.00    -0.351 N 
HETATM   15  C16 UNL     1       2.980  51.410 -14.862  1.00  0.00     0.048 A 
ATOM     16  H4  UNL     1       4.731  52.500 -14.880  1.00  0.00     0.166 HD
HETATM   17  C17 UNL     1       3.375  50.640 -13.777  1.00  0.00     0.054 A 
HETATM   18  C21 UNL     1       1.724  51.178 -15.442  1.00  0.00     0.035 A 
HETATM   19  C18 UNL     1       2.548  49.649 -13.251  1.00  0.00     0.036 A 
HETATM   20 CL1  UNL     1       3.075  48.719 -11.904  1.00  0.00    -0.084 Cl
HETATM   21  C19 UNL     1       1.297  49.413 -13.804  1.00  0.00     0.025 A 
HETATM   22  C20 UNL     1       0.883  50.174 -14.895  1.00  0.00     0.019 A 
ENDBRANCH   8  10
ENDBRANCH   7   8
BRANCH   4  23
HETATM   23  C4  UNL     1      -0.604  51.420 -22.883  1.00  0.00     0.085 A 
HETATM   24  N1  UNL     1      -1.470  50.628 -23.485  1.00  0.00    -0.349 N 
HETATM   25  C5  UNL     1      -1.422  50.803 -24.857  1.00  0.00     0.050 A 
ATOM     26  H1  UNL     1      -2.090  49.976 -23.006  1.00  0.00     0.166 HD
HETATM   27  C6  UNL     1      -2.210  50.121 -25.806  1.00  0.00     0.031 A 
HETATM   28  C10 UNL     1      -0.497  51.744 -25.306  1.00  0.00     0.033 A 
HETATM   29  C7  UNL     1      -2.055  50.399 -27.168  1.00  0.00     0.002 A 
HETATM   30  C8  UNL     1      -1.125  51.342 -27.593  1.00  0.00     0.002 A 
HETATM   31  C9  UNL     1      -0.330  52.031 -26.671  1.00  0.00     0.021 A 
HETATM   32  S1  UNL     1       0.318  52.411 -23.948  1.00  0.00    -0.070 SA
ENDBRANCH   4  23
TORSDOF 3
ENDMDL
MODEL 8
REMARK minimizedAffinity -8.98840141
REMARK CNNscore 0.226879656
REMARK CNNaffinity 6.38049746
REMARK  3 active torsions:
REMARK  status: ('A' for Active; 'I' for Inactive)
REMARK    1  A    between atoms: C3_4  and  C4_5 
REMARK    2  A    between atoms: C13_17  and  N2_18 
REMARK    3  A    between atoms: N2_18  and  C14_19 
ROOT
HETATM    1  F1  UNL     1      -0.733  47.855 -20.942  1.00  0.00    -0.204 F 
HETATM    2  C1  UNL     1      -1.707  48.677 -21.366  1.00  0.00     0.143 A 
HETATM    3  C2  UNL     1      -2.409  48.345 -22.522  1.00  0.00     0.059 A 
HETATM    4  C3  UNL     1      -3.440  49.172 -22.994  1.00  0.00     0.001 A 
HETATM    5  C11 UNL     1      -3.738  50.327 -22.252  1.00  0.00     0.017 A 
HETATM    6  C12 UNL     1      -3.023  50.651 -21.088  1.00  0.00     0.034 A 
HETATM    7  C13 UNL     1      -1.976  49.844 -20.639  1.00  0.00     0.072 A 
ENDROOT
BRANCH   7   8
HETATM    8  N2  UNL     1      -1.266  50.089 -19.441  1.00  0.00    -0.339 N 
HETATM    9  H8  UNL     1      -0.822  49.231 -19.120  1.00  0.00     0.167 HD
BRANCH   8  10
HETATM   10  C14 UNL     1      -0.447  51.202 -19.115  1.00  0.00     0.119 A 
HETATM   11  N3  UNL     1      -0.318  52.204 -20.003  1.00  0.00    -0.338 N 
HETATM   12  C15 UNL     1       0.487  53.214 -19.660  1.00  0.00     0.182 A 
ATOM     13  H3  UNL     1      -0.812  52.195 -20.896  1.00  0.00     0.168 HD
HETATM   14  N4  UNL     1       1.172  53.325 -18.517  1.00  0.00    -0.351 N 
HETATM   15  C16 UNL     1       1.028  52.336 -17.631  1.00  0.00     0.048 A 
ATOM     16  H4  UNL     1       1.775  54.127 -18.331  1.00  0.00     0.166 HD
HETATM   17  C17 UNL     1       1.716  52.426 -16.429  1.00  0.00     0.054 A 
HETATM   18  C21 UNL     1       0.211  51.220 -17.868  1.00  0.00     0.035 A 
HETATM   19  C18 UNL     1       1.605  51.436 -15.454  1.00  0.00     0.036 A 
HETATM   20 CL1  UNL     1       2.473  51.588 -13.977  1.00  0.00    -0.084 Cl
HETATM   21  C19 UNL     1       0.792  50.331 -15.666  1.00  0.00     0.025 A 
HETATM   22  C20 UNL     1       0.095  50.221 -16.867  1.00  0.00     0.019 A 
ENDBRANCH   8  10
ENDBRANCH   7   8
BRANCH   4  23
HETATM   23  C4  UNL     1      -4.158  48.778 -24.226  1.00  0.00     0.085 A 
HETATM   24  N1  UNL     1      -3.615  48.825 -25.427  1.00  0.00    -0.349 N 
HETATM   25  C5  UNL     1      -4.517  48.404 -26.389  1.00  0.00     0.050 A 
ATOM     26  H1  UNL     1      -2.661  49.129 -25.621  1.00  0.00     0.166 HD
HETATM   27  C6  UNL     1      -4.271  48.326 -27.775  1.00  0.00     0.031 A 
HETATM   28  C10 UNL     1      -5.772  48.036 -25.908  1.00  0.00     0.033 A 
HETATM   29  C7  UNL     1      -5.279  47.881 -28.636  1.00  0.00     0.002 A 
HETATM   30  C8  UNL     1      -6.525  47.518 -28.133  1.00  0.00     0.002 A 
HETATM   31  C9  UNL     1      -6.793  47.589 -26.763  1.00  0.00     0.021 A 
HETATM   32  S1  UNL     1      -5.790  48.231 -24.202  1.00  0.00    -0.070 SA
ENDBRANCH   4  23
TORSDOF 3
ENDMDL
MODEL 9
REMARK minimizedAffinity -9.40879154
REMARK CNNscore 0.218828738
REMARK CNNaffinity 6.25398684
REMARK  3 active torsions:
REMARK  status: ('A' for Active; 'I' for Inactive)
REMARK    1  A    between atoms: C3_4  and  C4_5 
REMARK    2  A    between atoms: C13_17  and  N2_18 
REMARK    3  A    between atoms: N2_18  and  C14_19 
ROOT
HETATM    1  F1  UNL     1      -3.754  51.082 -19.454  1.00  0.00    -0.204 F 
HETATM    2  C1  UNL     1      -3.139  50.193 -20.251  1.00  0.00     0.143 A 
HETATM    3  C2  UNL     1      -3.699  49.905 -21.494  1.00  0.00     0.059 A 
HETATM    4  C3  UNL     1      -3.083  48.989 -22.361  1.00  0.00     0.001 A 
HETATM    5  C11 UNL     1      -1.886  48.392 -21.931  1.00  0.00     0.017 A 
HETATM    6  C12 UNL     1      -1.332  48.689 -20.676  1.00  0.00     0.034 A 
HETATM    7  C13 UNL     1      -1.964  49.576 -19.803  1.00  0.00     0.072 A 
ENDROOT
BRANCH   7   8
HETATM    8  N2  UNL     1      -1.418  49.958 -18.555  1.00  0.00    -0.339 N 
HETATM    9  H8  UNL     1      -1.242  49.132 -17.986  1.00  0.00     0.167 HD
BRANCH   8  10
HETATM   10  C14 UNL     1      -0.426  50.939 -18.292  1.00  0.00     0.119 A 
HETATM   11  N3  UNL     1       0.095  51.030 -17.055  1.00  0.00    -0.338 N 
HETATM   12  C15 UNL     1       1.003  51.988 -16.852  1.00  0.00     0.182 A 
ATOM     13  H3  UNL     1      -0.190  50.397 -16.307  1.00  0.00     0.168 HD
HETATM   14  N4  UNL     1       1.446  52.862 -17.761  1.00  0.00    -0.351 N 
HETATM   15  C16 UNL     1       0.940  52.758 -18.992  1.00  0.00     0.048 A 
ATOM     16  H4  UNL     1       2.139  53.574 -17.525  1.00  0.00     0.166 HD
HETATM   17  C17 UNL     1       1.388  53.642 -19.964  1.00  0.00     0.054 A 
HETATM   18  C21 UNL     1      -0.019  51.793 -19.338  1.00  0.00     0.035 A 
HETATM   19  C18 UNL     1       0.910  53.585 -21.272  1.00  0.00     0.036 A 
HETATM   20 CL1  UNL     1       1.493  54.699 -22.446  1.00  0.00    -0.084 Cl
HETATM   21  C19 UNL     1      -0.030  52.630 -21.635  1.00  0.00     0.025 A 
HETATM   22  C20 UNL     1      -0.494  51.735 -20.673  1.00  0.00     0.019 A 
ENDBRANCH   8  10
ENDBRANCH   7   8
BRANCH   4  23
HETATM   23  C4  UNL     1      -3.714  48.717 -23.670  1.00  0.00     0.085 A 
HETATM   24  N1  UNL     1      -3.066  48.794 -24.817  1.00  0.00    -0.349 N 
HETATM   25  C5  UNL     1      -3.906  48.492 -25.875  1.00  0.00     0.050 A 
ATOM     26  H1  UNL     1      -2.082  49.041 -24.911  1.00  0.00     0.166 HD
HETATM   27  C6  UNL     1      -3.547  48.475 -27.237  1.00  0.00     0.031 A 
HETATM   28  C10 UNL     1      -5.220  48.185 -25.523  1.00  0.00     0.033 A 
HETATM   29  C7  UNL     1      -4.503  48.151 -28.205  1.00  0.00     0.002 A 
HETATM   30  C8  UNL     1      -5.808  47.848 -27.832  1.00  0.00     0.002 A 
HETATM   31  C9  UNL     1      -6.190  47.859 -26.486  1.00  0.00     0.021 A 
HETATM   32  S1  UNL     1      -5.374  48.284 -23.816  1.00  0.00    -0.070 SA
ENDBRANCH   4  23
TORSDOF 3
ENDMDL
