MODEL 1
REMARK minimizedAffinity -8.90741348
REMARK CNNscore 0.416637599
REMARK CNNaffinity 7.37633944
REMARK  18 active torsions:
REMARK  status: ('A' for Active; 'I' for Inactive)
REMARK    1  A    between atoms: C2_2  and  O1_3 
REMARK    2  A    between atoms: O1_3  and  P1_4 
REMARK    3  A    between atoms: P1_4  and  O3_6 
REMARK    4  A    between atoms: P1_4  and  C3_7 
REMARK    5  A    between atoms: C5_9  and  C6_10 
REMARK    6  A    between atoms: C6_10  and  C7_11 
REMARK    7  A    between atoms: C7_11  and  N1_12 
REMARK    8  A    between atoms: C7_11  and  C10_16 
REMARK       I    between atoms: N1_12  and  C8_13 
REMARK       I    between atoms: C10_16  and  N2_18 
REMARK    9  A    between atoms: N2_18  and  C11_19 
REMARK   10  A    between atoms: C11_19  and  C13_21 
REMARK   11  A    between atoms: C16_24  and  O6_25 
REMARK   12  A    between atoms: O6_25  and  C17_26 
REMARK   13  A    between atoms: C17_26  and  C18_27 
REMARK   14  A    between atoms: C24_33  and  C25_34 
REMARK       I    between atoms: C25_34  and  N3_35 
REMARK   15  A    between atoms: C29_40  and  O8_41 
REMARK   16  A    between atoms: O8_41  and  C30_42 
REMARK   17  A    between atoms: C30_42  and  C31_43 
REMARK   18  A    between atoms: C31_43  and  O10_45 
ROOT
HETATM    1  C7  UNL     1      -1.447   5.728  12.863  1.00  0.00     0.180 C 
ENDROOT
BRANCH   1   2
HETATM    2  C6  UNL     1      -0.181   5.637  13.733  1.00  0.00     0.073 C 
BRANCH   2   3
HETATM    3  C5  UNL     1       1.042   6.309  13.148  1.00  0.00    -0.054 A 
HETATM    4  C4  UNL     1       1.663   5.788  12.008  1.00  0.00     0.029 A 
HETATM    5  C3  UNL     1       2.767   6.426  11.411  1.00  0.00     0.084 A 
HETATM    6  C29 UNL     1       3.259   7.608  11.983  1.00  0.00     0.087 A 
HETATM    7  C28 UNL     1       2.660   8.117  13.139  1.00  0.00     0.038 A 
HETATM    8  C27 UNL     1       1.559   7.474  13.714  1.00  0.00     0.010 A 
BRANCH   5   9
HETATM    9  P1  UNL     1       3.456   5.707   9.958  1.00  0.00     0.276 P 
HETATM   10  O2  UNL     1       2.868   4.419   9.450  1.00  0.00    -0.650 OA
BRANCH   9  11
HETATM   11  O1  UNL     1       3.530   6.821   8.791  1.00  0.00    -0.316 OA
BRANCH  11  12
HETATM   12  C2  UNL     1       2.300   7.356   8.333  1.00  0.00     0.174 C 
HETATM   13  C1  UNL     1       2.060   6.873   6.919  1.00  0.00     0.034 C 
ENDBRANCH  11  12
ENDBRANCH   9  11
BRANCH   9  14
HETATM   14  O3  UNL     1       5.028   5.480  10.232  1.00  0.00    -0.325 OA
HETATM   15  H6  UNL     1       5.427   4.992   9.491  1.00  0.00     0.220 HD
ENDBRANCH   9  14
ENDBRANCH   5   9
BRANCH   6  16
HETATM   16  O8  UNL     1       4.320   8.178  11.336  1.00  0.00    -0.340 OA
BRANCH  16  17
HETATM   17  C30 UNL     1       5.258   8.933  12.086  1.00  0.00     0.285 C 
BRANCH  17  18
HETATM   18  C31 UNL     1       6.062   9.959  11.302  1.00  0.00     0.164 C 
HETATM   19  O9  UNL     1       5.807  11.151  11.216  1.00  0.00    -0.648 OA
BRANCH  18  20
HETATM   20  O10 UNL     1       7.154   9.451  10.698  1.00  0.00    -0.775 OA
HETATM   21  H42 UNL     1       7.565  10.219  10.250  1.00  0.00     0.167 HD
ENDBRANCH  18  20
ENDBRANCH  17  18
ENDBRANCH  16  17
ENDBRANCH   6  16
ENDBRANCH   2   3
ENDBRANCH   1   2
BRANCH   1  22
HETATM   22  N1  UNL     1      -2.119   4.435  12.728  1.00  0.00    -0.348 N 
HETATM   23  C8  UNL     1      -1.881   3.641  11.630  1.00  0.00     0.214 C 
HETATM   24  C9  UNL     1      -2.824   2.475  11.494  1.00  0.00     0.117 C 
HETATM   25  O4  UNL     1      -0.967   3.836  10.836  1.00  0.00    -0.274 OA
HETATM   26  H11 UNL     1      -3.067   4.422  13.091  1.00  0.00     0.163 HD
ENDBRANCH   1  22
BRANCH   1  27
HETATM   27  C10 UNL     1      -2.459   6.745  13.431  1.00  0.00     0.241 C 
HETATM   28  O5  UNL     1      -2.877   7.696  12.771  1.00  0.00    -0.271 OA
HETATM   29  N2  UNL     1      -2.894   6.465  14.709  1.00  0.00    -0.351 N 
HETATM   30  H15 UNL     1      -2.368   5.806  15.268  1.00  0.00     0.163 HD
BRANCH  29  31
HETATM   31  C11 UNL     1      -3.811   7.343  15.424  1.00  0.00     0.113 C 
HETATM   32  C12 UNL     1      -3.351   8.792  15.264  1.00  0.00     0.037 C 
BRANCH  31  33
HETATM   33  C13 UNL     1      -5.232   7.055  14.965  1.00  0.00    -0.035 A 
HETATM   34  C14 UNL     1      -6.251   7.958  15.317  1.00  0.00     0.012 A 
HETATM   35  C15 UNL     1      -7.582   7.738  14.944  1.00  0.00     0.038 A 
HETATM   36  C16 UNL     1      -7.935   6.601  14.215  1.00  0.00     0.084 A 
HETATM   37  C24 UNL     1      -6.927   5.694  13.861  1.00  0.00     0.065 A 
HETATM   38  C26 UNL     1      -5.590   5.913  14.236  1.00  0.00     0.029 A 
BRANCH  36  39
HETATM   39  O6  UNL     1      -9.199   6.353  13.754  1.00  0.00    -0.350 OA
BRANCH  39  40
HETATM   40  C17 UNL     1     -10.235   7.215  14.229  1.00  0.00     0.180 C 
BRANCH  40  41
HETATM   41  C18 UNL     1     -11.420   7.143  13.251  1.00  0.00     0.010 C 
HETATM   42  C19 UNL     1     -12.690   6.630  13.963  1.00  0.00     0.007 C 
HETATM   43  C20 UNL     1     -13.956   7.066  13.234  1.00  0.00     0.000 C 
HETATM   44  C21 UNL     1     -14.087   8.589  13.195  1.00  0.00     0.000 C 
HETATM   45  C22 UNL     1     -12.742   9.317  13.201  1.00  0.00     0.000 C 
HETATM   46  C23 UNL     1     -11.644   8.491  12.540  1.00  0.00     0.007 C 
ENDBRANCH  40  41
ENDBRANCH  39  40
ENDBRANCH  36  39
BRANCH  37  47
HETATM   47  C25 UNL     1      -7.248   4.456  13.119  1.00  0.00     0.252 C 
HETATM   48  N3  UNL     1      -8.218   3.668  13.680  1.00  0.00    -0.366 N 
HETATM   49  H35 UNL     1      -8.333   2.753  13.263  1.00  0.00     0.159 HD
HETATM   50  H36 UNL     1      -8.470   3.776  14.653  1.00  0.00     0.159 HD
HETATM   51  O7  UNL     1      -6.707   4.163  12.064  1.00  0.00    -0.268 OA
ENDBRANCH  37  47
ENDBRANCH  31  33
ENDBRANCH  29  31
ENDBRANCH   1  27
TORSDOF 18
ENDMDL
MODEL 2
REMARK minimizedAffinity -8.59405994
REMARK CNNscore 0.312370867
REMARK CNNaffinity 7.3743515
REMARK  18 active torsions:
REMARK  status: ('A' for Active; 'I' for Inactive)
REMARK    1  A    between atoms: C2_2  and  O1_3 
REMARK    2  A    between atoms: O1_3  and  P1_4 
REMARK    3  A    between atoms: P1_4  and  O3_6 
REMARK    4  A    between atoms: P1_4  and  C3_7 
REMARK    5  A    between atoms: C5_9  and  C6_10 
REMARK    6  A    between atoms: C6_10  and  C7_11 
REMARK    7  A    between atoms: C7_11  and  N1_12 
REMARK    8  A    between atoms: C7_11  and  C10_16 
REMARK       I    between atoms: N1_12  and  C8_13 
REMARK       I    between atoms: C10_16  and  N2_18 
REMARK    9  A    between atoms: N2_18  and  C11_19 
REMARK   10  A    between atoms: C11_19  and  C13_21 
REMARK   11  A    between atoms: C16_24  and  O6_25 
REMARK   12  A    between atoms: O6_25  and  C17_26 
REMARK   13  A    between atoms: C17_26  and  C18_27 
REMARK   14  A    between atoms: C24_33  and  C25_34 
REMARK       I    between atoms: C25_34  and  N3_35 
REMARK   15  A    between atoms: C29_40  and  O8_41 
REMARK   16  A    between atoms: O8_41  and  C30_42 
REMARK   17  A    between atoms: C30_42  and  C31_43 
REMARK   18  A    between atoms: C31_43  and  O10_45 
ROOT
HETATM    1  C7  UNL     1      -2.035   5.094  12.271  1.00  0.00     0.180 C 
ENDROOT
BRANCH   1   2
HETATM    2  C6  UNL     1      -0.547   4.918  12.625  1.00  0.00     0.073 C 
BRANCH   2   3
HETATM    3  C5  UNL     1       0.409   5.702  11.753  1.00  0.00    -0.054 A 
HETATM    4  C4  UNL     1       1.452   5.057  11.081  1.00  0.00     0.029 A 
HETATM    5  C3  UNL     1       2.320   5.755  10.220  1.00  0.00     0.084 A 
HETATM    6  C29 UNL     1       2.136   7.134  10.042  1.00  0.00     0.087 A 
HETATM    7  C28 UNL     1       1.112   7.788  10.733  1.00  0.00     0.038 A 
HETATM    8  C27 UNL     1       0.254   7.078  11.578  1.00  0.00     0.010 A 
BRANCH   5   9
HETATM    9  P1  UNL     1       3.582   4.844   9.395  1.00  0.00     0.276 P 
HETATM   10  O2  UNL     1       3.703   4.984   7.903  1.00  0.00    -0.650 OA
BRANCH   9  11
HETATM   11  O1  UNL     1       4.997   5.102  10.127  1.00  0.00    -0.316 OA
BRANCH  11  12
HETATM   12  C2  UNL     1       5.298   6.438  10.493  1.00  0.00     0.174 C 
HETATM   13  C1  UNL     1       5.870   6.439  11.895  1.00  0.00     0.034 C 
ENDBRANCH  11  12
ENDBRANCH   9  11
BRANCH   9  14
HETATM   14  O3  UNL     1       3.361   3.287   9.749  1.00  0.00    -0.325 OA
HETATM   15  H6  UNL     1       3.976   2.739   9.231  1.00  0.00     0.220 HD
ENDBRANCH   9  14
ENDBRANCH   5   9
BRANCH   6  16
HETATM   16  O8  UNL     1       3.005   7.738   9.176  1.00  0.00    -0.340 OA
BRANCH  16  17
HETATM   17  C30 UNL     1       2.487   8.439   8.057  1.00  0.00     0.285 C 
BRANCH  17  18
HETATM   18  C31 UNL     1       1.396   7.725   7.275  1.00  0.00     0.164 C 
HETATM   19  O9  UNL     1       0.204   7.996   7.304  1.00  0.00    -0.648 OA
BRANCH  18  20
HETATM   20  O10 UNL     1       1.852   6.741   6.476  1.00  0.00    -0.775 OA
HETATM   21  H42 UNL     1       1.048   6.389   6.039  1.00  0.00     0.167 HD
ENDBRANCH  18  20
ENDBRANCH  17  18
ENDBRANCH  16  17
ENDBRANCH   6  16
ENDBRANCH   2   3
ENDBRANCH   1   2
BRANCH   1  22
HETATM   22  N1  UNL     1      -2.776   3.834  12.358  1.00  0.00    -0.348 N 
HETATM   23  C8  UNL     1      -3.465   3.360  11.266  1.00  0.00     0.214 C 
HETATM   24  C9  UNL     1      -4.384   2.205  11.567  1.00  0.00     0.117 C 
HETATM   25  O4  UNL     1      -3.334   3.808  10.132  1.00  0.00    -0.274 OA
HETATM   26  H11 UNL     1      -3.204   3.668  13.262  1.00  0.00     0.163 HD
ENDBRANCH   1  22
BRANCH   1  27
HETATM   27  C10 UNL     1      -2.722   6.125  13.191  1.00  0.00     0.241 C 
HETATM   28  O5  UNL     1      -3.115   7.216  12.777  1.00  0.00    -0.271 OA
HETATM   29  N2  UNL     1      -2.908   5.699  14.489  1.00  0.00    -0.351 N 
HETATM   30  H15 UNL     1      -2.386   4.897  14.817  1.00  0.00     0.163 HD
BRANCH  29  31
HETATM   31  C11 UNL     1      -3.494   6.559  15.509  1.00  0.00     0.113 C 
HETATM   32  C12 UNL     1      -2.704   7.867  15.582  1.00  0.00     0.037 C 
BRANCH  31  33
HETATM   33  C13 UNL     1      -4.982   6.710  15.235  1.00  0.00    -0.035 A 
HETATM   34  C14 UNL     1      -5.650   7.841  15.736  1.00  0.00     0.012 A 
HETATM   35  C15 UNL     1      -7.023   8.028  15.536  1.00  0.00     0.038 A 
HETATM   36  C16 UNL     1      -7.771   7.079  14.837  1.00  0.00     0.084 A 
HETATM   37  C24 UNL     1      -7.116   5.948  14.335  1.00  0.00     0.065 A 
HETATM   38  C26 UNL     1      -5.738   5.759  14.536  1.00  0.00     0.029 A 
BRANCH  36  39
HETATM   39  O6  UNL     1      -9.099   7.224  14.540  1.00  0.00    -0.350 OA
BRANCH  39  40
HETATM   40  C17 UNL     1      -9.970   7.529  15.632  1.00  0.00     0.180 C 
BRANCH  40  41
HETATM   41  C18 UNL     1     -11.201   8.272  15.085  1.00  0.00     0.010 C 
HETATM   42  C19 UNL     1     -10.801   9.641  14.494  1.00  0.00     0.007 C 
HETATM   43  C20 UNL     1     -11.824  10.133  13.478  1.00  0.00     0.000 C 
HETATM   44  C21 UNL     1     -11.937   9.182  12.286  1.00  0.00     0.000 C 
HETATM   45  C22 UNL     1     -11.628   7.726  12.636  1.00  0.00     0.000 C 
HETATM   46  C23 UNL     1     -11.982   7.401  14.083  1.00  0.00     0.007 C 
ENDBRANCH  40  41
ENDBRANCH  39  40
ENDBRANCH  36  39
BRANCH  37  47
HETATM   47  C25 UNL     1      -7.865   4.894  13.616  1.00  0.00     0.252 C 
HETATM   48  N3  UNL     1      -9.199   5.142  13.433  1.00  0.00    -0.366 N 
HETATM   49  H35 UNL     1      -9.744   4.365  13.080  1.00  0.00     0.159 HD
HETATM   50  H36 UNL     1      -9.677   5.833  13.995  1.00  0.00     0.159 HD
HETATM   51  O7  UNL     1      -7.330   3.882  13.189  1.00  0.00    -0.268 OA
ENDBRANCH  37  47
ENDBRANCH  31  33
ENDBRANCH  29  31
ENDBRANCH   1  27
TORSDOF 18
ENDMDL
MODEL 3
REMARK minimizedAffinity -8.7135973
REMARK CNNscore 0.263945282
REMARK CNNaffinity 7.35511017
REMARK  18 active torsions:
REMARK  status: ('A' for Active; 'I' for Inactive)
REMARK    1  A    between atoms: C2_2  and  O1_3 
REMARK    2  A    between atoms: O1_3  and  P1_4 
REMARK    3  A    between atoms: P1_4  and  O3_6 
REMARK    4  A    between atoms: P1_4  and  C3_7 
REMARK    5  A    between atoms: C5_9  and  C6_10 
REMARK    6  A    between atoms: C6_10  and  C7_11 
REMARK    7  A    between atoms: C7_11  and  N1_12 
REMARK    8  A    between atoms: C7_11  and  C10_16 
REMARK       I    between atoms: N1_12  and  C8_13 
REMARK       I    between atoms: C10_16  and  N2_18 
REMARK    9  A    between atoms: N2_18  and  C11_19 
REMARK   10  A    between atoms: C11_19  and  C13_21 
REMARK   11  A    between atoms: C16_24  and  O6_25 
REMARK   12  A    between atoms: O6_25  and  C17_26 
REMARK   13  A    between atoms: C17_26  and  C18_27 
REMARK   14  A    between atoms: C24_33  and  C25_34 
REMARK       I    between atoms: C25_34  and  N3_35 
REMARK   15  A    between atoms: C29_40  and  O8_41 
REMARK   16  A    between atoms: O8_41  and  C30_42 
REMARK   17  A    between atoms: C30_42  and  C31_43 
REMARK   18  A    between atoms: C31_43  and  O10_45 
ROOT
HETATM    1  C7  UNL     1      -0.275   7.718  14.244  1.00  0.00     0.180 C 
ENDROOT
BRANCH   1   2
HETATM    2  C6  UNL     1       1.148   7.301  14.660  1.00  0.00     0.073 C 
BRANCH   2   3
HETATM    3  C5  UNL     1       2.217   7.578  13.626  1.00  0.00    -0.054 A 
HETATM    4  C4  UNL     1       2.383   6.730  12.527  1.00  0.00     0.029 A 
HETATM    5  C3  UNL     1       3.333   6.997  11.524  1.00  0.00     0.084 A 
HETATM    6  C29 UNL     1       4.137   8.140  11.637  1.00  0.00     0.087 A 
HETATM    7  C28 UNL     1       3.995   8.976  12.748  1.00  0.00     0.038 A 
HETATM    8  C27 UNL     1       3.041   8.700  13.732  1.00  0.00     0.010 A 
BRANCH   5   9
HETATM    9  P1  UNL     1       3.440   5.883  10.163  1.00  0.00     0.276 P 
HETATM   10  O2  UNL     1       2.509   4.703  10.132  1.00  0.00    -0.650 OA
BRANCH   9  11
HETATM   11  O1  UNL     1       3.382   6.716   8.781  1.00  0.00    -0.316 OA
BRANCH  11  12
HETATM   12  C2  UNL     1       2.602   6.168   7.732  1.00  0.00     0.174 C 
HETATM   13  C1  UNL     1       1.954   7.303   6.968  1.00  0.00     0.034 C 
ENDBRANCH  11  12
ENDBRANCH   9  11
BRANCH   9  14
HETATM   14  O3  UNL     1       4.957   5.342  10.103  1.00  0.00    -0.325 OA
HETATM   15  H6  UNL     1       5.035   4.646   9.427  1.00  0.00     0.220 HD
ENDBRANCH   9  14
ENDBRANCH   5   9
BRANCH   6  16
HETATM   16  O8  UNL     1       5.022   8.342  10.614  1.00  0.00    -0.340 OA
BRANCH  16  17
HETATM   17  C30 UNL     1       6.388   8.569  10.920  1.00  0.00     0.285 C 
BRANCH  17  18
HETATM   18  C31 UNL     1       6.931   9.942  10.557  1.00  0.00     0.164 C 
HETATM   19  O9  UNL     1       7.964  10.161   9.941  1.00  0.00    -0.648 OA
BRANCH  18  20
HETATM   20  O10 UNL     1       6.142  10.962  10.948  1.00  0.00    -0.775 OA
HETATM   21  H42 UNL     1       6.611  11.766  10.641  1.00  0.00     0.167 HD
ENDBRANCH  18  20
ENDBRANCH  17  18
ENDBRANCH  16  17
ENDBRANCH   6  16
ENDBRANCH   2   3
ENDBRANCH   1   2
BRANCH   1  22
HETATM   22  N1  UNL     1      -0.382   9.159  14.012  1.00  0.00    -0.348 N 
HETATM   23  C8  UNL     1      -0.951   9.974  14.964  1.00  0.00     0.214 C 
HETATM   24  C9  UNL     1      -1.231  11.376  14.491  1.00  0.00     0.117 C 
HETATM   25  O4  UNL     1      -1.191   9.614  16.111  1.00  0.00    -0.274 OA
HETATM   26  H11 UNL     1      -0.562   9.410  13.045  1.00  0.00     0.163 HD
ENDBRANCH   1  22
BRANCH   1  27
HETATM   27  C10 UNL     1      -0.735   6.985  12.966  1.00  0.00     0.241 C 
HETATM   28  O5  UNL     1      -0.954   7.578  11.910  1.00  0.00    -0.271 OA
HETATM   29  N2  UNL     1      -0.822   5.615  13.094  1.00  0.00    -0.351 N 
HETATM   30  H15 UNL     1      -0.836   5.213  14.022  1.00  0.00     0.163 HD
BRANCH  29  31
HETATM   31  C11 UNL     1      -1.289   4.765  12.006  1.00  0.00     0.113 C 
HETATM   32  C12 UNL     1      -0.428   3.503  11.946  1.00  0.00     0.037 C 
BRANCH  31  33
HETATM   33  C13 UNL     1      -2.782   4.530  12.167  1.00  0.00    -0.035 A 
HETATM   34  C14 UNL     1      -3.473   5.237  13.167  1.00  0.00     0.012 A 
HETATM   35  C15 UNL     1      -4.844   5.049  13.380  1.00  0.00     0.038 A 
HETATM   36  C16 UNL     1      -5.563   4.137  12.605  1.00  0.00     0.084 A 
HETATM   37  C24 UNL     1      -4.883   3.426  11.608  1.00  0.00     0.065 A 
HETATM   38  C26 UNL     1      -3.507   3.613  11.394  1.00  0.00     0.029 A 
BRANCH  36  39
HETATM   39  O6  UNL     1      -6.914   3.951  12.706  1.00  0.00    -0.350 OA
BRANCH  39  40
HETATM   40  C17 UNL     1      -7.551   4.492  13.865  1.00  0.00     0.180 C 
BRANCH  40  41
HETATM   41  C18 UNL     1      -8.155   5.859  13.501  1.00  0.00     0.010 C 
HETATM   42  C19 UNL     1      -9.666   5.734  13.212  1.00  0.00     0.007 C 
HETATM   43  C20 UNL     1     -10.385   7.063  13.405  1.00  0.00     0.000 C 
HETATM   44  C21 UNL     1     -10.277   7.557  14.849  1.00  0.00     0.000 C 
HETATM   45  C22 UNL     1      -9.000   7.100  15.556  1.00  0.00     0.000 C 
HETATM   46  C23 UNL     1      -7.844   6.914  14.579  1.00  0.00     0.007 C 
ENDBRANCH  40  41
ENDBRANCH  39  40
ENDBRANCH  36  39
BRANCH  37  47
HETATM   47  C25 UNL     1      -5.586   2.423  10.779  1.00  0.00     0.252 C 
HETATM   48  N3  UNL     1      -5.649   2.704   9.440  1.00  0.00    -0.366 N 
HETATM   49  H35 UNL     1      -6.255   2.105   8.895  1.00  0.00     0.159 HD
HETATM   50  H36 UNL     1      -5.493   3.645   9.103  1.00  0.00     0.159 HD
HETATM   51  O7  UNL     1      -6.058   1.398  11.247  1.00  0.00    -0.268 OA
ENDBRANCH  37  47
ENDBRANCH  31  33
ENDBRANCH  29  31
ENDBRANCH   1  27
TORSDOF 18
ENDMDL
MODEL 4
REMARK minimizedAffinity -8.18994999
REMARK CNNscore 0.173102513
REMARK CNNaffinity 6.56175613
REMARK  18 active torsions:
REMARK  status: ('A' for Active; 'I' for Inactive)
REMARK    1  A    between atoms: C2_2  and  O1_3 
REMARK    2  A    between atoms: O1_3  and  P1_4 
REMARK    3  A    between atoms: P1_4  and  O3_6 
REMARK    4  A    between atoms: P1_4  and  C3_7 
REMARK    5  A    between atoms: C5_9  and  C6_10 
REMARK    6  A    between atoms: C6_10  and  C7_11 
REMARK    7  A    between atoms: C7_11  and  N1_12 
REMARK    8  A    between atoms: C7_11  and  C10_16 
REMARK       I    between atoms: N1_12  and  C8_13 
REMARK       I    between atoms: C10_16  and  N2_18 
REMARK    9  A    between atoms: N2_18  and  C11_19 
REMARK   10  A    between atoms: C11_19  and  C13_21 
REMARK   11  A    between atoms: C16_24  and  O6_25 
REMARK   12  A    between atoms: O6_25  and  C17_26 
REMARK   13  A    between atoms: C17_26  and  C18_27 
REMARK   14  A    between atoms: C24_33  and  C25_34 
REMARK       I    between atoms: C25_34  and  N3_35 
REMARK   15  A    between atoms: C29_40  and  O8_41 
REMARK   16  A    between atoms: O8_41  and  C30_42 
REMARK   17  A    between atoms: C30_42  and  C31_43 
REMARK   18  A    between atoms: C31_43  and  O10_45 
ROOT
HETATM    1  C7  UNL     1      -7.780   5.533  14.179  1.00  0.00     0.180 C 
ENDROOT
BRANCH   1   2
HETATM    2  C6  UNL     1      -7.425   4.107  13.721  1.00  0.00     0.073 C 
BRANCH   2   3
HETATM    3  C5  UNL     1      -6.116   3.989  12.972  1.00  0.00    -0.054 A 
HETATM    4  C4  UNL     1      -4.991   4.710  13.384  1.00  0.00     0.029 A 
HETATM    5  C3  UNL     1      -3.748   4.575  12.739  1.00  0.00     0.084 A 
HETATM    6  C29 UNL     1      -3.641   3.700  11.648  1.00  0.00     0.087 A 
HETATM    7  C28 UNL     1      -4.770   2.998  11.213  1.00  0.00     0.038 A 
HETATM    8  C27 UNL     1      -5.995   3.139  11.872  1.00  0.00     0.010 A 
BRANCH   5   9
HETATM    9  P1  UNL     1      -2.385   5.503  13.357  1.00  0.00     0.276 P 
HETATM   10  O2  UNL     1      -1.037   4.839  13.415  1.00  0.00    -0.650 OA
BRANCH   9  11
HETATM   11  O1  UNL     1      -2.310   6.922  12.593  1.00  0.00    -0.316 OA
BRANCH  11  12
HETATM   12  C2  UNL     1      -1.100   7.650  12.705  1.00  0.00     0.174 C 
HETATM   13  C1  UNL     1      -1.242   8.947  11.935  1.00  0.00     0.034 C 
ENDBRANCH  11  12
ENDBRANCH   9  11
BRANCH   9  14
HETATM   14  O3  UNL     1      -2.775   6.000  14.840  1.00  0.00    -0.325 OA
HETATM   15  H6  UNL     1      -2.008   6.432  15.258  1.00  0.00     0.220 HD
ENDBRANCH   9  14
ENDBRANCH   5   9
BRANCH   6  16
HETATM   16  O8  UNL     1      -2.398   3.607  11.086  1.00  0.00    -0.340 OA
BRANCH  16  17
HETATM   17  C30 UNL     1      -1.931   2.340  10.653  1.00  0.00     0.285 C 
BRANCH  17  18
HETATM   18  C31 UNL     1      -0.495   2.001  11.024  1.00  0.00     0.164 C 
HETATM   19  O9  UNL     1       0.362   2.804  11.362  1.00  0.00    -0.648 OA
BRANCH  18  20
HETATM   20  O10 UNL     1      -0.218   0.683  10.986  1.00  0.00    -0.775 OA
HETATM   21  H42 UNL     1       0.723   0.624  11.252  1.00  0.00     0.167 HD
ENDBRANCH  18  20
ENDBRANCH  17  18
ENDBRANCH  16  17
ENDBRANCH   6  16
ENDBRANCH   2   3
ENDBRANCH   1   2
BRANCH   1  22
HETATM   22  N1  UNL     1      -6.677   6.472  13.966  1.00  0.00    -0.348 N 
HETATM   23  C8  UNL     1      -6.498   7.535  14.820  1.00  0.00     0.214 C 
HETATM   24  C9  UNL     1      -5.499   8.554  14.340  1.00  0.00     0.117 C 
HETATM   25  O4  UNL     1      -7.074   7.646  15.898  1.00  0.00    -0.274 OA
HETATM   26  H11 UNL     1      -6.463   6.644  12.989  1.00  0.00     0.163 HD
ENDBRANCH   1  22
BRANCH   1  27
HETATM   27  C10 UNL     1      -9.027   6.074  13.446  1.00  0.00     0.241 C 
HETATM   28  O5  UNL     1      -9.138   6.034  12.221  1.00  0.00    -0.271 OA
HETATM   29  N2  UNL     1     -10.018   6.547  14.279  1.00  0.00    -0.351 N 
HETATM   30  H15 UNL     1      -9.788   6.747  15.244  1.00  0.00     0.163 HD
BRANCH  29  31
HETATM   31  C11 UNL     1     -11.244   7.143  13.762  1.00  0.00     0.113 C 
HETATM   32  C12 UNL     1     -12.448   6.381  14.317  1.00  0.00     0.037 C 
BRANCH  31  33
HETATM   33  C13 UNL     1     -11.228   8.636  14.048  1.00  0.00    -0.035 A 
HETATM   34  C14 UNL     1     -10.127   9.181  14.733  1.00  0.00     0.012 A 
HETATM   35  C15 UNL     1     -10.063  10.544  15.045  1.00  0.00     0.038 A 
HETATM   36  C16 UNL     1     -11.105  11.402  14.689  1.00  0.00     0.084 A 
HETATM   37  C24 UNL     1     -12.206  10.869  14.007  1.00  0.00     0.065 A 
HETATM   38  C26 UNL     1     -12.273   9.500  13.695  1.00  0.00     0.029 A 
BRANCH  36  39
HETATM   39  O6  UNL     1     -11.082  12.754  14.895  1.00  0.00    -0.350 OA
BRANCH  39  40
HETATM   40  C17 UNL     1      -9.805  13.344  15.142  1.00  0.00     0.180 C 
BRANCH  40  41
HETATM   41  C18 UNL     1      -9.457  14.274  13.968  1.00  0.00     0.010 C 
HETATM   42  C19 UNL     1     -10.727  14.945  13.403  1.00  0.00     0.007 C 
HETATM   43  C20 UNL     1     -10.398  16.238  12.667  1.00  0.00     0.000 C 
HETATM   44  C21 UNL     1      -9.762  17.270  13.600  1.00  0.00     0.000 C 
HETATM   45  C22 UNL     1      -8.967  16.646  14.748  1.00  0.00     0.000 C 
HETATM   46  C23 UNL     1      -8.374  15.295  14.362  1.00  0.00     0.007 C 
ENDBRANCH  40  41
ENDBRANCH  39  40
ENDBRANCH  36  39
BRANCH  37  47
HETATM   47  C25 UNL     1     -13.354  11.724  13.636  1.00  0.00     0.252 C 
HETATM   48  N3  UNL     1     -13.199  12.450  12.484  1.00  0.00    -0.366 N 
HETATM   49  H35 UNL     1     -13.912  13.146  12.307  1.00  0.00     0.159 HD
HETATM   50  H36 UNL     1     -12.280  12.610  12.096  1.00  0.00     0.159 HD
HETATM   51  O7  UNL     1     -14.384  11.764  14.291  1.00  0.00    -0.268 OA
ENDBRANCH  37  47
ENDBRANCH  31  33
ENDBRANCH  29  31
ENDBRANCH   1  27
TORSDOF 18
ENDMDL
MODEL 5
REMARK minimizedAffinity -8.91729736
REMARK CNNscore 0.150155127
REMARK CNNaffinity 7.05225754
REMARK  18 active torsions:
REMARK  status: ('A' for Active; 'I' for Inactive)
REMARK    1  A    between atoms: C2_2  and  O1_3 
REMARK    2  A    between atoms: O1_3  and  P1_4 
REMARK    3  A    between atoms: P1_4  and  O3_6 
REMARK    4  A    between atoms: P1_4  and  C3_7 
REMARK    5  A    between atoms: C5_9  and  C6_10 
REMARK    6  A    between atoms: C6_10  and  C7_11 
REMARK    7  A    between atoms: C7_11  and  N1_12 
REMARK    8  A    between atoms: C7_11  and  C10_16 
REMARK       I    between atoms: N1_12  and  C8_13 
REMARK       I    between atoms: C10_16  and  N2_18 
REMARK    9  A    between atoms: N2_18  and  C11_19 
REMARK   10  A    between atoms: C11_19  and  C13_21 
REMARK   11  A    between atoms: C16_24  and  O6_25 
REMARK   12  A    between atoms: O6_25  and  C17_26 
REMARK   13  A    between atoms: C17_26  and  C18_27 
REMARK   14  A    between atoms: C24_33  and  C25_34 
REMARK       I    between atoms: C25_34  and  N3_35 
REMARK   15  A    between atoms: C29_40  and  O8_41 
REMARK   16  A    between atoms: O8_41  and  C30_42 
REMARK   17  A    between atoms: C30_42  and  C31_43 
REMARK   18  A    between atoms: C31_43  and  O10_45 
ROOT
HETATM    1  C7  UNL     1      -0.405   7.227  13.519  1.00  0.00     0.180 C 
ENDROOT
BRANCH   1   2
HETATM    2  C6  UNL     1       0.611   8.192  12.882  1.00  0.00     0.073 C 
BRANCH   2   3
HETATM    3  C5  UNL     1       1.446   7.591  11.773  1.00  0.00    -0.054 A 
HETATM    4  C4  UNL     1       2.835   7.490  11.903  1.00  0.00     0.029 A 
HETATM    5  C3  UNL     1       3.628   6.884  10.910  1.00  0.00     0.084 A 
HETATM    6  C29 UNL     1       3.007   6.379   9.759  1.00  0.00     0.087 A 
HETATM    7  C28 UNL     1       1.622   6.504   9.611  1.00  0.00     0.038 A 
HETATM    8  C27 UNL     1       0.849   7.101  10.611  1.00  0.00     0.010 A 
BRANCH   5   9
HETATM    9  P1  UNL     1       5.364   6.776  11.185  1.00  0.00     0.276 P 
HETATM   10  O2  UNL     1       6.272   7.663  10.377  1.00  0.00    -0.650 OA
BRANCH   9  11
HETATM   11  O1  UNL     1       5.668   6.906  12.765  1.00  0.00    -0.316 OA
BRANCH  11  12
HETATM   12  C2  UNL     1       6.474   7.995  13.178  1.00  0.00     0.174 C 
HETATM   13  C1  UNL     1       7.059   7.676  14.537  1.00  0.00     0.034 C 
ENDBRANCH  11  12
ENDBRANCH   9  11
BRANCH   9  14
HETATM   14  O3  UNL     1       5.795   5.242  10.940  1.00  0.00    -0.325 OA
HETATM   15  H6  UNL     1       6.765   5.159  10.982  1.00  0.00     0.220 HD
ENDBRANCH   9  14
ENDBRANCH   5   9
BRANCH   6  16
HETATM   16  O8  UNL     1       3.840   5.788   8.849  1.00  0.00    -0.340 OA
BRANCH  16  17
HETATM   17  C30 UNL     1       3.467   4.543   8.282  1.00  0.00     0.285 C 
BRANCH  17  18
HETATM   18  C31 UNL     1       4.449   3.400   8.488  1.00  0.00     0.164 C 
HETATM   19  O9  UNL     1       5.306   3.044   7.692  1.00  0.00    -0.648 OA
BRANCH  18  20
HETATM   20  O10 UNL     1       4.334   2.790   9.683  1.00  0.00    -0.775 OA
HETATM   21  H42 UNL     1       5.025   2.096   9.671  1.00  0.00     0.167 HD
ENDBRANCH  18  20
ENDBRANCH  17  18
ENDBRANCH  16  17
ENDBRANCH   6  16
ENDBRANCH   2   3
ENDBRANCH   1   2
BRANCH   1  22
HETATM   22  N1  UNL     1      -1.254   7.894  14.508  1.00  0.00    -0.348 N 
HETATM   23  C8  UNL     1      -0.957   7.806  15.848  1.00  0.00     0.214 C 
HETATM   24  C9  UNL     1      -2.044   8.311  16.759  1.00  0.00     0.117 C 
HETATM   25  O4  UNL     1       0.110   7.381  16.281  1.00  0.00    -0.274 OA
HETATM   26  H11 UNL     1      -2.241   7.898  14.270  1.00  0.00     0.163 HD
ENDBRANCH   1  22
BRANCH   1  27
HETATM   27  C10 UNL     1      -1.317   6.574  12.458  1.00  0.00     0.241 C 
HETATM   28  O5  UNL     1      -1.693   7.178  11.454  1.00  0.00    -0.271 OA
HETATM   29  N2  UNL     1      -1.620   5.252  12.702  1.00  0.00    -0.351 N 
HETATM   30  H15 UNL     1      -1.462   4.880  13.630  1.00  0.00     0.163 HD
BRANCH  29  31
HETATM   31  C11 UNL     1      -2.509   4.490  11.834  1.00  0.00     0.113 C 
HETATM   32  C12 UNL     1      -1.964   3.070  11.674  1.00  0.00     0.037 C 
BRANCH  31  33
HETATM   33  C13 UNL     1      -3.928   4.587  12.371  1.00  0.00    -0.035 A 
HETATM   34  C14 UNL     1      -4.295   5.728  13.106  1.00  0.00     0.012 A 
HETATM   35  C15 UNL     1      -5.580   5.868  13.645  1.00  0.00     0.038 A 
HETATM   36  C16 UNL     1      -6.534   4.864  13.472  1.00  0.00     0.084 A 
HETATM   37  C24 UNL     1      -6.177   3.722  12.742  1.00  0.00     0.065 A 
HETATM   38  C26 UNL     1      -4.888   3.580  12.202  1.00  0.00     0.029 A 
BRANCH  36  39
HETATM   39  O6  UNL     1      -7.827   4.958  13.906  1.00  0.00    -0.350 OA
BRANCH  39  40
HETATM   40  C17 UNL     1      -8.575   6.088  13.451  1.00  0.00     0.180 C 
BRANCH  40  41
HETATM   41  C18 UNL     1      -9.297   6.717  14.655  1.00  0.00     0.010 C 
HETATM   42  C19 UNL     1      -8.515   7.935  15.190  1.00  0.00     0.007 C 
HETATM   43  C20 UNL     1      -9.420   8.888  15.961  1.00  0.00     0.000 C 
HETATM   44  C21 UNL     1     -10.523   9.461  15.070  1.00  0.00     0.000 C 
HETATM   45  C22 UNL     1     -10.941   8.522  13.937  1.00  0.00     0.000 C 
HETATM   46  C23 UNL     1     -10.761   7.056  14.316  1.00  0.00     0.007 C 
ENDBRANCH  40  41
ENDBRANCH  39  40
ENDBRANCH  36  39
BRANCH  37  47
HETATM   47  C25 UNL     1      -7.136   2.611  12.557  1.00  0.00     0.252 C 
HETATM   48  N3  UNL     1      -6.699   1.583  11.764  1.00  0.00    -0.366 N 
HETATM   49  H35 UNL     1      -7.400   0.898  11.511  1.00  0.00     0.159 HD
HETATM   50  H36 UNL     1      -5.921   1.714  11.132  1.00  0.00     0.159 HD
HETATM   51  O7  UNL     1      -8.233   2.593  13.093  1.00  0.00    -0.268 OA
ENDBRANCH  37  47
ENDBRANCH  31  33
ENDBRANCH  29  31
ENDBRANCH   1  27
TORSDOF 18
ENDMDL
MODEL 6
REMARK minimizedAffinity -8.43641949
REMARK CNNscore 0.14783293
REMARK CNNaffinity 6.8875041
REMARK  18 active torsions:
REMARK  status: ('A' for Active; 'I' for Inactive)
REMARK    1  A    between atoms: C2_2  and  O1_3 
REMARK    2  A    between atoms: O1_3  and  P1_4 
REMARK    3  A    between atoms: P1_4  and  O3_6 
REMARK    4  A    between atoms: P1_4  and  C3_7 
REMARK    5  A    between atoms: C5_9  and  C6_10 
REMARK    6  A    between atoms: C6_10  and  C7_11 
REMARK    7  A    between atoms: C7_11  and  N1_12 
REMARK    8  A    between atoms: C7_11  and  C10_16 
REMARK       I    between atoms: N1_12  and  C8_13 
REMARK       I    between atoms: C10_16  and  N2_18 
REMARK    9  A    between atoms: N2_18  and  C11_19 
REMARK   10  A    between atoms: C11_19  and  C13_21 
REMARK   11  A    between atoms: C16_24  and  O6_25 
REMARK   12  A    between atoms: O6_25  and  C17_26 
REMARK   13  A    between atoms: C17_26  and  C18_27 
REMARK   14  A    between atoms: C24_33  and  C25_34 
REMARK       I    between atoms: C25_34  and  N3_35 
REMARK   15  A    between atoms: C29_40  and  O8_41 
REMARK   16  A    between atoms: O8_41  and  C30_42 
REMARK   17  A    between atoms: C30_42  and  C31_43 
REMARK   18  A    between atoms: C31_43  and  O10_45 
ROOT
HETATM    1  C7  UNL     1      -7.652   7.612  15.041  1.00  0.00     0.180 C 
ENDROOT
BRANCH   1   2
HETATM    2  C6  UNL     1      -8.963   7.821  15.820  1.00  0.00     0.073 C 
BRANCH   2   3
HETATM    3  C5  UNL     1     -10.187   8.038  14.957  1.00  0.00    -0.054 A 
HETATM    4  C4  UNL     1     -10.877   9.254  14.991  1.00  0.00     0.029 A 
HETATM    5  C3  UNL     1     -11.983   9.499  14.157  1.00  0.00     0.084 A 
HETATM    6  C29 UNL     1     -12.407   8.493  13.277  1.00  0.00     0.087 A 
HETATM    7  C28 UNL     1     -11.739   7.265  13.259  1.00  0.00     0.038 A 
HETATM    8  C27 UNL     1     -10.636   7.041  14.090  1.00  0.00     0.010 A 
BRANCH   5   9
HETATM    9  P1  UNL     1     -12.762  11.076  14.252  1.00  0.00     0.276 P 
HETATM   10  O2  UNL     1     -14.131  11.160  14.870  1.00  0.00    -0.650 OA
BRANCH   9  11
HETATM   11  O1  UNL     1     -11.747  12.137  14.923  1.00  0.00    -0.316 OA
BRANCH  11  12
HETATM   12  C2  UNL     1     -10.423  12.167  14.419  1.00  0.00     0.174 C 
HETATM   13  C1  UNL     1      -9.797  13.497  14.784  1.00  0.00     0.034 C 
ENDBRANCH  11  12
ENDBRANCH   9  11
BRANCH   9  14
HETATM   14  O3  UNL     1     -12.839  11.666  12.754  1.00  0.00    -0.325 OA
HETATM   15  H6  UNL     1     -13.354  12.493  12.749  1.00  0.00     0.220 HD
ENDBRANCH   9  14
ENDBRANCH   5   9
BRANCH   6  16
HETATM   16  O8  UNL     1     -13.476   8.813  12.486  1.00  0.00    -0.340 OA
BRANCH  16  17
HETATM   17  C30 UNL     1     -14.763   8.337  12.842  1.00  0.00     0.285 C 
BRANCH  17  18
HETATM   18  C31 UNL     1     -15.665   7.933  11.686  1.00  0.00     0.164 C 
HETATM   19  O9  UNL     1     -16.032   8.666  10.779  1.00  0.00    -0.648 OA
BRANCH  18  20
HETATM   20  O10 UNL     1     -16.029   6.637  11.705  1.00  0.00    -0.775 OA
HETATM   21  H42 UNL     1     -16.589   6.528  10.908  1.00  0.00     0.167 HD
ENDBRANCH  18  20
ENDBRANCH  17  18
ENDBRANCH  16  17
ENDBRANCH   6  16
ENDBRANCH   2   3
ENDBRANCH   1   2
BRANCH   1  22
HETATM   22  N1  UNL     1      -6.533   8.345  15.637  1.00  0.00    -0.348 N 
HETATM   23  C8  UNL     1      -5.450   8.700  14.867  1.00  0.00     0.214 C 
HETATM   24  C9  UNL     1      -4.272   9.211  15.654  1.00  0.00     0.117 C 
HETATM   25  O4  UNL     1      -5.437   8.639  13.642  1.00  0.00    -0.274 OA
HETATM   26  H11 UNL     1      -6.332   8.083  16.596  1.00  0.00     0.163 HD
ENDBRANCH   1  22
BRANCH   1  27
HETATM   27  C10 UNL     1      -7.268   6.120  14.960  1.00  0.00     0.241 C 
HETATM   28  O5  UNL     1      -7.453   5.341  15.895  1.00  0.00    -0.271 OA
HETATM   29  N2  UNL     1      -6.758   5.727  13.741  1.00  0.00    -0.351 N 
HETATM   30  H15 UNL     1      -6.438   6.437  13.096  1.00  0.00     0.163 HD
BRANCH  29  31
HETATM   31  C11 UNL     1      -6.295   4.366  13.499  1.00  0.00     0.113 C 
HETATM   32  C12 UNL     1      -7.241   3.678  12.515  1.00  0.00     0.037 C 
BRANCH  31  33
HETATM   33  C13 UNL     1      -4.834   4.409  13.078  1.00  0.00    -0.035 A 
HETATM   34  C14 UNL     1      -4.046   5.499  13.485  1.00  0.00     0.012 A 
HETATM   35  C15 UNL     1      -2.701   5.608  13.113  1.00  0.00     0.038 A 
HETATM   36  C16 UNL     1      -2.107   4.631  12.312  1.00  0.00     0.084 A 
HETATM   37  C24 UNL     1      -2.884   3.541  11.900  1.00  0.00     0.065 A 
HETATM   38  C26 UNL     1      -4.235   3.432  12.272  1.00  0.00     0.029 A 
BRANCH  36  39
HETATM   39  O6  UNL     1      -0.783   4.630  11.966  1.00  0.00    -0.350 OA
BRANCH  39  40
HETATM   40  C17 UNL     1      -0.323   5.737  11.189  1.00  0.00     0.180 C 
BRANCH  40  41
HETATM   41  C18 UNL     1       1.211   5.670  11.099  1.00  0.00     0.010 C 
HETATM   42  C19 UNL     1       1.704   6.169   9.723  1.00  0.00     0.007 C 
HETATM   43  C20 UNL     1       3.150   6.645   9.784  1.00  0.00     0.000 C 
HETATM   44  C21 UNL     1       3.313   7.828  10.739  1.00  0.00     0.000 C 
HETATM   45  C22 UNL     1       2.304   7.829  11.888  1.00  0.00     0.000 C 
HETATM   46  C23 UNL     1       1.876   6.416  12.271  1.00  0.00     0.007 C 
ENDBRANCH  40  41
ENDBRANCH  39  40
ENDBRANCH  36  39
BRANCH  37  47
HETATM   47  C25 UNL     1      -2.317   2.494  11.023  1.00  0.00     0.252 C 
HETATM   48  N3  UNL     1      -2.686   1.209  11.325  1.00  0.00    -0.366 N 
HETATM   49  H35 UNL     1      -2.186   0.483  10.829  1.00  0.00     0.159 HD
HETATM   50  H36 UNL     1      -3.063   0.982  12.235  1.00  0.00     0.159 HD
HETATM   51  O7  UNL     1      -1.591   2.752  10.075  1.00  0.00    -0.268 OA
ENDBRANCH  37  47
ENDBRANCH  31  33
ENDBRANCH  29  31
ENDBRANCH   1  27
TORSDOF 18
ENDMDL
MODEL 7
REMARK minimizedAffinity -8.64771366
REMARK CNNscore 0.136288539
REMARK CNNaffinity 6.68810701
REMARK  18 active torsions:
REMARK  status: ('A' for Active; 'I' for Inactive)
REMARK    1  A    between atoms: C2_2  and  O1_3 
REMARK    2  A    between atoms: O1_3  and  P1_4 
REMARK    3  A    between atoms: P1_4  and  O3_6 
REMARK    4  A    between atoms: P1_4  and  C3_7 
REMARK    5  A    between atoms: C5_9  and  C6_10 
REMARK    6  A    between atoms: C6_10  and  C7_11 
REMARK    7  A    between atoms: C7_11  and  N1_12 
REMARK    8  A    between atoms: C7_11  and  C10_16 
REMARK       I    between atoms: N1_12  and  C8_13 
REMARK       I    between atoms: C10_16  and  N2_18 
REMARK    9  A    between atoms: N2_18  and  C11_19 
REMARK   10  A    between atoms: C11_19  and  C13_21 
REMARK   11  A    between atoms: C16_24  and  O6_25 
REMARK   12  A    between atoms: O6_25  and  C17_26 
REMARK   13  A    between atoms: C17_26  and  C18_27 
REMARK   14  A    between atoms: C24_33  and  C25_34 
REMARK       I    between atoms: C25_34  and  N3_35 
REMARK   15  A    between atoms: C29_40  and  O8_41 
REMARK   16  A    between atoms: O8_41  and  C30_42 
REMARK   17  A    between atoms: C30_42  and  C31_43 
REMARK   18  A    between atoms: C31_43  and  O10_45 
ROOT
HETATM    1  C7  UNL     1      -2.365   3.342  11.080  1.00  0.00     0.180 C 
ENDROOT
BRANCH   1   2
HETATM    2  C6  UNL     1      -1.852   4.026  12.360  1.00  0.00     0.073 C 
BRANCH   2   3
HETATM    3  C5  UNL     1      -0.850   5.135  12.128  1.00  0.00    -0.054 A 
HETATM    4  C4  UNL     1       0.271   4.924  11.318  1.00  0.00     0.029 A 
HETATM    5  C3  UNL     1       1.187   5.956  11.042  1.00  0.00     0.084 A 
HETATM    6  C29 UNL     1       0.973   7.223  11.603  1.00  0.00     0.087 A 
HETATM    7  C28 UNL     1      -0.130   7.431  12.436  1.00  0.00     0.038 A 
HETATM    8  C27 UNL     1      -1.035   6.397  12.693  1.00  0.00     0.010 A 
BRANCH   5   9
HETATM    9  P1  UNL     1       2.548   5.597   9.983  1.00  0.00     0.276 P 
HETATM   10  O2  UNL     1       3.099   4.197   9.977  1.00  0.00    -0.650 OA
BRANCH   9  11
HETATM   11  O1  UNL     1       2.214   6.104   8.488  1.00  0.00    -0.316 OA
BRANCH  11  12
HETATM   12  C2  UNL     1       2.602   7.426   8.155  1.00  0.00     0.174 C 
HETATM   13  C1  UNL     1       1.360   8.229   7.832  1.00  0.00     0.034 C 
ENDBRANCH  11  12
ENDBRANCH   9  11
BRANCH   9  14
HETATM   14  O3  UNL     1       3.738   6.614  10.367  1.00  0.00    -0.325 OA
HETATM   15  H6  UNL     1       4.545   6.382   9.874  1.00  0.00     0.220 HD
ENDBRANCH   9  14
ENDBRANCH   5   9
BRANCH   6  16
HETATM   16  O8  UNL     1       1.895   8.178  11.273  1.00  0.00    -0.340 OA
BRANCH  16  17
HETATM   17  C30 UNL     1       2.544   8.895  12.310  1.00  0.00     0.285 C 
BRANCH  17  18
HETATM   18  C31 UNL     1       3.134   8.052  13.430  1.00  0.00     0.164 C 
HETATM   19  O9  UNL     1       2.699   7.976  14.570  1.00  0.00    -0.648 OA
BRANCH  18  20
HETATM   20  O10 UNL     1       4.207   7.326  13.062  1.00  0.00    -0.775 OA
HETATM   21  H42 UNL     1       4.463   6.839  13.872  1.00  0.00     0.167 HD
ENDBRANCH  18  20
ENDBRANCH  17  18
ENDBRANCH  16  17
ENDBRANCH   6  16
ENDBRANCH   2   3
ENDBRANCH   1   2
BRANCH   1  22
HETATM   22  N1  UNL     1      -2.090   1.904  11.074  1.00  0.00    -0.348 N 
HETATM   23  C8  UNL     1      -0.808   1.445  10.877  1.00  0.00     0.214 C 
HETATM   24  C9  UNL     1      -0.712  -0.038  10.636  1.00  0.00     0.117 C 
HETATM   25  O4  UNL     1       0.185   2.163  10.918  1.00  0.00    -0.274 OA
HETATM   26  H11 UNL     1      -2.832   1.343  10.668  1.00  0.00     0.163 HD
ENDBRANCH   1  22
BRANCH   1  27
HETATM   27  C10 UNL     1      -3.884   3.546  10.892  1.00  0.00     0.241 C 
HETATM   28  O5  UNL     1      -4.389   3.744   9.787  1.00  0.00    -0.271 OA
HETATM   29  N2  UNL     1      -4.623   3.431  12.050  1.00  0.00    -0.351 N 
HETATM   30  H15 UNL     1      -4.143   3.479  12.940  1.00  0.00     0.163 HD
BRANCH  29  31
HETATM   31  C11 UNL     1      -6.065   3.644  12.072  1.00  0.00     0.113 C 
HETATM   32  C12 UNL     1      -6.774   2.290  12.133  1.00  0.00     0.037 C 
BRANCH  31  33
HETATM   33  C13 UNL     1      -6.406   4.611  13.194  1.00  0.00    -0.035 A 
HETATM   34  C14 UNL     1      -7.343   4.216  14.164  1.00  0.00     0.012 A 
HETATM   35  C15 UNL     1      -7.716   5.069  15.210  1.00  0.00     0.038 A 
HETATM   36  C16 UNL     1      -7.168   6.349  15.309  1.00  0.00     0.084 A 
HETATM   37  C24 UNL     1      -6.234   6.753  14.346  1.00  0.00     0.065 A 
HETATM   38  C26 UNL     1      -5.860   5.898  13.295  1.00  0.00     0.029 A 
BRANCH  36  39
HETATM   39  O6  UNL     1      -7.428   7.212  16.338  1.00  0.00    -0.350 OA
BRANCH  39  40
HETATM   40  C17 UNL     1      -8.789   7.614  16.510  1.00  0.00     0.180 C 
BRANCH  40  41
HETATM   41  C18 UNL     1      -9.251   8.339  15.235  1.00  0.00     0.010 C 
HETATM   42  C19 UNL     1     -10.627   7.814  14.772  1.00  0.00     0.007 C 
HETATM   43  C20 UNL     1     -11.354   8.835  13.906  1.00  0.00     0.000 C 
HETATM   44  C21 UNL     1     -11.639  10.125  14.677  1.00  0.00     0.000 C 
HETATM   45  C22 UNL     1     -10.611  10.423  15.769  1.00  0.00     0.000 C 
HETATM   46  C23 UNL     1      -9.234   9.868  15.421  1.00  0.00     0.007 C 
ENDBRANCH  40  41
ENDBRANCH  39  40
ENDBRANCH  36  39
BRANCH  37  47
HETATM   47  C25 UNL     1      -5.647   8.110  14.381  1.00  0.00     0.252 C 
HETATM   48  N3  UNL     1      -4.975   8.491  13.250  1.00  0.00    -0.366 N 
HETATM   49  H35 UNL     1      -4.445   9.350  13.324  1.00  0.00     0.159 HD
HETATM   50  H36 UNL     1      -4.659   7.801  12.581  1.00  0.00     0.159 HD
HETATM   51  O7  UNL     1      -5.772   8.856  15.341  1.00  0.00    -0.268 OA
ENDBRANCH  37  47
ENDBRANCH  31  33
ENDBRANCH  29  31
ENDBRANCH   1  27
TORSDOF 18
ENDMDL
MODEL 8
REMARK minimizedAffinity -8.68616295
REMARK CNNscore 0.131358787
REMARK CNNaffinity 6.77610445
REMARK  18 active torsions:
REMARK  status: ('A' for Active; 'I' for Inactive)
REMARK    1  A    between atoms: C2_2  and  O1_3 
REMARK    2  A    between atoms: O1_3  and  P1_4 
REMARK    3  A    between atoms: P1_4  and  O3_6 
REMARK    4  A    between atoms: P1_4  and  C3_7 
REMARK    5  A    between atoms: C5_9  and  C6_10 
REMARK    6  A    between atoms: C6_10  and  C7_11 
REMARK    7  A    between atoms: C7_11  and  N1_12 
REMARK    8  A    between atoms: C7_11  and  C10_16 
REMARK       I    between atoms: N1_12  and  C8_13 
REMARK       I    between atoms: C10_16  and  N2_18 
REMARK    9  A    between atoms: N2_18  and  C11_19 
REMARK   10  A    between atoms: C11_19  and  C13_21 
REMARK   11  A    between atoms: C16_24  and  O6_25 
REMARK   12  A    between atoms: O6_25  and  C17_26 
REMARK   13  A    between atoms: C17_26  and  C18_27 
REMARK   14  A    between atoms: C24_33  and  C25_34 
REMARK       I    between atoms: C25_34  and  N3_35 
REMARK   15  A    between atoms: C29_40  and  O8_41 
REMARK   16  A    between atoms: O8_41  and  C30_42 
REMARK   17  A    between atoms: C30_42  and  C31_43 
REMARK   18  A    between atoms: C31_43  and  O10_45 
ROOT
HETATM    1  C7  UNL     1      -0.185   8.374  15.901  1.00  0.00     0.180 C 
ENDROOT
BRANCH   1   2
HETATM    2  C6  UNL     1      -0.400   6.849  15.910  1.00  0.00     0.073 C 
BRANCH   2   3
HETATM    3  C5  UNL     1      -0.635   6.234  14.548  1.00  0.00    -0.054 A 
HETATM    4  C4  UNL     1       0.375   6.235  13.581  1.00  0.00     0.029 A 
HETATM    5  C3  UNL     1       0.200   5.620  12.328  1.00  0.00     0.084 A 
HETATM    6  C29 UNL     1      -1.025   4.999  12.041  1.00  0.00     0.087 A 
HETATM    7  C28 UNL     1      -2.049   5.021  12.993  1.00  0.00     0.038 A 
HETATM    8  C27 UNL     1      -1.854   5.630  14.236  1.00  0.00     0.010 A 
BRANCH   5   9
HETATM    9  P1  UNL     1       1.546   5.647  11.193  1.00  0.00     0.276 P 
HETATM   10  O2  UNL     1       2.018   4.342  10.613  1.00  0.00    -0.650 OA
BRANCH   9  11
HETATM   11  O1  UNL     1       1.252   6.733  10.035  1.00  0.00    -0.316 OA
BRANCH  11  12
HETATM   12  C2  UNL     1       0.259   7.708  10.305  1.00  0.00     0.174 C 
HETATM   13  C1  UNL     1      -0.079   8.424   9.015  1.00  0.00     0.034 C 
ENDBRANCH  11  12
ENDBRANCH   9  11
BRANCH   9  14
HETATM   14  O3  UNL     1       2.788   6.357  11.937  1.00  0.00    -0.325 OA
HETATM   15  H6  UNL     1       3.585   6.301  11.379  1.00  0.00     0.220 HD
ENDBRANCH   9  14
ENDBRANCH   5   9
BRANCH   6  16
HETATM   16  O8  UNL     1      -1.113   4.408  10.812  1.00  0.00    -0.340 OA
BRANCH  16  17
HETATM   17  C30 UNL     1      -1.965   3.286  10.647  1.00  0.00     0.285 C 
BRANCH  17  18
HETATM   18  C31 UNL     1      -1.326   1.927  10.885  1.00  0.00     0.164 C 
HETATM   19  O9  UNL     1      -0.130   1.715  11.022  1.00  0.00    -0.648 OA
BRANCH  18  20
HETATM   20  O10 UNL     1      -2.211   0.915  10.975  1.00  0.00    -0.775 OA
HETATM   21  H42 UNL     1      -1.660   0.121  11.136  1.00  0.00     0.167 HD
ENDBRANCH  18  20
ENDBRANCH  17  18
ENDBRANCH  16  17
ENDBRANCH   6  16
ENDBRANCH   2   3
ENDBRANCH   1   2
BRANCH   1  22
HETATM   22  N1  UNL     1       1.019   8.758  15.164  1.00  0.00    -0.348 N 
HETATM   23  C8  UNL     1       2.194   9.002  15.836  1.00  0.00     0.214 C 
HETATM   24  C9  UNL     1       3.270   9.634  14.993  1.00  0.00     0.117 C 
HETATM   25  O4  UNL     1       2.377   8.712  17.014  1.00  0.00    -0.274 OA
HETATM   26  H11 UNL     1       0.840   9.341  14.353  1.00  0.00     0.163 HD
ENDBRANCH   1  22
BRANCH   1  27
HETATM   27  C10 UNL     1      -1.390   9.116  15.284  1.00  0.00     0.241 C 
HETATM   28  O5  UNL     1      -1.369   9.563  14.137  1.00  0.00    -0.271 OA
HETATM   29  N2  UNL     1      -2.499   9.184  16.101  1.00  0.00    -0.351 N 
HETATM   30  H15 UNL     1      -2.388   8.992  17.088  1.00  0.00     0.163 HD
BRANCH  29  31
HETATM   31  C11 UNL     1      -3.709   9.891  15.704  1.00  0.00     0.113 C 
HETATM   32  C12 UNL     1      -3.348  10.988  14.701  1.00  0.00     0.037 C 
BRANCH  31  33
HETATM   33  C13 UNL     1      -4.738   8.881  15.223  1.00  0.00    -0.035 A 
HETATM   34  C14 UNL     1      -4.331   7.874  14.331  1.00  0.00     0.012 A 
HETATM   35  C15 UNL     1      -5.234   6.927  13.835  1.00  0.00     0.038 A 
HETATM   36  C16 UNL     1      -6.578   6.966  14.210  1.00  0.00     0.084 A 
HETATM   37  C24 UNL     1      -6.995   7.967  15.098  1.00  0.00     0.065 A 
HETATM   38  C26 UNL     1      -6.089   8.919  15.595  1.00  0.00     0.029 A 
BRANCH  36  39
HETATM   39  O6  UNL     1      -7.505   6.036  13.825  1.00  0.00    -0.350 OA
BRANCH  39  40
HETATM   40  C17 UNL     1      -7.218   5.301  12.633  1.00  0.00     0.180 C 
BRANCH  40  41
HETATM   41  C18 UNL     1      -6.715   3.902  13.028  1.00  0.00     0.010 C 
HETATM   42  C19 UNL     1      -7.780   2.828  12.720  1.00  0.00     0.007 C 
HETATM   43  C20 UNL     1      -7.154   1.448  12.559  1.00  0.00     0.000 C 
HETATM   44  C21 UNL     1      -6.173   1.409  11.386  1.00  0.00     0.000 C 
HETATM   45  C22 UNL     1      -5.499   2.754  11.109  1.00  0.00     0.000 C 
HETATM   46  C23 UNL     1      -5.355   3.590  12.377  1.00  0.00     0.007 C 
ENDBRANCH  40  41
ENDBRANCH  39  40
ENDBRANCH  36  39
BRANCH  37  47
HETATM   47  C25 UNL     1      -8.413   8.078  15.503  1.00  0.00     0.252 C 
HETATM   48  N3  UNL     1      -9.035   9.248  15.154  1.00  0.00    -0.366 N 
HETATM   49  H35 UNL     1      -9.952   9.392  15.558  1.00  0.00     0.159 HD
HETATM   50  H36 UNL     1      -8.495  10.066  14.912  1.00  0.00     0.159 HD
HETATM   51  O7  UNL     1      -9.003   7.180  16.085  1.00  0.00    -0.268 OA
ENDBRANCH  37  47
ENDBRANCH  31  33
ENDBRANCH  29  31
ENDBRANCH   1  27
TORSDOF 18
ENDMDL
MODEL 9
REMARK minimizedAffinity -8.48569202
REMARK CNNscore 0.11405886
REMARK CNNaffinity 6.21072006
REMARK  18 active torsions:
REMARK  status: ('A' for Active; 'I' for Inactive)
REMARK    1  A    between atoms: C2_2  and  O1_3 
REMARK    2  A    between atoms: O1_3  and  P1_4 
REMARK    3  A    between atoms: P1_4  and  O3_6 
REMARK    4  A    between atoms: P1_4  and  C3_7 
REMARK    5  A    between atoms: C5_9  and  C6_10 
REMARK    6  A    between atoms: C6_10  and  C7_11 
REMARK    7  A    between atoms: C7_11  and  N1_12 
REMARK    8  A    between atoms: C7_11  and  C10_16 
REMARK       I    between atoms: N1_12  and  C8_13 
REMARK       I    between atoms: C10_16  and  N2_18 
REMARK    9  A    between atoms: N2_18  and  C11_19 
REMARK   10  A    between atoms: C11_19  and  C13_21 
REMARK   11  A    between atoms: C16_24  and  O6_25 
REMARK   12  A    between atoms: O6_25  and  C17_26 
REMARK   13  A    between atoms: C17_26  and  C18_27 
REMARK   14  A    between atoms: C24_33  and  C25_34 
REMARK       I    between atoms: C25_34  and  N3_35 
REMARK   15  A    between atoms: C29_40  and  O8_41 
REMARK   16  A    between atoms: O8_41  and  C30_42 
REMARK   17  A    between atoms: C30_42  and  C31_43 
REMARK   18  A    between atoms: C31_43  and  O10_45 
ROOT
HETATM    1  C7  UNL     1      -4.297   6.902  15.095  1.00  0.00     0.180 C 
ENDROOT
BRANCH   1   2
HETATM    2  C6  UNL     1      -4.050   7.132  13.593  1.00  0.00     0.073 C 
BRANCH   2   3
HETATM    3  C5  UNL     1      -3.283   6.028  12.900  1.00  0.00    -0.054 A 
HETATM    4  C4  UNL     1      -1.913   6.159  12.651  1.00  0.00     0.029 A 
HETATM    5  C3  UNL     1      -1.167   5.123  12.059  1.00  0.00     0.084 A 
HETATM    6  C29 UNL     1      -1.819   3.934  11.702  1.00  0.00     0.087 A 
HETATM    7  C28 UNL     1      -3.194   3.809  11.922  1.00  0.00     0.038 A 
HETATM    8  C27 UNL     1      -3.918   4.845  12.518  1.00  0.00     0.010 A 
BRANCH   5   9
HETATM    9  P1  UNL     1       0.560   5.376  11.820  1.00  0.00     0.276 P 
HETATM   10  O2  UNL     1       1.330   4.349  11.035  1.00  0.00    -0.650 OA
BRANCH   9  11
HETATM   11  O1  UNL     1       0.812   6.864  11.247  1.00  0.00    -0.316 OA
BRANCH  11  12
HETATM   12  C2  UNL     1       1.252   6.970   9.904  1.00  0.00     0.174 C 
HETATM   13  C1  UNL     1       0.356   7.951   9.178  1.00  0.00     0.034 C 
ENDBRANCH  11  12
ENDBRANCH   9  11
BRANCH   9  14
HETATM   14  O3  UNL     1       1.233   5.517  13.278  1.00  0.00    -0.325 OA
HETATM   15  H6  UNL     1       2.202   5.556  13.194  1.00  0.00     0.220 HD
ENDBRANCH   9  14
ENDBRANCH   5   9
BRANCH   6  16
HETATM   16  O8  UNL     1      -1.024   2.968  11.150  1.00  0.00    -0.340 OA
BRANCH  16  17
HETATM   17  C30 UNL     1      -1.578   1.690  10.885  1.00  0.00     0.285 C 
BRANCH  17  18
HETATM   18  C31 UNL     1      -0.600   0.632  10.395  1.00  0.00     0.164 C 
HETATM   19  O9  UNL     1       0.098  -0.076  11.106  1.00  0.00    -0.648 OA
BRANCH  18  20
HETATM   20  O10 UNL     1      -0.573   0.492   9.056  1.00  0.00    -0.775 OA
HETATM   21  H42 UNL     1       0.084  -0.218   8.898  1.00  0.00     0.167 HD
ENDBRANCH  18  20
ENDBRANCH  17  18
ENDBRANCH  16  17
ENDBRANCH   6  16
ENDBRANCH   2   3
ENDBRANCH   1   2
BRANCH   1  22
HETATM   22  N1  UNL     1      -4.233   8.146  15.862  1.00  0.00    -0.348 N 
HETATM   23  C8  UNL     1      -5.002   9.227  15.496  1.00  0.00     0.214 C 
HETATM   24  C9  UNL     1      -4.647  10.507  16.204  1.00  0.00     0.117 C 
HETATM   25  O4  UNL     1      -5.920   9.164  14.685  1.00  0.00    -0.274 OA
HETATM   26  H11 UNL     1      -3.311   8.359  16.228  1.00  0.00     0.163 HD
ENDBRANCH   1  22
BRANCH   1  27
HETATM   27  C10 UNL     1      -5.669   6.242  15.353  1.00  0.00     0.241 C 
HETATM   28  O5  UNL     1      -6.060   5.960  16.485  1.00  0.00    -0.271 OA
HETATM   29  N2  UNL     1      -6.433   6.052  14.221  1.00  0.00    -0.351 N 
HETATM   30  H15 UNL     1      -5.984   6.105  13.316  1.00  0.00     0.163 HD
BRANCH  29  31
HETATM   31  C11 UNL     1      -7.734   5.396  14.268  1.00  0.00     0.113 C 
HETATM   32  C12 UNL     1      -7.808   4.510  15.512  1.00  0.00     0.037 C 
BRANCH  31  33
HETATM   33  C13 UNL     1      -8.824   6.450  14.151  1.00  0.00    -0.035 A 
HETATM   34  C14 UNL     1      -9.766   6.334  13.114  1.00  0.00     0.012 A 
HETATM   35  C15 UNL     1     -10.781   7.282  12.939  1.00  0.00     0.038 A 
HETATM   36  C16 UNL     1     -10.876   8.383  13.793  1.00  0.00     0.084 A 
HETATM   37  C24 UNL     1      -9.941   8.508  14.829  1.00  0.00     0.065 A 
HETATM   38  C26 UNL     1      -8.921   7.557  15.004  1.00  0.00     0.029 A 
BRANCH  36  39
HETATM   39  O6  UNL     1     -11.879   9.311  13.730  1.00  0.00    -0.350 OA
BRANCH  39  40
HETATM   40  C17 UNL     1     -13.111   8.968  14.367  1.00  0.00     0.180 C 
BRANCH  40  41
HETATM   41  C18 UNL     1     -13.516   7.552  13.922  1.00  0.00     0.010 C 
HETATM   42  C19 UNL     1     -14.051   6.733  15.116  1.00  0.00     0.007 C 
HETATM   43  C20 UNL     1     -14.954   5.595  14.655  1.00  0.00     0.000 C 
HETATM   44  C21 UNL     1     -16.190   6.119  13.922  1.00  0.00     0.000 C 
HETATM   45  C22 UNL     1     -15.954   7.445  13.199  1.00  0.00     0.000 C 
HETATM   46  C23 UNL     1     -14.506   7.596  12.744  1.00  0.00     0.007 C 
ENDBRANCH  40  41
ENDBRANCH  39  40
ENDBRANCH  36  39
BRANCH  37  47
HETATM   47  C25 UNL     1      -9.973   9.671  15.742  1.00  0.00     0.252 C 
HETATM   48  N3  UNL     1      -9.424  10.824  15.246  1.00  0.00    -0.366 N 
HETATM   49  H35 UNL     1      -9.306  11.575  15.914  1.00  0.00     0.159 HD
HETATM   50  H36 UNL     1      -8.796  10.797  14.455  1.00  0.00     0.159 HD
HETATM   51  O7  UNL     1     -10.476   9.621  16.853  1.00  0.00    -0.268 OA
ENDBRANCH  37  47
ENDBRANCH  31  33
ENDBRANCH  29  31
ENDBRANCH   1  27
TORSDOF 18
ENDMDL
