MODEL 1
REMARK minimizedAffinity -9.81568432
REMARK CNNscore 0.378489703
REMARK CNNaffinity 6.57223511
REMARK  4 active torsions:
REMARK  status: ('A' for Active; 'I' for Inactive)
REMARK    1  A    between atoms: CL1_1  and  C16_22 
REMARK    2  A    between atoms: C4_5  and  C5_6 
REMARK    3  A    between atoms: C9_10  and  N1_11 
REMARK    4  A    between atoms: N1_11  and  C10_12 
ROOT
HETATM    1  C10 UNL     1      -0.350  52.173 -20.609  1.00  0.00     0.117 A 
HETATM    2  N2  UNL     1       0.286  53.236 -21.132  1.00  0.00    -0.338 N 
ATOM      3  H2  UNL     1       0.092  53.509 -22.096  1.00  0.00     0.168 HD
HETATM    4  C11 UNL     1       1.185  53.955 -20.403  1.00  0.00     0.182 A 
HETATM    5  N3  UNL     1       1.469  53.621 -19.119  1.00  0.00    -0.352 N 
ATOM      6  H3  UNL     1       2.145  54.169 -18.586  1.00  0.00     0.166 HD
HETATM    7  C12 UNL     1       0.849  52.549 -18.542  1.00  0.00     0.047 A 
HETATM    8  C13 UNL     1       1.110  52.173 -17.240  1.00  0.00     0.069 A 
HETATM    9  C14 UNL     1       0.469  51.085 -16.690  1.00  0.00     0.102 A 
HETATM   10  C15 UNL     1      -0.442  50.375 -17.462  1.00  0.00     0.101 A 
HETATM   11  C16 UNL     1      -0.727  50.715 -18.751  1.00  0.00     0.161 A 
HETATM   12  C17 UNL     1      -0.070  51.814 -19.287  1.00  0.00     0.036 A 
HETATM   13  O1  UNL     1      -1.057  49.295 -16.868  1.00  0.00    -0.349 OA
HETATM   14  C18 UNL     1      -0.432  48.506 -15.867  1.00  0.00     0.202 C 
HETATM   15  C19 UNL     1       0.575  49.261 -15.050  1.00  0.00     0.202 C 
HETATM   16  O2  UNL     1       0.668  50.638 -15.400  1.00  0.00    -0.346 OA
ENDROOT
BRANCH   1  17
HETATM   17  N1  UNL     1      -1.291  51.387 -21.326  1.00  0.00    -0.342 N 
HETATM   18  H8  UNL     1      -1.777  50.636 -20.761  1.00  0.00     0.167 HD
BRANCH  17  19
HETATM   19  C9  UNL     1      -1.595  51.553 -22.693  1.00  0.00     0.034 A 
HETATM   20  C8  UNL     1      -2.914  51.728 -23.084  1.00  0.00     0.029 A 
HETATM   21  C7  UNL     1      -3.289  51.892 -24.401  1.00  0.00     0.003 A 
HETATM   22  C6  UNL     1      -2.297  51.878 -25.357  1.00  0.00     0.012 A 
HETATM   23  C5  UNL     1      -0.958  51.705 -24.996  1.00  0.00    -0.024 A 
HETATM   24  C20 UNL     1      -0.642  51.546 -23.662  1.00  0.00     0.041 A 
BRANCH  23  25
HETATM   25  C4  UNL     1       0.011  51.705 -26.069  1.00  0.00    -0.026 A 
HETATM   26  C3  UNL     1      -0.305  51.790 -27.404  1.00  0.00     0.012 A 
HETATM   27  C2  UNL     1       0.681  51.783 -28.381  1.00  0.00     0.001 A 
HETATM   28  C1  UNL     1       2.021  51.693 -28.065  1.00  0.00     0.000 A 
HETATM   29  C22 UNL     1       2.346  51.608 -26.728  1.00  0.00     0.001 A 
HETATM   30  C21 UNL     1       1.368  51.615 -25.764  1.00  0.00     0.012 A 
ENDBRANCH  23  25
ENDBRANCH  17  19
ENDBRANCH   1  17
BRANCH  11  31
HETATM   31 CL1  UNL     1      -1.856  51.941 -18.974  1.00  0.00    -0.219 Cl
HETATM   32  H1  UNL     1      -2.873  52.653 -19.564  1.00  0.00     0.129 HD
ENDBRANCH  11  31
TORSDOF 4
ENDMDL
MODEL 2
REMARK minimizedAffinity -9.22414017
REMARK CNNscore 0.324470997
REMARK CNNaffinity 6.54870176
REMARK  4 active torsions:
REMARK  status: ('A' for Active; 'I' for Inactive)
REMARK    1  A    between atoms: CL1_1  and  C16_22 
REMARK    2  A    between atoms: C4_5  and  C5_6 
REMARK    3  A    between atoms: C9_10  and  N1_11 
REMARK    4  A    between atoms: N1_11  and  C10_12 
ROOT
HETATM    1  C10 UNL     1      -1.195  50.764 -24.059  1.00  0.00     0.117 A 
HETATM    2  N2  UNL     1      -0.705  51.058 -25.276  1.00  0.00    -0.338 N 
ATOM      3  H2  UNL     1      -1.073  50.571 -26.093  1.00  0.00     0.168 HD
HETATM    4  C11 UNL     1       0.272  51.994 -25.441  1.00  0.00     0.182 A 
HETATM    5  N3  UNL     1       0.786  52.662 -24.377  1.00  0.00    -0.352 N 
ATOM      6  H3  UNL     1       1.518  53.360 -24.517  1.00  0.00     0.166 HD
HETATM    7  C12 UNL     1       0.322  52.398 -23.120  1.00  0.00     0.047 A 
HETATM    8  C13 UNL     1       0.818  53.052 -22.010  1.00  0.00     0.069 A 
HETATM    9  C14 UNL     1       0.330  52.759 -20.756  1.00  0.00     0.102 A 
HETATM   10  C15 UNL     1      -0.667  51.801 -20.625  1.00  0.00     0.101 A 
HETATM   11  C16 UNL     1      -1.183  51.133 -21.696  1.00  0.00     0.161 A 
HETATM   12  C17 UNL     1      -0.677  51.442 -22.951  1.00  0.00     0.036 A 
HETATM   13  O1  UNL     1      -1.122  51.543 -19.351  1.00  0.00    -0.349 OA
HETATM   14  C18 UNL     1      -0.301  51.662 -18.199  1.00  0.00     0.202 C 
HETATM   15  C19 UNL     1       0.795  52.675 -18.347  1.00  0.00     0.202 C 
HETATM   16  O2  UNL     1       0.766  53.361 -19.594  1.00  0.00    -0.346 OA
ENDROOT
BRANCH   1  17
HETATM   17  N1  UNL     1      -2.208  49.795 -23.830  1.00  0.00    -0.342 N 
HETATM   18  H8  UNL     1      -2.327  49.493 -22.823  1.00  0.00     0.167 HD
BRANCH  17  19
HETATM   19  C9  UNL     1      -3.026  49.243 -24.837  1.00  0.00     0.034 A 
HETATM   20  C8  UNL     1      -2.540  49.136 -26.132  1.00  0.00     0.029 A 
HETATM   21  C7  UNL     1      -3.282  48.613 -27.170  1.00  0.00     0.003 A 
HETATM   22  C6  UNL     1      -4.561  48.182 -26.892  1.00  0.00     0.012 A 
HETATM   23  C5  UNL     1      -5.080  48.275 -25.597  1.00  0.00    -0.024 A 
HETATM   24  C20 UNL     1      -4.291  48.807 -24.598  1.00  0.00     0.041 A 
BRANCH  23  25
HETATM   25  C4  UNL     1      -6.431  47.797 -25.403  1.00  0.00    -0.026 A 
HETATM   26  C3  UNL     1      -7.273  47.408 -26.417  1.00  0.00     0.012 A 
HETATM   27  C2  UNL     1      -8.560  46.960 -26.153  1.00  0.00     0.001 A 
HETATM   28  C1  UNL     1      -9.057  46.879 -24.869  1.00  0.00     0.000 A 
HETATM   29  C22 UNL     1      -8.218  47.267 -23.847  1.00  0.00     0.001 A 
HETATM   30  C21 UNL     1      -6.945  47.711 -24.110  1.00  0.00     0.012 A 
ENDBRANCH  23  25
ENDBRANCH  17  19
ENDBRANCH   1  17
BRANCH  11  31
HETATM   31 CL1  UNL     1      -2.387  51.922 -22.565  1.00  0.00    -0.219 Cl
HETATM   32  H1  UNL     1      -3.521  52.082 -23.326  1.00  0.00     0.129 HD
ENDBRANCH  11  31
TORSDOF 4
ENDMDL
MODEL 3
REMARK minimizedAffinity -9.06673908
REMARK CNNscore 0.323308587
REMARK CNNaffinity 6.3059535
REMARK  4 active torsions:
REMARK  status: ('A' for Active; 'I' for Inactive)
REMARK    1  A    between atoms: CL1_1  and  C16_22 
REMARK    2  A    between atoms: C4_5  and  C5_6 
REMARK    3  A    between atoms: C9_10  and  N1_11 
REMARK    4  A    between atoms: N1_11  and  C10_12 
ROOT
HETATM    1  C10 UNL     1      -1.020  51.780 -19.656  1.00  0.00     0.117 A 
HETATM    2  N2  UNL     1      -0.540  51.832 -18.401  1.00  0.00    -0.338 N 
ATOM      3  H2  UNL     1      -1.039  51.347 -17.656  1.00  0.00     0.168 HD
HETATM    4  C11 UNL     1       0.600  52.518 -18.105  1.00  0.00     0.182 A 
HETATM    5  N3  UNL     1       1.291  53.174 -19.071  1.00  0.00    -0.352 N 
ATOM      6  H3  UNL     1       2.143  53.684 -18.834  1.00  0.00     0.166 HD
HETATM    7  C12 UNL     1       0.844  53.152 -20.362  1.00  0.00     0.047 A 
HETATM    8  C13 UNL     1       1.514  53.808 -21.374  1.00  0.00     0.069 A 
HETATM    9  C14 UNL     1       1.033  53.767 -22.664  1.00  0.00     0.102 A 
HETATM   10  C15 UNL     1      -0.131  53.058 -22.931  1.00  0.00     0.101 A 
HETATM   11  C16 UNL     1      -0.821  52.397 -21.958  1.00  0.00     0.161 A 
HETATM   12  C17 UNL     1      -0.321  52.451 -20.664  1.00  0.00     0.036 A 
HETATM   13  O1  UNL     1      -0.572  53.047 -24.236  1.00  0.00    -0.349 OA
HETATM   14  C18 UNL     1      -0.352  54.124 -25.134  1.00  0.00     0.202 C 
HETATM   15  C19 UNL     1       0.889  54.912 -24.832  1.00  0.00     0.202 C 
HETATM   16  O2  UNL     1       1.636  54.392 -23.737  1.00  0.00    -0.346 OA
ENDROOT
BRANCH   1  17
HETATM   17  N1  UNL     1      -2.205  51.085 -20.018  1.00  0.00    -0.342 N 
HETATM   18  H8  UNL     1      -3.107  51.517 -19.674  1.00  0.00     0.167 HD
BRANCH  17  19
HETATM   19  C9  UNL     1      -2.233  49.900 -20.782  1.00  0.00     0.034 A 
HETATM   20  C8  UNL     1      -1.701  48.733 -20.255  1.00  0.00     0.029 A 
HETATM   21  C7  UNL     1      -1.687  47.538 -20.942  1.00  0.00     0.003 A 
HETATM   22  C6  UNL     1      -2.230  47.520 -22.209  1.00  0.00     0.012 A 
HETATM   23  C5  UNL     1      -2.775  48.679 -22.769  1.00  0.00    -0.024 A 
HETATM   24  C20 UNL     1      -2.761  49.846 -22.034  1.00  0.00     0.041 A 
BRANCH  23  25
HETATM   25  C4  UNL     1      -3.320  48.562 -24.103  1.00  0.00    -0.026 A 
HETATM   26  C3  UNL     1      -2.572  48.575 -25.255  1.00  0.00     0.012 A 
HETATM   27  C2  UNL     1      -3.167  48.458 -26.504  1.00  0.00     0.001 A 
HETATM   28  C1  UNL     1      -4.532  48.322 -26.653  1.00  0.00     0.000 A 
HETATM   29  C22 UNL     1      -5.290  48.308 -25.501  1.00  0.00     0.001 A 
HETATM   30  C21 UNL     1      -4.698  48.424 -24.267  1.00  0.00     0.012 A 
ENDBRANCH  23  25
ENDBRANCH  17  19
ENDBRANCH   1  17
BRANCH  11  31
HETATM   31 CL1  UNL     1      -0.265  50.864 -21.549  1.00  0.00    -0.219 Cl
HETATM   32  H1  UNL     1      -0.311  49.551 -21.145  1.00  0.00     0.129 HD
ENDBRANCH  11  31
TORSDOF 4
ENDMDL
MODEL 4
REMARK minimizedAffinity -8.61689472
REMARK CNNscore 0.305084229
REMARK CNNaffinity 6.54474831
REMARK  4 active torsions:
REMARK  status: ('A' for Active; 'I' for Inactive)
REMARK    1  A    between atoms: CL1_1  and  C16_22 
REMARK    2  A    between atoms: C4_5  and  C5_6 
REMARK    3  A    between atoms: C9_10  and  N1_11 
REMARK    4  A    between atoms: N1_11  and  C10_12 
ROOT
HETATM    1  C10 UNL     1      -1.064  51.806 -21.419  1.00  0.00     0.117 A 
HETATM    2  N2  UNL     1      -0.071  52.701 -21.288  1.00  0.00    -0.338 N 
ATOM      3  H2  UNL     1       0.122  53.103 -20.371  1.00  0.00     0.168 HD
HETATM    4  C11 UNL     1       0.685  53.084 -22.356  1.00  0.00     0.182 A 
HETATM    5  N3  UNL     1       0.458  52.572 -23.592  1.00  0.00    -0.352 N 
ATOM      6  H3  UNL     1       1.033  52.868 -24.381  1.00  0.00     0.166 HD
HETATM    7  C12 UNL     1      -0.540  51.659 -23.776  1.00  0.00     0.047 A 
HETATM    8  C13 UNL     1      -0.807  51.114 -25.016  1.00  0.00     0.069 A 
HETATM    9  C14 UNL     1      -1.824  50.198 -25.168  1.00  0.00     0.102 A 
HETATM   10  C15 UNL     1      -2.574  49.830 -24.058  1.00  0.00     0.101 A 
HETATM   11  C16 UNL     1      -2.341  50.344 -22.817  1.00  0.00     0.161 A 
HETATM   12  C17 UNL     1      -1.313  51.267 -22.685  1.00  0.00     0.036 A 
HETATM   13  O1  UNL     1      -3.579  48.910 -24.260  1.00  0.00    -0.349 OA
HETATM   14  C18 UNL     1      -4.294  48.804 -25.482  1.00  0.00     0.202 C 
HETATM   15  C19 UNL     1      -3.498  49.229 -26.681  1.00  0.00     0.202 C 
HETATM   16  O2  UNL     1      -2.160  49.604 -26.367  1.00  0.00    -0.346 OA
ENDROOT
BRANCH   1  17
HETATM   17  N1  UNL     1      -1.885  51.376 -20.342  1.00  0.00    -0.342 N 
HETATM   18  H8  UNL     1      -2.927  51.415 -20.523  1.00  0.00     0.167 HD
BRANCH  17  19
HETATM   19  C9  UNL     1      -1.399  50.920 -19.100  1.00  0.00     0.034 A 
HETATM   20  C8  UNL     1      -2.076  49.915 -18.427  1.00  0.00     0.029 A 
HETATM   21  C7  UNL     1      -1.665  49.421 -17.206  1.00  0.00     0.003 A 
HETATM   22  C6  UNL     1      -0.529  49.962 -16.645  1.00  0.00     0.012 A 
HETATM   23  C5  UNL     1       0.178  50.976 -17.298  1.00  0.00    -0.024 A 
HETATM   24  C20 UNL     1      -0.281  51.431 -18.518  1.00  0.00     0.041 A 
BRANCH  23  25
HETATM   25  C4  UNL     1       1.357  51.481 -16.631  1.00  0.00    -0.026 A 
HETATM   26  C3  UNL     1       2.173  52.467 -17.131  1.00  0.00     0.012 A 
HETATM   27  C2  UNL     1       3.291  52.901 -16.432  1.00  0.00     0.001 A 
HETATM   28  C1  UNL     1       3.640  52.369 -15.208  1.00  0.00     0.000 A 
HETATM   29  C22 UNL     1       2.827  51.378 -14.701  1.00  0.00     0.001 A 
HETATM   30  C21 UNL     1       1.720  50.951 -15.394  1.00  0.00     0.012 A 
ENDBRANCH  23  25
ENDBRANCH  17  19
ENDBRANCH   1  17
BRANCH  11  31
HETATM   31 CL1  UNL     1      -1.109  49.629 -21.924  1.00  0.00    -0.219 Cl
HETATM   32  H1  UNL     1      -0.425  49.175 -20.822  1.00  0.00     0.129 HD
ENDBRANCH  11  31
TORSDOF 4
ENDMDL
MODEL 5
REMARK minimizedAffinity -10.1607218
REMARK CNNscore 0.255140007
REMARK CNNaffinity 6.03033829
REMARK  4 active torsions:
REMARK  status: ('A' for Active; 'I' for Inactive)
REMARK    1  A    between atoms: CL1_1  and  C16_22 
REMARK    2  A    between atoms: C4_5  and  C5_6 
REMARK    3  A    between atoms: C9_10  and  N1_11 
REMARK    4  A    between atoms: N1_11  and  C10_12 
ROOT
HETATM    1  C10 UNL     1       0.123  52.754 -25.419  1.00  0.00     0.117 A 
HETATM    2  N2  UNL     1       0.443  54.003 -25.799  1.00  0.00    -0.338 N 
ATOM      3  H2  UNL     1       1.116  54.535 -25.247  1.00  0.00     0.168 HD
HETATM    4  C11 UNL     1      -0.114  54.573 -26.904  1.00  0.00     0.182 A 
HETATM    5  N3  UNL     1      -1.013  53.896 -27.662  1.00  0.00    -0.352 N 
ATOM      6  H3  UNL     1      -1.421  54.337 -28.487  1.00  0.00     0.166 HD
HETATM    7  C12 UNL     1      -1.371  52.624 -27.317  1.00  0.00     0.047 A 
HETATM    8  C13 UNL     1      -2.283  51.900 -28.058  1.00  0.00     0.069 A 
HETATM    9  C14 UNL     1      -2.624  50.620 -27.680  1.00  0.00     0.102 A 
HETATM   10  C15 UNL     1      -2.037  50.069 -26.549  1.00  0.00     0.101 A 
HETATM   11  C16 UNL     1      -1.131  50.752 -25.791  1.00  0.00     0.161 A 
HETATM   12  C17 UNL     1      -0.802  52.041 -26.188  1.00  0.00     0.036 A 
HETATM   13  O1  UNL     1      -2.409  48.787 -26.212  1.00  0.00    -0.349 OA
HETATM   14  C18 UNL     1      -3.698  48.259 -26.490  1.00  0.00     0.202 C 
HETATM   15  C19 UNL     1      -4.349  48.872 -27.695  1.00  0.00     0.202 C 
HETATM   16  O2  UNL     1      -3.525  49.825 -28.359  1.00  0.00    -0.346 OA
ENDROOT
BRANCH   1  17
HETATM   17  N1  UNL     1       0.669  52.114 -24.274  1.00  0.00    -0.342 N 
HETATM   18  H8  UNL     1       0.989  51.117 -24.422  1.00  0.00     0.167 HD
BRANCH  17  19
HETATM   19  C9  UNL     1       0.798  52.720 -23.007  1.00  0.00     0.034 A 
HETATM   20  C8  UNL     1       1.206  54.042 -22.919  1.00  0.00     0.029 A 
HETATM   21  C7  UNL     1       1.361  54.701 -21.717  1.00  0.00     0.003 A 
HETATM   22  C6  UNL     1       1.094  53.998 -20.562  1.00  0.00     0.012 A 
HETATM   23  C5  UNL     1       0.681  52.664 -20.616  1.00  0.00    -0.024 A 
HETATM   24  C20 UNL     1       0.543  52.057 -21.848  1.00  0.00     0.041 A 
BRANCH  23  25
HETATM   25  C4  UNL     1       0.425  52.011 -19.352  1.00  0.00    -0.026 A 
HETATM   26  C3  UNL     1       0.944  52.417 -18.146  1.00  0.00     0.012 A 
HETATM   27  C2  UNL     1       0.654  51.738 -16.971  1.00  0.00     0.001 A 
HETATM   28  C1  UNL     1      -0.166  50.629 -16.951  1.00  0.00     0.000 A 
HETATM   29  C22 UNL     1      -0.692  50.216 -18.156  1.00  0.00     0.001 A 
HETATM   30  C21 UNL     1      -0.403  50.890 -19.318  1.00  0.00     0.012 A 
ENDBRANCH  23  25
ENDBRANCH  17  19
ENDBRANCH   1  17
BRANCH  11  31
HETATM   31 CL1  UNL     1       0.462  50.741 -26.330  1.00  0.00    -0.219 Cl
HETATM   32  H1  UNL     1       1.834  50.744 -26.267  1.00  0.00     0.129 HD
ENDBRANCH  11  31
TORSDOF 4
ENDMDL
MODEL 6
REMARK minimizedAffinity -9.59060287
REMARK CNNscore 0.248530224
REMARK CNNaffinity 6.33609533
REMARK  4 active torsions:
REMARK  status: ('A' for Active; 'I' for Inactive)
REMARK    1  A    between atoms: CL1_1  and  C16_22 
REMARK    2  A    between atoms: C4_5  and  C5_6 
REMARK    3  A    between atoms: C9_10  and  N1_11 
REMARK    4  A    between atoms: N1_11  and  C10_12 
ROOT
HETATM    1  C10 UNL     1      -0.141  51.969 -21.056  1.00  0.00     0.117 A 
HETATM    2  N2  UNL     1       0.330  53.073 -21.661  1.00  0.00    -0.338 N 
ATOM      3  H2  UNL     1       0.140  53.218 -22.652  1.00  0.00     0.168 HD
HETATM    4  C11 UNL     1       1.055  54.002 -20.977  1.00  0.00     0.182 A 
HETATM    5  N3  UNL     1       1.328  53.842 -19.658  1.00  0.00    -0.352 N 
ATOM      6  H3  UNL     1       1.873  54.547 -19.159  1.00  0.00     0.166 HD
HETATM    7  C12 UNL     1       0.872  52.737 -18.998  1.00  0.00     0.047 A 
HETATM    8  C13 UNL     1       1.128  52.534 -17.657  1.00  0.00     0.069 A 
HETATM    9  C14 UNL     1       0.655  51.406 -17.023  1.00  0.00     0.102 A 
HETATM   10  C15 UNL     1      -0.082  50.480 -17.750  1.00  0.00     0.101 A 
HETATM   11  C16 UNL     1      -0.356  50.645 -19.076  1.00  0.00     0.161 A 
HETATM   12  C17 UNL     1       0.130  51.787 -19.696  1.00  0.00     0.036 A 
HETATM   13  O1  UNL     1      -0.533  49.369 -17.072  1.00  0.00    -0.349 OA
HETATM   14  C18 UNL     1       0.167  48.796 -15.977  1.00  0.00     0.202 C 
HETATM   15  C19 UNL     1       0.988  49.787 -15.207  1.00  0.00     0.202 C 
HETATM   16  O2  UNL     1       0.863  51.122 -15.689  1.00  0.00    -0.346 OA
ENDROOT
BRANCH   1  17
HETATM   17  N1  UNL     1      -0.898  50.967 -21.722  1.00  0.00    -0.342 N 
HETATM   18  H8  UNL     1      -1.374  50.265 -21.090  1.00  0.00     0.167 HD
BRANCH  17  19
HETATM   19  C9  UNL     1      -1.037  50.870 -23.121  1.00  0.00     0.034 A 
HETATM   20  C8  UNL     1      -0.117  51.500 -23.946  1.00  0.00     0.029 A 
HETATM   21  C7  UNL     1      -0.190  51.455 -25.322  1.00  0.00     0.003 A 
HETATM   22  C6  UNL     1      -1.231  50.750 -25.887  1.00  0.00     0.012 A 
HETATM   23  C5  UNL     1      -2.175  50.104 -25.084  1.00  0.00    -0.024 A 
HETATM   24  C20 UNL     1      -2.050  50.183 -23.712  1.00  0.00     0.041 A 
BRANCH  23  25
HETATM   25  C4  UNL     1      -3.230  49.389 -25.767  1.00  0.00    -0.026 A 
HETATM   26  C3  UNL     1      -4.297  48.790 -25.143  1.00  0.00     0.012 A 
HETATM   27  C2  UNL     1      -5.273  48.120 -25.866  1.00  0.00     0.001 A 
HETATM   28  C1  UNL     1      -5.224  48.021 -27.241  1.00  0.00     0.000 A 
HETATM   29  C22 UNL     1      -4.157  48.619 -27.876  1.00  0.00     0.001 A 
HETATM   30  C21 UNL     1      -3.192  49.282 -27.156  1.00  0.00     0.012 A 
ENDBRANCH  23  25
ENDBRANCH  17  19
ENDBRANCH   1  17
BRANCH  11  31
HETATM   31 CL1  UNL     1      -1.665  51.629 -19.457  1.00  0.00    -0.219 Cl
HETATM   32  H1  UNL     1      -2.758  52.094 -20.148  1.00  0.00     0.129 HD
ENDBRANCH  11  31
TORSDOF 4
ENDMDL
MODEL 7
REMARK minimizedAffinity -7.72312641
REMARK CNNscore 0.232283816
REMARK CNNaffinity 6.06809616
REMARK  4 active torsions:
REMARK  status: ('A' for Active; 'I' for Inactive)
REMARK    1  A    between atoms: CL1_1  and  C16_22 
REMARK    2  A    between atoms: C4_5  and  C5_6 
REMARK    3  A    between atoms: C9_10  and  N1_11 
REMARK    4  A    between atoms: N1_11  and  C10_12 
ROOT
HETATM    1  C10 UNL     1      -0.588  51.438 -18.254  1.00  0.00     0.117 A 
HETATM    2  N2  UNL     1       0.299  51.921 -17.367  1.00  0.00    -0.338 N 
ATOM      3  H2  UNL     1       0.204  51.675 -16.382  1.00  0.00     0.168 HD
HETATM    4  C11 UNL     1       1.323  52.731 -17.757  1.00  0.00     0.182 A 
HETATM    5  N3  UNL     1       1.481  53.080 -19.059  1.00  0.00    -0.352 N 
ATOM      6  H3  UNL     1       2.253  53.688 -19.335  1.00  0.00     0.166 HD
HETATM    7  C12 UNL     1       0.605  52.616 -19.998  1.00  0.00     0.047 A 
HETATM    8  C13 UNL     1       0.727  52.947 -21.332  1.00  0.00     0.069 A 
HETATM    9  C14 UNL     1      -0.176  52.464 -22.253  1.00  0.00     0.102 A 
HETATM   10  C15 UNL     1      -1.207  51.640 -21.821  1.00  0.00     0.101 A 
HETATM   11  C16 UNL     1      -1.361  51.289 -20.513  1.00  0.00     0.161 A 
HETATM   12  C17 UNL     1      -0.441  51.787 -19.600  1.00  0.00     0.036 A 
HETATM   13  O1  UNL     1      -2.085  51.182 -22.779  1.00  0.00    -0.349 OA
HETATM   14  C18 UNL     1      -2.408  51.922 -23.947  1.00  0.00     0.202 C 
HETATM   15  C19 UNL     1      -1.308  52.837 -24.400  1.00  0.00     0.202 C 
HETATM   16  O2  UNL     1      -0.131  52.743 -23.603  1.00  0.00    -0.346 OA
ENDROOT
BRANCH   1  17
HETATM   17  N1  UNL     1      -1.676  50.595 -17.902  1.00  0.00    -0.342 N 
HETATM   18  H8  UNL     1      -2.353  50.378 -18.685  1.00  0.00     0.167 HD
BRANCH  17  19
HETATM   19  C9  UNL     1      -1.885  50.057 -16.615  1.00  0.00     0.034 A 
HETATM   20  C8  UNL     1      -1.561  48.732 -16.367  1.00  0.00     0.029 A 
HETATM   21  C7  UNL     1      -1.742  48.134 -15.137  1.00  0.00     0.003 A 
HETATM   22  C6  UNL     1      -2.268  48.902 -14.122  1.00  0.00     0.012 A 
HETATM   23  C5  UNL     1      -2.604  50.241 -14.339  1.00  0.00    -0.024 A 
HETATM   24  C20 UNL     1      -2.401  50.786 -15.590  1.00  0.00     0.041 A 
BRANCH  23  25
HETATM   25  C4  UNL     1      -3.149  50.966 -13.212  1.00  0.00    -0.026 A 
HETATM   26  C3  UNL     1      -3.287  52.332 -13.157  1.00  0.00     0.012 A 
HETATM   27  C2  UNL     1      -3.820  52.959 -12.040  1.00  0.00     0.001 A 
HETATM   28  C1  UNL     1      -4.238  52.249 -10.933  1.00  0.00     0.000 A 
HETATM   29  C22 UNL     1      -4.103  50.878 -10.981  1.00  0.00     0.001 A 
HETATM   30  C21 UNL     1      -3.575  50.260 -12.089  1.00  0.00     0.012 A 
ENDBRANCH  23  25
ENDBRANCH  17  19
ENDBRANCH   1  17
BRANCH  11  31
HETATM   31 CL1  UNL     1      -0.425  50.005 -19.962  1.00  0.00    -0.219 Cl
HETATM   32  H1  UNL     1      -0.080  48.894 -19.231  1.00  0.00     0.129 HD
ENDBRANCH  11  31
TORSDOF 4
ENDMDL
MODEL 8
REMARK minimizedAffinity -9.29819679
REMARK CNNscore 0.223982409
REMARK CNNaffinity 6.35067558
REMARK  4 active torsions:
REMARK  status: ('A' for Active; 'I' for Inactive)
REMARK    1  A    between atoms: CL1_1  and  C16_22 
REMARK    2  A    between atoms: C4_5  and  C5_6 
REMARK    3  A    between atoms: C9_10  and  N1_11 
REMARK    4  A    between atoms: N1_11  and  C10_12 
ROOT
HETATM    1  C10 UNL     1      -2.119  50.643 -20.800  1.00  0.00     0.117 A 
HETATM    2  N2  UNL     1      -2.958  49.660 -21.173  1.00  0.00    -0.338 N 
ATOM      3  H2  UNL     1      -3.506  49.769 -22.026  1.00  0.00     0.168 HD
HETATM    4  C11 UNL     1      -3.090  48.522 -20.434  1.00  0.00     0.182 A 
HETATM    5  N3  UNL     1      -2.377  48.343 -19.294  1.00  0.00    -0.352 N 
ATOM      6  H3  UNL     1      -2.488  47.485 -18.752  1.00  0.00     0.166 HD
HETATM    7  C12 UNL     1      -1.512  49.312 -18.872  1.00  0.00     0.047 A 
HETATM    8  C13 UNL     1      -0.770  49.172 -17.718  1.00  0.00     0.069 A 
HETATM    9  C14 UNL     1       0.091  50.171 -17.321  1.00  0.00     0.102 A 
HETATM   10  C15 UNL     1       0.202  51.317 -18.097  1.00  0.00     0.101 A 
HETATM   11  C16 UNL     1      -0.514  51.493 -19.245  1.00  0.00     0.161 A 
HETATM   12  C17 UNL     1      -1.376  50.475 -19.627  1.00  0.00     0.036 A 
HETATM   13  O1  UNL     1       1.075  52.288 -17.659  1.00  0.00    -0.349 OA
HETATM   14  C18 UNL     1       1.355  52.510 -16.285  1.00  0.00     0.202 C 
HETATM   15  C19 UNL     1       1.208  51.282 -15.437  1.00  0.00     0.202 C 
HETATM   16  O2  UNL     1       0.870  50.117 -16.183  1.00  0.00    -0.346 OA
ENDROOT
BRANCH   1  17
HETATM   17  N1  UNL     1      -1.947  51.850 -21.529  1.00  0.00    -0.342 N 
HETATM   18  H8  UNL     1      -1.742  52.707 -20.943  1.00  0.00     0.167 HD
BRANCH  17  19
HETATM   19  C9  UNL     1      -2.031  51.954 -22.932  1.00  0.00     0.034 A 
HETATM   20  C8  UNL     1      -3.263  52.173 -23.529  1.00  0.00     0.029 A 
HETATM   21  C7  UNL     1      -3.426  52.281 -24.895  1.00  0.00     0.003 A 
HETATM   22  C6  UNL     1      -2.304  52.162 -25.686  1.00  0.00     0.012 A 
HETATM   23  C5  UNL     1      -1.047  51.942 -25.115  1.00  0.00    -0.024 A 
HETATM   24  C20 UNL     1      -0.945  51.844 -23.743  1.00  0.00     0.041 A 
BRANCH  23  25
HETATM   25  C4  UNL     1       0.070  51.833 -26.026  1.00  0.00    -0.026 A 
HETATM   26  C3  UNL     1       1.385  51.731 -25.638  1.00  0.00     0.012 A 
HETATM   27  C2  UNL     1       2.406  51.629 -26.572  1.00  0.00     0.001 A 
HETATM   28  C1  UNL     1       2.158  51.624 -27.929  1.00  0.00     0.000 A 
HETATM   29  C22 UNL     1       0.842  51.725 -28.326  1.00  0.00     0.001 A 
HETATM   30  C21 UNL     1      -0.167  51.826 -27.399  1.00  0.00     0.012 A 
ENDBRANCH  23  25
ENDBRANCH  17  19
ENDBRANCH   1  17
BRANCH  11  31
HETATM   31 CL1  UNL     1       0.106  50.779 -20.635  1.00  0.00    -0.219 Cl
HETATM   32  H1  UNL     1       0.395  50.613 -21.968  1.00  0.00     0.129 HD
ENDBRANCH  11  31
TORSDOF 4
ENDMDL
MODEL 9
REMARK minimizedAffinity -8.72502518
REMARK CNNscore 0.179619506
REMARK CNNaffinity 6.20313883
REMARK  4 active torsions:
REMARK  status: ('A' for Active; 'I' for Inactive)
REMARK    1  A    between atoms: CL1_1  and  C16_22 
REMARK    2  A    between atoms: C4_5  and  C5_6 
REMARK    3  A    between atoms: C9_10  and  N1_11 
REMARK    4  A    between atoms: N1_11  and  C10_12 
ROOT
HETATM    1  C10 UNL     1      -1.184  51.444 -23.296  1.00  0.00     0.117 A 
HETATM    2  N2  UNL     1      -0.093  51.977 -23.872  1.00  0.00    -0.338 N 
ATOM      3  H2  UNL     1       0.507  52.596 -23.328  1.00  0.00     0.168 HD
HETATM    4  C11 UNL     1       0.228  51.708 -25.169  1.00  0.00     0.182 A 
HETATM    5  N3  UNL     1      -0.547  50.889 -25.925  1.00  0.00    -0.352 N 
ATOM      6  H3  UNL     1      -0.294  50.697 -26.894  1.00  0.00     0.166 HD
HETATM    7  C12 UNL     1      -1.667  50.323 -25.385  1.00  0.00     0.047 A 
HETATM    8  C13 UNL     1      -2.484  49.487 -26.118  1.00  0.00     0.069 A 
HETATM    9  C14 UNL     1      -3.607  48.936 -25.542  1.00  0.00     0.102 A 
HETATM   10  C15 UNL     1      -3.904  49.231 -24.218  1.00  0.00     0.101 A 
HETATM   11  C16 UNL     1      -3.122  50.052 -23.461  1.00  0.00     0.161 A 
HETATM   12  C17 UNL     1      -1.994  50.598 -24.059  1.00  0.00     0.036 A 
HETATM   13  O1  UNL     1      -5.037  48.656 -23.688  1.00  0.00    -0.349 OA
HETATM   14  C18 UNL     1      -6.185  48.351 -24.467  1.00  0.00     0.202 C 
HETATM   15  C19 UNL     1      -5.873  48.060 -25.905  1.00  0.00     0.202 C 
HETATM   16  O2  UNL     1      -4.480  48.091 -26.199  1.00  0.00    -0.346 OA
ENDROOT
BRANCH   1  17
HETATM   17  N1  UNL     1      -1.567  51.696 -21.951  1.00  0.00    -0.342 N 
HETATM   18  H8  UNL     1      -2.598  51.578 -21.744  1.00  0.00     0.167 HD
BRANCH  17  19
HETATM   19  C9  UNL     1      -0.678  52.075 -20.925  1.00  0.00     0.034 A 
HETATM   20  C8  UNL     1       0.130  53.189 -21.098  1.00  0.00     0.029 A 
HETATM   21  C7  UNL     1       1.028  53.619 -20.143  1.00  0.00     0.003 A 
HETATM   22  C6  UNL     1       1.114  52.898 -18.972  1.00  0.00     0.012 A 
HETATM   23  C5  UNL     1       0.313  51.771 -18.766  1.00  0.00    -0.024 A 
HETATM   24  C20 UNL     1      -0.568  51.388 -19.757  1.00  0.00     0.041 A 
BRANCH  23  25
HETATM   25  C4  UNL     1       0.473  51.081 -17.506  1.00  0.00    -0.026 A 
HETATM   26  C3  UNL     1       1.248  51.531 -16.464  1.00  0.00     0.012 A 
HETATM   27  C2  UNL     1       1.354  50.812 -15.282  1.00  0.00     0.001 A 
HETATM   28  C1  UNL     1       0.693  49.617 -15.091  1.00  0.00     0.000 A 
HETATM   29  C22 UNL     1      -0.085  49.158 -16.132  1.00  0.00     0.001 A 
HETATM   30  C21 UNL     1      -0.190  49.872 -17.301  1.00  0.00     0.012 A 
ENDBRANCH  23  25
ENDBRANCH  17  19
ENDBRANCH   1  17
BRANCH  11  31
HETATM   31 CL1  UNL     1      -1.765  49.355 -22.752  1.00  0.00    -0.219 Cl
HETATM   32  H1  UNL     1      -0.780  49.132 -21.820  1.00  0.00     0.129 HD
ENDBRANCH  11  31
TORSDOF 4
ENDMDL
