MODEL 1
REMARK minimizedAffinity -5.76559353
REMARK  3 active torsions:
REMARK  status: ('A' for Active; 'I' for Inactive)
REMARK    1  A    between atoms: O1_1  and  C1_2 
REMARK    2  A    between atoms: C3_4  and  N1_5 
REMARK    3  A    between atoms: N1_5  and  C4_6 
ROOT
HETATM    1  C1  UNL     1      14.871  34.617  18.110  1.00  0.00     0.144 A 
HETATM    2  C2  UNL     1      13.548  34.324  17.880  1.00  0.00     0.104 A 
HETATM    3  C3  UNL     1      12.727  35.392  17.559  1.00  0.00     0.110 A 
HETATM    4  N2  UNL     1      13.214  36.640  17.469  1.00  0.00    -0.338 N 
ATOM      5  H2  UNL     1      12.616  37.427  17.220  1.00  0.00     0.168 HD
HETATM    6  C10 UNL     1      14.520  36.806  17.722  1.00  0.00     0.183 A 
HETATM    7  N3  UNL     1      15.388  35.845  18.046  1.00  0.00    -0.333 N 
ATOM      8  H3  UNL     1      16.372  36.036  18.231  1.00  0.00     0.168 HD
ENDROOT
BRANCH   3   9
HETATM    9  N1  UNL     1      11.360  35.113  17.313  1.00  0.00    -0.342 N 
HETATM   10  H3  UNL     1      11.265  34.177  16.935  1.00  0.00     0.167 HD
BRANCH   9  11
HETATM   11  C4  UNL     1      10.231  35.468  18.086  1.00  0.00     0.033 A 
HETATM   12  C5  UNL     1       9.106  36.104  17.546  1.00  0.00     0.029 A 
HETATM   13  C6  UNL     1       7.983  36.376  18.334  1.00  0.00     0.002 A 
HETATM   14  C7  UNL     1       7.957  35.993  19.671  1.00  0.00     0.000 A 
HETATM   15  C8  UNL     1       9.050  35.328  20.218  1.00  0.00     0.002 A 
HETATM   16  C9  UNL     1      10.171  35.058  19.427  1.00  0.00     0.029 A 
ENDBRANCH   9  11
ENDBRANCH   3   9
BRANCH   1  17
HETATM   17  O1  UNL     1      15.767  33.639  18.429  1.00  0.00    -0.346 OA
HETATM   18  H1  UNL     1      15.319  32.782  18.385  1.00  0.00     0.219 HD
ENDBRANCH   1  17
TORSDOF 3
ENDMDL
MODEL 2
REMARK minimizedAffinity -5.72068834
REMARK  3 active torsions:
REMARK  status: ('A' for Active; 'I' for Inactive)
REMARK    1  A    between atoms: O1_1  and  C1_2 
REMARK    2  A    between atoms: C3_4  and  N1_5 
REMARK    3  A    between atoms: N1_5  and  C4_6 
ROOT
HETATM    1  C1  UNL     1      12.669  34.520  17.935  1.00  0.00     0.144 A 
HETATM    2  C2  UNL     1      11.404  34.973  18.224  1.00  0.00     0.104 A 
HETATM    3  C3  UNL     1      11.322  36.117  18.999  1.00  0.00     0.110 A 
HETATM    4  N2  UNL     1      12.429  36.747  19.428  1.00  0.00    -0.338 N 
ATOM      5  H2  UNL     1      12.373  37.598  19.988  1.00  0.00     0.168 HD
HETATM    6  C10 UNL     1      13.609  36.208  19.088  1.00  0.00     0.183 A 
HETATM    7  N3  UNL     1      13.790  35.108  18.355  1.00  0.00    -0.333 N 
ATOM      8  H3  UNL     1      14.716  34.744  18.132  1.00  0.00     0.168 HD
ENDROOT
BRANCH   3   9
HETATM    9  N1  UNL     1      10.028  36.606  19.307  1.00  0.00    -0.342 N 
HETATM   10  H3  UNL     1       9.816  37.403  18.718  1.00  0.00     0.167 HD
BRANCH   9  11
HETATM   11  C4  UNL     1       8.859  35.877  19.622  1.00  0.00     0.033 A 
HETATM   12  C5  UNL     1       8.767  35.023  20.727  1.00  0.00     0.029 A 
HETATM   13  C6  UNL     1       7.569  34.373  21.041  1.00  0.00     0.002 A 
HETATM   14  C7  UNL     1       6.433  34.587  20.265  1.00  0.00     0.000 A 
HETATM   15  C8  UNL     1       6.494  35.459  19.183  1.00  0.00     0.002 A 
HETATM   16  C9  UNL     1       7.694  36.107  18.874  1.00  0.00     0.029 A 
ENDBRANCH   9  11
ENDBRANCH   3   9
BRANCH   1  17
HETATM   17  O1  UNL     1      12.863  33.404  17.175  1.00  0.00    -0.346 OA
HETATM   18  H1  UNL     1      12.003  33.088  16.862  1.00  0.00     0.219 HD
ENDBRANCH   1  17
TORSDOF 3
ENDMDL
MODEL 3
REMARK minimizedAffinity -5.68894053
REMARK  3 active torsions:
REMARK  status: ('A' for Active; 'I' for Inactive)
REMARK    1  A    between atoms: O1_1  and  C1_2 
REMARK    2  A    between atoms: C3_4  and  N1_5 
REMARK    3  A    between atoms: N1_5  and  C4_6 
ROOT
HETATM    1  C1  UNL     1       5.019  32.919  17.459  1.00  0.00     0.144 A 
HETATM    2  C2  UNL     1       5.824  33.703  18.250  1.00  0.00     0.104 A 
HETATM    3  C3  UNL     1       5.423  33.866  19.566  1.00  0.00     0.110 A 
HETATM    4  N2  UNL     1       4.311  33.273  20.032  1.00  0.00    -0.338 N 
ATOM      5  H2  UNL     1       4.020  33.379  21.003  1.00  0.00     0.168 HD
HETATM    6  C10 UNL     1       3.602  32.536  19.165  1.00  0.00     0.183 A 
HETATM    7  N3  UNL     1       3.901  32.328  17.881  1.00  0.00    -0.333 N 
ATOM      8  H3  UNL     1       3.317  31.758  17.268  1.00  0.00     0.168 HD
ENDROOT
BRANCH   3   9
HETATM    9  N1  UNL     1       6.239  34.667  20.402  1.00  0.00    -0.342 N 
HETATM   10  H3  UNL     1       6.119  34.384  21.368  1.00  0.00     0.167 HD
BRANCH   9  11
HETATM   11  C4  UNL     1       7.550  35.141  20.168  1.00  0.00     0.033 A 
HETATM   12  C5  UNL     1       8.696  34.456  20.591  1.00  0.00     0.029 A 
HETATM   13  C6  UNL     1       9.975  34.926  20.278  1.00  0.00     0.002 A 
HETATM   14  C7  UNL     1      10.130  36.078  19.513  1.00  0.00     0.000 A 
HETATM   15  C8  UNL     1       9.004  36.754  19.052  1.00  0.00     0.002 A 
HETATM   16  C9  UNL     1       7.727  36.280  19.367  1.00  0.00     0.029 A 
ENDBRANCH   9  11
ENDBRANCH   3   9
BRANCH   1  17
HETATM   17  O1  UNL     1       5.324  32.690  16.149  1.00  0.00    -0.346 OA
HETATM   18  H1  UNL     1       6.180  33.099  15.953  1.00  0.00     0.219 HD
ENDBRANCH   1  17
TORSDOF 3
ENDMDL
MODEL 4
REMARK minimizedAffinity -5.673563
REMARK  3 active torsions:
REMARK  status: ('A' for Active; 'I' for Inactive)
REMARK    1  A    between atoms: O1_1  and  C1_2 
REMARK    2  A    between atoms: C3_4  and  N1_5 
REMARK    3  A    between atoms: N1_5  and  C4_6 
ROOT
HETATM    1  C1  UNL     1       9.927  35.943  17.313  1.00  0.00     0.144 A 
HETATM    2  C2  UNL     1       9.558  36.255  18.600  1.00  0.00     0.104 A 
HETATM    3  C3  UNL     1      10.576  36.307  19.537  1.00  0.00     0.110 A 
HETATM    4  N2  UNL     1      11.853  36.074  19.190  1.00  0.00    -0.338 N 
ATOM      5  H2  UNL     1      12.607  36.125  19.874  1.00  0.00     0.168 HD
HETATM    6  C10 UNL     1      12.091  35.773  17.905  1.00  0.00     0.183 A 
HETATM    7  N3  UNL     1      11.180  35.691  16.933  1.00  0.00    -0.333 N 
ATOM      8  H3  UNL     1      11.425  35.453  15.972  1.00  0.00     0.168 HD
ENDROOT
BRANCH   3   9
HETATM    9  N1  UNL     1      10.220  36.631  20.869  1.00  0.00    -0.342 N 
HETATM   10  H3  UNL     1       9.762  37.535  20.890  1.00  0.00     0.167 HD
BRANCH   9  11
HETATM   11  C4  UNL     1       9.720  35.782  21.883  1.00  0.00     0.033 A 
HETATM   12  C5  UNL     1      10.186  35.813  23.203  1.00  0.00     0.029 A 
HETATM   13  C6  UNL     1       9.616  35.002  24.190  1.00  0.00     0.002 A 
HETATM   14  C7  UNL     1       8.550  34.163  23.877  1.00  0.00     0.000 A 
HETATM   15  C8  UNL     1       8.048  34.144  22.579  1.00  0.00     0.002 A 
HETATM   16  C9  UNL     1       8.621  34.956  21.596  1.00  0.00     0.029 A 
ENDBRANCH   9  11
ENDBRANCH   3   9
BRANCH   1  17
HETATM   17  O1  UNL     1       9.004  35.871  16.311  1.00  0.00    -0.346 OA
HETATM   18  H1  UNL     1       8.142  36.134  16.664  1.00  0.00     0.219 HD
ENDBRANCH   1  17
TORSDOF 3
ENDMDL
MODEL 5
REMARK minimizedAffinity -5.64598131
REMARK  3 active torsions:
REMARK  status: ('A' for Active; 'I' for Inactive)
REMARK    1  A    between atoms: O1_1  and  C1_2 
REMARK    2  A    between atoms: C3_4  and  N1_5 
REMARK    3  A    between atoms: N1_5  and  C4_6 
ROOT
HETATM    1  C1  UNL     1      14.219  37.300  18.130  1.00  0.00     0.144 A 
HETATM    2  C2  UNL     1      13.141  36.471  18.327  1.00  0.00     0.104 A 
HETATM    3  C3  UNL     1      12.508  36.002  17.188  1.00  0.00     0.110 A 
HETATM    4  N2  UNL     1      12.944  36.337  15.963  1.00  0.00    -0.338 N 
ATOM      5  H2  UNL     1      12.490  35.983  15.121  1.00  0.00     0.168 HD
HETATM    6  C10 UNL     1      14.002  37.158  15.894  1.00  0.00     0.183 A 
HETATM    7  N3  UNL     1      14.672  37.668  16.930  1.00  0.00    -0.333 N 
ATOM      8  H3  UNL     1      15.470  38.292  16.813  1.00  0.00     0.168 HD
ENDROOT
BRANCH   3   9
HETATM    9  N1  UNL     1      11.396  35.142  17.367  1.00  0.00    -0.342 N 
HETATM   10  H3  UNL     1      11.714  34.182  17.430  1.00  0.00     0.167 HD
BRANCH   9  11
HETATM   11  C4  UNL     1      10.235  35.348  18.146  1.00  0.00     0.033 A 
HETATM   12  C5  UNL     1      10.116  34.906  19.469  1.00  0.00     0.029 A 
HETATM   13  C6  UNL     1       8.975  35.191  20.227  1.00  0.00     0.002 A 
HETATM   14  C7  UNL     1       7.943  35.946  19.679  1.00  0.00     0.000 A 
HETATM   15  C8  UNL     1       8.056  36.426  18.378  1.00  0.00     0.002 A 
HETATM   16  C9  UNL     1       9.199  36.139  17.624  1.00  0.00     0.029 A 
ENDBRANCH   9  11
ENDBRANCH   3   9
BRANCH   1  17
HETATM   17  O1  UNL     1      14.917  37.814  19.183  1.00  0.00    -0.346 OA
HETATM   18  H1  UNL     1      14.562  37.441  20.002  1.00  0.00     0.219 HD
ENDBRANCH   1  17
TORSDOF 3
ENDMDL
MODEL 6
REMARK minimizedAffinity -5.55619717
REMARK  3 active torsions:
REMARK  status: ('A' for Active; 'I' for Inactive)
REMARK    1  A    between atoms: O1_1  and  C1_2 
REMARK    2  A    between atoms: C3_4  and  N1_5 
REMARK    3  A    between atoms: N1_5  and  C4_6 
ROOT
HETATM    1  C1  UNL     1      -6.631  31.190   2.467  1.00  0.00     0.144 A 
HETATM    2  C2  UNL     1      -6.626  30.742   3.766  1.00  0.00     0.104 A 
HETATM    3  C3  UNL     1      -7.111  29.462   3.978  1.00  0.00     0.110 A 
HETATM    4  N2  UNL     1      -7.548  28.706   2.957  1.00  0.00    -0.338 N 
ATOM      5  H2  UNL     1      -7.892  27.758   3.107  1.00  0.00     0.168 HD
HETATM    6  C10 UNL     1      -7.510  29.253   1.733  1.00  0.00     0.183 A 
HETATM    7  N3  UNL     1      -7.071  30.476   1.430  1.00  0.00    -0.333 N 
ATOM      8  H3  UNL     1      -7.071  30.837   0.476  1.00  0.00     0.168 HD
ENDROOT
BRANCH   3   9
HETATM    9  N1  UNL     1      -7.112  28.977   5.309  1.00  0.00    -0.342 N 
HETATM   10  H3  UNL     1      -6.297  28.393   5.460  1.00  0.00     0.167 HD
BRANCH   9  11
HETATM   11  C4  UNL     1      -7.486  29.648   6.495  1.00  0.00     0.033 A 
HETATM   12  C5  UNL     1      -6.746  29.572   7.681  1.00  0.00     0.029 A 
HETATM   13  C6  UNL     1      -7.115  30.308   8.813  1.00  0.00     0.002 A 
HETATM   14  C7  UNL     1      -8.221  31.152   8.767  1.00  0.00     0.000 A 
HETATM   15  C8  UNL     1      -8.949  31.270   7.588  1.00  0.00     0.002 A 
HETATM   16  C9  UNL     1      -8.576  30.533   6.460  1.00  0.00     0.029 A 
ENDBRANCH   9  11
ENDBRANCH   3   9
BRANCH   1  17
HETATM   17  O1  UNL     1      -6.171  32.433   2.147  1.00  0.00    -0.346 OA
HETATM   18  H1  UNL     1      -5.813  32.847   2.945  1.00  0.00     0.219 HD
ENDBRANCH   1  17
TORSDOF 3
ENDMDL
MODEL 7
REMARK minimizedAffinity -5.46272707
REMARK  3 active torsions:
REMARK  status: ('A' for Active; 'I' for Inactive)
REMARK    1  A    between atoms: O1_1  and  C1_2 
REMARK    2  A    between atoms: C3_4  and  N1_5 
REMARK    3  A    between atoms: N1_5  and  C4_6 
ROOT
HETATM    1  C1  UNL     1      13.831  36.348  18.991  1.00  0.00     0.144 A 
HETATM    2  C2  UNL     1      12.486  36.325  18.709  1.00  0.00     0.104 A 
HETATM    3  C3  UNL     1      12.055  35.336  17.842  1.00  0.00     0.110 A 
HETATM    4  N2  UNL     1      12.914  34.445  17.321  1.00  0.00    -0.338 N 
ATOM      5  H2  UNL     1      12.599  33.706  16.693  1.00  0.00     0.168 HD
HETATM    6  C10 UNL     1      14.205  34.570  17.663  1.00  0.00     0.183 A 
HETATM    7  N3  UNL     1      14.717  35.491  18.481  1.00  0.00    -0.333 N 
ATOM      8  H3  UNL     1      15.712  35.537  18.701  1.00  0.00     0.168 HD
ENDROOT
BRANCH   3   9
HETATM    9  N1  UNL     1      10.671  35.290  17.541  1.00  0.00    -0.342 N 
HETATM   10  H3  UNL     1      10.477  34.490  16.950  1.00  0.00     0.167 HD
BRANCH   9  11
HETATM   11  C4  UNL     1       9.572  35.584  18.380  1.00  0.00     0.033 A 
HETATM   12  C5  UNL     1       8.490  36.372  17.972  1.00  0.00     0.029 A 
HETATM   13  C6  UNL     1       7.390  36.581  18.812  1.00  0.00     0.002 A 
HETATM   14  C7  UNL     1       7.346  35.982  20.068  1.00  0.00     0.000 A 
HETATM   15  C8  UNL     1       8.395  35.166  20.479  1.00  0.00     0.002 A 
HETATM   16  C9  UNL     1       9.491  34.960  19.636  1.00  0.00     0.029 A 
ENDBRANCH   9  11
ENDBRANCH   3   9
BRANCH   1  17
HETATM   17  O1  UNL     1      14.361  37.278  19.837  1.00  0.00    -0.346 OA
HETATM   18  H1  UNL     1      13.639  37.807  20.207  1.00  0.00     0.219 HD
ENDBRANCH   1  17
TORSDOF 3
ENDMDL
MODEL 8
REMARK minimizedAffinity -5.37295723
REMARK  3 active torsions:
REMARK  status: ('A' for Active; 'I' for Inactive)
REMARK    1  A    between atoms: O1_1  and  C1_2 
REMARK    2  A    between atoms: C3_4  and  N1_5 
REMARK    3  A    between atoms: N1_5  and  C4_6 
ROOT
HETATM    1  C1  UNL     1       9.392  35.921  19.662  1.00  0.00     0.144 A 
HETATM    2  C2  UNL     1      10.583  35.527  19.099  1.00  0.00     0.104 A 
HETATM    3  C3  UNL     1      10.621  35.469  17.716  1.00  0.00     0.110 A 
HETATM    4  N2  UNL     1       9.548  35.795  16.977  1.00  0.00    -0.338 N 
ATOM      5  H2  UNL     1       9.576  35.768  15.958  1.00  0.00     0.168 HD
HETATM    6  C10 UNL     1       8.439  36.159  17.637  1.00  0.00     0.183 A 
HETATM    7  N3  UNL     1       8.302  36.237  18.962  1.00  0.00    -0.333 N 
ATOM      8  H3  UNL     1       7.428  36.517  19.407  1.00  0.00     0.168 HD
ENDROOT
BRANCH   3   9
HETATM    9  N1  UNL     1      11.840  35.070  17.113  1.00  0.00    -0.342 N 
HETATM   10  H3  UNL     1      11.857  35.373  16.146  1.00  0.00     0.167 HD
BRANCH   9  11
HETATM   11  C4  UNL     1      13.139  35.059  17.668  1.00  0.00     0.033 A 
HETATM   12  C5  UNL     1      13.779  33.887  18.088  1.00  0.00     0.029 A 
HETATM   13  C6  UNL     1      15.093  33.913  18.568  1.00  0.00     0.002 A 
HETATM   14  C7  UNL     1      15.798  35.112  18.613  1.00  0.00     0.000 A 
HETATM   15  C8  UNL     1      15.193  36.283  18.167  1.00  0.00     0.002 A 
HETATM   16  C9  UNL     1      13.879  36.252  17.687  1.00  0.00     0.029 A 
ENDBRANCH   9  11
ENDBRANCH   3   9
BRANCH   1  17
HETATM   17  O1  UNL     1       9.248  36.016  21.015  1.00  0.00    -0.346 OA
HETATM   18  H1  UNL     1      10.103  35.836  21.432  1.00  0.00     0.219 HD
ENDBRANCH   1  17
TORSDOF 3
ENDMDL
MODEL 9
REMARK minimizedAffinity -5.35746431
REMARK  3 active torsions:
REMARK  status: ('A' for Active; 'I' for Inactive)
REMARK    1  A    between atoms: O1_1  and  C1_2 
REMARK    2  A    between atoms: C3_4  and  N1_5 
REMARK    3  A    between atoms: N1_5  and  C4_6 
ROOT
HETATM    1  C1  UNL     1       8.959  36.293  18.493  1.00  0.00     0.144 A 
HETATM    2  C2  UNL     1       9.985  35.969  17.637  1.00  0.00     0.104 A 
HETATM    3  C3  UNL     1      10.935  35.086  18.121  1.00  0.00     0.110 A 
HETATM    4  N2  UNL     1      10.841  34.571  19.358  1.00  0.00    -0.338 N 
ATOM      5  H2  UNL     1      11.530  33.910  19.713  1.00  0.00     0.168 HD
HETATM    6  C10 UNL     1       9.798  34.965  20.105  1.00  0.00     0.183 A 
HETATM    7  N3  UNL     1       8.839  35.815  19.732  1.00  0.00    -0.333 N 
ATOM      8  H3  UNL     1       8.071  36.079  20.349  1.00  0.00     0.168 HD
ENDROOT
BRANCH   3   9
HETATM    9  N1  UNL     1      12.000  34.735  17.254  1.00  0.00    -0.342 N 
HETATM   10  H3  UNL     1      11.770  35.003  16.304  1.00  0.00     0.167 HD
BRANCH   9  11
HETATM   11  C4  UNL     1      13.392  34.817  17.485  1.00  0.00     0.033 A 
HETATM   12  C5  UNL     1      14.076  33.947  18.343  1.00  0.00     0.029 A 
HETATM   13  C6  UNL     1      15.465  34.020  18.490  1.00  0.00     0.002 A 
HETATM   14  C7  UNL     1      16.198  34.952  17.760  1.00  0.00     0.000 A 
HETATM   15  C8  UNL     1      15.542  35.802  16.876  1.00  0.00     0.002 A 
HETATM   16  C9  UNL     1      14.153  35.725  16.732  1.00  0.00     0.029 A 
ENDBRANCH   9  11
ENDBRANCH   3   9
BRANCH   1  17
HETATM   17  O1  UNL     1       7.967  37.149  18.115  1.00  0.00    -0.346 OA
HETATM   18  H1  UNL     1       8.100  37.388  17.187  1.00  0.00     0.219 HD
ENDBRANCH   1  17
TORSDOF 3
ENDMDL
