MODEL 1
REMARK minimizedAffinity -9.97343063
REMARK CNNscore 0.870204628
REMARK CNNaffinity 8.17769718
REMARK  9 active torsions:
REMARK  status: ('A' for Active; 'I' for Inactive)
REMARK    1  A    between atoms: N1_2  and  C3_4 
REMARK    2  A    between atoms: C3_4  and  C4_5 
REMARK    3  A    between atoms: C4_5  and  C5_6 
REMARK    4  A    between atoms: C5_6  and  C6_7 
REMARK    5  A    between atoms: C7_8  and  C8_9 
REMARK    6  A    between atoms: C14_17  and  S1_18 
REMARK    7  A    between atoms: S1_18  and  N3_21 
REMARK    8  A    between atoms: N3_21  and  C15_22 
REMARK    9  A    between atoms: C15_22  and  C16_23 
ROOT
HETATM    1  C8  UNL     1      -6.397   5.560  13.438  1.00  0.00     0.048 C 
HETATM    2  C9  UNL     1      -6.269   4.329  12.914  1.00  0.00     0.047 A 
HETATM    3  C10 UNL     1      -7.293   3.258  12.625  1.00  0.00     0.257 A 
HETATM    4  O1  UNL     1      -8.498   3.298  12.789  1.00  0.00    -0.267 OA
HETATM    5  N2  UNL     1      -6.580   2.191  12.106  1.00  0.00    -0.322 N 
HETATM    6  C11 UNL     1      -5.223   2.479  12.023  1.00  0.00     0.046 A 
HETATM    7  C12 UNL     1      -4.232   1.643  11.547  1.00  0.00     0.032 A 
HETATM    8  C13 UNL     1      -2.926   2.138  11.535  1.00  0.00     0.027 A 
HETATM    9  C14 UNL     1      -2.660   3.446  11.991  1.00  0.00     0.080 A 
HETATM   10  C22 UNL     1      -3.677   4.274  12.489  1.00  0.00     0.040 A 
HETATM   11  C23 UNL     1      -4.968   3.771  12.496  1.00  0.00     0.008 A 
HETATM   12  H14 UNL     1      -7.025   1.337  11.812  1.00  0.00     0.169 HD
ENDROOT
BRANCH   1  13
HETATM   13  C7  UNL     1      -7.561   6.247  13.890  1.00  0.00     0.040 A 
HETATM   14  C6  UNL     1      -7.723   7.208  14.895  1.00  0.00    -0.023 A 
HETATM   15  C25 UNL     1      -9.103   7.576  14.900  1.00  0.00    -0.027 A 
HETATM   16  C24 UNL     1      -9.728   6.837  13.921  1.00  0.00     0.016 A 
HETATM   17  C26 UNL     1      -9.851   8.541  15.762  1.00  0.00     0.041 C 
HETATM   18  N4  UNL     1      -8.797   6.039  13.320  1.00  0.00    -0.359 N 
HETATM   19  C29 UNL     1     -11.162   6.903  13.536  1.00  0.00     0.057 C 
HETATM   20  H25 UNL     1      -9.001   5.387  12.567  1.00  0.00     0.166 HD
HETATM   21  C28 UNL     1     -11.958   7.658  14.618  1.00  0.00     0.006 C 
HETATM   22  C27 UNL     1     -11.212   8.902  15.136  1.00  0.00     0.005 C 
BRANCH  14  23
HETATM   23  C5  UNL     1      -6.663   7.778  15.798  1.00  0.00     0.043 C 
BRANCH  23  24
HETATM   24  C4  UNL     1      -5.759   8.816  15.126  1.00  0.00     0.035 C 
BRANCH  24  25
HETATM   25  C3  UNL     1      -4.298   8.828  15.604  1.00  0.00     0.271 C 
BRANCH  25  26
HETATM   26  N1  UNL     1      -3.343   8.236  14.648  1.00  0.00     0.080 N 
HETATM   27  C1  UNL     1      -3.830   8.264  13.272  1.00  0.00     0.309 C 
HETATM   28  C2  UNL     1      -3.047   6.852  15.038  1.00  0.00     0.309 C 
ENDBRANCH  25  26
ENDBRANCH  24  25
ENDBRANCH  23  24
ENDBRANCH  14  23
ENDBRANCH   1  13
BRANCH   9  29
HETATM   29  S1  UNL     1      -0.993   4.070  11.959  1.00  0.00     0.259 S 
HETATM   30  O2  UNL     1      -0.628   4.394  13.319  1.00  0.00    -0.201 OA
HETATM   31  O3  UNL     1      -0.200   3.183  11.139  1.00  0.00    -0.201 OA
BRANCH  29  32
HETATM   32  N3  UNL     1      -1.165   5.515  11.142  1.00  0.00    -0.311 N 
HETATM   33  H17 UNL     1      -1.605   5.461  10.226  1.00  0.00     0.172 HD
BRANCH  32  34
HETATM   34  C15 UNL     1      -0.267   6.621  11.434  1.00  0.00     0.170 C 
BRANCH  34  35
HETATM   35  C16 UNL     1       0.523   7.025  10.213  1.00  0.00    -0.040 A 
HETATM   36  C17 UNL     1       0.134   8.127   9.431  1.00  0.00     0.012 A 
HETATM   37  C18 UNL     1       0.871   8.487   8.301  1.00  0.00     0.043 A 
HETATM   38  C19 UNL     1       1.995   7.747   7.951  1.00  0.00     0.116 A 
HETATM   39  F1  UNL     1       2.698   8.095   6.865  1.00  0.00    -0.206 F 
HETATM   40  C20 UNL     1       2.399   6.656   8.711  1.00  0.00     0.043 A 
HETATM   41  C21 UNL     1       1.664   6.293   9.840  1.00  0.00     0.012 A 
ENDBRANCH  34  35
ENDBRANCH  32  34
ENDBRANCH  29  32
ENDBRANCH   9  29
TORSDOF 9
ENDMDL
MODEL 2
REMARK minimizedAffinity -9.19553852
REMARK CNNscore 0.257907629
REMARK CNNaffinity 7.29683113
REMARK  9 active torsions:
REMARK  status: ('A' for Active; 'I' for Inactive)
REMARK    1  A    between atoms: N1_2  and  C3_4 
REMARK    2  A    between atoms: C3_4  and  C4_5 
REMARK    3  A    between atoms: C4_5  and  C5_6 
REMARK    4  A    between atoms: C5_6  and  C6_7 
REMARK    5  A    between atoms: C7_8  and  C8_9 
REMARK    6  A    between atoms: C14_17  and  S1_18 
REMARK    7  A    between atoms: S1_18  and  N3_21 
REMARK    8  A    between atoms: N3_21  and  C15_22 
REMARK    9  A    between atoms: C15_22  and  C16_23 
ROOT
HETATM    1  C8  UNL     1      -1.949   5.175  11.975  1.00  0.00     0.048 C 
HETATM    2  C9  UNL     1      -2.398   3.939  11.698  1.00  0.00     0.047 A 
HETATM    3  C10 UNL     1      -1.682   2.708  11.196  1.00  0.00     0.257 A 
HETATM    4  O1  UNL     1      -0.499   2.567  10.951  1.00  0.00    -0.267 OA
HETATM    5  N2  UNL     1      -2.658   1.733  11.075  1.00  0.00    -0.322 N 
HETATM    6  C11 UNL     1      -3.904   2.210  11.461  1.00  0.00     0.046 A 
HETATM    7  C12 UNL     1      -5.090   1.502  11.472  1.00  0.00     0.032 A 
HETATM    8  C13 UNL     1      -6.233   2.171  11.915  1.00  0.00     0.027 A 
HETATM    9  C14 UNL     1      -6.149   3.515  12.335  1.00  0.00     0.080 A 
HETATM   10  C22 UNL     1      -4.939   4.224  12.299  1.00  0.00     0.040 A 
HETATM   11  C23 UNL     1      -3.813   3.550  11.857  1.00  0.00     0.008 A 
HETATM   12  H14 UNL     1      -2.449   0.797  10.768  1.00  0.00     0.169 HD
ENDROOT
BRANCH   1  13
HETATM   13  C7  UNL     1      -0.633   5.715  11.878  1.00  0.00     0.040 A 
HETATM   14  C6  UNL     1       0.217   6.233  12.861  1.00  0.00    -0.023 A 
HETATM   15  C25 UNL     1       1.430   6.607  12.208  1.00  0.00    -0.027 A 
HETATM   16  C24 UNL     1       1.282   6.316  10.871  1.00  0.00     0.016 A 
HETATM   17  C26 UNL     1       2.679   7.223  12.750  1.00  0.00     0.041 C 
HETATM   18  N4  UNL     1       0.040   5.783  10.679  1.00  0.00    -0.359 N 
HETATM   19  C29 UNL     1       2.298   6.503   9.802  1.00  0.00     0.057 C 
HETATM   20  H25 UNL     1      -0.325   5.488   9.777  1.00  0.00     0.166 HD
HETATM   21  C28 UNL     1       3.435   7.406  10.316  1.00  0.00     0.006 C 
HETATM   22  C27 UNL     1       3.850   7.064  11.760  1.00  0.00     0.005 C 
BRANCH  14  23
HETATM   23  C5  UNL     1      -0.059   6.365  14.335  1.00  0.00     0.043 C 
BRANCH  23  24
HETATM   24  C4  UNL     1      -1.409   7.007  14.665  1.00  0.00     0.035 C 
BRANCH  24  25
HETATM   25  C3  UNL     1      -1.364   8.509  14.992  1.00  0.00     0.271 C 
BRANCH  25  26
HETATM   26  N1  UNL     1      -1.345   9.386  13.807  1.00  0.00     0.080 N 
HETATM   27  C1  UNL     1      -1.565  10.792  14.139  1.00  0.00     0.309 C 
HETATM   28  C2  UNL     1      -2.362   8.942  12.846  1.00  0.00     0.309 C 
ENDBRANCH  25  26
ENDBRANCH  24  25
ENDBRANCH  23  24
ENDBRANCH  14  23
ENDBRANCH   1  13
BRANCH   9  29
HETATM   29  S1  UNL     1      -7.611   4.352  12.910  1.00  0.00     0.259 S 
HETATM   30  O2  UNL     1      -8.099   5.166  11.819  1.00  0.00    -0.201 OA
HETATM   31  O3  UNL     1      -8.447   3.383  13.580  1.00  0.00    -0.201 OA
BRANCH  29  32
HETATM   32  N3  UNL     1      -7.001   5.394  14.060  1.00  0.00    -0.311 N 
HETATM   33  H17 UNL     1      -5.986   5.474  14.099  1.00  0.00     0.172 HD
BRANCH  32  34
HETATM   34  C15 UNL     1      -7.781   5.695  15.251  1.00  0.00     0.170 C 
BRANCH  34  35
HETATM   35  C16 UNL     1      -8.581   6.964  15.077  1.00  0.00    -0.040 A 
HETATM   36  C17 UNL     1      -8.033   8.215  15.410  1.00  0.00     0.012 A 
HETATM   37  C18 UNL     1      -8.785   9.380  15.248  1.00  0.00     0.043 A 
HETATM   38  C19 UNL     1     -10.083   9.297  14.757  1.00  0.00     0.116 A 
HETATM   39  F1  UNL     1     -10.802  10.417  14.606  1.00  0.00    -0.206 F 
HETATM   40  C20 UNL     1     -10.644   8.070  14.420  1.00  0.00     0.043 A 
HETATM   41  C21 UNL     1      -9.895   6.903  14.580  1.00  0.00     0.012 A 
ENDBRANCH  34  35
ENDBRANCH  32  34
ENDBRANCH  29  32
ENDBRANCH   9  29
TORSDOF 9
ENDMDL
MODEL 3
REMARK minimizedAffinity -9.41526127
REMARK CNNscore 0.254912496
REMARK CNNaffinity 7.43229818
REMARK  9 active torsions:
REMARK  status: ('A' for Active; 'I' for Inactive)
REMARK    1  A    between atoms: N1_2  and  C3_4 
REMARK    2  A    between atoms: C3_4  and  C4_5 
REMARK    3  A    between atoms: C4_5  and  C5_6 
REMARK    4  A    between atoms: C5_6  and  C6_7 
REMARK    5  A    between atoms: C7_8  and  C8_9 
REMARK    6  A    between atoms: C14_17  and  S1_18 
REMARK    7  A    between atoms: S1_18  and  N3_21 
REMARK    8  A    between atoms: N3_21  and  C15_22 
REMARK    9  A    between atoms: C15_22  and  C16_23 
ROOT
HETATM    1  C8  UNL     1      -1.992   5.089  11.984  1.00  0.00     0.048 C 
HETATM    2  C9  UNL     1      -2.418   3.843  11.717  1.00  0.00     0.047 A 
HETATM    3  C10 UNL     1      -1.673   2.615  11.252  1.00  0.00     0.257 A 
HETATM    4  O1  UNL     1      -0.482   2.486  11.038  1.00  0.00    -0.267 OA
HETATM    5  N2  UNL     1      -2.632   1.624  11.123  1.00  0.00    -0.322 N 
HETATM    6  C11 UNL     1      -3.893   2.090  11.471  1.00  0.00     0.046 A 
HETATM    7  C12 UNL     1      -5.070   1.365  11.465  1.00  0.00     0.032 A 
HETATM    8  C13 UNL     1      -6.232   2.025  11.869  1.00  0.00     0.027 A 
HETATM    9  C14 UNL     1      -6.177   3.376  12.270  1.00  0.00     0.080 A 
HETATM   10  C22 UNL     1      -4.976   4.102  12.252  1.00  0.00     0.040 A 
HETATM   11  C23 UNL     1      -3.831   3.436  11.848  1.00  0.00     0.008 A 
HETATM   12  H14 UNL     1      -2.403   0.687  10.837  1.00  0.00     0.169 HD
ENDROOT
BRANCH   1  13
HETATM   13  C7  UNL     1      -0.682   5.646  11.911  1.00  0.00     0.040 A 
HETATM   14  C6  UNL     1       0.116   6.238  12.896  1.00  0.00    -0.023 A 
HETATM   15  C25 UNL     1       1.351   6.594  12.273  1.00  0.00    -0.027 A 
HETATM   16  C24 UNL     1       1.265   6.220  10.952  1.00  0.00     0.016 A 
HETATM   17  C26 UNL     1       2.565   7.264  12.829  1.00  0.00     0.041 C 
HETATM   18  N4  UNL     1       0.041   5.654  10.740  1.00  0.00    -0.359 N 
HETATM   19  C29 UNL     1       2.324   6.361   9.917  1.00  0.00     0.057 C 
HETATM   20  H25 UNL     1      -0.279   5.298   9.843  1.00  0.00     0.166 HD
HETATM   21  C28 UNL     1       3.424   7.313  10.423  1.00  0.00     0.006 C 
HETATM   22  C27 UNL     1       3.780   7.067  11.902  1.00  0.00     0.005 C 
BRANCH  14  23
HETATM   23  C5  UNL     1      -0.226   6.454  14.346  1.00  0.00     0.043 C 
BRANCH  23  24
HETATM   24  C4  UNL     1      -0.664   7.882  14.681  1.00  0.00     0.035 C 
BRANCH  24  25
HETATM   25  C3  UNL     1      -0.373   8.343  16.119  1.00  0.00     0.271 C 
BRANCH  25  26
HETATM   26  N1  UNL     1       0.610   9.438  16.217  1.00  0.00     0.080 N 
HETATM   27  C1  UNL     1       1.981   8.957  16.361  1.00  0.00     0.309 C 
HETATM   28  C2  UNL     1       0.270  10.307  17.351  1.00  0.00     0.309 C 
ENDBRANCH  25  26
ENDBRANCH  24  25
ENDBRANCH  23  24
ENDBRANCH  14  23
ENDBRANCH   1  13
BRANCH   9  29
HETATM   29  S1  UNL     1      -7.664   4.202  12.795  1.00  0.00     0.259 S 
HETATM   30  O2  UNL     1      -8.001   5.172  11.778  1.00  0.00    -0.201 OA
HETATM   31  O3  UNL     1      -8.601   3.196  13.239  1.00  0.00    -0.201 OA
BRANCH  29  32
HETATM   32  N3  UNL     1      -7.148   5.056  14.132  1.00  0.00    -0.311 N 
HETATM   33  H17 UNL     1      -6.893   4.501  14.947  1.00  0.00     0.172 HD
BRANCH  32  34
HETATM   34  C15 UNL     1      -7.575   6.434  14.319  1.00  0.00     0.170 C 
BRANCH  34  35
HETATM   35  C16 UNL     1      -6.398   7.380  14.313  1.00  0.00    -0.040 A 
HETATM   36  C17 UNL     1      -5.465   7.365  13.262  1.00  0.00     0.012 A 
HETATM   37  C18 UNL     1      -4.378   8.242  13.271  1.00  0.00     0.043 A 
HETATM   38  C19 UNL     1      -4.223   9.132  14.328  1.00  0.00     0.116 A 
HETATM   39  F1  UNL     1      -3.178   9.970  14.333  1.00  0.00    -0.206 F 
HETATM   40  C20 UNL     1      -5.136   9.165  15.375  1.00  0.00     0.043 A 
HETATM   41  C21 UNL     1      -6.222   8.289  15.370  1.00  0.00     0.012 A 
ENDBRANCH  34  35
ENDBRANCH  32  34
ENDBRANCH  29  32
ENDBRANCH   9  29
TORSDOF 9
ENDMDL
MODEL 4
REMARK minimizedAffinity -8.13416862
REMARK CNNscore 0.224826589
REMARK CNNaffinity 6.91004896
REMARK  9 active torsions:
REMARK  status: ('A' for Active; 'I' for Inactive)
REMARK    1  A    between atoms: N1_2  and  C3_4 
REMARK    2  A    between atoms: C3_4  and  C4_5 
REMARK    3  A    between atoms: C4_5  and  C5_6 
REMARK    4  A    between atoms: C5_6  and  C6_7 
REMARK    5  A    between atoms: C7_8  and  C8_9 
REMARK    6  A    between atoms: C14_17  and  S1_18 
REMARK    7  A    between atoms: S1_18  and  N3_21 
REMARK    8  A    between atoms: N3_21  and  C15_22 
REMARK    9  A    between atoms: C15_22  and  C16_23 
ROOT
HETATM    1  C8  UNL     1      -8.929   7.064  14.928  1.00  0.00     0.048 C 
HETATM    2  C9  UNL     1     -10.091   7.595  14.511  1.00  0.00     0.047 A 
HETATM    3  C10 UNL     1     -10.823   7.480  13.195  1.00  0.00     0.257 A 
HETATM    4  O1  UNL     1     -10.514   6.838  12.210  1.00  0.00    -0.267 OA
HETATM    5  N2  UNL     1     -11.959   8.260  13.333  1.00  0.00    -0.322 N 
HETATM    6  C11 UNL     1     -12.029   8.838  14.594  1.00  0.00     0.046 A 
HETATM    7  C12 UNL     1     -13.031   9.665  15.066  1.00  0.00     0.032 A 
HETATM    8  C13 UNL     1     -12.914  10.128  16.378  1.00  0.00     0.027 A 
HETATM    9  C14 UNL     1     -11.812   9.745  17.170  1.00  0.00     0.080 A 
HETATM   10  C22 UNL     1     -10.795   8.920  16.667  1.00  0.00     0.040 A 
HETATM   11  C23 UNL     1     -10.921   8.468  15.364  1.00  0.00     0.008 A 
HETATM   12  H14 UNL     1     -12.642   8.351  12.598  1.00  0.00     0.169 HD
ENDROOT
BRANCH   1  13
HETATM   13  C7  UNL     1      -8.013   6.212  14.244  1.00  0.00     0.040 A 
HETATM   14  C6  UNL     1      -6.695   6.434  13.828  1.00  0.00    -0.023 A 
HETATM   15  C25 UNL     1      -6.243   5.226  13.216  1.00  0.00    -0.027 A 
HETATM   16  C24 UNL     1      -7.282   4.325  13.271  1.00  0.00     0.016 A 
HETATM   17  C26 UNL     1      -4.934   4.885  12.582  1.00  0.00     0.041 C 
HETATM   18  N4  UNL     1      -8.343   4.924  13.887  1.00  0.00    -0.359 N 
HETATM   19  C29 UNL     1      -7.269   2.920  12.785  1.00  0.00     0.057 C 
HETATM   20  H25 UNL     1      -9.241   4.476  14.049  1.00  0.00     0.166 HD
HETATM   21  C28 UNL     1      -6.044   2.694  11.878  1.00  0.00     0.006 C 
HETATM   22  C27 UNL     1      -4.770   3.360  12.433  1.00  0.00     0.005 C 
BRANCH  14  23
HETATM   23  C5  UNL     1      -5.878   7.686  13.998  1.00  0.00     0.043 C 
BRANCH  23  24
HETATM   24  C4  UNL     1      -4.376   7.489  13.779  1.00  0.00     0.035 C 
BRANCH  24  25
HETATM   25  C3  UNL     1      -3.552   7.221  15.049  1.00  0.00     0.271 C 
BRANCH  25  26
HETATM   26  N1  UNL     1      -2.111   7.022  14.805  1.00  0.00     0.080 N 
HETATM   27  C1  UNL     1      -1.635   7.726  13.617  1.00  0.00     0.309 C 
HETATM   28  C2  UNL     1      -1.825   5.588  14.676  1.00  0.00     0.309 C 
ENDBRANCH  25  26
ENDBRANCH  24  25
ENDBRANCH  23  24
ENDBRANCH  14  23
ENDBRANCH   1  13
BRANCH   9  29
HETATM   29  S1  UNL     1     -11.682  10.331  18.846  1.00  0.00     0.259 S 
HETATM   30  O2  UNL     1     -12.958  10.912  19.199  1.00  0.00    -0.201 OA
HETATM   31  O3  UNL     1     -11.065   9.291  19.637  1.00  0.00    -0.201 OA
BRANCH  29  32
HETATM   32  N3  UNL     1     -10.596  11.589  18.705  1.00  0.00    -0.311 N 
HETATM   33  H17 UNL     1      -9.675  11.346  18.345  1.00  0.00     0.172 HD
BRANCH  32  34
HETATM   34  C15 UNL     1     -10.743  12.769  19.543  1.00  0.00     0.170 C 
BRANCH  34  35
HETATM   35  C16 UNL     1      -9.618  12.874  20.545  1.00  0.00    -0.040 A 
HETATM   36  C17 UNL     1      -9.793  12.456  21.876  1.00  0.00     0.012 A 
HETATM   37  C18 UNL     1      -8.747  12.562  22.793  1.00  0.00     0.043 A 
HETATM   38  C19 UNL     1      -7.526  13.086  22.383  1.00  0.00     0.116 A 
HETATM   39  F1  UNL     1      -6.525  13.188  23.267  1.00  0.00    -0.206 F 
HETATM   40  C20 UNL     1      -7.330  13.503  21.072  1.00  0.00     0.043 A 
HETATM   41  C21 UNL     1      -8.374  13.399  20.152  1.00  0.00     0.012 A 
ENDBRANCH  34  35
ENDBRANCH  32  34
ENDBRANCH  29  32
ENDBRANCH   9  29
TORSDOF 9
ENDMDL
MODEL 5
REMARK minimizedAffinity -8.55292702
REMARK CNNscore 0.178668886
REMARK CNNaffinity 7.05496788
REMARK  9 active torsions:
REMARK  status: ('A' for Active; 'I' for Inactive)
REMARK    1  A    between atoms: N1_2  and  C3_4 
REMARK    2  A    between atoms: C3_4  and  C4_5 
REMARK    3  A    between atoms: C4_5  and  C5_6 
REMARK    4  A    between atoms: C5_6  and  C6_7 
REMARK    5  A    between atoms: C7_8  and  C8_9 
REMARK    6  A    between atoms: C14_17  and  S1_18 
REMARK    7  A    between atoms: S1_18  and  N3_21 
REMARK    8  A    between atoms: N3_21  and  C15_22 
REMARK    9  A    between atoms: C15_22  and  C16_23 
ROOT
HETATM    1  C8  UNL     1      -8.961   7.103  14.859  1.00  0.00     0.048 C 
HETATM    2  C9  UNL     1     -10.135   7.562  14.392  1.00  0.00     0.047 A 
HETATM    3  C10 UNL     1     -10.820   7.369  13.060  1.00  0.00     0.257 A 
HETATM    4  O1  UNL     1     -10.450   6.712  12.105  1.00  0.00    -0.267 OA
HETATM    5  N2  UNL     1     -11.997   8.094  13.139  1.00  0.00    -0.322 N 
HETATM    6  C11 UNL     1     -12.134   8.708  14.377  1.00  0.00     0.046 A 
HETATM    7  C12 UNL     1     -13.189   9.497  14.794  1.00  0.00     0.032 A 
HETATM    8  C13 UNL     1     -13.135  10.007  16.093  1.00  0.00     0.027 A 
HETATM    9  C14 UNL     1     -12.040   9.704  16.928  1.00  0.00     0.080 A 
HETATM   10  C22 UNL     1     -10.968   8.916  16.482  1.00  0.00     0.040 A 
HETATM   11  C23 UNL     1     -11.032   8.419  15.191  1.00  0.00     0.008 A 
HETATM   12  H14 UNL     1     -12.660   8.128  12.383  1.00  0.00     0.169 HD
ENDROOT
BRANCH   1  13
HETATM   13  C7  UNL     1      -7.984   6.278  14.231  1.00  0.00     0.040 A 
HETATM   14  C6  UNL     1      -6.613   6.476  14.028  1.00  0.00    -0.023 A 
HETATM   15  C25 UNL     1      -6.116   5.311  13.369  1.00  0.00    -0.027 A 
HETATM   16  C24 UNL     1      -7.181   4.457  13.189  1.00  0.00     0.016 A 
HETATM   17  C26 UNL     1      -4.741   4.971  12.895  1.00  0.00     0.041 C 
HETATM   18  N4  UNL     1      -8.300   5.045  13.706  1.00  0.00    -0.359 N 
HETATM   19  C29 UNL     1      -7.143   3.104  12.574  1.00  0.00     0.057 C 
HETATM   20  H25 UNL     1      -9.226   4.626  13.694  1.00  0.00     0.166 HD
HETATM   21  C28 UNL     1      -5.808   2.908  11.830  1.00  0.00     0.006 C 
HETATM   22  C27 UNL     1      -4.607   3.460  12.621  1.00  0.00     0.005 C 
BRANCH  14  23
HETATM   23  C5  UNL     1      -5.789   7.669  14.434  1.00  0.00     0.043 C 
BRANCH  23  24
HETATM   24  C4  UNL     1      -5.013   8.315  13.284  1.00  0.00     0.035 C 
BRANCH  24  25
HETATM   25  C3  UNL     1      -3.570   8.732  13.613  1.00  0.00     0.271 C 
BRANCH  25  26
HETATM   26  N1  UNL     1      -2.540   8.012  12.840  1.00  0.00     0.080 N 
HETATM   27  C1  UNL     1      -1.704   7.153  13.674  1.00  0.00     0.309 C 
HETATM   28  C2  UNL     1      -1.696   8.976  12.124  1.00  0.00     0.309 C 
ENDBRANCH  25  26
ENDBRANCH  24  25
ENDBRANCH  23  24
ENDBRANCH  14  23
ENDBRANCH   1  13
BRANCH   9  29
HETATM   29  S1  UNL     1     -11.991  10.349  18.587  1.00  0.00     0.259 S 
HETATM   30  O2  UNL     1     -10.795  11.153  18.702  1.00  0.00    -0.201 OA
HETATM   31  O3  UNL     1     -13.301  10.871  18.902  1.00  0.00    -0.201 OA
BRANCH  29  32
HETATM   32  N3  UNL     1     -11.746   8.975  19.500  1.00  0.00    -0.311 N 
HETATM   33  H17 UNL     1     -11.109   8.285  19.108  1.00  0.00     0.172 HD
BRANCH  32  34
HETATM   34  C15 UNL     1     -12.764   8.545  20.446  1.00  0.00     0.170 C 
BRANCH  34  35
HETATM   35  C16 UNL     1     -12.272   8.651  21.870  1.00  0.00    -0.040 A 
HETATM   36  C17 UNL     1     -11.374   9.664  22.250  1.00  0.00     0.012 A 
HETATM   37  C18 UNL     1     -10.924   9.749  23.569  1.00  0.00     0.043 A 
HETATM   38  C19 UNL     1     -11.368   8.824  24.507  1.00  0.00     0.116 A 
HETATM   39  F1  UNL     1     -10.932   8.908  25.770  1.00  0.00    -0.206 F 
HETATM   40  C20 UNL     1     -12.258   7.817  24.153  1.00  0.00     0.043 A 
HETATM   41  C21 UNL     1     -12.710   7.728  22.835  1.00  0.00     0.012 A 
ENDBRANCH  34  35
ENDBRANCH  32  34
ENDBRANCH  29  32
ENDBRANCH   9  29
TORSDOF 9
ENDMDL
MODEL 6
REMARK minimizedAffinity -9.25286198
REMARK CNNscore 0.174157605
REMARK CNNaffinity 6.99129915
REMARK  9 active torsions:
REMARK  status: ('A' for Active; 'I' for Inactive)
REMARK    1  A    between atoms: N1_2  and  C3_4 
REMARK    2  A    between atoms: C3_4  and  C4_5 
REMARK    3  A    between atoms: C4_5  and  C5_6 
REMARK    4  A    between atoms: C5_6  and  C6_7 
REMARK    5  A    between atoms: C7_8  and  C8_9 
REMARK    6  A    between atoms: C14_17  and  S1_18 
REMARK    7  A    between atoms: S1_18  and  N3_21 
REMARK    8  A    between atoms: N3_21  and  C15_22 
REMARK    9  A    between atoms: C15_22  and  C16_23 
ROOT
HETATM    1  C8  UNL     1      -1.592   6.076  12.351  1.00  0.00     0.048 C 
HETATM    2  C9  UNL     1      -2.458   5.084  12.086  1.00  0.00     0.047 A 
HETATM    3  C10 UNL     1      -2.344   3.877  11.185  1.00  0.00     0.257 A 
HETATM    4  O1  UNL     1      -1.399   3.526  10.504  1.00  0.00    -0.267 OA
HETATM    5  N2  UNL     1      -3.556   3.215  11.294  1.00  0.00    -0.322 N 
HETATM    6  C11 UNL     1      -4.411   3.864  12.175  1.00  0.00     0.046 A 
HETATM    7  C12 UNL     1      -5.690   3.471  12.521  1.00  0.00     0.032 A 
HETATM    8  C13 UNL     1      -6.377   4.263  13.444  1.00  0.00     0.027 A 
HETATM    9  C14 UNL     1      -5.762   5.408  13.992  1.00  0.00     0.080 A 
HETATM   10  C22 UNL     1      -4.469   5.802  13.615  1.00  0.00     0.040 A 
HETATM   11  C23 UNL     1      -3.800   5.010  12.698  1.00  0.00     0.008 A 
HETATM   12  H14 UNL     1      -3.748   2.359  10.802  1.00  0.00     0.169 HD
ENDROOT
BRANCH   1  13
HETATM   13  C7  UNL     1      -0.275   6.301  11.854  1.00  0.00     0.040 A 
HETATM   14  C6  UNL     1       0.949   6.407  12.525  1.00  0.00    -0.023 A 
HETATM   15  C25 UNL     1       1.954   6.604  11.530  1.00  0.00    -0.027 A 
HETATM   16  C24 UNL     1       1.321   6.617  10.307  1.00  0.00     0.016 A 
HETATM   17  C26 UNL     1       3.430   6.794  11.659  1.00  0.00     0.041 C 
HETATM   18  N4  UNL     1      -0.017   6.438  10.509  1.00  0.00    -0.359 N 
HETATM   19  C29 UNL     1       1.964   6.763   8.974  1.00  0.00     0.057 C 
HETATM   20  H25 UNL     1      -0.712   6.416   9.767  1.00  0.00     0.166 HD
HETATM   21  C28 UNL     1       3.413   7.258   9.146  1.00  0.00     0.006 C 
HETATM   22  C27 UNL     1       4.139   6.558  10.311  1.00  0.00     0.005 C 
BRANCH  14  23
HETATM   23  C5  UNL     1       1.193   6.315  14.007  1.00  0.00     0.043 C 
BRANCH  23  24
HETATM   24  C4  UNL     1       0.788   7.567  14.789  1.00  0.00     0.035 C 
BRANCH  24  25
HETATM   25  C3  UNL     1      -0.328   7.365  15.828  1.00  0.00     0.271 C 
BRANCH  25  26
HETATM   26  N1  UNL     1      -1.260   8.502  15.944  1.00  0.00     0.080 N 
HETATM   27  C1  UNL     1      -2.656   8.083  16.032  1.00  0.00     0.309 C 
HETATM   28  C2  UNL     1      -1.086   9.403  14.798  1.00  0.00     0.309 C 
ENDBRANCH  25  26
ENDBRANCH  24  25
ENDBRANCH  23  24
ENDBRANCH  14  23
ENDBRANCH   1  13
BRANCH   9  29
HETATM   29  S1  UNL     1      -6.643   6.401  15.178  1.00  0.00     0.259 S 
HETATM   30  O2  UNL     1      -6.620   5.691  16.437  1.00  0.00    -0.201 OA
HETATM   31  O3  UNL     1      -6.177   7.763  15.054  1.00  0.00    -0.201 OA
BRANCH  29  32
HETATM   32  N3  UNL     1      -8.210   6.335  14.609  1.00  0.00    -0.311 N 
HETATM   33  H17 UNL     1      -8.317   6.256  13.600  1.00  0.00     0.172 HD
BRANCH  32  34
HETATM   34  C15 UNL     1      -9.289   6.916  15.393  1.00  0.00     0.170 C 
BRANCH  34  35
HETATM   35  C16 UNL     1     -10.243   7.697  14.521  1.00  0.00    -0.040 A 
HETATM   36  C17 UNL     1     -11.081   7.044  13.601  1.00  0.00     0.012 A 
HETATM   37  C18 UNL     1     -11.956   7.778  12.798  1.00  0.00     0.043 A 
HETATM   38  C19 UNL     1     -11.993   9.163  12.912  1.00  0.00     0.116 A 
HETATM   39  F1  UNL     1     -12.831   9.864  12.138  1.00  0.00    -0.206 F 
HETATM   40  C20 UNL     1     -11.174   9.829  13.817  1.00  0.00     0.043 A 
HETATM   41  C21 UNL     1     -10.298   9.098  14.621  1.00  0.00     0.012 A 
ENDBRANCH  34  35
ENDBRANCH  32  34
ENDBRANCH  29  32
ENDBRANCH   9  29
TORSDOF 9
ENDMDL
MODEL 7
REMARK minimizedAffinity -9.36066437
REMARK CNNscore 0.167364016
REMARK CNNaffinity 7.20485163
REMARK  9 active torsions:
REMARK  status: ('A' for Active; 'I' for Inactive)
REMARK    1  A    between atoms: N1_2  and  C3_4 
REMARK    2  A    between atoms: C3_4  and  C4_5 
REMARK    3  A    between atoms: C4_5  and  C5_6 
REMARK    4  A    between atoms: C5_6  and  C6_7 
REMARK    5  A    between atoms: C7_8  and  C8_9 
REMARK    6  A    between atoms: C14_17  and  S1_18 
REMARK    7  A    between atoms: S1_18  and  N3_21 
REMARK    8  A    between atoms: N3_21  and  C15_22 
REMARK    9  A    between atoms: C15_22  and  C16_23 
ROOT
HETATM    1  C8  UNL     1      -4.061   6.620  13.513  1.00  0.00     0.048 C 
HETATM    2  C9  UNL     1      -3.534   5.544  12.907  1.00  0.00     0.047 A 
HETATM    3  C10 UNL     1      -4.174   4.275  12.397  1.00  0.00     0.257 A 
HETATM    4  O1  UNL     1      -5.350   3.963  12.405  1.00  0.00    -0.267 OA
HETATM    5  N2  UNL     1      -3.136   3.513  11.887  1.00  0.00    -0.322 N 
HETATM    6  C11 UNL     1      -1.918   4.170  12.006  1.00  0.00     0.046 A 
HETATM    7  C12 UNL     1      -0.685   3.700  11.594  1.00  0.00     0.032 A 
HETATM    8  C13 UNL     1       0.418   4.532  11.795  1.00  0.00     0.027 A 
HETATM    9  C14 UNL     1       0.251   5.800  12.392  1.00  0.00     0.080 A 
HETATM   10  C22 UNL     1      -1.006   6.252  12.821  1.00  0.00     0.040 A 
HETATM   11  C23 UNL     1      -2.092   5.417  12.617  1.00  0.00     0.008 A 
HETATM   12  H14 UNL     1      -3.286   2.612  11.465  1.00  0.00     0.169 HD
ENDROOT
BRANCH   1  13
HETATM   13  C7  UNL     1      -5.413   6.903  13.866  1.00  0.00     0.040 A 
HETATM   14  C6  UNL     1      -5.951   7.871  14.722  1.00  0.00    -0.023 A 
HETATM   15  C25 UNL     1      -7.370   7.722  14.680  1.00  0.00    -0.027 A 
HETATM   16  C24 UNL     1      -7.647   6.683  13.821  1.00  0.00     0.016 A 
HETATM   17  C26 UNL     1      -8.451   8.465  15.396  1.00  0.00     0.041 C 
HETATM   18  N4  UNL     1      -6.468   6.194  13.338  1.00  0.00    -0.359 N 
HETATM   19  C29 UNL     1      -8.993   6.181  13.436  1.00  0.00     0.057 C 
HETATM   20  H25 UNL     1      -6.392   5.416  12.687  1.00  0.00     0.166 HD
HETATM   21  C28 UNL     1     -10.054   6.743  14.401  1.00  0.00     0.006 C 
HETATM   22  C27 UNL     1      -9.821   8.230  14.731  1.00  0.00     0.005 C 
BRANCH  14  23
HETATM   23  C5  UNL     1      -5.204   8.899  15.528  1.00  0.00     0.043 C 
BRANCH  23  24
HETATM   24  C4  UNL     1      -3.883   9.350  14.900  1.00  0.00     0.035 C 
BRANCH  24  25
HETATM   25  C3  UNL     1      -2.904  10.056  15.854  1.00  0.00     0.271 C 
BRANCH  25  26
HETATM   26  N1  UNL     1      -1.576   9.420  15.937  1.00  0.00     0.080 N 
HETATM   27  C1  UNL     1      -0.724   9.735  14.793  1.00  0.00     0.309 C 
HETATM   28  C2  UNL     1      -1.731   7.964  16.051  1.00  0.00     0.309 C 
ENDBRANCH  25  26
ENDBRANCH  24  25
ENDBRANCH  23  24
ENDBRANCH  14  23
ENDBRANCH   1  13
BRANCH   9  29
HETATM   29  S1  UNL     1       1.664   6.856  12.631  1.00  0.00     0.259 S 
HETATM   30  O2  UNL     1       1.410   8.084  11.912  1.00  0.00    -0.201 OA
HETATM   31  O3  UNL     1       1.999   6.842  14.036  1.00  0.00    -0.201 OA
BRANCH  29  32
HETATM   32  N3  UNL     1       2.864   6.045  11.803  1.00  0.00    -0.311 N 
HETATM   33  H17 UNL     1       3.148   5.148  12.192  1.00  0.00     0.172 HD
BRANCH  32  34
HETATM   34  C15 UNL     1       3.802   6.789  10.978  1.00  0.00     0.170 C 
BRANCH  34  35
HETATM   35  C16 UNL     1       3.281   6.959   9.571  1.00  0.00    -0.040 A 
HETATM   36  C17 UNL     1       2.935   5.844   8.788  1.00  0.00     0.012 A 
HETATM   37  C18 UNL     1       2.459   6.015   7.487  1.00  0.00     0.043 A 
HETATM   38  C19 UNL     1       2.329   7.297   6.967  1.00  0.00     0.116 A 
HETATM   39  F1  UNL     1       1.873   7.457   5.718  1.00  0.00    -0.206 F 
HETATM   40  C20 UNL     1       2.662   8.414   7.724  1.00  0.00     0.043 A 
HETATM   41  C21 UNL     1       3.140   8.247   9.025  1.00  0.00     0.012 A 
ENDBRANCH  34  35
ENDBRANCH  32  34
ENDBRANCH  29  32
ENDBRANCH   9  29
TORSDOF 9
ENDMDL
MODEL 8
REMARK minimizedAffinity -7.87205458
REMARK CNNscore 0.154931277
REMARK CNNaffinity 6.64071655
REMARK  9 active torsions:
REMARK  status: ('A' for Active; 'I' for Inactive)
REMARK    1  A    between atoms: N1_2  and  C3_4 
REMARK    2  A    between atoms: C3_4  and  C4_5 
REMARK    3  A    between atoms: C4_5  and  C5_6 
REMARK    4  A    between atoms: C5_6  and  C6_7 
REMARK    5  A    between atoms: C7_8  and  C8_9 
REMARK    6  A    between atoms: C14_17  and  S1_18 
REMARK    7  A    between atoms: S1_18  and  N3_21 
REMARK    8  A    between atoms: N3_21  and  C15_22 
REMARK    9  A    between atoms: C15_22  and  C16_23 
ROOT
HETATM    1  C8  UNL     1      -8.743   6.456  14.447  1.00  0.00     0.048 C 
HETATM    2  C9  UNL     1      -9.806   7.138  13.989  1.00  0.00     0.047 A 
HETATM    3  C10 UNL     1     -10.460   7.165  12.628  1.00  0.00     0.257 A 
HETATM    4  O1  UNL     1     -10.166   6.531  11.633  1.00  0.00    -0.267 OA
HETATM    5  N2  UNL     1     -11.505   8.067  12.736  1.00  0.00    -0.322 N 
HETATM    6  C11 UNL     1     -11.588   8.598  14.016  1.00  0.00     0.046 A 
HETATM    7  C12 UNL     1     -12.516   9.518  14.468  1.00  0.00     0.032 A 
HETATM    8  C13 UNL     1     -12.430   9.910  15.806  1.00  0.00     0.027 A 
HETATM    9  C14 UNL     1     -11.433   9.367  16.642  1.00  0.00     0.080 A 
HETATM   10  C22 UNL     1     -10.488   8.448  16.161  1.00  0.00     0.040 A 
HETATM   11  C23 UNL     1     -10.582   8.068  14.832  1.00  0.00     0.008 A 
HETATM   12  H14 UNL     1     -12.124   8.269  11.968  1.00  0.00     0.169 HD
ENDROOT
BRANCH   1  13
HETATM   13  C7  UNL     1      -7.890   5.530  13.778  1.00  0.00     0.040 A 
HETATM   14  C6  UNL     1      -6.577   5.668  13.313  1.00  0.00    -0.023 A 
HETATM   15  C25 UNL     1      -6.201   4.412  12.747  1.00  0.00    -0.027 A 
HETATM   16  C24 UNL     1      -7.280   3.566  12.877  1.00  0.00     0.016 A 
HETATM   17  C26 UNL     1      -4.931   3.979  12.091  1.00  0.00     0.041 C 
HETATM   18  N4  UNL     1      -8.291   4.244  13.494  1.00  0.00    -0.359 N 
HETATM   19  C29 UNL     1      -7.347   2.141  12.459  1.00  0.00     0.057 C 
HETATM   20  H25 UNL     1      -9.203   3.848  13.703  1.00  0.00     0.166 HD
HETATM   21  C28 UNL     1      -6.164   1.814  11.527  1.00  0.00     0.006 C 
HETATM   22  C27 UNL     1      -4.843   2.443  12.011  1.00  0.00     0.005 C 
BRANCH  14  23
HETATM   23  C5  UNL     1      -5.697   6.886  13.398  1.00  0.00     0.043 C 
BRANCH  23  24
HETATM   24  C4  UNL     1      -4.365   6.649  14.114  1.00  0.00     0.035 C 
BRANCH  24  25
HETATM   25  C3  UNL     1      -4.098   7.552  15.330  1.00  0.00     0.271 C 
BRANCH  25  26
HETATM   26  N1  UNL     1      -2.820   8.286  15.270  1.00  0.00     0.080 N 
HETATM   27  C1  UNL     1      -2.442   8.873  16.553  1.00  0.00     0.309 C 
HETATM   28  C2  UNL     1      -2.903   9.341  14.251  1.00  0.00     0.309 C 
ENDBRANCH  25  26
ENDBRANCH  24  25
ENDBRANCH  23  24
ENDBRANCH  14  23
ENDBRANCH   1  13
BRANCH   9  29
HETATM   29  S1  UNL     1     -11.344   9.865  18.349  1.00  0.00     0.259 S 
HETATM   30  O2  UNL     1     -10.609   8.842  19.059  1.00  0.00    -0.201 OA
HETATM   31  O3  UNL     1     -10.957  11.257  18.388  1.00  0.00    -0.201 OA
BRANCH  29  32
HETATM   32  N3  UNL     1     -12.934   9.754  18.840  1.00  0.00    -0.311 N 
HETATM   33  H17 UNL     1     -13.636   9.970  18.135  1.00  0.00     0.172 HD
BRANCH  32  34
HETATM   34  C15 UNL     1     -13.269   9.913  20.247  1.00  0.00     0.170 C 
BRANCH  34  35
HETATM   35  C16 UNL     1     -13.406   8.575  20.933  1.00  0.00    -0.040 A 
HETATM   36  C17 UNL     1     -14.020   7.489  20.285  1.00  0.00     0.012 A 
HETATM   37  C18 UNL     1     -14.143   6.258  20.933  1.00  0.00     0.043 A 
HETATM   38  C19 UNL     1     -13.656   6.112  22.226  1.00  0.00     0.116 A 
HETATM   39  F1  UNL     1     -13.778   4.930  22.845  1.00  0.00    -0.206 F 
HETATM   40  C20 UNL     1     -13.043   7.172  22.885  1.00  0.00     0.043 A 
HETATM   41  C21 UNL     1     -12.919   8.403  22.240  1.00  0.00     0.012 A 
ENDBRANCH  34  35
ENDBRANCH  32  34
ENDBRANCH  29  32
ENDBRANCH   9  29
TORSDOF 9
ENDMDL
MODEL 9
REMARK minimizedAffinity -9.75810432
REMARK CNNscore 0.139543161
REMARK CNNaffinity 7.43230867
REMARK  9 active torsions:
REMARK  status: ('A' for Active; 'I' for Inactive)
REMARK    1  A    between atoms: N1_2  and  C3_4 
REMARK    2  A    between atoms: C3_4  and  C4_5 
REMARK    3  A    between atoms: C4_5  and  C5_6 
REMARK    4  A    between atoms: C5_6  and  C6_7 
REMARK    5  A    between atoms: C7_8  and  C8_9 
REMARK    6  A    between atoms: C14_17  and  S1_18 
REMARK    7  A    between atoms: S1_18  and  N3_21 
REMARK    8  A    between atoms: N3_21  and  C15_22 
REMARK    9  A    between atoms: C15_22  and  C16_23 
ROOT
HETATM    1  C8  UNL     1      -1.836   5.532  12.736  1.00  0.00     0.048 C 
HETATM    2  C9  UNL     1      -2.166   4.350  12.189  1.00  0.00     0.047 A 
HETATM    3  C10 UNL     1      -1.317   3.282  11.541  1.00  0.00     0.257 A 
HETATM    4  O1  UNL     1      -0.110   3.256  11.398  1.00  0.00    -0.267 OA
HETATM    5  N2  UNL     1      -2.203   2.295  11.141  1.00  0.00    -0.322 N 
HETATM    6  C11 UNL     1      -3.511   2.619  11.478  1.00  0.00     0.046 A 
HETATM    7  C12 UNL     1      -4.637   1.857  11.234  1.00  0.00     0.032 A 
HETATM    8  C13 UNL     1      -5.862   2.364  11.674  1.00  0.00     0.027 A 
HETATM    9  C14 UNL     1      -5.917   3.603  12.345  1.00  0.00     0.080 A 
HETATM   10  C22 UNL     1      -4.765   4.372  12.567  1.00  0.00     0.040 A 
HETATM   11  C23 UNL     1      -3.557   3.859  12.125  1.00  0.00     0.008 A 
HETATM   12  H14 UNL     1      -1.899   1.450  10.687  1.00  0.00     0.169 HD
ENDROOT
BRANCH   1  13
HETATM   13  C7  UNL     1      -0.561   6.153  12.878  1.00  0.00     0.040 A 
HETATM   14  C6  UNL     1       0.321   6.660  11.917  1.00  0.00    -0.023 A 
HETATM   15  C25 UNL     1       1.441   7.197  12.622  1.00  0.00    -0.027 A 
HETATM   16  C24 UNL     1       1.214   6.997  13.964  1.00  0.00     0.016 A 
HETATM   17  C26 UNL     1       2.687   7.850  12.119  1.00  0.00     0.041 C 
HETATM   18  N4  UNL     1       0.011   6.368  14.112  1.00  0.00    -0.359 N 
HETATM   19  C29 UNL     1       2.092   7.419  15.088  1.00  0.00     0.057 C 
HETATM   20  H25 UNL     1      -0.389   6.098  15.006  1.00  0.00     0.166 HD
HETATM   21  C28 UNL     1       3.483   7.802  14.546  1.00  0.00     0.006 C 
HETATM   22  C27 UNL     1       3.401   8.623  13.245  1.00  0.00     0.005 C 
BRANCH  14  23
HETATM   23  C5  UNL     1       0.141   6.672  10.423  1.00  0.00     0.043 C 
BRANCH  23  24
HETATM   24  C4  UNL     1       0.173   8.069   9.798  1.00  0.00     0.035 C 
BRANCH  24  25
HETATM   25  C3  UNL     1       0.473   8.113   8.290  1.00  0.00     0.271 C 
BRANCH  25  26
HETATM   26  N1  UNL     1       1.772   7.525   7.914  1.00  0.00     0.080 N 
HETATM   27  C1  UNL     1       2.893   8.431   8.149  1.00  0.00     0.309 C 
HETATM   28  C2  UNL     1       1.744   7.131   6.499  1.00  0.00     0.309 C 
ENDBRANCH  25  26
ENDBRANCH  24  25
ENDBRANCH  23  24
ENDBRANCH  14  23
ENDBRANCH   1  13
BRANCH   9  29
HETATM   29  S1  UNL     1      -7.483   4.231  12.912  1.00  0.00     0.259 S 
HETATM   30  O2  UNL     1      -7.954   5.174  11.922  1.00  0.00    -0.201 OA
HETATM   31  O3  UNL     1      -8.283   3.110  13.347  1.00  0.00    -0.201 OA
BRANCH  29  32
HETATM   32  N3  UNL     1      -7.051   5.114  14.260  1.00  0.00    -0.311 N 
HETATM   33  H17 UNL     1      -6.840   4.576  15.098  1.00  0.00     0.172 HD
BRANCH  32  34
HETATM   34  C15 UNL     1      -7.495   6.493  14.394  1.00  0.00     0.170 C 
BRANCH  34  35
HETATM   35  C16 UNL     1      -6.327   7.450  14.379  1.00  0.00    -0.040 A 
HETATM   36  C17 UNL     1      -5.496   7.559  13.250  1.00  0.00     0.012 A 
HETATM   37  C18 UNL     1      -4.417   8.444  13.250  1.00  0.00     0.043 A 
HETATM   38  C19 UNL     1      -4.167   9.220  14.376  1.00  0.00     0.116 A 
HETATM   39  F1  UNL     1      -3.129  10.067  14.373  1.00  0.00    -0.206 F 
HETATM   40  C20 UNL     1      -4.977   9.131  15.502  1.00  0.00     0.043 A 
HETATM   41  C21 UNL     1      -6.056   8.245  15.505  1.00  0.00     0.012 A 
ENDBRANCH  34  35
ENDBRANCH  32  34
ENDBRANCH  29  32
ENDBRANCH   9  29
TORSDOF 9
ENDMDL
