MODEL 1
REMARK minimizedAffinity -10.2644291
REMARK CNNscore 0.76091063
REMARK CNNaffinity 7.71860504
REMARK  4 active torsions:
REMARK  status: ('A' for Active; 'I' for Inactive)
REMARK    1  A    between atoms: C5_5  and  N1_6 
REMARK    2  A    between atoms: C9_13  and  N3_14 
REMARK    3  A    between atoms: N3_14  and  C10_15 
REMARK    4  A    between atoms: C13_18  and  N4_19 
ROOT
HETATM    1  N1  UNL     1      -0.111  51.983 -22.499  1.00  0.00    -0.110 N 
HETATM    2  C6  UNL     1       0.476  52.814 -21.532  1.00  0.00     0.282 A 
HETATM    3  O1  UNL     1       1.077  53.867 -21.743  1.00  0.00    -0.266 OA
HETATM    4  C7  UNL     1       0.429  52.371 -20.128  1.00  0.00     0.095 A 
HETATM    5  C8  UNL     1       0.999  53.097 -19.110  1.00  0.00     0.127 A 
HETATM    6  N2  UNL     1       0.992  52.699 -17.818  1.00  0.00    -0.201 N 
ATOM      7  H2  UNL     1       1.422  53.269 -17.089  1.00  0.00     0.183 HD
HETATM    8  C9  UNL     1       0.402  51.532 -17.523  1.00  0.00     0.684 A 
HETATM    9  N6  UNL     1      -0.192  50.765 -18.455  1.00  0.00    -0.174 N 
ATOM     10  H6  UNL     1      -0.647  49.887 -18.204  1.00  0.00     0.186 HD
HETATM   11  C21 UNL     1      -0.164  51.199 -19.737  1.00  0.00     0.162 A 
HETATM   12  N7  UNL     1      -0.765  50.430 -20.748  1.00  0.00    -0.128 N 
HETATM   13  C22 UNL     1      -1.455  49.238 -20.642  1.00  0.00     0.086 A 
HETATM   14  C23 UNL     1      -1.776  48.386 -19.573  1.00  0.00     0.033 A 
HETATM   15  C24 UNL     1      -2.518  47.235 -19.865  1.00  0.00     0.002 A 
HETATM   16  C25 UNL     1      -2.929  46.952 -21.168  1.00  0.00     0.002 A 
HETATM   17  C26 UNL     1      -2.604  47.814 -22.219  1.00  0.00     0.032 A 
HETATM   18  C27 UNL     1      -1.858  48.968 -21.945  1.00  0.00     0.077 A 
HETATM   19  N8  UNL     1      -1.429  49.940 -22.806  1.00  0.00    -0.188 N 
ATOM     20  H8  UNL     1      -1.602  49.988 -23.809  1.00  0.00     0.184 HD
HETATM   21  C28 UNL     1      -0.746  50.806 -22.080  1.00  0.00     0.701 A 
ENDROOT
BRANCH   8  22
HETATM   22  N3  UNL     1       0.384  51.005 -16.238  1.00  0.00    -0.192 N 
HETATM   23  H7  UNL     1       0.039  50.056 -16.269  1.00  0.00     0.184 HD
BRANCH  22  24
HETATM   24  C10 UNL     1       0.772  51.485 -14.983  1.00  0.00     0.049 A 
HETATM   25  C11 UNL     1      -0.211  52.039 -14.149  1.00  0.00     0.032 A 
HETATM   26  C12 UNL     1       0.097  52.509 -12.863  1.00  0.00     0.026 A 
HETATM   27  C13 UNL     1       1.404  52.451 -12.364  1.00  0.00     0.010 A 
HETATM   28  C19 UNL     1       2.385  51.904 -13.203  1.00  0.00     0.026 A 
HETATM   29  C20 UNL     1       2.076  51.423 -14.486  1.00  0.00     0.032 A 
BRANCH  27  30
HETATM   30  N4  UNL     1       1.772  52.898 -11.088  1.00  0.00    -0.280 NA
HETATM   31  C14 UNL     1       1.127  54.125 -10.580  1.00  0.00     0.126 C 
HETATM   32  C15 UNL     1       1.524  54.384  -9.108  1.00  0.00     0.286 C 
HETATM   33  N5  UNL     1       2.983  54.424  -8.850  1.00  0.00     0.086 N 
HETATM   34  C16 UNL     1       3.600  55.627  -9.405  1.00  0.00     0.310 C 
HETATM   35  C17 UNL     1       3.592  53.192  -9.399  1.00  0.00     0.286 C 
HETATM   36  C18 UNL     1       3.236  52.861 -10.870  1.00  0.00     0.126 C 
ENDBRANCH  27  30
ENDBRANCH  22  24
ENDBRANCH   8  22
BRANCH   1  37
HETATM   37  C5  UNL     1      -0.109  52.310 -23.899  1.00  0.00     0.060 A 
HETATM   38  C4  UNL     1       0.095  53.621 -24.362  1.00  0.00     0.031 A 
HETATM   39  C3  UNL     1       0.091  53.930 -25.729  1.00  0.00     0.009 A 
HETATM   40  C2  UNL     1      -0.134  52.935 -26.679  1.00  0.00    -0.062 A 
HETATM   41  C1  UNL     1      -0.094  53.249 -28.145  1.00  0.00     0.048 C 
HETATM   42  C30 UNL     1      -0.337  51.626 -26.239  1.00  0.00     0.009 A 
HETATM   43  C29 UNL     1      -0.335  51.322 -24.871  1.00  0.00     0.031 A 
ENDBRANCH   1  37
TORSDOF 4
ENDMDL
MODEL 2
REMARK minimizedAffinity -10.0605078
REMARK CNNscore 0.731650233
REMARK CNNaffinity 7.68899536
REMARK  4 active torsions:
REMARK  status: ('A' for Active; 'I' for Inactive)
REMARK    1  A    between atoms: C5_5  and  N1_6 
REMARK    2  A    between atoms: C9_13  and  N3_14 
REMARK    3  A    between atoms: N3_14  and  C10_15 
REMARK    4  A    between atoms: C13_18  and  N4_19 
ROOT
HETATM    1  N1  UNL     1       0.015  52.080 -22.869  1.00  0.00    -0.110 N 
HETATM    2  C6  UNL     1       0.615  52.923 -21.921  1.00  0.00     0.282 A 
HETATM    3  O1  UNL     1       1.291  53.923 -22.159  1.00  0.00    -0.266 OA
HETATM    4  C7  UNL     1       0.482  52.561 -20.500  1.00  0.00     0.095 A 
HETATM    5  C8  UNL     1       1.056  53.304 -19.497  1.00  0.00     0.127 A 
HETATM    6  N2  UNL     1       0.969  52.978 -18.187  1.00  0.00    -0.201 N 
ATOM      7  H2  UNL     1       1.405  53.559 -17.471  1.00  0.00     0.183 HD
HETATM    8  C9  UNL     1       0.292  51.869 -17.860  1.00  0.00     0.684 A 
HETATM    9  N6  UNL     1      -0.311  51.091 -18.775  1.00  0.00    -0.174 N 
ATOM     10  H6  UNL     1      -0.832  50.258 -18.500  1.00  0.00     0.186 HD
HETATM   11  C21 UNL     1      -0.202  51.453 -20.076  1.00  0.00     0.162 A 
HETATM   12  N7  UNL     1      -0.810  50.669 -21.072  1.00  0.00    -0.128 N 
HETATM   13  C22 UNL     1      -1.580  49.530 -20.935  1.00  0.00     0.086 A 
HETATM   14  C23 UNL     1      -2.000  48.759 -19.839  1.00  0.00     0.033 A 
HETATM   15  C24 UNL     1      -2.802  47.643 -20.105  1.00  0.00     0.002 A 
HETATM   16  C25 UNL     1      -3.176  47.316 -21.408  1.00  0.00     0.002 A 
HETATM   17  C26 UNL     1      -2.753  48.097 -22.487  1.00  0.00     0.032 A 
HETATM   18  C27 UNL     1      -1.945  49.215 -22.240  1.00  0.00     0.077 A 
HETATM   19  N8  UNL     1      -1.419  50.111 -23.129  1.00  0.00    -0.188 N 
ATOM     20  H8  UNL     1      -1.547  50.115 -24.141  1.00  0.00     0.184 HD
HETATM   21  C28 UNL     1      -0.712  50.970 -22.419  1.00  0.00     0.701 A 
ENDROOT
BRANCH   8  22
HETATM   22  N3  UNL     1       0.187  51.414 -16.550  1.00  0.00    -0.192 N 
HETATM   23  H7  UNL     1      -0.612  50.802 -16.471  1.00  0.00     0.184 HD
BRANCH  22  24
HETATM   24  C10 UNL     1       0.955  51.589 -15.394  1.00  0.00     0.049 A 
HETATM   25  C11 UNL     1       0.294  51.908 -14.198  1.00  0.00     0.032 A 
HETATM   26  C12 UNL     1       0.993  52.063 -12.992  1.00  0.00     0.026 A 
HETATM   27  C13 UNL     1       2.385  51.916 -12.937  1.00  0.00     0.010 A 
HETATM   28  C19 UNL     1       3.042  51.606 -14.135  1.00  0.00     0.026 A 
HETATM   29  C20 UNL     1       2.342  51.438 -15.341  1.00  0.00     0.032 A 
BRANCH  27  30
HETATM   30  N4  UNL     1       3.138  52.054 -11.762  1.00  0.00    -0.280 NA
HETATM   31  C14 UNL     1       3.209  50.890 -10.856  1.00  0.00     0.126 C 
HETATM   32  C15 UNL     1       4.202  51.157  -9.700  1.00  0.00     0.286 C 
HETATM   33  N5  UNL     1       3.948  52.397  -8.929  1.00  0.00     0.086 N 
HETATM   34  C16 UNL     1       2.750  52.284  -8.100  1.00  0.00     0.310 C 
HETATM   35  C17 UNL     1       3.854  53.530  -9.877  1.00  0.00     0.286 C 
HETATM   36  C18 UNL     1       2.883  53.336 -11.068  1.00  0.00     0.126 C 
ENDBRANCH  27  30
ENDBRANCH  22  24
ENDBRANCH   8  22
BRANCH   1  37
HETATM   37  C5  UNL     1       0.097  52.330 -24.283  1.00  0.00     0.060 A 
HETATM   38  C4  UNL     1      -0.381  53.517 -24.863  1.00  0.00     0.031 A 
HETATM   39  C3  UNL     1      -0.302  53.748 -26.243  1.00  0.00     0.009 A 
HETATM   40  C2  UNL     1       0.247  52.789 -27.092  1.00  0.00    -0.062 A 
HETATM   41  C1  UNL     1       0.378  53.048 -28.563  1.00  0.00     0.048 C 
HETATM   42  C30 UNL     1       0.728  51.603 -26.534  1.00  0.00     0.009 A 
HETATM   43  C29 UNL     1       0.644  51.374 -25.154  1.00  0.00     0.031 A 
ENDBRANCH   1  37
TORSDOF 4
ENDMDL
MODEL 3
REMARK minimizedAffinity -10.4344587
REMARK CNNscore 0.616811812
REMARK CNNaffinity 7.46448278
REMARK  4 active torsions:
REMARK  status: ('A' for Active; 'I' for Inactive)
REMARK    1  A    between atoms: C5_5  and  N1_6 
REMARK    2  A    between atoms: C9_13  and  N3_14 
REMARK    3  A    between atoms: N3_14  and  C10_15 
REMARK    4  A    between atoms: C13_18  and  N4_19 
ROOT
HETATM    1  N1  UNL     1      -0.043  51.993 -22.719  1.00  0.00    -0.110 N 
HETATM    2  C6  UNL     1       0.576  52.801 -21.752  1.00  0.00     0.282 A 
HETATM    3  O1  UNL     1       1.206  53.837 -21.962  1.00  0.00    -0.266 OA
HETATM    4  C7  UNL     1       0.526  52.353 -20.350  1.00  0.00     0.095 A 
HETATM    5  C8  UNL     1       1.125  53.057 -19.333  1.00  0.00     0.127 A 
HETATM    6  N2  UNL     1       1.115  52.653 -18.042  1.00  0.00    -0.201 N 
ATOM      7  H2  UNL     1       1.567  53.207 -17.315  1.00  0.00     0.183 HD
HETATM    8  C9  UNL     1       0.492  51.503 -17.749  1.00  0.00     0.684 A 
HETATM    9  N6  UNL     1      -0.130  50.758 -18.680  1.00  0.00    -0.174 N 
ATOM     10  H6  UNL     1      -0.609  49.893 -18.430  1.00  0.00     0.186 HD
HETATM   11  C21 UNL     1      -0.099  51.198 -19.961  1.00  0.00     0.162 A 
HETATM   12  N7  UNL     1      -0.729  50.452 -20.971  1.00  0.00    -0.128 N 
HETATM   13  C22 UNL     1      -1.453  49.280 -20.865  1.00  0.00     0.086 A 
HETATM   14  C23 UNL     1      -1.792  48.432 -19.798  1.00  0.00     0.033 A 
HETATM   15  C24 UNL     1      -2.570  47.305 -20.090  1.00  0.00     0.002 A 
HETATM   16  C25 UNL     1      -2.997  47.040 -21.391  1.00  0.00     0.002 A 
HETATM   17  C26 UNL     1      -2.655  47.898 -22.441  1.00  0.00     0.032 A 
HETATM   18  C27 UNL     1      -1.873  49.028 -22.167  1.00  0.00     0.077 A 
HETATM   19  N8  UNL     1      -1.422  49.992 -23.026  1.00  0.00    -0.188 N 
ATOM     20  H8  UNL     1      -1.601  50.049 -24.028  1.00  0.00     0.184 HD
HETATM   21  C28 UNL     1      -0.709  50.833 -22.301  1.00  0.00     0.701 A 
ENDROOT
BRANCH   8  22
HETATM   22  N3  UNL     1       0.468  50.970 -16.466  1.00  0.00    -0.192 N 
HETATM   23  H7  UNL     1       0.946  50.080 -16.464  1.00  0.00     0.184 HD
BRANCH  22  24
HETATM   24  C10 UNL     1      -0.018  51.419 -15.234  1.00  0.00     0.049 A 
HETATM   25  C11 UNL     1      -1.312  51.036 -14.849  1.00  0.00     0.032 A 
HETATM   26  C12 UNL     1      -1.853  51.418 -13.613  1.00  0.00     0.026 A 
HETATM   27  C13 UNL     1      -1.124  52.209 -12.716  1.00  0.00     0.010 A 
HETATM   28  C19 UNL     1       0.165  52.596 -13.107  1.00  0.00     0.026 A 
HETATM   29  C20 UNL     1       0.713  52.203 -14.339  1.00  0.00     0.032 A 
BRANCH  27  30
HETATM   30  N4  UNL     1      -1.608  52.618 -11.465  1.00  0.00    -0.280 NA
HETATM   31  C14 UNL     1      -0.716  53.437 -10.621  1.00  0.00     0.126 C 
HETATM   32  C15 UNL     1      -1.458  53.931  -9.357  1.00  0.00     0.286 C 
HETATM   33  N5  UNL     1      -2.098  52.866  -8.550  1.00  0.00     0.086 N 
HETATM   34  C16 UNL     1      -1.110  52.044  -7.854  1.00  0.00     0.310 C 
HETATM   35  C17 UNL     1      -2.958  52.053  -9.439  1.00  0.00     0.286 C 
HETATM   36  C18 UNL     1      -2.287  51.526 -10.731  1.00  0.00     0.126 C 
ENDBRANCH  27  30
ENDBRANCH  22  24
ENDBRANCH   8  22
BRANCH   1  37
HETATM   37  C5  UNL     1      -0.041  52.327 -24.117  1.00  0.00     0.060 A 
HETATM   38  C4  UNL     1       0.013  51.345 -25.122  1.00  0.00     0.031 A 
HETATM   39  C3  UNL     1       0.020  51.681 -26.482  1.00  0.00     0.009 A 
HETATM   40  C2  UNL     1      -0.013  53.015 -26.882  1.00  0.00    -0.062 A 
HETATM   41  C1  UNL     1      -0.053  53.381 -28.336  1.00  0.00     0.048 C 
HETATM   42  C30 UNL     1      -0.067  54.005 -25.900  1.00  0.00     0.009 A 
HETATM   43  C29 UNL     1      -0.070  53.665 -24.540  1.00  0.00     0.031 A 
ENDBRANCH   1  37
TORSDOF 4
ENDMDL
MODEL 4
REMARK minimizedAffinity -10.7410374
REMARK CNNscore 0.518069267
REMARK CNNaffinity 7.53532267
REMARK  4 active torsions:
REMARK  status: ('A' for Active; 'I' for Inactive)
REMARK    1  A    between atoms: C5_5  and  N1_6 
REMARK    2  A    between atoms: C9_13  and  N3_14 
REMARK    3  A    between atoms: N3_14  and  C10_15 
REMARK    4  A    between atoms: C13_18  and  N4_19 
ROOT
HETATM    1  N1  UNL     1      -1.570  50.458 -23.215  1.00  0.00    -0.110 N 
HETATM    2  C6  UNL     1      -0.772  51.611 -23.285  1.00  0.00     0.282 A 
HETATM    3  O1  UNL     1      -0.503  52.251 -24.301  1.00  0.00    -0.266 OA
HETATM    4  C7  UNL     1      -0.139  52.083 -22.042  1.00  0.00     0.095 A 
HETATM    5  C8  UNL     1       0.682  53.184 -22.009  1.00  0.00     0.127 A 
HETATM    6  N2  UNL     1       1.295  53.623 -20.886  1.00  0.00    -0.201 N 
ATOM      7  H2  UNL     1       1.894  54.448 -20.902  1.00  0.00     0.183 HD
HETATM    8  C9  UNL     1       1.089  52.939 -19.752  1.00  0.00     0.684 A 
HETATM    9  N6  UNL     1       0.291  51.859 -19.690  1.00  0.00    -0.174 N 
ATOM     10  H6  UNL     1       0.139  51.364 -18.812  1.00  0.00     0.186 HD
HETATM   11  C21 UNL     1      -0.305  51.453 -20.837  1.00  0.00     0.162 A 
HETATM   12  N7  UNL     1      -1.144  50.326 -20.827  1.00  0.00    -0.128 N 
HETATM   13  C22 UNL     1      -1.514  49.526 -19.763  1.00  0.00     0.086 A 
HETATM   14  C23 UNL     1      -1.201  49.511 -18.394  1.00  0.00     0.033 A 
HETATM   15  C24 UNL     1      -1.795  48.518 -17.606  1.00  0.00     0.002 A 
HETATM   16  C25 UNL     1      -2.670  47.583 -18.160  1.00  0.00     0.002 A 
HETATM   17  C26 UNL     1      -2.974  47.615 -19.524  1.00  0.00     0.032 A 
HETATM   18  C27 UNL     1      -2.385  48.600 -20.328  1.00  0.00     0.077 A 
HETATM   19  N8  UNL     1      -2.533  48.819 -21.670  1.00  0.00    -0.188 N 
ATOM     20  H8  UNL     1      -3.125  48.292 -22.313  1.00  0.00     0.184 HD
HETATM   21  C28 UNL     1      -1.760  49.845 -21.969  1.00  0.00     0.701 A 
ENDROOT
BRANCH   8  22
HETATM   22  N3  UNL     1       1.711  53.272 -18.554  1.00  0.00    -0.192 N 
HETATM   23  H7  UNL     1       2.096  54.202 -18.623  1.00  0.00     0.184 HD
BRANCH  22  24
HETATM   24  C10 UNL     1       1.860  52.626 -17.322  1.00  0.00     0.049 A 
HETATM   25  C11 UNL     1       3.093  52.729 -16.661  1.00  0.00     0.032 A 
HETATM   26  C12 UNL     1       3.305  52.139 -15.406  1.00  0.00     0.026 A 
HETATM   27  C13 UNL     1       2.293  51.412 -14.767  1.00  0.00     0.010 A 
HETATM   28  C19 UNL     1       1.065  51.304 -15.434  1.00  0.00     0.026 A 
HETATM   29  C20 UNL     1       0.848  51.905 -16.685  1.00  0.00     0.032 A 
BRANCH  27  30
HETATM   30  N4  UNL     1       2.442  50.805 -13.512  1.00  0.00    -0.280 NA
HETATM   31  C14 UNL     1       2.791  51.672 -12.370  1.00  0.00     0.126 C 
HETATM   32  C15 UNL     1       2.759  50.873 -11.046  1.00  0.00     0.286 C 
HETATM   33  N5  UNL     1       3.589  49.646 -11.034  1.00  0.00     0.086 N 
HETATM   34  C16 UNL     1       5.016  49.956 -11.008  1.00  0.00     0.310 C 
HETATM   35  C17 UNL     1       3.227  48.822 -12.209  1.00  0.00     0.286 C 
HETATM   36  C18 UNL     1       3.231  49.554 -13.574  1.00  0.00     0.126 C 
ENDBRANCH  27  30
ENDBRANCH  22  24
ENDBRANCH   8  22
BRANCH   1  37
HETATM   37  C5  UNL     1      -2.221  49.901 -24.369  1.00  0.00     0.060 A 
HETATM   38  C4  UNL     1      -3.271  48.973 -24.262  1.00  0.00     0.031 A 
HETATM   39  C3  UNL     1      -3.896  48.432 -25.393  1.00  0.00     0.009 A 
HETATM   40  C2  UNL     1      -3.478  48.791 -26.673  1.00  0.00    -0.062 A 
HETATM   41  C1  UNL     1      -4.172  48.252 -27.889  1.00  0.00     0.048 C 
HETATM   42  C30 UNL     1      -2.437  49.712 -26.801  1.00  0.00     0.009 A 
HETATM   43  C29 UNL     1      -1.813  50.249 -25.667  1.00  0.00     0.031 A 
ENDBRANCH   1  37
TORSDOF 4
ENDMDL
MODEL 5
REMARK minimizedAffinity -10.3961306
REMARK CNNscore 0.462337375
REMARK CNNaffinity 7.68453598
REMARK  4 active torsions:
REMARK  status: ('A' for Active; 'I' for Inactive)
REMARK    1  A    between atoms: C5_5  and  N1_6 
REMARK    2  A    between atoms: C9_13  and  N3_14 
REMARK    3  A    between atoms: N3_14  and  C10_15 
REMARK    4  A    between atoms: C13_18  and  N4_19 
ROOT
HETATM    1  N1  UNL     1       0.073  52.093 -22.844  1.00  0.00    -0.110 N 
HETATM    2  C6  UNL     1       0.687  52.956 -21.923  1.00  0.00     0.282 A 
HETATM    3  O1  UNL     1       1.306  53.985 -22.189  1.00  0.00    -0.266 OA
HETATM    4  C7  UNL     1       0.645  52.581 -20.499  1.00  0.00     0.095 A 
HETATM    5  C8  UNL     1       1.239  53.343 -19.522  1.00  0.00     0.127 A 
HETATM    6  N2  UNL     1       1.237  53.007 -18.212  1.00  0.00    -0.201 N 
ATOM      7  H2  UNL     1       1.685  53.602 -17.516  1.00  0.00     0.183 HD
HETATM    8  C9  UNL     1       0.626  51.868 -17.857  1.00  0.00     0.684 A 
HETATM    9  N6  UNL     1       0.007  51.070 -18.746  1.00  0.00    -0.174 N 
ATOM     10  H6  UNL     1      -0.463  50.215 -18.449  1.00  0.00     0.186 HD
HETATM   11  C21 UNL     1       0.032  51.442 -20.048  1.00  0.00     0.162 A 
HETATM   12  N7  UNL     1      -0.594  50.639 -21.016  1.00  0.00    -0.128 N 
HETATM   13  C22 UNL     1      -1.308  49.468 -20.846  1.00  0.00     0.086 A 
HETATM   14  C23 UNL     1      -1.635  48.674 -19.735  1.00  0.00     0.033 A 
HETATM   15  C24 UNL     1      -2.404  47.526 -19.966  1.00  0.00     0.002 A 
HETATM   16  C25 UNL     1      -2.832  47.190 -21.250  1.00  0.00     0.002 A 
HETATM   17  C26 UNL     1      -2.501  47.994 -22.344  1.00  0.00     0.032 A 
HETATM   18  C27 UNL     1      -1.729  49.144 -22.132  1.00  0.00     0.077 A 
HETATM   19  N8  UNL     1      -1.289  50.066 -23.042  1.00  0.00    -0.188 N 
ATOM     20  H8  UNL     1      -1.471  50.069 -24.045  1.00  0.00     0.184 HD
HETATM   21  C28 UNL     1      -0.582  50.950 -22.364  1.00  0.00     0.701 A 
ENDROOT
BRANCH   8  22
HETATM   22  N3  UNL     1       0.610  51.403 -16.548  1.00  0.00    -0.192 N 
HETATM   23  H7  UNL     1       1.558  51.250 -16.235  1.00  0.00     0.184 HD
BRANCH  22  24
HETATM   24  C10 UNL     1      -0.401  51.162 -15.612  1.00  0.00     0.049 A 
HETATM   25  C11 UNL     1      -0.165  51.507 -14.273  1.00  0.00     0.032 A 
HETATM   26  C12 UNL     1      -1.145  51.328 -13.285  1.00  0.00     0.026 A 
HETATM   27  C13 UNL     1      -2.397  50.785 -13.596  1.00  0.00     0.010 A 
HETATM   28  C19 UNL     1      -2.627  50.434 -14.934  1.00  0.00     0.026 A 
HETATM   29  C20 UNL     1      -1.651  50.624 -15.926  1.00  0.00     0.032 A 
BRANCH  27  30
HETATM   30  N4  UNL     1      -3.418  50.587 -12.656  1.00  0.00    -0.280 NA
HETATM   31  C14 UNL     1      -3.405  51.432 -11.445  1.00  0.00     0.126 C 
HETATM   32  C15 UNL     1      -4.678  51.196 -10.599  1.00  0.00     0.286 C 
HETATM   33  N5  UNL     1      -4.939  49.783 -10.239  1.00  0.00     0.086 N 
HETATM   34  C16 UNL     1      -3.985  49.290  -9.248  1.00  0.00     0.310 C 
HETATM   35  C17 UNL     1      -4.914  48.970 -11.476  1.00  0.00     0.286 C 
HETATM   36  C18 UNL     1      -3.671  49.155 -12.381  1.00  0.00     0.126 C 
ENDBRANCH  27  30
ENDBRANCH  22  24
ENDBRANCH   8  22
BRANCH   1  37
HETATM   37  C5  UNL     1       0.068  52.353 -24.258  1.00  0.00     0.060 A 
HETATM   38  C4  UNL     1       0.282  51.339 -25.207  1.00  0.00     0.031 A 
HETATM   39  C3  UNL     1       0.280  51.604 -26.583  1.00  0.00     0.009 A 
HETATM   40  C2  UNL     1       0.079  52.899 -27.055  1.00  0.00    -0.062 A 
HETATM   41  C1  UNL     1       0.029  53.183 -28.527  1.00  0.00     0.048 C 
HETATM   42  C30 UNL     1      -0.136  53.921 -26.128  1.00  0.00     0.009 A 
HETATM   43  C29 UNL     1      -0.130  53.652 -24.752  1.00  0.00     0.031 A 
ENDBRANCH   1  37
TORSDOF 4
ENDMDL
MODEL 6
REMARK minimizedAffinity -8.55450726
REMARK CNNscore 0.452368319
REMARK CNNaffinity 7.3502984
REMARK  4 active torsions:
REMARK  status: ('A' for Active; 'I' for Inactive)
REMARK    1  A    between atoms: C5_5  and  N1_6 
REMARK    2  A    between atoms: C9_13  and  N3_14 
REMARK    3  A    between atoms: N3_14  and  C10_15 
REMARK    4  A    between atoms: C13_18  and  N4_19 
ROOT
HETATM    1  N1  UNL     1       0.040  51.794 -22.706  1.00  0.00    -0.110 N 
HETATM    2  C6  UNL     1       0.641  52.653 -21.773  1.00  0.00     0.282 A 
HETATM    3  O1  UNL     1       1.312  53.653 -22.028  1.00  0.00    -0.266 OA
HETATM    4  C7  UNL     1       0.515  52.311 -20.346  1.00  0.00     0.095 A 
HETATM    5  C8  UNL     1       1.090  53.071 -19.356  1.00  0.00     0.127 A 
HETATM    6  N2  UNL     1       1.010  52.764 -18.041  1.00  0.00    -0.201 N 
ATOM      7  H2  UNL     1       1.447  53.356 -17.335  1.00  0.00     0.183 HD
HETATM    8  C9  UNL     1       0.340  51.656 -17.695  1.00  0.00     0.684 A 
HETATM    9  N6  UNL     1      -0.265  50.863 -18.597  1.00  0.00    -0.174 N 
ATOM     10  H6  UNL     1      -0.781  50.032 -18.308  1.00  0.00     0.186 HD
HETATM   11  C21 UNL     1      -0.162  51.206 -19.903  1.00  0.00     0.162 A 
HETATM   12  N7  UNL     1      -0.771  50.406 -20.885  1.00  0.00    -0.128 N 
HETATM   13  C22 UNL     1      -1.536  49.266 -20.728  1.00  0.00     0.086 A 
HETATM   14  C23 UNL     1      -1.948  48.509 -19.620  1.00  0.00     0.033 A 
HETATM   15  C24 UNL     1      -2.747  47.386 -19.865  1.00  0.00     0.002 A 
HETATM   16  C25 UNL     1      -3.125  47.038 -21.162  1.00  0.00     0.002 A 
HETATM   17  C26 UNL     1      -2.710  47.806 -22.254  1.00  0.00     0.032 A 
HETATM   18  C27 UNL     1      -1.905  48.930 -22.027  1.00  0.00     0.077 A 
HETATM   19  N8  UNL     1      -1.386  49.815 -22.931  1.00  0.00    -0.188 N 
ATOM     20  H8  UNL     1      -1.519  49.804 -23.942  1.00  0.00     0.184 HD
HETATM   21  C28 UNL     1      -0.680  50.687 -22.237  1.00  0.00     0.701 A 
ENDROOT
BRANCH   8  22
HETATM   22  N3  UNL     1       0.242  51.220 -16.379  1.00  0.00    -0.192 N 
HETATM   23  H7  UNL     1       0.600  51.935 -15.762  1.00  0.00     0.184 HD
BRANCH  22  24
HETATM   24  C10 UNL     1      -0.269  50.070 -15.769  1.00  0.00     0.049 A 
HETATM   25  C11 UNL     1       0.613  49.016 -15.490  1.00  0.00     0.032 A 
HETATM   26  C12 UNL     1       0.180  47.846 -14.848  1.00  0.00     0.026 A 
HETATM   27  C13 UNL     1      -1.158  47.680 -14.470  1.00  0.00     0.010 A 
HETATM   28  C19 UNL     1      -2.038  48.732 -14.757  1.00  0.00     0.026 A 
HETATM   29  C20 UNL     1      -1.603  49.909 -15.389  1.00  0.00     0.032 A 
BRANCH  27  30
HETATM   30  N4  UNL     1      -1.650  46.538 -13.821  1.00  0.00    -0.280 NA
HETATM   31  C14 UNL     1      -1.718  45.286 -14.600  1.00  0.00     0.126 C 
HETATM   32  C15 UNL     1      -2.128  44.101 -13.695  1.00  0.00     0.286 C 
HETATM   33  N5  UNL     1      -3.380  44.301 -12.928  1.00  0.00     0.086 N 
HETATM   34  C16 UNL     1      -4.557  44.267 -13.793  1.00  0.00     0.310 C 
HETATM   35  C17 UNL     1      -3.280  45.578 -12.188  1.00  0.00     0.286 C 
HETATM   36  C18 UNL     1      -2.867  46.814 -13.026  1.00  0.00     0.126 C 
ENDBRANCH  27  30
ENDBRANCH  22  24
ENDBRANCH   8  22
BRANCH   1  37
HETATM   37  C5  UNL     1       0.115  52.024 -24.124  1.00  0.00     0.060 A 
HETATM   38  C4  UNL     1      -0.735  52.929 -24.782  1.00  0.00     0.031 A 
HETATM   39  C3  UNL     1      -0.657  53.142 -26.164  1.00  0.00     0.009 A 
HETATM   40  C2  UNL     1       0.266  52.441 -26.938  1.00  0.00    -0.062 A 
HETATM   41  C1  UNL     1       0.386  52.697 -28.411  1.00  0.00     0.048 C 
HETATM   42  C30 UNL     1       1.119  51.537 -26.303  1.00  0.00     0.009 A 
HETATM   43  C29 UNL     1       1.036  51.325 -24.920  1.00  0.00     0.031 A 
ENDBRANCH   1  37
TORSDOF 4
ENDMDL
MODEL 7
REMARK minimizedAffinity -9.154809
REMARK CNNscore 0.409578502
REMARK CNNaffinity 7.42221975
REMARK  4 active torsions:
REMARK  status: ('A' for Active; 'I' for Inactive)
REMARK    1  A    between atoms: C5_5  and  N1_6 
REMARK    2  A    between atoms: C9_13  and  N3_14 
REMARK    3  A    between atoms: N3_14  and  C10_15 
REMARK    4  A    between atoms: C13_18  and  N4_19 
ROOT
HETATM    1  N1  UNL     1       0.078  52.166 -23.130  1.00  0.00    -0.110 N 
HETATM    2  C6  UNL     1       0.685  53.035 -22.210  1.00  0.00     0.282 A 
HETATM    3  O1  UNL     1       1.361  54.027 -22.481  1.00  0.00    -0.266 OA
HETATM    4  C7  UNL     1       0.561  52.713 -20.779  1.00  0.00     0.095 A 
HETATM    5  C8  UNL     1       1.142  53.484 -19.800  1.00  0.00     0.127 A 
HETATM    6  N2  UNL     1       1.063  53.195 -18.481  1.00  0.00    -0.201 N 
ATOM      7  H2  UNL     1       1.504  53.795 -17.785  1.00  0.00     0.183 HD
HETATM    8  C9  UNL     1       0.387  52.096 -18.119  1.00  0.00     0.684 A 
HETATM    9  N6  UNL     1      -0.223  51.293 -19.008  1.00  0.00    -0.174 N 
ATOM     10  H6  UNL     1      -0.743  50.470 -18.706  1.00  0.00     0.186 HD
HETATM   11  C21 UNL     1      -0.122  51.618 -20.319  1.00  0.00     0.162 A 
HETATM   12  N7  UNL     1      -0.737  50.807 -21.289  1.00  0.00    -0.128 N 
HETATM   13  C22 UNL     1      -1.507  49.674 -21.115  1.00  0.00     0.086 A 
HETATM   14  C23 UNL     1      -1.921  48.935 -19.995  1.00  0.00     0.033 A 
HETATM   15  C24 UNL     1      -2.727  47.813 -20.223  1.00  0.00     0.002 A 
HETATM   16  C25 UNL     1      -3.109  47.449 -21.514  1.00  0.00     0.002 A 
HETATM   17  C26 UNL     1      -2.692  48.199 -22.618  1.00  0.00     0.032 A 
HETATM   18  C27 UNL     1      -1.881  49.323 -22.407  1.00  0.00     0.077 A 
HETATM   19  N8  UNL     1      -1.360  50.192 -23.325  1.00  0.00    -0.188 N 
ATOM     20  H8  UNL     1      -1.495  50.167 -24.336  1.00  0.00     0.184 HD
HETATM   21  C28 UNL     1      -0.647  51.070 -22.644  1.00  0.00     0.701 A 
ENDROOT
BRANCH   8  22
HETATM   22  N3  UNL     1       0.290  51.678 -16.796  1.00  0.00    -0.192 N 
HETATM   23  H7  UNL     1       0.475  52.460 -16.184  1.00  0.00     0.184 HD
BRANCH  22  24
HETATM   24  C10 UNL     1      -0.041  50.468 -16.179  1.00  0.00     0.049 A 
HETATM   25  C11 UNL     1      -1.393  50.202 -15.917  1.00  0.00     0.032 A 
HETATM   26  C12 UNL     1      -1.805  48.995 -15.333  1.00  0.00     0.026 A 
HETATM   27  C13 UNL     1      -0.876  48.009 -14.977  1.00  0.00     0.010 A 
HETATM   28  C19 UNL     1       0.475  48.281 -15.233  1.00  0.00     0.026 A 
HETATM   29  C20 UNL     1       0.886  49.484 -15.829  1.00  0.00     0.032 A 
BRANCH  27  30
HETATM   30  N4  UNL     1      -1.226  46.781 -14.397  1.00  0.00    -0.280 NA
HETATM   31  C14 UNL     1      -0.149  45.793 -14.187  1.00  0.00     0.126 C 
HETATM   32  C15 UNL     1      -0.675  44.571 -13.398  1.00  0.00     0.286 C 
HETATM   33  N5  UNL     1      -1.871  43.916 -13.978  1.00  0.00     0.086 N 
HETATM   34  C16 UNL     1      -1.552  43.197 -15.210  1.00  0.00     0.310 C 
HETATM   35  C17 UNL     1      -2.911  44.946 -14.198  1.00  0.00     0.286 C 
HETATM   36  C18 UNL     1      -2.460  46.206 -14.978  1.00  0.00     0.126 C 
ENDBRANCH  27  30
ENDBRANCH  22  24
ENDBRANCH   8  22
BRANCH   1  37
HETATM   37  C5  UNL     1       0.151  52.376 -24.551  1.00  0.00     0.060 A 
HETATM   38  C4  UNL     1      -0.818  53.116 -25.250  1.00  0.00     0.031 A 
HETATM   39  C3  UNL     1      -0.741  53.310 -26.635  1.00  0.00     0.009 A 
HETATM   40  C2  UNL     1       0.304  52.755 -27.371  1.00  0.00    -0.062 A 
HETATM   41  C1  UNL     1       0.419  52.997 -28.847  1.00  0.00     0.048 C 
HETATM   42  C30 UNL     1       1.277  52.016 -26.695  1.00  0.00     0.009 A 
HETATM   43  C29 UNL     1       1.194  51.822 -25.310  1.00  0.00     0.031 A 
ENDBRANCH   1  37
TORSDOF 4
ENDMDL
MODEL 8
REMARK minimizedAffinity -9.22114468
REMARK CNNscore 0.401336074
REMARK CNNaffinity 7.41013193
REMARK  4 active torsions:
REMARK  status: ('A' for Active; 'I' for Inactive)
REMARK    1  A    between atoms: C5_5  and  N1_6 
REMARK    2  A    between atoms: C9_13  and  N3_14 
REMARK    3  A    between atoms: N3_14  and  C10_15 
REMARK    4  A    between atoms: C13_18  and  N4_19 
ROOT
HETATM    1  N1  UNL     1      -0.284  51.860 -22.922  1.00  0.00    -0.110 N 
HETATM    2  C6  UNL     1       0.384  52.556 -21.903  1.00  0.00     0.282 A 
HETATM    3  O1  UNL     1       1.225  53.441 -22.055  1.00  0.00    -0.266 OA
HETATM    4  C7  UNL     1       0.108  52.165 -20.510  1.00  0.00     0.095 A 
HETATM    5  C8  UNL     1       0.731  52.765 -19.442  1.00  0.00     0.127 A 
HETATM    6  N2  UNL     1       0.513  52.407 -18.157  1.00  0.00    -0.201 N 
ATOM      7  H2  UNL     1       0.991  52.880 -17.390  1.00  0.00     0.183 HD
HETATM    8  C9  UNL     1      -0.352  51.410 -17.921  1.00  0.00     0.684 A 
HETATM    9  N6  UNL     1      -1.015  50.778 -18.904  1.00  0.00    -0.174 N 
ATOM     10  H6  UNL     1      -1.679  50.031 -18.699  1.00  0.00     0.186 HD
HETATM   11  C21 UNL     1      -0.770  51.167 -20.178  1.00  0.00     0.162 A 
HETATM   12  N7  UNL     1      -1.433  50.533 -21.243  1.00  0.00    -0.128 N 
HETATM   13  C22 UNL     1      -2.383  49.530 -21.203  1.00  0.00     0.086 A 
HETATM   14  C23 UNL     1      -2.987  48.796 -20.170  1.00  0.00     0.033 A 
HETATM   15  C24 UNL     1      -3.941  47.837 -20.532  1.00  0.00     0.002 A 
HETATM   16  C25 UNL     1      -4.282  47.626 -21.868  1.00  0.00     0.002 A 
HETATM   17  C26 UNL     1      -3.674  48.369 -22.884  1.00  0.00     0.032 A 
HETATM   18  C27 UNL     1      -2.714  49.330 -22.539  1.00  0.00     0.077 A 
HETATM   19  N8  UNL     1      -1.997  50.162 -23.354  1.00  0.00    -0.188 N 
ATOM     20  H8  UNL     1      -2.061  50.226 -24.370  1.00  0.00     0.184 HD
HETATM   21  C28 UNL     1      -1.206  50.866 -22.566  1.00  0.00     0.701 A 
ENDROOT
BRANCH   8  22
HETATM   22  N3  UNL     1      -0.609  50.928 -16.643  1.00  0.00    -0.192 N 
HETATM   23  H7  UNL     1      -1.571  50.627 -16.585  1.00  0.00     0.184 HD
BRANCH  22  24
HETATM   24  C10 UNL     1       0.171  50.743 -15.497  1.00  0.00     0.049 A 
HETATM   25  C11 UNL     1       0.632  51.879 -14.814  1.00  0.00     0.032 A 
HETATM   26  C12 UNL     1       1.389  51.772 -13.638  1.00  0.00     0.026 A 
HETATM   27  C13 UNL     1       1.725  50.522 -13.103  1.00  0.00     0.010 A 
HETATM   28  C19 UNL     1       1.269  49.389 -13.792  1.00  0.00     0.026 A 
HETATM   29  C20 UNL     1       0.501  49.495 -14.963  1.00  0.00     0.032 A 
BRANCH  27  30
HETATM   30  N4  UNL     1       2.473  50.351 -11.930  1.00  0.00    -0.280 NA
HETATM   31  C14 UNL     1       3.227  51.515 -11.424  1.00  0.00     0.126 C 
HETATM   32  C15 UNL     1       3.861  51.200 -10.048  1.00  0.00     0.286 C 
HETATM   33  N5  UNL     1       4.703  49.982 -10.010  1.00  0.00     0.086 N 
HETATM   34  C16 UNL     1       5.959  50.168 -10.735  1.00  0.00     0.310 C 
HETATM   35  C17 UNL     1       3.920  48.850 -10.552  1.00  0.00     0.286 C 
HETATM   36  C18 UNL     1       3.248  49.090 -11.926  1.00  0.00     0.126 C 
ENDBRANCH  27  30
ENDBRANCH  22  24
ENDBRANCH   8  22
BRANCH   1  37
HETATM   37  C5  UNL     1      -0.077  52.148 -24.315  1.00  0.00     0.060 A 
HETATM   38  C4  UNL     1       0.365  51.172 -25.225  1.00  0.00     0.031 A 
HETATM   39  C3  UNL     1       0.568  51.464 -26.580  1.00  0.00     0.009 A 
HETATM   40  C2  UNL     1       0.349  52.751 -27.068  1.00  0.00    -0.062 A 
HETATM   41  C1  UNL     1       0.520  53.060 -28.525  1.00  0.00     0.048 C 
HETATM   42  C30 UNL     1      -0.091  53.734 -26.180  1.00  0.00     0.009 A 
HETATM   43  C29 UNL     1      -0.290  53.439 -24.825  1.00  0.00     0.031 A 
ENDBRANCH   1  37
TORSDOF 4
ENDMDL
MODEL 9
REMARK minimizedAffinity -9.96097755
REMARK CNNscore 0.299420685
REMARK CNNaffinity 7.27831507
REMARK  4 active torsions:
REMARK  status: ('A' for Active; 'I' for Inactive)
REMARK    1  A    between atoms: C5_5  and  N1_6 
REMARK    2  A    between atoms: C9_13  and  N3_14 
REMARK    3  A    between atoms: N3_14  and  C10_15 
REMARK    4  A    between atoms: C13_18  and  N4_19 
ROOT
HETATM    1  N1  UNL     1       0.146  52.222 -23.125  1.00  0.00    -0.110 N 
HETATM    2  C6  UNL     1       0.763  53.101 -22.222  1.00  0.00     0.282 A 
HETATM    3  O1  UNL     1       1.437  54.089 -22.510  1.00  0.00    -0.266 OA
HETATM    4  C7  UNL     1       0.650  52.798 -20.785  1.00  0.00     0.095 A 
HETATM    5  C8  UNL     1       1.240  53.580 -19.822  1.00  0.00     0.127 A 
HETATM    6  N2  UNL     1       1.173  53.308 -18.498  1.00  0.00    -0.201 N 
ATOM      7  H2  UNL     1       1.621  53.916 -17.813  1.00  0.00     0.183 HD
HETATM    8  C9  UNL     1       0.499  52.214 -18.116  1.00  0.00     0.684 A 
HETATM    9  N6  UNL     1      -0.120  51.402 -18.990  1.00  0.00    -0.174 N 
ATOM     10  H6  UNL     1      -0.639  50.583 -18.673  1.00  0.00     0.186 HD
HETATM   11  C21 UNL     1      -0.030  51.710 -20.306  1.00  0.00     0.162 A 
HETATM   12  N7  UNL     1      -0.654  50.888 -21.259  1.00  0.00    -0.128 N 
HETATM   13  C22 UNL     1      -1.425  49.758 -21.064  1.00  0.00     0.086 A 
HETATM   14  C23 UNL     1      -1.830  49.033 -19.931  1.00  0.00     0.033 A 
HETATM   15  C24 UNL     1      -2.639  47.910 -20.139  1.00  0.00     0.002 A 
HETATM   16  C25 UNL     1      -3.033  47.530 -21.422  1.00  0.00     0.002 A 
HETATM   17  C26 UNL     1      -2.625  48.265 -22.538  1.00  0.00     0.032 A 
HETATM   18  C27 UNL     1      -1.811  49.390 -22.349  1.00  0.00     0.077 A 
HETATM   19  N8  UNL     1      -1.296  50.248 -23.282  1.00  0.00    -0.188 N 
ATOM     20  H8  UNL     1      -1.440  50.210 -24.291  1.00  0.00     0.184 HD
HETATM   21  C28 UNL     1      -0.577  51.133 -22.619  1.00  0.00     0.701 A 
ENDROOT
BRANCH   8  22
HETATM   22  N3  UNL     1       0.413  51.814 -16.788  1.00  0.00    -0.192 N 
HETATM   23  H7  UNL     1       0.053  52.576 -16.230  1.00  0.00     0.184 HD
BRANCH  22  24
HETATM   24  C10 UNL     1       0.667  50.615 -16.113  1.00  0.00     0.049 A 
HETATM   25  C11 UNL     1       1.509  50.647 -14.992  1.00  0.00     0.032 A 
HETATM   26  C12 UNL     1       1.781  49.492 -14.244  1.00  0.00     0.026 A 
HETATM   27  C13 UNL     1       1.228  48.254 -14.597  1.00  0.00     0.010 A 
HETATM   28  C19 UNL     1       0.393  48.225 -15.722  1.00  0.00     0.026 A 
HETATM   29  C20 UNL     1       0.111  49.383 -16.464  1.00  0.00     0.032 A 
BRANCH  27  30
HETATM   30  N4  UNL     1       1.458  47.067 -13.887  1.00  0.00    -0.280 NA
HETATM   31  C14 UNL     1       0.860  46.948 -12.542  1.00  0.00     0.126 C 
HETATM   32  C15 UNL     1       1.076  45.526 -11.972  1.00  0.00     0.286 C 
HETATM   33  N5  UNL     1       2.483  45.064 -11.954  1.00  0.00     0.086 N 
HETATM   34  C16 UNL     1       3.274  45.771 -10.948  1.00  0.00     0.310 C 
HETATM   35  C17 UNL     1       3.050  45.228 -13.311  1.00  0.00     0.286 C 
HETATM   36  C18 UNL     1       2.869  46.626 -13.954  1.00  0.00     0.126 C 
ENDBRANCH  27  30
ENDBRANCH  22  24
ENDBRANCH   8  22
BRANCH   1  37
HETATM   37  C5  UNL     1       0.207  52.413 -24.549  1.00  0.00     0.060 A 
HETATM   38  C4  UNL     1      -0.218  53.603 -25.164  1.00  0.00     0.031 A 
HETATM   39  C3  UNL     1      -0.159  53.778 -26.553  1.00  0.00     0.009 A 
HETATM   40  C2  UNL     1       0.314  52.757 -27.376  1.00  0.00    -0.062 A 
HETATM   41  C1  UNL     1       0.423  52.953 -28.859  1.00  0.00     0.048 C 
HETATM   42  C30 UNL     1       0.740  51.567 -26.784  1.00  0.00     0.009 A 
HETATM   43  C29 UNL     1       0.678  51.396 -25.394  1.00  0.00     0.031 A 
ENDBRANCH   1  37
TORSDOF 4
ENDMDL
