MODEL 1
REMARK minimizedAffinity -8.62916946
REMARK  8 active torsions:
REMARK  status: ('A' for Active; 'I' for Inactive)
REMARK    1  A    between atoms: O1_2  and  C2_3 
REMARK    2  A    between atoms: C5_6  and  N1_7 
REMARK    3  A    between atoms: N1_7  and  C6_8 
REMARK    4  A    between atoms: C17_24  and  O3_25 
REMARK    5  A    between atoms: O3_25  and  C18_26 
REMARK    6  A    between atoms: C18_26  and  C19_27 
REMARK    7  A    between atoms: C19_27  and  C20_28 
REMARK    8  A    between atoms: C20_28  and  N4_29 
ROOT
HETATM    1  C2  UNL     1      -1.500  50.192 -21.204  1.00  0.00     0.102 A 
HETATM    2  C3  UNL     1      -0.927  50.897 -20.145  1.00  0.00     0.057 A 
HETATM    3  C4  UNL     1      -0.072  52.005 -20.381  1.00  0.00     0.038 A 
HETATM    4  C5  UNL     1       0.554  52.776 -19.380  1.00  0.00     0.119 A 
HETATM    5  N2  UNL     1       1.316  53.844 -19.675  1.00  0.00    -0.338 N 
ATOM      6  H2  UNL     1       1.746  54.411 -18.945  1.00  0.00     0.168 HD
HETATM    7  C14 UNL     1       1.481  54.127 -20.969  1.00  0.00     0.182 A 
HETATM    8  N3  UNL     1       0.961  53.449 -21.997  1.00  0.00    -0.351 N 
ATOM      9  H3  UNL     1       1.146  53.719 -22.964  1.00  0.00     0.166 HD
HETATM   10  C15 UNL     1       0.188  52.402 -21.698  1.00  0.00     0.050 A 
HETATM   11  C16 UNL     1      -0.379  51.684 -22.744  1.00  0.00     0.070 A 
HETATM   12  C17 UNL     1      -1.211  50.581 -22.521  1.00  0.00     0.104 A 
ENDROOT
BRANCH   4  13
HETATM   13  N1  UNL     1       0.382  52.407 -18.020  1.00  0.00    -0.341 N 
HETATM   14  H5  UNL     1      -0.398  51.768 -17.930  1.00  0.00     0.167 HD
BRANCH  13  15
HETATM   15  C6  UNL     1       1.380  52.148 -17.055  1.00  0.00     0.046 A 
HETATM   16  C7  UNL     1       2.600  52.861 -17.040  1.00  0.00     0.030 A 
HETATM   17  C8  UNL     1       3.584  52.644 -16.069  1.00  0.00     0.005 A 
HETATM   18  C9  UNL     1       3.392  51.713 -15.049  1.00  0.00     0.038 A 
HETATM   19  C10 UNL     1       2.181  51.029 -15.060  1.00  0.00     0.087 A 
HETATM   20  O2  UNL     1       1.806  50.092 -14.145  1.00  0.00    -0.322 OA
HETATM   21  C13 UNL     1       1.180  51.212 -16.011  1.00  0.00     0.026 A 
HETATM   22  C11 UNL     1       0.568  49.665 -14.499  1.00  0.00     0.143 A 
HETATM   23  C12 UNL     1       0.136  50.317 -15.631  1.00  0.00     0.041 A 
ENDBRANCH  13  15
ENDBRANCH   4  13
BRANCH   1  24
HETATM   24  O1  UNL     1      -2.327  49.108 -21.056  1.00  0.00    -0.353 OA
HETATM   25  C1  UNL     1      -3.607  49.329 -20.482  1.00  0.00     0.210 C 
ENDBRANCH   1  24
BRANCH  12  26
HETATM   26  O3  UNL     1      -1.802  49.841 -23.514  1.00  0.00    -0.348 OA
BRANCH  26  27
HETATM   27  C18 UNL     1      -2.403  50.542 -24.606  1.00  0.00     0.177 C 
BRANCH  27  28
HETATM   28  C19 UNL     1      -1.888  49.916 -25.896  1.00  0.00     0.057 C 
BRANCH  28  29
HETATM   29  C20 UNL     1      -1.912  50.840 -27.119  1.00  0.00     0.274 C 
BRANCH  29  30
HETATM   30  N4  UNL     1      -0.608  51.457 -27.394  1.00  0.00     0.092 N 
HETATM   31  C21 UNL     1      -0.604  52.928 -27.232  1.00  0.00     0.298 C 
HETATM   32  C22 UNL     1       0.056  53.408 -25.928  1.00  0.00     0.198 C 
HETATM   33  O4  UNL     1       1.420  52.987 -25.797  1.00  0.00    -0.388 OA
HETATM   34  C23 UNL     1       1.693  51.748 -26.467  1.00  0.00     0.198 C 
HETATM   35  C24 UNL     1       0.455  50.846 -26.563  1.00  0.00     0.298 C 
ENDBRANCH  29  30
ENDBRANCH  28  29
ENDBRANCH  27  28
ENDBRANCH  26  27
ENDBRANCH  12  26
TORSDOF 8
ENDMDL
MODEL 2
REMARK minimizedAffinity -8.3515749
REMARK  8 active torsions:
REMARK  status: ('A' for Active; 'I' for Inactive)
REMARK    1  A    between atoms: O1_2  and  C2_3 
REMARK    2  A    between atoms: C5_6  and  N1_7 
REMARK    3  A    between atoms: N1_7  and  C6_8 
REMARK    4  A    between atoms: C17_24  and  O3_25 
REMARK    5  A    between atoms: O3_25  and  C18_26 
REMARK    6  A    between atoms: C18_26  and  C19_27 
REMARK    7  A    between atoms: C19_27  and  C20_28 
REMARK    8  A    between atoms: C20_28  and  N4_29 
ROOT
HETATM    1  C2  UNL     1      -3.882  48.921 -24.815  1.00  0.00     0.102 A 
HETATM    2  C3  UNL     1      -2.918  49.650 -24.117  1.00  0.00     0.057 A 
HETATM    3  C4  UNL     1      -1.870  50.320 -24.802  1.00  0.00     0.038 A 
HETATM    4  C5  UNL     1      -0.851  51.076 -24.186  1.00  0.00     0.119 A 
HETATM    5  N2  UNL     1       0.085  51.725 -24.902  1.00  0.00    -0.338 N 
ATOM      6  H2  UNL     1       0.805  52.290 -24.452  1.00  0.00     0.168 HD
HETATM    7  C14 UNL     1       0.026  51.596 -26.229  1.00  0.00     0.182 A 
HETATM    8  N3  UNL     1      -0.875  50.883 -26.913  1.00  0.00    -0.351 N 
ATOM      9  H3  UNL     1      -0.846  50.820 -27.931  1.00  0.00     0.166 HD
HETATM   10  C15 UNL     1      -1.815  50.258 -26.199  1.00  0.00     0.050 A 
HETATM   11  C16 UNL     1      -2.774  49.520 -26.880  1.00  0.00     0.070 A 
HETATM   12  C17 UNL     1      -3.802  48.843 -26.213  1.00  0.00     0.104 A 
ENDROOT
BRANCH   4  13
HETATM   13  N1  UNL     1      -0.807  51.146 -22.769  1.00  0.00    -0.341 N 
HETATM   14  H5  UNL     1      -0.832  50.214 -22.376  1.00  0.00     0.167 HD
BRANCH  13  15
HETATM   15  C6  UNL     1      -0.057  52.031 -21.965  1.00  0.00     0.046 A 
HETATM   16  C7  UNL     1       0.616  53.146 -22.515  1.00  0.00     0.030 A 
HETATM   17  C8  UNL     1       1.331  54.054 -21.727  1.00  0.00     0.005 A 
HETATM   18  C9  UNL     1       1.398  53.906 -20.342  1.00  0.00     0.038 A 
HETATM   19  C10 UNL     1       0.718  52.817 -19.807  1.00  0.00     0.087 A 
HETATM   20  O2  UNL     1       0.658  52.511 -18.481  1.00  0.00    -0.322 OA
HETATM   21  C13 UNL     1       0.001  51.888 -20.556  1.00  0.00     0.026 A 
HETATM   22  C11 UNL     1      -0.093  51.387 -18.367  1.00  0.00     0.143 A 
HETATM   23  C12 UNL     1      -0.523  50.965 -19.604  1.00  0.00     0.041 A 
ENDBRANCH  13  15
ENDBRANCH   4  13
BRANCH   1  24
HETATM   24  O1  UNL     1      -4.916  48.242 -24.224  1.00  0.00    -0.353 OA
HETATM   25  C1  UNL     1      -6.048  48.993 -23.809  1.00  0.00     0.210 C 
ENDBRANCH   1  24
BRANCH  12  26
HETATM   26  O3  UNL     1      -4.778  48.105 -26.834  1.00  0.00    -0.348 OA
BRANCH  26  27
HETATM   27  C18 UNL     1      -4.832  48.133 -28.263  1.00  0.00     0.177 C 
BRANCH  27  28
HETATM   28  C19 UNL     1      -6.192  47.592 -28.685  1.00  0.00     0.057 C 
BRANCH  28  29
HETATM   29  C20 UNL     1      -6.705  48.108 -30.034  1.00  0.00     0.274 C 
BRANCH  29  30
HETATM   30  N4  UNL     1      -6.147  47.374 -31.176  1.00  0.00     0.092 N 
HETATM   31  C21 UNL     1      -7.176  46.845 -32.098  1.00  0.00     0.298 C 
HETATM   32  C22 UNL     1      -7.325  47.660 -33.395  1.00  0.00     0.198 C 
HETATM   33  O4  UNL     1      -6.113  47.742 -34.153  1.00  0.00    -0.388 OA
HETATM   34  C23 UNL     1      -4.934  47.674 -33.338  1.00  0.00     0.198 C 
HETATM   35  C24 UNL     1      -5.170  48.204 -31.916  1.00  0.00     0.298 C 
ENDBRANCH  29  30
ENDBRANCH  28  29
ENDBRANCH  27  28
ENDBRANCH  26  27
ENDBRANCH  12  26
TORSDOF 8
ENDMDL
MODEL 3
REMARK minimizedAffinity -8.26332855
REMARK  8 active torsions:
REMARK  status: ('A' for Active; 'I' for Inactive)
REMARK    1  A    between atoms: O1_2  and  C2_3 
REMARK    2  A    between atoms: C5_6  and  N1_7 
REMARK    3  A    between atoms: N1_7  and  C6_8 
REMARK    4  A    between atoms: C17_24  and  O3_25 
REMARK    5  A    between atoms: O3_25  and  C18_26 
REMARK    6  A    between atoms: C18_26  and  C19_27 
REMARK    7  A    between atoms: C19_27  and  C20_28 
REMARK    8  A    between atoms: C20_28  and  N4_29 
ROOT
HETATM    1  C2  UNL     1      -2.451  49.762 -24.917  1.00  0.00     0.102 A 
HETATM    2  C3  UNL     1      -1.380  50.452 -24.348  1.00  0.00     0.057 A 
HETATM    3  C4  UNL     1      -0.858  51.623 -24.957  1.00  0.00     0.038 A 
HETATM    4  C5  UNL     1       0.220  52.385 -24.461  1.00  0.00     0.119 A 
HETATM    5  N2  UNL     1       0.631  53.514 -25.066  1.00  0.00    -0.338 N 
ATOM      6  H2  UNL     1       1.397  54.073 -24.689  1.00  0.00     0.168 HD
HETATM    7  C14 UNL     1      -0.009  53.868 -26.182  1.00  0.00     0.182 A 
HETATM    8  N3  UNL     1      -1.021  53.207 -26.754  1.00  0.00    -0.351 N 
ATOM      9  H3  UNL     1      -1.452  53.534 -27.619  1.00  0.00     0.166 HD
HETATM   10  C15 UNL     1      -1.440  52.099 -26.138  1.00  0.00     0.050 A 
HETATM   11  C16 UNL     1      -2.498  51.395 -26.700  1.00  0.00     0.070 A 
HETATM   12  C17 UNL     1      -3.009  50.231 -26.115  1.00  0.00     0.104 A 
ENDROOT
BRANCH   4  13
HETATM   13  N1  UNL     1       0.897  51.942 -23.295  1.00  0.00    -0.341 N 
HETATM   14  H5  UNL     1       1.879  51.801 -23.496  1.00  0.00     0.167 HD
BRANCH  13  15
HETATM   15  C6  UNL     1       0.693  52.356 -21.960  1.00  0.00     0.046 A 
HETATM   16  C7  UNL     1       0.980  53.673 -21.540  1.00  0.00     0.030 A 
HETATM   17  C8  UNL     1       0.749  54.111 -20.231  1.00  0.00     0.005 A 
HETATM   18  C9  UNL     1       0.199  53.257 -19.276  1.00  0.00     0.038 A 
HETATM   19  C10 UNL     1      -0.099  51.967 -19.703  1.00  0.00     0.087 A 
HETATM   20  O2  UNL     1      -0.648  50.995 -18.922  1.00  0.00    -0.322 OA
HETATM   21  C13 UNL     1       0.122  51.492 -20.993  1.00  0.00     0.026 A 
HETATM   22  C11 UNL     1      -0.782  49.891 -19.700  1.00  0.00     0.143 A 
HETATM   23  C12 UNL     1      -0.329  50.139 -20.975  1.00  0.00     0.041 A 
ENDBRANCH  13  15
ENDBRANCH   4  13
BRANCH   1  24
HETATM   24  O1  UNL     1      -3.002  48.621 -24.393  1.00  0.00    -0.353 OA
HETATM   25  C1  UNL     1      -3.632  48.714 -23.123  1.00  0.00     0.210 C 
ENDBRANCH   1  24
BRANCH  12  26
HETATM   26  O3  UNL     1      -4.054  49.501 -26.622  1.00  0.00    -0.348 OA
BRANCH  26  27
HETATM   27  C18 UNL     1      -3.791  48.629 -27.723  1.00  0.00     0.177 C 
BRANCH  27  28
HETATM   28  C19 UNL     1      -5.124  48.058 -28.191  1.00  0.00     0.057 C 
BRANCH  28  29
HETATM   29  C20 UNL     1      -5.385  48.172 -29.697  1.00  0.00     0.274 C 
BRANCH  29  30
HETATM   30  N4  UNL     1      -6.685  47.619 -30.095  1.00  0.00     0.092 N 
HETATM   31  C21 UNL     1      -7.674  47.586 -28.995  1.00  0.00     0.298 C 
HETATM   32  C22 UNL     1      -8.735  48.697 -29.080  1.00  0.00     0.198 C 
HETATM   33  O4  UNL     1      -9.490  48.666 -30.297  1.00  0.00    -0.388 OA
HETATM   34  C23 UNL     1      -8.751  48.127 -31.403  1.00  0.00     0.198 C 
HETATM   35  C24 UNL     1      -7.238  48.345 -31.261  1.00  0.00     0.298 C 
ENDBRANCH  29  30
ENDBRANCH  28  29
ENDBRANCH  27  28
ENDBRANCH  26  27
ENDBRANCH  12  26
TORSDOF 8
ENDMDL
MODEL 4
REMARK minimizedAffinity -8.2022438
REMARK  8 active torsions:
REMARK  status: ('A' for Active; 'I' for Inactive)
REMARK    1  A    between atoms: O1_2  and  C2_3 
REMARK    2  A    between atoms: C5_6  and  N1_7 
REMARK    3  A    between atoms: N1_7  and  C6_8 
REMARK    4  A    between atoms: C17_24  and  O3_25 
REMARK    5  A    between atoms: O3_25  and  C18_26 
REMARK    6  A    between atoms: C18_26  and  C19_27 
REMARK    7  A    between atoms: C19_27  and  C20_28 
REMARK    8  A    between atoms: C20_28  and  N4_29 
ROOT
HETATM    1  C2  UNL     1      -0.950  49.499 -19.490  1.00  0.00     0.102 A 
HETATM    2  C3  UNL     1      -0.420  50.598 -18.812  1.00  0.00     0.057 A 
HETATM    3  C4  UNL     1       0.151  51.687 -19.519  1.00  0.00     0.038 A 
HETATM    4  C5  UNL     1       0.712  52.837 -18.924  1.00  0.00     0.119 A 
HETATM    5  N2  UNL     1       1.193  53.855 -19.658  1.00  0.00    -0.338 N 
ATOM      6  H2  UNL     1       1.577  54.694 -19.222  1.00  0.00     0.168 HD
HETATM    7  C14 UNL     1       1.145  53.718 -20.985  1.00  0.00     0.182 A 
HETATM    8  N3  UNL     1       0.664  52.664 -21.652  1.00  0.00    -0.351 N 
ATOM      9  H3  UNL     1       0.674  52.625 -22.671  1.00  0.00     0.166 HD
HETATM   10  C15 UNL     1       0.167  51.664 -20.918  1.00  0.00     0.050 A 
HETATM   11  C16 UNL     1      -0.353  50.559 -21.580  1.00  0.00     0.070 A 
HETATM   12  C17 UNL     1      -0.904  49.473 -20.892  1.00  0.00     0.104 A 
ENDROOT
BRANCH   4  13
HETATM   13  N1  UNL     1       0.780  52.915 -17.508  1.00  0.00    -0.341 N 
HETATM   14  H5  UNL     1      -0.144  52.799 -17.111  1.00  0.00     0.167 HD
BRANCH  13  15
HETATM   15  C6  UNL     1       1.782  52.403 -16.656  1.00  0.00     0.046 A 
HETATM   16  C7  UNL     1       3.123  52.842 -16.739  1.00  0.00     0.030 A 
HETATM   17  C8  UNL     1       4.121  52.374 -15.877  1.00  0.00     0.005 A 
HETATM   18  C9  UNL     1       3.826  51.453 -14.872  1.00  0.00     0.038 A 
HETATM   19  C10 UNL     1       2.500  51.041 -14.784  1.00  0.00     0.087 A 
HETATM   20  O2  UNL     1       2.017  50.158 -13.866  1.00  0.00    -0.322 OA
HETATM   21  C13 UNL     1       1.480  51.478 -15.626  1.00  0.00     0.026 A 
HETATM   22  C11 UNL     1       0.690  50.019 -14.110  1.00  0.00     0.143 A 
HETATM   23  C12 UNL     1       0.308  50.805 -15.172  1.00  0.00     0.041 A 
ENDBRANCH  13  15
ENDBRANCH   4  13
BRANCH   1  24
HETATM   24  O1  UNL     1      -1.509  48.407 -18.877  1.00  0.00    -0.353 OA
HETATM   25  C1  UNL     1      -1.890  48.537 -17.515  1.00  0.00     0.210 C 
ENDBRANCH   1  24
BRANCH  12  26
HETATM   26  O3  UNL     1      -1.437  48.361 -21.493  1.00  0.00    -0.348 OA
BRANCH  26  27
HETATM   27  C18 UNL     1      -2.832  48.372 -21.807  1.00  0.00     0.177 C 
BRANCH  27  28
HETATM   28  C19 UNL     1      -2.966  48.564 -23.313  1.00  0.00     0.057 C 
BRANCH  28  29
HETATM   29  C20 UNL     1      -3.557  49.911 -23.744  1.00  0.00     0.274 C 
BRANCH  29  30
HETATM   30  N4  UNL     1      -4.147  49.872 -25.087  1.00  0.00     0.092 N 
HETATM   31  C21 UNL     1      -3.465  50.755 -26.059  1.00  0.00     0.298 C 
HETATM   32  C22 UNL     1      -2.542  50.007 -27.037  1.00  0.00     0.198 C 
HETATM   33  O4  UNL     1      -3.225  49.014 -27.810  1.00  0.00    -0.388 OA
HETATM   34  C23 UNL     1      -4.357  48.451 -27.130  1.00  0.00     0.198 C 
HETATM   35  C24 UNL     1      -4.202  48.485 -25.603  1.00  0.00     0.298 C 
ENDBRANCH  29  30
ENDBRANCH  28  29
ENDBRANCH  27  28
ENDBRANCH  26  27
ENDBRANCH  12  26
TORSDOF 8
ENDMDL
MODEL 5
REMARK minimizedAffinity -8.18034935
REMARK  8 active torsions:
REMARK  status: ('A' for Active; 'I' for Inactive)
REMARK    1  A    between atoms: O1_2  and  C2_3 
REMARK    2  A    between atoms: C5_6  and  N1_7 
REMARK    3  A    between atoms: N1_7  and  C6_8 
REMARK    4  A    between atoms: C17_24  and  O3_25 
REMARK    5  A    between atoms: O3_25  and  C18_26 
REMARK    6  A    between atoms: C18_26  and  C19_27 
REMARK    7  A    between atoms: C19_27  and  C20_28 
REMARK    8  A    between atoms: C20_28  and  N4_29 
ROOT
HETATM    1  C2  UNL     1      -0.444  50.686 -19.475  1.00  0.00     0.102 A 
HETATM    2  C3  UNL     1      -0.363  50.937 -20.845  1.00  0.00     0.057 A 
HETATM    3  C4  UNL     1       0.212  52.137 -21.337  1.00  0.00     0.038 A 
HETATM    4  C5  UNL     1       0.336  52.481 -22.699  1.00  0.00     0.119 A 
HETATM    5  N2  UNL     1       0.936  53.616 -23.096  1.00  0.00    -0.338 N 
ATOM      6  H2  UNL     1       1.044  53.847 -24.083  1.00  0.00     0.168 HD
HETATM    7  C14 UNL     1       1.386  54.427 -22.135  1.00  0.00     0.182 A 
HETATM    8  N3  UNL     1       1.296  54.216 -20.819  1.00  0.00    -0.351 N 
ATOM      9  H3  UNL     1       1.651  54.893 -20.143  1.00  0.00     0.166 HD
HETATM   10  C15 UNL     1       0.718  53.076 -20.430  1.00  0.00     0.050 A 
HETATM   11  C16 UNL     1       0.620  52.820 -19.068  1.00  0.00     0.070 A 
HETATM   12  C17 UNL     1       0.041  51.646 -18.574  1.00  0.00     0.104 A 
ENDROOT
BRANCH   4  13
HETATM   13  N1  UNL     1      -0.198  51.604 -23.680  1.00  0.00    -0.341 N 
HETATM   14  H5  UNL     1      -1.155  51.367 -23.449  1.00  0.00     0.167 HD
BRANCH  13  15
HETATM   15  C6  UNL     1       0.008  51.632 -25.077  1.00  0.00     0.046 A 
HETATM   16  C7  UNL     1       1.300  51.762 -25.634  1.00  0.00     0.030 A 
HETATM   17  C8  UNL     1       1.527  51.753 -27.014  1.00  0.00     0.005 A 
HETATM   18  C9  UNL     1       0.473  51.595 -27.913  1.00  0.00     0.038 A 
HETATM   19  C10 UNL     1      -0.794  51.449 -27.356  1.00  0.00     0.087 A 
HETATM   20  O2  UNL     1      -1.943  51.275 -28.067  1.00  0.00    -0.322 OA
HETATM   21  C13 UNL     1      -1.061  51.459 -25.989  1.00  0.00     0.026 A 
HETATM   22  C11 UNL     1      -2.954  51.173 -27.168  1.00  0.00     0.143 A 
HETATM   23  C12 UNL     1      -2.472  51.276 -25.884  1.00  0.00     0.041 A 
ENDBRANCH  13  15
ENDBRANCH   4  13
BRANCH   1  24
HETATM   24  O1  UNL     1      -0.993  49.557 -18.925  1.00  0.00    -0.353 OA
HETATM   25  C1  UNL     1      -1.233  48.453 -19.787  1.00  0.00     0.210 C 
ENDBRANCH   1  24
BRANCH  12  26
HETATM   26  O3  UNL     1      -0.076  51.339 -17.242  1.00  0.00    -0.348 OA
BRANCH  26  27
HETATM   27  C18 UNL     1       1.125  51.169 -16.485  1.00  0.00     0.177 C 
BRANCH  27  28
HETATM   28  C19 UNL     1       1.143  52.239 -15.400  1.00  0.00     0.057 C 
BRANCH  28  29
HETATM   29  C20 UNL     1       0.808  51.738 -13.991  1.00  0.00     0.274 C 
BRANCH  29  30
HETATM   30  N4  UNL     1      -0.138  52.612 -13.285  1.00  0.00     0.092 N 
HETATM   31  C21 UNL     1      -1.494  52.033 -13.158  1.00  0.00     0.298 C 
HETATM   32  C22 UNL     1      -1.805  51.479 -11.757  1.00  0.00     0.198 C 
HETATM   33  O4  UNL     1      -1.692  52.464 -10.722  1.00  0.00    -0.388 OA
HETATM   34  C23 UNL     1      -0.734  53.489 -11.024  1.00  0.00     0.198 C 
HETATM   35  C24 UNL     1       0.384  52.995 -11.954  1.00  0.00     0.298 C 
ENDBRANCH  29  30
ENDBRANCH  28  29
ENDBRANCH  27  28
ENDBRANCH  26  27
ENDBRANCH  12  26
TORSDOF 8
ENDMDL
MODEL 6
REMARK minimizedAffinity -8.13043404
REMARK  8 active torsions:
REMARK  status: ('A' for Active; 'I' for Inactive)
REMARK    1  A    between atoms: O1_2  and  C2_3 
REMARK    2  A    between atoms: C5_6  and  N1_7 
REMARK    3  A    between atoms: N1_7  and  C6_8 
REMARK    4  A    between atoms: C17_24  and  O3_25 
REMARK    5  A    between atoms: O3_25  and  C18_26 
REMARK    6  A    between atoms: C18_26  and  C19_27 
REMARK    7  A    between atoms: C19_27  and  C20_28 
REMARK    8  A    between atoms: C20_28  and  N4_29 
ROOT
HETATM    1  C2  UNL     1      -4.971  48.008 -28.533  1.00  0.00     0.102 A 
HETATM    2  C3  UNL     1      -3.999  48.499 -27.661  1.00  0.00     0.057 A 
HETATM    3  C4  UNL     1      -4.241  48.576 -26.264  1.00  0.00     0.038 A 
HETATM    4  C5  UNL     1      -3.325  49.059 -25.306  1.00  0.00     0.119 A 
HETATM    5  N2  UNL     1      -3.604  49.058 -23.991  1.00  0.00    -0.338 N 
ATOM      6  H2  UNL     1      -2.928  49.386 -23.301  1.00  0.00     0.168 HD
HETATM    7  C14 UNL     1      -4.807  48.606 -23.630  1.00  0.00     0.182 A 
HETATM    8  N3  UNL     1      -5.759  48.154 -24.452  1.00  0.00    -0.351 N 
ATOM      9  H3  UNL     1      -6.664  47.838 -24.101  1.00  0.00     0.166 HD
HETATM   10  C15 UNL     1      -5.469  48.137 -25.756  1.00  0.00     0.050 A 
HETATM   11  C16 UNL     1      -6.433  47.661 -26.637  1.00  0.00     0.070 A 
HETATM   12  C17 UNL     1      -6.209  47.596 -28.017  1.00  0.00     0.104 A 
ENDROOT
BRANCH   4  13
HETATM   13  N1  UNL     1      -2.076  49.569 -25.746  1.00  0.00    -0.341 N 
HETATM   14  H5  UNL     1      -2.049  49.595 -26.758  1.00  0.00     0.167 HD
BRANCH  13  15
HETATM   15  C6  UNL     1      -1.314  50.613 -25.178  1.00  0.00     0.046 A 
HETATM   16  C7  UNL     1      -1.497  51.022 -23.838  1.00  0.00     0.030 A 
HETATM   17  C8  UNL     1      -0.725  52.028 -23.248  1.00  0.00     0.005 A 
HETATM   18  C9  UNL     1       0.286  52.670 -23.963  1.00  0.00     0.038 A 
HETATM   19  C10 UNL     1       0.473  52.248 -25.276  1.00  0.00     0.087 A 
HETATM   20  O2  UNL     1       1.412  52.745 -26.127  1.00  0.00    -0.322 OA
HETATM   21  C13 UNL     1      -0.278  51.255 -25.901  1.00  0.00     0.026 A 
HETATM   22  C11 UNL     1       1.274  52.080 -27.302  1.00  0.00     0.143 A 
HETATM   23  C12 UNL     1       0.257  51.157 -27.219  1.00  0.00     0.041 A 
ENDBRANCH  13  15
ENDBRANCH   4  13
BRANCH   1  24
HETATM   24  O1  UNL     1      -4.815  47.912 -29.892  1.00  0.00    -0.353 OA
HETATM   25  C1  UNL     1      -5.085  49.069 -30.671  1.00  0.00     0.210 C 
ENDBRANCH   1  24
BRANCH  12  26
HETATM   26  O3  UNL     1      -7.120  47.130 -28.931  1.00  0.00    -0.348 OA
BRANCH  26  27
HETATM   27  C18 UNL     1      -7.253  45.714 -29.083  1.00  0.00     0.177 C 
BRANCH  27  28
HETATM   28  C19 UNL     1      -8.621  45.317 -28.542  1.00  0.00     0.057 C 
BRANCH  28  29
HETATM   29  C20 UNL     1      -9.808  46.039 -29.191  1.00  0.00     0.274 C 
BRANCH  29  30
HETATM   30  N4  UNL     1     -10.884  46.339 -28.237  1.00  0.00     0.092 N 
HETATM   31  C21 UNL     1     -10.405  46.542 -26.852  1.00  0.00     0.298 C 
HETATM   32  C22 UNL     1     -10.355  48.018 -26.422  1.00  0.00     0.198 C 
HETATM   33  O4  UNL     1     -11.625  48.675 -26.506  1.00  0.00    -0.388 OA
HETATM   34  C23 UNL     1     -12.474  48.128 -27.526  1.00  0.00     0.198 C 
HETATM   35  C24 UNL     1     -11.679  47.506 -28.682  1.00  0.00     0.298 C 
ENDBRANCH  29  30
ENDBRANCH  28  29
ENDBRANCH  27  28
ENDBRANCH  26  27
ENDBRANCH  12  26
TORSDOF 8
ENDMDL
MODEL 7
REMARK minimizedAffinity -8.07240105
REMARK  8 active torsions:
REMARK  status: ('A' for Active; 'I' for Inactive)
REMARK    1  A    between atoms: O1_2  and  C2_3 
REMARK    2  A    between atoms: C5_6  and  N1_7 
REMARK    3  A    between atoms: N1_7  and  C6_8 
REMARK    4  A    between atoms: C17_24  and  O3_25 
REMARK    5  A    between atoms: O3_25  and  C18_26 
REMARK    6  A    between atoms: C18_26  and  C19_27 
REMARK    7  A    between atoms: C19_27  and  C20_28 
REMARK    8  A    between atoms: C20_28  and  N4_29 
ROOT
HETATM    1  C2  UNL     1      -0.909  49.921 -19.922  1.00  0.00     0.102 A 
HETATM    2  C3  UNL     1      -0.371  50.514 -21.066  1.00  0.00     0.057 A 
HETATM    3  C4  UNL     1       0.115  51.847 -21.039  1.00  0.00     0.038 A 
HETATM    4  C5  UNL     1       0.672  52.531 -22.140  1.00  0.00     0.119 A 
HETATM    5  N2  UNL     1       1.158  53.779 -22.031  1.00  0.00    -0.338 N 
ATOM      6  H2  UNL     1       1.581  54.260 -22.825  1.00  0.00     0.168 HD
HETATM    7  C14 UNL     1       1.063  54.361 -20.833  1.00  0.00     0.182 A 
HETATM    8  N3  UNL     1       0.530  53.819 -19.734  1.00  0.00    -0.351 N 
ATOM      9  H3  UNL     1       0.480  54.333 -18.854  1.00  0.00     0.166 HD
HETATM   10  C15 UNL     1       0.068  52.570 -19.842  1.00  0.00     0.050 A 
HETATM   11  C16 UNL     1      -0.480  51.973 -18.714  1.00  0.00     0.070 A 
HETATM   12  C17 UNL     1      -0.977  50.664 -18.734  1.00  0.00     0.104 A 
ENDROOT
BRANCH   4  13
HETATM   13  N1  UNL     1       0.710  51.884 -23.403  1.00  0.00    -0.341 N 
HETATM   14  H5  UNL     1       1.072  50.944 -23.301  1.00  0.00     0.167 HD
BRANCH  13  15
HETATM   15  C6  UNL     1      -0.232  51.967 -24.452  1.00  0.00     0.046 A 
HETATM   16  C7  UNL     1      -1.599  52.225 -24.204  1.00  0.00     0.030 A 
HETATM   17  C8  UNL     1      -2.538  52.349 -25.233  1.00  0.00     0.005 A 
HETATM   18  C9  UNL     1      -2.157  52.238 -26.570  1.00  0.00     0.038 A 
HETATM   19  C10 UNL     1      -0.806  52.003 -26.807  1.00  0.00     0.087 A 
HETATM   20  O2  UNL     1      -0.242  51.874 -28.039  1.00  0.00    -0.322 OA
HETATM   21  C13 UNL     1       0.158  51.867 -25.810  1.00  0.00     0.026 A 
HETATM   22  C11 UNL     1       1.084  51.655 -27.848  1.00  0.00     0.143 A 
HETATM   23  C12 UNL     1       1.383  51.643 -26.506  1.00  0.00     0.041 A 
ENDBRANCH  13  15
ENDBRANCH   4  13
BRANCH   1  24
HETATM   24  O1  UNL     1      -1.406  48.645 -19.873  1.00  0.00    -0.353 OA
HETATM   25  C1  UNL     1      -1.296  47.847 -21.043  1.00  0.00     0.210 C 
ENDBRANCH   1  24
BRANCH  12  26
HETATM   26  O3  UNL     1      -1.522  50.023 -17.651  1.00  0.00    -0.348 OA
BRANCH  26  27
HETATM   27  C18 UNL     1      -0.665  49.193 -16.862  1.00  0.00     0.177 C 
BRANCH  27  28
HETATM   28  C19 UNL     1       0.561  50.017 -16.488  1.00  0.00     0.057 C 
BRANCH  28  29
HETATM   29  C20 UNL     1       0.407  50.870 -15.223  1.00  0.00     0.274 C 
BRANCH  29  30
HETATM   30  N4  UNL     1       1.451  51.894 -15.095  1.00  0.00     0.092 N 
HETATM   31  C21 UNL     1       2.440  51.600 -14.035  1.00  0.00     0.298 C 
HETATM   32  C22 UNL     1       3.785  51.075 -14.567  1.00  0.00     0.198 C 
HETATM   33  O4  UNL     1       4.427  51.981 -15.471  1.00  0.00    -0.388 OA
HETATM   34  C23 UNL     1       3.500  52.799 -16.200  1.00  0.00     0.198 C 
HETATM   35  C24 UNL     1       2.136  52.119 -16.389  1.00  0.00     0.298 C 
ENDBRANCH  29  30
ENDBRANCH  28  29
ENDBRANCH  27  28
ENDBRANCH  26  27
ENDBRANCH  12  26
TORSDOF 8
ENDMDL
MODEL 8
REMARK minimizedAffinity -8.03220177
REMARK  8 active torsions:
REMARK  status: ('A' for Active; 'I' for Inactive)
REMARK    1  A    between atoms: O1_2  and  C2_3 
REMARK    2  A    between atoms: C5_6  and  N1_7 
REMARK    3  A    between atoms: N1_7  and  C6_8 
REMARK    4  A    between atoms: C17_24  and  O3_25 
REMARK    5  A    between atoms: O3_25  and  C18_26 
REMARK    6  A    between atoms: C18_26  and  C19_27 
REMARK    7  A    between atoms: C19_27  and  C20_28 
REMARK    8  A    between atoms: C20_28  and  N4_29 
ROOT
HETATM    1  C2  UNL     1      -1.417  50.451 -22.875  1.00  0.00     0.102 A 
HETATM    2  C3  UNL     1      -1.909  49.935 -24.075  1.00  0.00     0.057 A 
HETATM    3  C4  UNL     1      -2.058  50.761 -25.220  1.00  0.00     0.038 A 
HETATM    4  C5  UNL     1      -2.548  50.333 -26.471  1.00  0.00     0.119 A 
HETATM    5  N2  UNL     1      -2.616  51.160 -27.529  1.00  0.00    -0.338 N 
ATOM      6  H2  UNL     1      -2.950  50.839 -28.438  1.00  0.00     0.168 HD
HETATM    7  C14 UNL     1      -2.226  52.422 -27.334  1.00  0.00     0.182 A 
HETATM    8  N3  UNL     1      -1.774  52.939 -26.188  1.00  0.00    -0.351 N 
ATOM      9  H3  UNL     1      -1.507  53.922 -26.113  1.00  0.00     0.166 HD
HETATM   10  C15 UNL     1      -1.687  52.109 -25.146  1.00  0.00     0.050 A 
HETATM   11  C16 UNL     1      -1.209  52.612 -23.942  1.00  0.00     0.070 A 
HETATM   12  C17 UNL     1      -1.075  51.810 -22.804  1.00  0.00     0.104 A 
ENDROOT
BRANCH   4  13
HETATM   13  N1  UNL     1      -2.992  48.992 -26.614  1.00  0.00    -0.341 N 
HETATM   14  H5  UNL     1      -2.293  48.356 -26.251  1.00  0.00     0.167 HD
BRANCH  13  15
HETATM   15  C6  UNL     1      -4.298  48.485 -26.443  1.00  0.00     0.046 A 
HETATM   16  C7  UNL     1      -4.892  48.380 -25.166  1.00  0.00     0.030 A 
HETATM   17  C8  UNL     1      -6.199  47.916 -24.982  1.00  0.00     0.005 A 
HETATM   18  C9  UNL     1      -6.990  47.549 -26.070  1.00  0.00     0.038 A 
HETATM   19  C10 UNL     1      -6.405  47.674 -27.326  1.00  0.00     0.087 A 
HETATM   20  O2  UNL     1      -7.018  47.375 -28.505  1.00  0.00    -0.322 OA
HETATM   21  C13 UNL     1      -5.106  48.125 -27.550  1.00  0.00     0.026 A 
HETATM   22  C11 UNL     1      -6.122  47.629 -29.493  1.00  0.00     0.143 A 
HETATM   23  C12 UNL     1      -4.939  48.092 -28.966  1.00  0.00     0.041 A 
ENDBRANCH  13  15
ENDBRANCH   4  13
BRANCH   1  24
HETATM   24  O1  UNL     1      -1.255  49.720 -21.727  1.00  0.00    -0.353 OA
HETATM   25  C1  UNL     1      -2.421  49.197 -21.107  1.00  0.00     0.210 C 
ENDBRANCH   1  24
BRANCH  12  26
HETATM   26  O3  UNL     1      -0.603  52.251 -21.593  1.00  0.00    -0.348 OA
BRANCH  26  27
HETATM   27  C18 UNL     1       0.662  52.917 -21.570  1.00  0.00     0.177 C 
BRANCH  27  28
HETATM   28  C19 UNL     1       0.669  53.855 -20.368  1.00  0.00     0.057 C 
BRANCH  28  29
HETATM   29  C20 UNL     1      -0.036  53.313 -19.120  1.00  0.00     0.274 C 
BRANCH  29  30
HETATM   30  N4  UNL     1       0.640  52.144 -18.545  1.00  0.00     0.092 N 
HETATM   31  C21 UNL     1       1.590  52.484 -17.462  1.00  0.00     0.298 C 
HETATM   32  C22 UNL     1       1.055  52.186 -16.050  1.00  0.00     0.198 C 
HETATM   33  O4  UNL     1       0.705  50.810 -15.858  1.00  0.00    -0.388 OA
HETATM   34  C23 UNL     1       0.284  50.162 -17.067  1.00  0.00     0.198 C 
HETATM   35  C24 UNL     1      -0.341  51.141 -18.072  1.00  0.00     0.298 C 
ENDBRANCH  29  30
ENDBRANCH  28  29
ENDBRANCH  27  28
ENDBRANCH  26  27
ENDBRANCH  12  26
TORSDOF 8
ENDMDL
MODEL 9
REMARK minimizedAffinity -7.96527815
REMARK  8 active torsions:
REMARK  status: ('A' for Active; 'I' for Inactive)
REMARK    1  A    between atoms: O1_2  and  C2_3 
REMARK    2  A    between atoms: C5_6  and  N1_7 
REMARK    3  A    between atoms: N1_7  and  C6_8 
REMARK    4  A    between atoms: C17_24  and  O3_25 
REMARK    5  A    between atoms: O3_25  and  C18_26 
REMARK    6  A    between atoms: C18_26  and  C19_27 
REMARK    7  A    between atoms: C19_27  and  C20_28 
REMARK    8  A    between atoms: C20_28  and  N4_29 
ROOT
HETATM    1  C2  UNL     1      -0.676  49.939 -19.026  1.00  0.00     0.102 A 
HETATM    2  C3  UNL     1      -0.407  50.419 -20.309  1.00  0.00     0.057 A 
HETATM    3  C4  UNL     1       0.124  51.720 -20.507  1.00  0.00     0.038 A 
HETATM    4  C5  UNL     1       0.426  52.292 -21.761  1.00  0.00     0.119 A 
HETATM    5  N2  UNL     1       0.974  53.515 -21.871  1.00  0.00    -0.338 N 
ATOM      6  H2  UNL     1       1.211  53.914 -22.780  1.00  0.00     0.168 HD
HETATM    7  C14 UNL     1       1.192  54.183 -20.737  1.00  0.00     0.182 A 
HETATM    8  N3  UNL     1       0.919  53.750 -19.502  1.00  0.00    -0.351 N 
ATOM      9  H3  UNL     1       1.102  54.327 -18.680  1.00  0.00     0.166 HD
HETATM   10  C15 UNL     1       0.396  52.526 -19.395  1.00  0.00     0.050 A 
HETATM   11  C16 UNL     1       0.112  52.041 -18.125  1.00  0.00     0.070 A 
HETATM   12  C17 UNL     1      -0.426  50.766 -17.920  1.00  0.00     0.104 A 
ENDROOT
BRANCH   4  13
HETATM   13  N1  UNL     1       0.133  51.558 -22.940  1.00  0.00    -0.341 N 
HETATM   14  H5  UNL     1       0.357  50.580 -22.803  1.00  0.00     0.167 HD
BRANCH  13  15
HETATM   15  C6  UNL     1      -0.958  51.725 -23.820  1.00  0.00     0.046 A 
HETATM   16  C7  UNL     1      -2.234  52.115 -23.355  1.00  0.00     0.030 A 
HETATM   17  C8  UNL     1      -3.317  52.322 -24.217  1.00  0.00     0.005 A 
HETATM   18  C9  UNL     1      -3.175  52.167 -25.596  1.00  0.00     0.038 A 
HETATM   19  C10 UNL     1      -1.911  51.801 -26.047  1.00  0.00     0.087 A 
HETATM   20  O2  UNL     1      -1.575  51.611 -27.353  1.00  0.00    -0.322 OA
HETATM   21  C13 UNL     1      -0.811  51.580 -25.221  1.00  0.00     0.026 A 
HETATM   22  C11 UNL     1      -0.263  51.266 -27.379  1.00  0.00     0.143 A 
HETATM   23  C12 UNL     1       0.254  51.234 -26.104  1.00  0.00     0.041 A 
ENDBRANCH  13  15
ENDBRANCH   4  13
BRANCH   1  24
HETATM   24  O1  UNL     1      -1.197  48.700 -18.756  1.00  0.00    -0.353 OA
HETATM   25  C1  UNL     1      -1.846  48.012 -19.816  1.00  0.00     0.210 C 
ENDBRANCH   1  24
BRANCH  12  26
HETATM   26  O3  UNL     1      -0.720  50.234 -16.690  1.00  0.00    -0.348 OA
BRANCH  26  27
HETATM   27  C18 UNL     1      -1.990  50.545 -16.111  1.00  0.00     0.177 C 
BRANCH  27  28
HETATM   28  C19 UNL     1      -1.757  50.898 -14.647  1.00  0.00     0.057 C 
BRANCH  28  29
HETATM   29  C20 UNL     1      -2.989  51.428 -13.904  1.00  0.00     0.274 C 
BRANCH  29  30
HETATM   30  N4  UNL     1      -2.644  52.319 -12.790  1.00  0.00     0.092 N 
HETATM   31  C21 UNL     1      -3.821  52.942 -12.145  1.00  0.00     0.298 C 
HETATM   32  C22 UNL     1      -4.203  52.302 -10.799  1.00  0.00     0.198 C 
HETATM   33  O4  UNL     1      -3.147  52.347  -9.832  1.00  0.00    -0.388 OA
HETATM   34  C23 UNL     1      -1.840  52.333 -10.425  1.00  0.00     0.198 C 
HETATM   35  C24 UNL     1      -1.818  51.615 -11.782  1.00  0.00     0.298 C 
ENDBRANCH  29  30
ENDBRANCH  28  29
ENDBRANCH  27  28
ENDBRANCH  26  27
ENDBRANCH  12  26
TORSDOF 8
ENDMDL
