MODEL 1
REMARK minimizedAffinity -10.6574106
REMARK  8 active torsions:
REMARK  status: ('A' for Active; 'I' for Inactive)
REMARK    1  A    between atoms: C6_9  and  C7_10 
REMARK    2  A    between atoms: C9_12  and  N3_13 
REMARK    3  A    between atoms: N3_13  and  C10_14 
REMARK    4  A    between atoms: C10_14  and  C11_15 
REMARK    5  A    between atoms: C10_14  and  C12_17 
REMARK    6  A    between atoms: C11_15  and  O1_16 
REMARK    7  A    between atoms: C19_26  and  C20_27 
REMARK    8  A    between atoms: C25_33  and  O2_34 
ROOT
HETATM    1  C7  UNL     1      -1.598  50.605 -24.161  1.00  0.00     0.004 A 
HETATM    2  C8  UNL     1      -2.586  49.893 -23.453  1.00  0.00     0.045 A 
HETATM    3  C9  UNL     1      -3.444  48.986 -24.082  1.00  0.00     0.045 A 
HETATM    4  C18 UNL     1      -3.214  48.792 -25.440  1.00  0.00     0.117 A 
HETATM    5  N4  UNL     1      -2.290  49.453 -26.179  1.00  0.00    -0.362 N 
ATOM      6  H4  UNL     1      -2.206  49.294 -27.184  1.00  0.00     0.165 HD
HETATM    7  C19 UNL     1      -1.478  50.334 -25.535  1.00  0.00     0.056 A 
ENDROOT
BRANCH   1   8
HETATM    8  C6  UNL     1      -0.775  51.597 -23.449  1.00  0.00    -0.023 A 
HETATM    9  C5  UNL     1      -0.134  52.634 -24.148  1.00  0.00     0.014 A 
HETATM   10  C4  UNL     1       0.655  53.592 -23.498  1.00  0.00     0.033 A 
HETATM   11  C3  UNL     1       0.778  53.477 -22.113  1.00  0.00     0.060 A 
HETATM   12  N2  UNL     1       1.462  54.226 -21.194  1.00  0.00    -0.300 N 
HETATM   13  C27 UNL     1       0.159  52.475 -21.377  1.00  0.00     0.016 A 
HETATM   14  N1  UNL     1       1.342  53.792 -19.927  1.00  0.00    -0.304 N 
HETATM   15  H4  UNL     1       2.031  55.045 -21.366  1.00  0.00     0.187 HD
HETATM   16  C2  UNL     1       0.543  52.721 -20.032  1.00  0.00     0.034 A 
ATOM     17  H1  UNL     1       1.761  54.185 -19.084  1.00  0.00     0.186 HD
HETATM   18  C1  UNL     1       0.160  51.949 -18.826  1.00  0.00     0.070 C 
HETATM   19  C26 UNL     1      -0.633  51.526 -22.049  1.00  0.00     0.028 A 
ENDBRANCH   1   8
BRANCH   7  20
HETATM   20  C20 UNL     1      -0.496  50.985 -26.419  1.00  0.00     0.028 A 
HETATM   21  C21 UNL     1       0.876  50.772 -26.198  1.00  0.00     0.058 A 
HETATM   22  C22 UNL     1       1.825  51.361 -27.027  1.00  0.00     0.117 A 
HETATM   23  F1  UNL     1       3.126  51.134 -26.805  1.00  0.00    -0.206 F 
HETATM   24  C23 UNL     1       1.446  52.177 -28.084  1.00  0.00     0.045 A 
HETATM   25  C24 UNL     1       0.093  52.420 -28.314  1.00  0.00     0.040 A 
HETATM   26  C25 UNL     1      -0.866  51.831 -27.482  1.00  0.00     0.078 A 
BRANCH  26  27
HETATM   27  O2  UNL     1      -2.191  52.101 -27.697  1.00  0.00    -0.360 OA
HETATM   28  H22 UNL     1      -2.278  52.669 -28.481  1.00  0.00     0.217 HD
ENDBRANCH  26  27
ENDBRANCH   7  20
BRANCH   3  29
HETATM   29  N3  UNL     1      -4.349  48.266 -23.300  1.00  0.00    -0.378 N 
HETATM   30  H8  UNL     1      -3.949  48.010 -22.396  1.00  0.00     0.160 HD
BRANCH  29  31
HETATM   31  C10 UNL     1      -5.757  48.693 -23.173  1.00  0.00     0.138 C 
BRANCH  31  32
HETATM   32  C11 UNL     1      -5.879  50.179 -23.600  1.00  0.00     0.194 C 
BRANCH  32  33
HETATM   33  O1  UNL     1      -6.993  50.818 -22.965  1.00  0.00    -0.399 OA
HETATM   34  H12 UNL     1      -7.685  50.125 -22.945  1.00  0.00     0.209 HD
ENDBRANCH  32  33
ENDBRANCH  31  32
BRANCH  31  35
HETATM   35  C12 UNL     1      -6.612  47.730 -23.990  1.00  0.00    -0.034 A 
HETATM   36  C13 UNL     1      -7.237  46.652 -23.336  1.00  0.00     0.009 A 
HETATM   37  C14 UNL     1      -8.005  45.728 -24.048  1.00  0.00     0.001 A 
HETATM   38  C15 UNL     1      -8.152  45.860 -25.426  1.00  0.00     0.000 A 
HETATM   39  C16 UNL     1      -7.527  46.912 -26.093  1.00  0.00     0.001 A 
HETATM   40  C17 UNL     1      -6.758  47.837 -25.382  1.00  0.00     0.009 A 
ENDBRANCH  31  35
ENDBRANCH  29  31
ENDBRANCH   3  29
TORSDOF 8
ENDMDL
MODEL 2
REMARK minimizedAffinity -10.4084234
REMARK  8 active torsions:
REMARK  status: ('A' for Active; 'I' for Inactive)
REMARK    1  A    between atoms: C6_9  and  C7_10 
REMARK    2  A    between atoms: C9_12  and  N3_13 
REMARK    3  A    between atoms: N3_13  and  C10_14 
REMARK    4  A    between atoms: C10_14  and  C11_15 
REMARK    5  A    between atoms: C10_14  and  C12_17 
REMARK    6  A    between atoms: C11_15  and  O1_16 
REMARK    7  A    between atoms: C19_26  and  C20_27 
REMARK    8  A    between atoms: C25_33  and  O2_34 
ROOT
HETATM    1  C7  UNL     1      -1.203  52.238 -21.896  1.00  0.00     0.004 A 
HETATM    2  C8  UNL     1      -0.899  52.440 -20.535  1.00  0.00     0.045 A 
HETATM    3  C9  UNL     1       0.410  52.637 -20.086  1.00  0.00     0.045 A 
HETATM    4  C18 UNL     1       1.380  52.679 -21.081  1.00  0.00     0.117 A 
HETATM    5  N4  UNL     1       1.155  52.481 -22.403  1.00  0.00    -0.362 N 
ATOM      6  H4  UNL     1       1.923  52.480 -23.074  1.00  0.00     0.165 HD
HETATM    7  C19 UNL     1      -0.130  52.285 -22.802  1.00  0.00     0.056 A 
ENDROOT
BRANCH   1   8
HETATM    8  C6  UNL     1      -2.595  51.967 -22.290  1.00  0.00    -0.023 A 
HETATM    9  C5  UNL     1      -3.124  52.506 -23.476  1.00  0.00     0.014 A 
HETATM   10  C4  UNL     1      -4.445  52.267 -23.878  1.00  0.00     0.033 A 
HETATM   11  C3  UNL     1      -5.223  51.460 -23.046  1.00  0.00     0.060 A 
HETATM   12  N2  UNL     1      -6.523  51.041 -23.140  1.00  0.00    -0.300 N 
HETATM   13  C27 UNL     1      -4.744  50.898 -21.870  1.00  0.00     0.016 A 
HETATM   14  N1  UNL     1      -6.927  50.261 -22.123  1.00  0.00    -0.304 N 
HETATM   15  H4  UNL     1      -7.188  51.254 -23.873  1.00  0.00     0.187 HD
HETATM   16  C2  UNL     1      -5.842  50.168 -21.343  1.00  0.00     0.034 A 
ATOM     17  H1  UNL     1      -7.845  49.840 -21.979  1.00  0.00     0.186 HD
HETATM   18  C1  UNL     1      -5.882  49.370 -20.093  1.00  0.00     0.070 C 
HETATM   19  C26 UNL     1      -3.414  51.148 -21.487  1.00  0.00     0.028 A 
ENDBRANCH   1   8
BRANCH   7  20
HETATM   20  C20 UNL     1      -0.273  52.099 -24.256  1.00  0.00     0.028 A 
HETATM   21  C21 UNL     1      -0.781  50.884 -24.749  1.00  0.00     0.058 A 
HETATM   22  C22 UNL     1      -0.942  50.687 -26.116  1.00  0.00     0.117 A 
HETATM   23  F1  UNL     1      -1.439  49.526 -26.562  1.00  0.00    -0.206 F 
HETATM   24  C23 UNL     1      -0.600  51.677 -27.027  1.00  0.00     0.045 A 
HETATM   25  C24 UNL     1      -0.078  52.884 -26.568  1.00  0.00     0.040 A 
HETATM   26  C25 UNL     1       0.088  53.086 -25.193  1.00  0.00     0.078 A 
BRANCH  26  27
HETATM   27  O2  UNL     1       0.632  54.264 -24.753  1.00  0.00    -0.360 OA
HETATM   28  H22 UNL     1       0.793  54.845 -25.515  1.00  0.00     0.217 HD
ENDBRANCH  26  27
ENDBRANCH   7  20
BRANCH   3  29
HETATM   29  N3  UNL     1       0.622  52.902 -18.732  1.00  0.00    -0.378 N 
HETATM   30  H8  UNL     1       0.281  53.828 -18.469  1.00  0.00     0.160 HD
BRANCH  29  31
HETATM   31  C10 UNL     1       0.312  51.893 -17.699  1.00  0.00     0.138 C 
BRANCH  31  32
HETATM   32  C11 UNL     1       0.071  50.522 -18.382  1.00  0.00     0.194 C 
BRANCH  32  33
HETATM   33  O1  UNL     1      -0.317  49.522 -17.432  1.00  0.00    -0.399 OA
HETATM   34  H12 UNL     1       0.219  49.728 -16.637  1.00  0.00     0.209 HD
ENDBRANCH  32  33
ENDBRANCH  31  32
BRANCH  31  35
HETATM   35  C12 UNL     1       1.451  51.900 -16.684  1.00  0.00    -0.034 A 
HETATM   36  C13 UNL     1       2.629  52.608 -16.988  1.00  0.00     0.009 A 
HETATM   37  C14 UNL     1       3.708  52.618 -16.103  1.00  0.00     0.001 A 
HETATM   38  C15 UNL     1       3.634  51.912 -14.905  1.00  0.00     0.000 A 
HETATM   39  C16 UNL     1       2.482  51.193 -14.595  1.00  0.00     0.001 A 
HETATM   40  C17 UNL     1       1.401  51.181 -15.480  1.00  0.00     0.009 A 
ENDBRANCH  31  35
ENDBRANCH  29  31
ENDBRANCH   3  29
TORSDOF 8
ENDMDL
MODEL 3
REMARK minimizedAffinity -10.2667561
REMARK  8 active torsions:
REMARK  status: ('A' for Active; 'I' for Inactive)
REMARK    1  A    between atoms: C6_9  and  C7_10 
REMARK    2  A    between atoms: C9_12  and  N3_13 
REMARK    3  A    between atoms: N3_13  and  C10_14 
REMARK    4  A    between atoms: C10_14  and  C11_15 
REMARK    5  A    between atoms: C10_14  and  C12_17 
REMARK    6  A    between atoms: C11_15  and  O1_16 
REMARK    7  A    between atoms: C19_26  and  C20_27 
REMARK    8  A    between atoms: C25_33  and  O2_34 
ROOT
HETATM    1  C7  UNL     1      -1.706  50.618 -23.944  1.00  0.00     0.004 A 
HETATM    2  C8  UNL     1      -2.569  49.789 -23.200  1.00  0.00     0.045 A 
HETATM    3  C9  UNL     1      -3.471  48.913 -23.813  1.00  0.00     0.045 A 
HETATM    4  C18 UNL     1      -3.412  48.875 -25.202  1.00  0.00     0.117 A 
HETATM    5  N4  UNL     1      -2.614  49.653 -25.974  1.00  0.00    -0.362 N 
ATOM      6  H4  UNL     1      -2.656  49.605 -26.992  1.00  0.00     0.165 HD
HETATM    7  C19 UNL     1      -1.756  50.499 -25.343  1.00  0.00     0.056 A 
ENDROOT
BRANCH   1   8
HETATM    8  C6  UNL     1      -0.833  51.567 -23.235  1.00  0.00    -0.023 A 
HETATM    9  C5  UNL     1      -0.109  52.544 -23.941  1.00  0.00     0.014 A 
HETATM   10  C4  UNL     1       0.730  53.460 -23.295  1.00  0.00     0.033 A 
HETATM   11  C3  UNL     1       0.819  53.367 -21.905  1.00  0.00     0.060 A 
HETATM   12  N2  UNL     1       1.533  54.088 -20.987  1.00  0.00    -0.300 N 
HETATM   13  C27 UNL     1       0.119  52.425 -21.162  1.00  0.00     0.016 A 
HETATM   14  N1  UNL     1       1.360  53.691 -19.715  1.00  0.00    -0.304 N 
HETATM   15  H4  UNL     1       2.160  54.864 -21.164  1.00  0.00     0.187 HD
HETATM   16  C2  UNL     1       0.493  52.674 -19.815  1.00  0.00     0.034 A 
ATOM     17  H1  UNL     1       1.789  54.073 -18.872  1.00  0.00     0.186 HD
HETATM   18  C1  UNL     1       0.036  51.955 -18.601  1.00  0.00     0.070 C 
HETATM   19  C26 UNL     1      -0.722  51.517 -21.831  1.00  0.00     0.028 A 
ENDBRANCH   1   8
BRANCH   7  20
HETATM   20  C20 UNL     1      -0.920  51.286 -26.266  1.00  0.00     0.028 A 
HETATM   21  C21 UNL     1       0.409  50.890 -26.497  1.00  0.00     0.058 A 
HETATM   22  C22 UNL     1       1.216  51.604 -27.376  1.00  0.00     0.117 A 
HETATM   23  F1  UNL     1       2.476  51.202 -27.590  1.00  0.00    -0.206 F 
HETATM   24  C23 UNL     1       0.737  52.727 -28.038  1.00  0.00     0.045 A 
HETATM   25  C24 UNL     1      -0.570  53.151 -27.812  1.00  0.00     0.040 A 
HETATM   26  C25 UNL     1      -1.386  52.437 -26.928  1.00  0.00     0.078 A 
BRANCH  26  27
HETATM   27  O2  UNL     1      -2.660  52.882 -26.690  1.00  0.00    -0.360 OA
HETATM   28  H22 UNL     1      -2.835  53.660 -27.244  1.00  0.00     0.217 HD
ENDBRANCH  26  27
ENDBRANCH   7  20
BRANCH   3  29
HETATM   29  N3  UNL     1      -4.240  48.071 -23.009  1.00  0.00    -0.378 N 
HETATM   30  H8  UNL     1      -3.730  47.768 -22.178  1.00  0.00     0.160 HD
BRANCH  29  31
HETATM   31  C10 UNL     1      -5.648  48.393 -22.696  1.00  0.00     0.138 C 
BRANCH  31  32
HETATM   32  C11 UNL     1      -6.025  49.738 -23.370  1.00  0.00     0.194 C 
BRANCH  32  33
HETATM   33  O1  UNL     1      -6.432  50.714 -22.403  1.00  0.00    -0.399 OA
HETATM   34  H12 UNL     1      -6.934  50.196 -21.739  1.00  0.00     0.209 HD
ENDBRANCH  32  33
ENDBRANCH  31  32
BRANCH  31  35
HETATM   35  C12 UNL     1      -6.505  47.207 -23.131  1.00  0.00    -0.034 A 
HETATM   36  C13 UNL     1      -7.195  47.280 -24.355  1.00  0.00     0.009 A 
HETATM   37  C14 UNL     1      -8.013  46.232 -24.781  1.00  0.00     0.001 A 
HETATM   38  C15 UNL     1      -8.165  45.100 -23.985  1.00  0.00     0.000 A 
HETATM   39  C16 UNL     1      -7.503  45.018 -22.763  1.00  0.00     0.001 A 
HETATM   40  C17 UNL     1      -6.684  46.066 -22.335  1.00  0.00     0.009 A 
ENDBRANCH  31  35
ENDBRANCH  29  31
ENDBRANCH   3  29
TORSDOF 8
ENDMDL
MODEL 4
REMARK minimizedAffinity -10.0622253
REMARK  8 active torsions:
REMARK  status: ('A' for Active; 'I' for Inactive)
REMARK    1  A    between atoms: C6_9  and  C7_10 
REMARK    2  A    between atoms: C9_12  and  N3_13 
REMARK    3  A    between atoms: N3_13  and  C10_14 
REMARK    4  A    between atoms: C10_14  and  C11_15 
REMARK    5  A    between atoms: C10_14  and  C12_17 
REMARK    6  A    between atoms: C11_15  and  O1_16 
REMARK    7  A    between atoms: C19_26  and  C20_27 
REMARK    8  A    between atoms: C25_33  and  O2_34 
ROOT
HETATM    1  C7  UNL     1      -1.479  50.519 -23.283  1.00  0.00     0.004 A 
HETATM    2  C8  UNL     1      -1.383  50.245 -21.905  1.00  0.00     0.045 A 
HETATM    3  C9  UNL     1      -0.376  50.793 -21.105  1.00  0.00     0.045 A 
HETATM    4  C18 UNL     1       0.486  51.672 -21.752  1.00  0.00     0.117 A 
HETATM    5  N4  UNL     1       0.454  51.969 -23.074  1.00  0.00    -0.362 N 
ATOM      6  H4  UNL     1       1.147  52.589 -23.492  1.00  0.00     0.165 HD
HETATM    7  C19 UNL     1      -0.535  51.411 -23.823  1.00  0.00     0.056 A 
ENDROOT
BRANCH   1   8
HETATM    8  C6  UNL     1      -2.522  49.853 -24.079  1.00  0.00    -0.023 A 
HETATM    9  C5  UNL     1      -2.194  49.156 -25.255  1.00  0.00     0.014 A 
HETATM   10  C4  UNL     1      -3.165  48.512 -26.034  1.00  0.00     0.033 A 
HETATM   11  C3  UNL     1      -4.486  48.589 -25.590  1.00  0.00     0.060 A 
HETATM   12  N2  UNL     1      -5.650  48.087 -26.104  1.00  0.00    -0.300 N 
HETATM   13  C27 UNL     1      -4.859  49.259 -24.432  1.00  0.00     0.016 A 
HETATM   14  N1  UNL     1      -6.746  48.379 -25.382  1.00  0.00    -0.304 N 
HETATM   15  H4  UNL     1      -5.767  47.538 -26.947  1.00  0.00     0.187 HD
HETATM   16  C2  UNL     1      -6.268  49.095 -24.355  1.00  0.00     0.034 A 
ATOM     17  H1  UNL     1      -7.713  48.118 -25.572  1.00  0.00     0.186 HD
HETATM   18  C1  UNL     1      -7.183  49.611 -23.309  1.00  0.00     0.070 C 
HETATM   19  C26 UNL     1      -3.868  49.895 -23.662  1.00  0.00     0.028 A 
ENDBRANCH   1   8
BRANCH   7  20
HETATM   20  C20 UNL     1      -0.497  51.809 -25.240  1.00  0.00     0.028 A 
HETATM   21  C21 UNL     1       0.574  51.384 -26.045  1.00  0.00     0.058 A 
HETATM   22  C22 UNL     1       0.628  51.731 -27.391  1.00  0.00     0.117 A 
HETATM   23  F1  UNL     1       1.653  51.305 -28.142  1.00  0.00    -0.206 F 
HETATM   24  C23 UNL     1      -0.364  52.509 -27.971  1.00  0.00     0.045 A 
HETATM   25  C24 UNL     1      -1.427  52.960 -27.191  1.00  0.00     0.040 A 
HETATM   26  C25 UNL     1      -1.485  52.614 -25.836  1.00  0.00     0.078 A 
BRANCH  26  27
HETATM   27  O2  UNL     1      -2.519  53.088 -25.071  1.00  0.00    -0.360 OA
HETATM   28  H22 UNL     1      -3.126  53.595 -25.635  1.00  0.00     0.217 HD
ENDBRANCH  26  27
ENDBRANCH   7  20
BRANCH   3  29
HETATM   29  N3  UNL     1      -0.391  50.531 -19.734  1.00  0.00    -0.378 N 
HETATM   30  H8  UNL     1       0.433  50.005 -19.438  1.00  0.00     0.160 HD
BRANCH  29  31
HETATM   31  C10 UNL     1      -0.745  51.583 -18.760  1.00  0.00     0.138 C 
BRANCH  31  32
HETATM   32  C11 UNL     1      -2.150  51.282 -18.173  1.00  0.00     0.194 C 
BRANCH  32  33
HETATM   33  O1  UNL     1      -3.190  51.803 -19.009  1.00  0.00    -0.399 OA
HETATM   34  H12 UNL     1      -2.829  52.654 -19.336  1.00  0.00     0.209 HD
ENDBRANCH  32  33
ENDBRANCH  31  32
BRANCH  31  35
HETATM   35  C12 UNL     1       0.371  51.651 -17.721  1.00  0.00    -0.034 A 
HETATM   36  C13 UNL     1       0.352  50.748 -16.642  1.00  0.00     0.009 A 
HETATM   37  C14 UNL     1       1.335  50.792 -15.652  1.00  0.00     0.001 A 
HETATM   38  C15 UNL     1       2.347  51.747 -15.717  1.00  0.00     0.000 A 
HETATM   39  C16 UNL     1       2.371  52.660 -16.768  1.00  0.00     0.001 A 
HETATM   40  C17 UNL     1       1.387  52.618 -17.760  1.00  0.00     0.009 A 
ENDBRANCH  31  35
ENDBRANCH  29  31
ENDBRANCH   3  29
TORSDOF 8
ENDMDL
MODEL 5
REMARK minimizedAffinity -9.99245834
REMARK  8 active torsions:
REMARK  status: ('A' for Active; 'I' for Inactive)
REMARK    1  A    between atoms: C6_9  and  C7_10 
REMARK    2  A    between atoms: C9_12  and  N3_13 
REMARK    3  A    between atoms: N3_13  and  C10_14 
REMARK    4  A    between atoms: C10_14  and  C11_15 
REMARK    5  A    between atoms: C10_14  and  C12_17 
REMARK    6  A    between atoms: C11_15  and  O1_16 
REMARK    7  A    between atoms: C19_26  and  C20_27 
REMARK    8  A    between atoms: C25_33  and  O2_34 
ROOT
HETATM    1  C7  UNL     1      -1.551  50.567 -24.065  1.00  0.00     0.004 A 
HETATM    2  C8  UNL     1      -2.281  49.654 -23.279  1.00  0.00     0.045 A 
HETATM    3  C9  UNL     1      -3.155  48.719 -23.842  1.00  0.00     0.045 A 
HETATM    4  C18 UNL     1      -3.206  48.714 -25.232  1.00  0.00     0.117 A 
HETATM    5  N4  UNL     1      -2.539  49.571 -26.043  1.00  0.00    -0.362 N 
ATOM      6  H4  UNL     1      -2.659  49.541 -27.056  1.00  0.00     0.165 HD
HETATM    7  C19 UNL     1      -1.704  50.473 -25.459  1.00  0.00     0.056 A 
ENDROOT
BRANCH   1   8
HETATM    8  C6  UNL     1      -0.703  51.571 -23.402  1.00  0.00    -0.023 A 
HETATM    9  C5  UNL     1       0.003  52.525 -24.154  1.00  0.00     0.014 A 
HETATM   10  C4  UNL     1       0.818  53.493 -23.552  1.00  0.00     0.033 A 
HETATM   11  C3  UNL     1       0.900  53.474 -22.159  1.00  0.00     0.060 A 
HETATM   12  N2  UNL     1       1.592  54.258 -21.276  1.00  0.00    -0.300 N 
HETATM   13  C27 UNL     1       0.216  52.556 -21.371  1.00  0.00     0.016 A 
HETATM   14  N1  UNL     1       1.419  53.923 -19.986  1.00  0.00    -0.304 N 
HETATM   15  H4  UNL     1       2.203  55.036 -21.490  1.00  0.00     0.187 HD
HETATM   16  C2  UNL     1       0.576  52.883 -20.037  1.00  0.00     0.034 A 
ATOM     17  H1  UNL     1       1.834  54.357 -19.161  1.00  0.00     0.186 HD
HETATM   18  C1  UNL     1       0.126  52.218 -18.790  1.00  0.00     0.070 C 
HETATM   19  C26 UNL     1      -0.601  51.596 -21.996  1.00  0.00     0.028 A 
ENDBRANCH   1   8
BRANCH   7  20
HETATM   20  C20 UNL     1      -1.012  51.345 -26.423  1.00  0.00     0.028 A 
HETATM   21  C21 UNL     1       0.277  50.997 -26.864  1.00  0.00     0.058 A 
HETATM   22  C22 UNL     1       0.948  51.793 -27.787  1.00  0.00     0.117 A 
HETATM   23  F1  UNL     1       2.170  51.435 -28.201  1.00  0.00    -0.206 F 
HETATM   24  C23 UNL     1       0.369  52.951 -28.288  1.00  0.00     0.045 A 
HETATM   25  C24 UNL     1      -0.899  53.330 -27.853  1.00  0.00     0.040 A 
HETATM   26  C25 UNL     1      -1.577  52.533 -26.924  1.00  0.00     0.078 A 
BRANCH  26  27
HETATM   27  O2  UNL     1      -2.811  52.930 -26.480  1.00  0.00    -0.360 OA
HETATM   28  H22 UNL     1      -3.069  53.744 -26.943  1.00  0.00     0.217 HD
ENDBRANCH  26  27
ENDBRANCH   7  20
BRANCH   3  29
HETATM   29  N3  UNL     1      -3.786  47.800 -23.003  1.00  0.00    -0.378 N 
HETATM   30  H8  UNL     1      -3.115  47.196 -22.527  1.00  0.00     0.160 HD
BRANCH  29  31
HETATM   31  C10 UNL     1      -4.878  48.217 -22.100  1.00  0.00     0.138 C 
BRANCH  31  32
HETATM   32  C11 UNL     1      -5.581  46.955 -21.533  1.00  0.00     0.194 C 
BRANCH  32  33
HETATM   33  O1  UNL     1      -6.830  47.283 -20.913  1.00  0.00    -0.399 OA
HETATM   34  H12 UNL     1      -6.659  48.142 -20.473  1.00  0.00     0.209 HD
ENDBRANCH  32  33
ENDBRANCH  31  32
BRANCH  31  35
HETATM   35  C12 UNL     1      -4.281  49.136 -21.038  1.00  0.00    -0.034 A 
HETATM   36  C13 UNL     1      -3.459  48.578 -20.041  1.00  0.00     0.009 A 
HETATM   37  C14 UNL     1      -2.914  49.375 -19.032  1.00  0.00     0.001 A 
HETATM   38  C15 UNL     1      -3.190  50.739 -18.996  1.00  0.00     0.000 A 
HETATM   39  C16 UNL     1      -4.015  51.305 -19.965  1.00  0.00     0.001 A 
HETATM   40  C17 UNL     1      -4.562  50.509 -20.975  1.00  0.00     0.009 A 
ENDBRANCH  31  35
ENDBRANCH  29  31
ENDBRANCH   3  29
TORSDOF 8
ENDMDL
MODEL 6
REMARK minimizedAffinity -9.98938084
REMARK  8 active torsions:
REMARK  status: ('A' for Active; 'I' for Inactive)
REMARK    1  A    between atoms: C6_9  and  C7_10 
REMARK    2  A    between atoms: C9_12  and  N3_13 
REMARK    3  A    between atoms: N3_13  and  C10_14 
REMARK    4  A    between atoms: C10_14  and  C11_15 
REMARK    5  A    between atoms: C10_14  and  C12_17 
REMARK    6  A    between atoms: C11_15  and  O1_16 
REMARK    7  A    between atoms: C19_26  and  C20_27 
REMARK    8  A    between atoms: C25_33  and  O2_34 
ROOT
HETATM    1  C7  UNL     1      -3.695  49.258 -26.205  1.00  0.00     0.004 A 
HETATM    2  C8  UNL     1      -3.837  48.895 -27.559  1.00  0.00     0.045 A 
HETATM    3  C9  UNL     1      -4.918  48.136 -28.017  1.00  0.00     0.045 A 
HETATM    4  C18 UNL     1      -5.871  47.817 -27.055  1.00  0.00     0.117 A 
HETATM    5  N4  UNL     1      -5.787  48.126 -25.738  1.00  0.00    -0.362 N 
ATOM      6  H4  UNL     1      -6.502  47.819 -25.078  1.00  0.00     0.165 HD
HETATM    7  C19 UNL     1      -4.717  48.858 -25.327  1.00  0.00     0.056 A 
ENDROOT
BRANCH   1   8
HETATM    8  C6  UNL     1      -2.495  49.998 -25.780  1.00  0.00    -0.023 A 
HETATM    9  C5  UNL     1      -2.244  50.239 -24.418  1.00  0.00     0.014 A 
HETATM   10  C4  UNL     1      -1.112  50.940 -23.982  1.00  0.00     0.033 A 
HETATM   11  C3  UNL     1      -0.231  51.393 -24.966  1.00  0.00     0.060 A 
HETATM   12  N2  UNL     1       0.940  52.096 -24.885  1.00  0.00    -0.300 N 
HETATM   13  C27 UNL     1      -0.431  51.174 -26.323  1.00  0.00     0.016 A 
HETATM   14  N1  UNL     1       1.512  52.356 -26.074  1.00  0.00    -0.304 N 
HETATM   15  H4  UNL     1       1.402  52.432 -24.049  1.00  0.00     0.187 HD
HETATM   16  C2  UNL     1       0.679  51.792 -26.958  1.00  0.00     0.034 A 
ATOM     17  H1  UNL     1       2.377  52.864 -26.259  1.00  0.00     0.186 HD
HETATM   18  C1  UNL     1       0.969  51.857 -28.411  1.00  0.00     0.070 C 
HETATM   19  C26 UNL     1      -1.572  50.463 -26.738  1.00  0.00     0.028 A 
ENDBRANCH   1   8
BRANCH   7  20
HETATM   20  C20 UNL     1      -4.726  49.158 -23.885  1.00  0.00     0.028 A 
HETATM   21  C21 UNL     1      -4.210  48.212 -22.982  1.00  0.00     0.058 A 
HETATM   22  C22 UNL     1      -4.191  48.475 -21.616  1.00  0.00     0.117 A 
HETATM   23  F1  UNL     1      -3.684  47.564 -20.776  1.00  0.00    -0.206 F 
HETATM   24  C23 UNL     1      -4.687  49.669 -21.110  1.00  0.00     0.045 A 
HETATM   25  C24 UNL     1      -5.222  50.615 -21.981  1.00  0.00     0.040 A 
HETATM   26  C25 UNL     1      -5.244  50.355 -23.356  1.00  0.00     0.078 A 
BRANCH  26  27
HETATM   27  O2  UNL     1      -5.800  51.279 -24.200  1.00  0.00    -0.360 OA
HETATM   28  H22 UNL     1      -6.078  52.055 -23.686  1.00  0.00     0.217 HD
ENDBRANCH  26  27
ENDBRANCH   7  20
BRANCH   3  29
HETATM   29  N3  UNL     1      -5.026  47.880 -29.384  1.00  0.00    -0.378 N 
HETATM   30  H8  UNL     1      -4.216  47.370 -29.740  1.00  0.00     0.160 HD
BRANCH  29  31
HETATM   31  C10 UNL     1      -6.286  47.378 -29.970  1.00  0.00     0.138 C 
BRANCH  31  32
HETATM   32  C11 UNL     1      -6.980  48.528 -30.747  1.00  0.00     0.194 C 
BRANCH  32  33
HETATM   33  O1  UNL     1      -8.021  49.133 -29.970  1.00  0.00    -0.399 OA
HETATM   34  H12 UNL     1      -8.428  48.381 -29.491  1.00  0.00     0.209 HD
ENDBRANCH  32  33
ENDBRANCH  31  32
BRANCH  31  35
HETATM   35  C12 UNL     1      -5.952  46.156 -30.819  1.00  0.00    -0.034 A 
HETATM   36  C13 UNL     1      -6.708  44.981 -30.646  1.00  0.00     0.009 A 
HETATM   37  C14 UNL     1      -6.420  43.828 -31.380  1.00  0.00     0.001 A 
HETATM   38  C15 UNL     1      -5.364  43.827 -32.289  1.00  0.00     0.000 A 
HETATM   39  C16 UNL     1      -4.595  44.975 -32.460  1.00  0.00     0.001 A 
HETATM   40  C17 UNL     1      -4.882  46.130 -31.726  1.00  0.00     0.009 A 
ENDBRANCH  31  35
ENDBRANCH  29  31
ENDBRANCH   3  29
TORSDOF 8
ENDMDL
MODEL 7
REMARK minimizedAffinity -9.97882748
REMARK  8 active torsions:
REMARK  status: ('A' for Active; 'I' for Inactive)
REMARK    1  A    between atoms: C6_9  and  C7_10 
REMARK    2  A    between atoms: C9_12  and  N3_13 
REMARK    3  A    between atoms: N3_13  and  C10_14 
REMARK    4  A    between atoms: C10_14  and  C11_15 
REMARK    5  A    between atoms: C10_14  and  C12_17 
REMARK    6  A    between atoms: C11_15  and  O1_16 
REMARK    7  A    between atoms: C19_26  and  C20_27 
REMARK    8  A    between atoms: C25_33  and  O2_34 
ROOT
HETATM    1  C7  UNL     1      -3.273  50.156 -26.275  1.00  0.00     0.004 A 
HETATM    2  C8  UNL     1      -3.482  49.489 -27.498  1.00  0.00     0.045 A 
HETATM    3  C9  UNL     1      -4.391  48.433 -27.624  1.00  0.00     0.045 A 
HETATM    4  C18 UNL     1      -5.114  48.131 -26.476  1.00  0.00     0.117 A 
HETATM    5  N4  UNL     1      -4.952  48.726 -25.269  1.00  0.00    -0.362 N 
ATOM      6  H4  UNL     1      -5.486  48.421 -24.455  1.00  0.00     0.165 HD
HETATM    7  C19 UNL     1      -4.053  49.743 -25.182  1.00  0.00     0.056 A 
ENDROOT
BRANCH   1   8
HETATM    8  C6  UNL     1      -2.250  51.212 -26.197  1.00  0.00    -0.023 A 
HETATM    9  C5  UNL     1      -1.985  52.039 -27.302  1.00  0.00     0.014 A 
HETATM   10  C4  UNL     1      -1.018  53.052 -27.258  1.00  0.00     0.033 A 
HETATM   11  C3  UNL     1      -0.322  53.211 -26.059  1.00  0.00     0.060 A 
HETATM   12  N2  UNL     1       0.667  54.082 -25.688  1.00  0.00    -0.300 N 
HETATM   13  C27 UNL     1      -0.552  52.425 -24.937  1.00  0.00     0.016 A 
HETATM   14  N1  UNL     1       1.099  53.923 -24.425  1.00  0.00    -0.304 N 
HETATM   15  H4  UNL     1       1.093  54.808 -26.251  1.00  0.00     0.187 HD
HETATM   16  C2  UNL     1       0.355  52.912 -23.960  1.00  0.00     0.034 A 
ATOM     17  H1  UNL     1       1.824  54.449 -23.937  1.00  0.00     0.186 HD
HETATM   18  C1  UNL     1       0.531  52.428 -22.569  1.00  0.00     0.070 C 
HETATM   19  C26 UNL     1      -1.531  51.416 -25.002  1.00  0.00     0.028 A 
ENDBRANCH   1   8
BRANCH   7  20
HETATM   20  C20 UNL     1      -3.965  50.337 -23.837  1.00  0.00     0.028 A 
HETATM   21  C21 UNL     1      -3.096  49.767 -22.889  1.00  0.00     0.058 A 
HETATM   22  C22 UNL     1      -2.980  50.317 -21.617  1.00  0.00     0.117 A 
HETATM   23  F1  UNL     1      -2.137  49.764 -20.734  1.00  0.00    -0.206 F 
HETATM   24  C23 UNL     1      -3.720  51.431 -21.247  1.00  0.00     0.045 A 
HETATM   25  C24 UNL     1      -4.602  52.004 -22.161  1.00  0.00     0.040 A 
HETATM   26  C25 UNL     1      -4.724  51.454 -23.442  1.00  0.00     0.078 A 
BRANCH  26  27
HETATM   27  O2  UNL     1      -5.617  52.006 -24.322  1.00  0.00    -0.360 OA
HETATM   28  H22 UNL     1      -6.032  52.782 -23.910  1.00  0.00     0.217 HD
ENDBRANCH  26  27
ENDBRANCH   7  20
BRANCH   3  29
HETATM   29  N3  UNL     1      -4.594  47.871 -28.885  1.00  0.00    -0.378 N 
HETATM   30  H8  UNL     1      -4.196  46.933 -28.952  1.00  0.00     0.160 HD
BRANCH  29  31
HETATM   31  C10 UNL     1      -5.909  47.955 -29.555  1.00  0.00     0.138 C 
BRANCH  31  32
HETATM   32  C11 UNL     1      -5.745  48.694 -30.909  1.00  0.00     0.194 C 
BRANCH  32  33
HETATM   33  O1  UNL     1      -4.714  49.688 -30.843  1.00  0.00    -0.399 OA
HETATM   34  H12 UNL     1      -4.805  50.065 -29.942  1.00  0.00     0.209 HD
ENDBRANCH  32  33
ENDBRANCH  31  32
BRANCH  31  35
HETATM   35  C12 UNL     1      -6.462  46.538 -29.674  1.00  0.00    -0.034 A 
HETATM   36  C13 UNL     1      -7.184  45.997 -28.594  1.00  0.00     0.009 A 
HETATM   37  C14 UNL     1      -7.685  44.695 -28.645  1.00  0.00     0.001 A 
HETATM   38  C15 UNL     1      -7.461  43.907 -29.771  1.00  0.00     0.000 A 
HETATM   39  C16 UNL     1      -6.734  44.420 -30.843  1.00  0.00     0.001 A 
HETATM   40  C17 UNL     1      -6.232  45.723 -30.793  1.00  0.00     0.009 A 
ENDBRANCH  31  35
ENDBRANCH  29  31
ENDBRANCH   3  29
TORSDOF 8
ENDMDL
MODEL 8
REMARK minimizedAffinity -9.97238255
REMARK  8 active torsions:
REMARK  status: ('A' for Active; 'I' for Inactive)
REMARK    1  A    between atoms: C6_9  and  C7_10 
REMARK    2  A    between atoms: C9_12  and  N3_13 
REMARK    3  A    between atoms: N3_13  and  C10_14 
REMARK    4  A    between atoms: C10_14  and  C11_15 
REMARK    5  A    between atoms: C10_14  and  C12_17 
REMARK    6  A    between atoms: C11_15  and  O1_16 
REMARK    7  A    between atoms: C19_26  and  C20_27 
REMARK    8  A    between atoms: C25_33  and  O2_34 
ROOT
HETATM    1  C7  UNL     1      -1.065  50.886 -21.071  1.00  0.00     0.004 A 
HETATM    2  C8  UNL     1      -0.370  50.856 -19.846  1.00  0.00     0.045 A 
HETATM    3  C9  UNL     1      -0.812  50.098 -18.757  1.00  0.00     0.045 A 
HETATM    4  C18 UNL     1      -1.949  49.331 -18.989  1.00  0.00     0.117 A 
HETATM    5  N4  UNL     1      -2.667  49.324 -20.139  1.00  0.00    -0.362 N 
ATOM      6  H4  UNL     1      -3.520  48.770 -20.224  1.00  0.00     0.165 HD
HETATM    7  C19 UNL     1      -2.211  50.080 -21.173  1.00  0.00     0.056 A 
ENDROOT
BRANCH   1   8
HETATM    8  C6  UNL     1      -0.581  51.760 -22.152  1.00  0.00    -0.023 A 
HETATM    9  C5  UNL     1       0.488  52.646 -21.936  1.00  0.00     0.014 A 
HETATM   10  C4  UNL     1       0.971  53.491 -22.944  1.00  0.00     0.033 A 
HETATM   11  C3  UNL     1       0.342  53.415 -24.188  1.00  0.00     0.060 A 
HETATM   12  N2  UNL     1       0.558  54.088 -25.360  1.00  0.00    -0.300 N 
HETATM   13  C27 UNL     1      -0.714  52.552 -24.453  1.00  0.00     0.016 A 
HETATM   14  N1  UNL     1      -0.271  53.738 -26.359  1.00  0.00    -0.304 N 
HETATM   15  H4  UNL     1       1.253  54.801 -25.543  1.00  0.00     0.187 HD
HETATM   16  C2  UNL     1      -1.050  52.796 -25.811  1.00  0.00     0.034 A 
ATOM     17  H1  UNL     1      -0.300  54.104 -27.311  1.00  0.00     0.186 HD
HETATM   18  C1  UNL     1      -2.113  52.142 -26.611  1.00  0.00     0.070 C 
HETATM   19  C26 UNL     1      -1.179  51.709 -23.427  1.00  0.00     0.028 A 
ENDBRANCH   1   8
BRANCH   7  20
HETATM   20  C20 UNL     1      -3.048  49.990 -22.382  1.00  0.00     0.028 A 
HETATM   21  C21 UNL     1      -2.695  49.084 -23.398  1.00  0.00     0.058 A 
HETATM   22  C22 UNL     1      -3.476  48.966 -24.543  1.00  0.00     0.117 A 
HETATM   23  F1  UNL     1      -3.127  48.088 -25.492  1.00  0.00    -0.206 F 
HETATM   24  C23 UNL     1      -4.614  49.741 -24.717  1.00  0.00     0.045 A 
HETATM   25  C24 UNL     1      -4.977  50.660 -23.734  1.00  0.00     0.040 A 
HETATM   26  C25 UNL     1      -4.193  50.784 -22.581  1.00  0.00     0.078 A 
BRANCH  26  27
HETATM   27  O2  UNL     1      -4.541  51.712 -21.635  1.00  0.00    -0.360 OA
HETATM   28  H22 UNL     1      -5.366  52.149 -21.906  1.00  0.00     0.217 HD
ENDBRANCH  26  27
ENDBRANCH   7  20
BRANCH   3  29
HETATM   29  N3  UNL     1      -0.030  50.064 -17.602  1.00  0.00    -0.378 N 
HETATM   30  H8  UNL     1       0.941  49.823 -17.808  1.00  0.00     0.160 HD
BRANCH  29  31
HETATM   31  C10 UNL     1      -0.123  51.132 -16.586  1.00  0.00     0.138 C 
BRANCH  31  32
HETATM   32  C11 UNL     1      -0.963  50.621 -15.385  1.00  0.00     0.194 C 
BRANCH  32  33
HETATM   33  O1  UNL     1      -2.368  50.748 -15.636  1.00  0.00    -0.399 OA
HETATM   34  H12 UNL     1      -2.446  51.593 -16.127  1.00  0.00     0.209 HD
ENDBRANCH  32  33
ENDBRANCH  31  32
BRANCH  31  35
HETATM   35  C12 UNL     1       1.297  51.558 -16.226  1.00  0.00    -0.034 A 
HETATM   36  C13 UNL     1       1.894  51.025 -15.067  1.00  0.00     0.009 A 
HETATM   37  C14 UNL     1       3.180  51.408 -14.682  1.00  0.00     0.001 A 
HETATM   38  C15 UNL     1       3.887  52.337 -15.441  1.00  0.00     0.000 A 
HETATM   39  C16 UNL     1       3.306  52.887 -16.581  1.00  0.00     0.001 A 
HETATM   40  C17 UNL     1       2.018  52.506 -16.968  1.00  0.00     0.009 A 
ENDBRANCH  31  35
ENDBRANCH  29  31
ENDBRANCH   3  29
TORSDOF 8
ENDMDL
MODEL 9
REMARK minimizedAffinity -9.9250555
REMARK  8 active torsions:
REMARK  status: ('A' for Active; 'I' for Inactive)
REMARK    1  A    between atoms: C6_9  and  C7_10 
REMARK    2  A    between atoms: C9_12  and  N3_13 
REMARK    3  A    between atoms: N3_13  and  C10_14 
REMARK    4  A    between atoms: C10_14  and  C11_15 
REMARK    5  A    between atoms: C10_14  and  C12_17 
REMARK    6  A    between atoms: C11_15  and  O1_16 
REMARK    7  A    between atoms: C19_26  and  C20_27 
REMARK    8  A    between atoms: C25_33  and  O2_34 
ROOT
HETATM    1  C7  UNL     1      -3.005  50.512 -23.533  1.00  0.00     0.004 A 
HETATM    2  C8  UNL     1      -2.574  50.965 -22.270  1.00  0.00     0.045 A 
HETATM    3  C9  UNL     1      -3.107  50.464 -21.078  1.00  0.00     0.045 A 
HETATM    4  C18 UNL     1      -4.045  49.449 -21.226  1.00  0.00     0.117 A 
HETATM    5  N4  UNL     1      -4.509  48.978 -22.410  1.00  0.00    -0.362 N 
ATOM      6  H4  UNL     1      -5.234  48.261 -22.444  1.00  0.00     0.165 HD
HETATM    7  C19 UNL     1      -3.974  49.494 -23.549  1.00  0.00     0.056 A 
ENDROOT
BRANCH   1   8
HETATM    8  C6  UNL     1      -2.452  51.133 -24.748  1.00  0.00    -0.023 A 
HETATM    9  C5  UNL     1      -3.281  51.839 -25.636  1.00  0.00     0.014 A 
HETATM   10  C4  UNL     1      -2.785  52.440 -26.800  1.00  0.00     0.033 A 
HETATM   11  C3  UNL     1      -1.416  52.312 -27.044  1.00  0.00     0.060 A 
HETATM   12  N2  UNL     1      -0.627  52.765 -28.067  1.00  0.00    -0.300 N 
HETATM   13  C27 UNL     1      -0.555  51.631 -26.194  1.00  0.00     0.016 A 
HETATM   14  N1  UNL     1       0.670  52.431 -27.954  1.00  0.00    -0.304 N 
HETATM   15  H4  UNL     1      -0.913  53.306 -28.874  1.00  0.00     0.187 HD
HETATM   16  C2  UNL     1       0.721  51.739 -26.808  1.00  0.00     0.034 A 
ATOM     17  H1  UNL     1       1.435  52.652 -28.591  1.00  0.00     0.186 HD
HETATM   18  C1  UNL     1       2.009  51.189 -26.319  1.00  0.00     0.070 C 
HETATM   19  C26 UNL     1      -1.074  51.039 -25.028  1.00  0.00     0.028 A 
ENDBRANCH   1   8
BRANCH   7  20
HETATM   20  C20 UNL     1      -4.528  48.905 -24.780  1.00  0.00     0.028 A 
HETATM   21  C21 UNL     1      -3.678  48.678 -25.877  1.00  0.00     0.058 A 
HETATM   22  C22 UNL     1      -4.171  48.108 -27.046  1.00  0.00     0.117 A 
HETATM   23  F1  UNL     1      -3.340  47.890 -28.074  1.00  0.00    -0.206 F 
HETATM   24  C23 UNL     1      -5.509  47.758 -27.164  1.00  0.00     0.045 A 
HETATM   25  C24 UNL     1      -6.376  47.989 -26.099  1.00  0.00     0.040 A 
HETATM   26  C25 UNL     1      -5.886  48.564 -24.921  1.00  0.00     0.078 A 
BRANCH  26  27
HETATM   27  O2  UNL     1      -6.754  48.815 -23.891  1.00  0.00    -0.360 OA
HETATM   28  H22 UNL     1      -7.637  48.494 -24.133  1.00  0.00     0.217 HD
ENDBRANCH  26  27
ENDBRANCH   7  20
BRANCH   3  29
HETATM   29  N3  UNL     1      -2.576  50.911 -19.867  1.00  0.00    -0.378 N 
HETATM   30  H8  UNL     1      -3.227  50.772 -19.093  1.00  0.00     0.160 HD
BRANCH  29  31
HETATM   31  C10 UNL     1      -1.188  50.589 -19.477  1.00  0.00     0.138 C 
BRANCH  31  32
HETATM   32  C11 UNL     1      -0.857  49.140 -19.922  1.00  0.00     0.194 C 
BRANCH  32  33
HETATM   33  O1  UNL     1      -1.255  48.183 -18.932  1.00  0.00    -0.399 OA
HETATM   34  H12 UNL     1      -1.057  48.626 -18.080  1.00  0.00     0.209 HD
ENDBRANCH  32  33
ENDBRANCH  31  32
BRANCH  31  35
HETATM   35  C12 UNL     1      -0.276  51.656 -20.075  1.00  0.00    -0.034 A 
HETATM   36  C13 UNL     1      -0.223  52.924 -19.466  1.00  0.00     0.009 A 
HETATM   37  C14 UNL     1       0.575  53.941 -19.995  1.00  0.00     0.001 A 
HETATM   38  C15 UNL     1       1.322  53.711 -21.147  1.00  0.00     0.000 A 
HETATM   39  C16 UNL     1       1.268  52.468 -21.773  1.00  0.00     0.001 A 
HETATM   40  C17 UNL     1       0.470  51.449 -21.245  1.00  0.00     0.009 A 
ENDBRANCH  31  35
ENDBRANCH  29  31
ENDBRANCH   3  29
TORSDOF 8
ENDMDL
