MODEL 1
REMARK minimizedAffinity -8.98466492
REMARK  9 active torsions:
REMARK  status: ('A' for Active; 'I' for Inactive)
REMARK    1  A    between atoms: C2_2  and  C4_4 
REMARK    2  A    between atoms: C4_4  and  N1_5 
REMARK    3  A    between atoms: N1_5  and  S1_6 
REMARK    4  A    between atoms: S1_6  and  C5_9 
REMARK    5  A    between atoms: C12_16  and  C13_17 
REMARK    6  A    between atoms: C16_21  and  C17_22 
REMARK    7  A    between atoms: C17_22  and  C18_23 
REMARK    8  A    between atoms: C18_23  and  C19_24 
REMARK    9  A    between atoms: C19_24  and  N3_25 
ROOT
HETATM    1  C5  UNL     1       2.557   6.991  12.444  1.00  0.00     0.080 A 
HETATM    2  C6  UNL     1       2.880   7.465  13.732  1.00  0.00     0.027 A 
HETATM    3  C7  UNL     1       1.970   7.320  14.781  1.00  0.00     0.032 A 
HETATM    4  C8  UNL     1       0.774   6.690  14.503  1.00  0.00     0.046 A 
HETATM    5  C9  UNL     1       0.450   6.196  13.233  1.00  0.00     0.008 A 
HETATM    6  C10 UNL     1       1.342   6.338  12.184  1.00  0.00     0.040 A 
HETATM    7  C11 UNL     1      -0.891   5.587  13.350  1.00  0.00     0.047 A 
HETATM    8  C12 UNL     1      -1.511   4.990  12.318  1.00  0.00     0.048 C 
HETATM    9  C26 UNL     1      -1.315   5.787  14.786  1.00  0.00     0.257 A 
HETATM   10  O3  UNL     1      -2.353   5.452  15.324  1.00  0.00    -0.267 OA
HETATM   11  N4  UNL     1      -0.263   6.449  15.395  1.00  0.00    -0.322 N 
HETATM   12  H36 UNL     1      -0.274   6.704  16.370  1.00  0.00     0.169 HD
ENDROOT
BRANCH   8  13
HETATM   13  C13 UNL     1      -2.781   4.348  12.264  1.00  0.00     0.040 A 
HETATM   14  N2  UNL     1      -2.925   3.027  11.905  1.00  0.00    -0.359 N 
HETATM   15  C14 UNL     1      -4.246   2.684  11.909  1.00  0.00     0.016 A 
HETATM   16  H15 UNL     1      -2.169   2.394  11.660  1.00  0.00     0.166 HD
HETATM   17  C15 UNL     1      -4.983   3.782  12.289  1.00  0.00    -0.027 A 
HETATM   18  C25 UNL     1      -4.776   1.336  11.572  1.00  0.00     0.057 C 
HETATM   19  C16 UNL     1      -4.062   4.845  12.520  1.00  0.00    -0.023 A 
HETATM   20  C22 UNL     1      -6.474   3.753  12.367  1.00  0.00     0.041 C 
HETATM   21  C23 UNL     1      -7.006   2.306  12.357  1.00  0.00     0.005 C 
HETATM   22  C24 UNL     1      -6.291   1.429  11.311  1.00  0.00     0.006 C 
BRANCH  19  23
HETATM   23  C17 UNL     1      -4.432   6.239  12.936  1.00  0.00     0.043 C 
BRANCH  23  24
HETATM   24  C18 UNL     1      -5.893   6.335  13.384  1.00  0.00     0.035 C 
BRANCH  24  25
HETATM   25  C19 UNL     1      -5.991   6.953  14.785  1.00  0.00     0.271 C 
BRANCH  25  26
HETATM   26  N3  UNL     1      -7.244   6.734  15.519  1.00  0.00     0.080 N 
HETATM   27  C20 UNL     1      -7.447   5.335  15.885  1.00  0.00     0.309 C 
HETATM   28  C21 UNL     1      -8.411   7.268  14.825  1.00  0.00     0.309 C 
ENDBRANCH  25  26
ENDBRANCH  24  25
ENDBRANCH  23  24
ENDBRANCH  19  23
ENDBRANCH   8  13
BRANCH   1  29
HETATM   29  S1  UNL     1       3.731   7.179  11.119  1.00  0.00     0.258 S 
HETATM   30  O1  UNL     1       4.882   7.883  11.639  1.00  0.00    -0.201 OA
HETATM   31  O2  UNL     1       3.848   5.901  10.454  1.00  0.00    -0.201 OA
BRANCH  29  32
HETATM   32  N1  UNL     1       2.920   8.194  10.065  1.00  0.00    -0.315 N 
HETATM   33  H10 UNL     1       2.698   9.112  10.444  1.00  0.00     0.172 HD
BRANCH  32  34
HETATM   34  C4  UNL     1       3.038   8.007   8.620  1.00  0.00     0.136 C 
BRANCH  34  35
HETATM   35  C2  UNL     1       1.756   7.403   8.027  1.00  0.00    -0.004 C 
HETATM   36  C1  UNL     1       0.515   8.221   8.388  1.00  0.00     0.011 C 
HETATM   37  C3  UNL     1       1.852   7.205   6.513  1.00  0.00     0.011 C 
ENDBRANCH  34  35
ENDBRANCH  32  34
ENDBRANCH  29  32
ENDBRANCH   1  29
TORSDOF 9
ENDMDL
MODEL 2
REMARK minimizedAffinity -8.90856457
REMARK  9 active torsions:
REMARK  status: ('A' for Active; 'I' for Inactive)
REMARK    1  A    between atoms: C2_2  and  C4_4 
REMARK    2  A    between atoms: C4_4  and  N1_5 
REMARK    3  A    between atoms: N1_5  and  S1_6 
REMARK    4  A    between atoms: S1_6  and  C5_9 
REMARK    5  A    between atoms: C12_16  and  C13_17 
REMARK    6  A    between atoms: C16_21  and  C17_22 
REMARK    7  A    between atoms: C17_22  and  C18_23 
REMARK    8  A    between atoms: C18_23  and  C19_24 
REMARK    9  A    between atoms: C19_24  and  N3_25 
ROOT
HETATM    1  C5  UNL     1      -5.976   3.734  12.458  1.00  0.00     0.080 A 
HETATM    2  C6  UNL     1      -5.961   2.488  11.797  1.00  0.00     0.027 A 
HETATM    3  C7  UNL     1      -4.757   1.961  11.324  1.00  0.00     0.032 A 
HETATM    4  C8  UNL     1      -3.610   2.697  11.546  1.00  0.00     0.046 A 
HETATM    5  C9  UNL     1      -3.610   3.924  12.219  1.00  0.00     0.008 A 
HETATM    6  C10 UNL     1      -4.797   4.459  12.689  1.00  0.00     0.040 A 
HETATM    7  C11 UNL     1      -2.204   4.377  12.264  1.00  0.00     0.047 A 
HETATM    8  C12 UNL     1      -1.828   5.520  12.862  1.00  0.00     0.048 C 
HETATM    9  C26 UNL     1      -1.402   3.317  11.547  1.00  0.00     0.257 A 
HETATM   10  O3  UNL     1      -0.204   3.284  11.338  1.00  0.00    -0.267 OA
HETATM   11  N4  UNL     1      -2.321   2.358  11.157  1.00  0.00    -0.322 N 
HETATM   12  H36 UNL     1      -2.054   1.521  10.660  1.00  0.00     0.169 HD
ENDROOT
BRANCH   8  13
HETATM   13  C13 UNL     1      -0.530   6.090  13.007  1.00  0.00     0.040 A 
HETATM   14  N2  UNL     1       0.086   6.217  14.231  1.00  0.00    -0.359 N 
HETATM   15  C14 UNL     1       1.302   6.819  14.081  1.00  0.00     0.016 A 
HETATM   16  H15 UNL     1      -0.300   5.922  15.123  1.00  0.00     0.166 HD
HETATM   17  C15 UNL     1       1.500   7.078  12.744  1.00  0.00    -0.027 A 
HETATM   18  C25 UNL     1       2.246   7.119  15.190  1.00  0.00     0.057 C 
HETATM   19  C16 UNL     1       0.343   6.617  12.051  1.00  0.00    -0.023 A 
HETATM   20  C22 UNL     1       2.727   7.764  12.239  1.00  0.00     0.041 C 
HETATM   21  C23 UNL     1       3.842   7.771  13.303  1.00  0.00     0.005 C 
HETATM   22  C24 UNL     1       3.308   8.124  14.705  1.00  0.00     0.006 C 
BRANCH  19  23
HETATM   23  C17 UNL     1       0.121   6.715  10.571  1.00  0.00     0.043 C 
BRANCH  23  24
HETATM   24  C18 UNL     1       0.498   8.095  10.024  1.00  0.00     0.035 C 
BRANCH  24  25
HETATM   25  C19 UNL     1       0.404   8.115   8.493  1.00  0.00     0.271 C 
BRANCH  25  26
HETATM   26  N3  UNL     1       1.671   8.175   7.752  1.00  0.00     0.080 N 
HETATM   27  C20 UNL     1       1.756   7.172   6.694  1.00  0.00     0.309 C 
HETATM   28  C21 UNL     1       2.842   8.118   8.623  1.00  0.00     0.309 C 
ENDBRANCH  25  26
ENDBRANCH  24  25
ENDBRANCH  23  24
ENDBRANCH  19  23
ENDBRANCH   8  13
BRANCH   1  29
HETATM   29  S1  UNL     1      -7.518   4.388  13.061  1.00  0.00     0.258 S 
HETATM   30  O1  UNL     1      -7.729   5.677  12.441  1.00  0.00    -0.201 OA
HETATM   31  O2  UNL     1      -8.500   3.331  12.988  1.00  0.00    -0.201 OA
BRANCH  29  32
HETATM   32  N1  UNL     1      -7.193   4.628  14.685  1.00  0.00    -0.315 N 
HETATM   33  H10 UNL     1      -6.288   4.279  14.994  1.00  0.00     0.172 HD
BRANCH  32  34
HETATM   34  C4  UNL     1      -7.852   5.706  15.420  1.00  0.00     0.136 C 
BRANCH  34  35
HETATM   35  C2  UNL     1      -6.862   6.824  15.782  1.00  0.00    -0.004 C 
HETATM   36  C1  UNL     1      -5.409   6.400  15.554  1.00  0.00     0.011 C 
HETATM   37  C3  UNL     1      -7.166   8.131  15.048  1.00  0.00     0.011 C 
ENDBRANCH  34  35
ENDBRANCH  32  34
ENDBRANCH  29  32
ENDBRANCH   1  29
TORSDOF 9
ENDMDL
MODEL 3
REMARK minimizedAffinity -8.89187717
REMARK  9 active torsions:
REMARK  status: ('A' for Active; 'I' for Inactive)
REMARK    1  A    between atoms: C2_2  and  C4_4 
REMARK    2  A    between atoms: C4_4  and  N1_5 
REMARK    3  A    between atoms: N1_5  and  S1_6 
REMARK    4  A    between atoms: S1_6  and  C5_9 
REMARK    5  A    between atoms: C12_16  and  C13_17 
REMARK    6  A    between atoms: C16_21  and  C17_22 
REMARK    7  A    between atoms: C17_22  and  C18_23 
REMARK    8  A    between atoms: C18_23  and  C19_24 
REMARK    9  A    between atoms: C19_24  and  N3_25 
ROOT
HETATM    1  C5  UNL     1      -6.309   3.228  12.289  1.00  0.00     0.080 A 
HETATM    2  C6  UNL     1      -6.339   1.881  11.872  1.00  0.00     0.027 A 
HETATM    3  C7  UNL     1      -5.163   1.246  11.468  1.00  0.00     0.032 A 
HETATM    4  C8  UNL     1      -3.996   1.982  11.511  1.00  0.00     0.046 A 
HETATM    5  C9  UNL     1      -3.950   3.313  11.943  1.00  0.00     0.008 A 
HETATM    6  C10 UNL     1      -5.110   3.955  12.341  1.00  0.00     0.040 A 
HETATM    7  C11 UNL     1      -2.536   3.733  11.857  1.00  0.00     0.047 A 
HETATM    8  C12 UNL     1      -2.118   4.958  12.217  1.00  0.00     0.048 C 
HETATM    9  C26 UNL     1      -1.779   2.538  11.326  1.00  0.00     0.257 A 
HETATM   10  O3  UNL     1      -0.590   2.438  11.088  1.00  0.00    -0.267 OA
HETATM   11  N4  UNL     1      -2.728   1.545  11.152  1.00  0.00    -0.322 N 
HETATM   12  H36 UNL     1      -2.494   0.625  10.812  1.00  0.00     0.169 HD
ENDROOT
BRANCH   8  13
HETATM   13  C13 UNL     1      -0.806   5.513  12.212  1.00  0.00     0.040 A 
HETATM   14  N2  UNL     1       0.015   5.456  11.108  1.00  0.00    -0.359 N 
HETATM   15  C14 UNL     1       1.217   6.036  11.390  1.00  0.00     0.016 A 
HETATM   16  H15 UNL     1      -0.224   5.036  10.214  1.00  0.00     0.166 HD
HETATM   17  C15 UNL     1       1.188   6.496  12.687  1.00  0.00    -0.027 A 
HETATM   18  C25 UNL     1       2.350   6.155  10.434  1.00  0.00     0.057 C 
HETATM   19  C16 UNL     1      -0.094   6.171  13.218  1.00  0.00    -0.023 A 
HETATM   20  C22 UNL     1       2.365   7.160  13.323  1.00  0.00     0.041 C 
HETATM   21  C23 UNL     1       3.402   7.591  12.267  1.00  0.00     0.005 C 
HETATM   22  C24 UNL     1       3.638   6.502  11.202  1.00  0.00     0.006 C 
BRANCH  19  23
HETATM   23  C17 UNL     1      -0.556   6.472  14.613  1.00  0.00     0.043 C 
BRANCH  23  24
HETATM   24  C18 UNL     1      -0.898   7.954  14.798  1.00  0.00     0.035 C 
BRANCH  24  25
HETATM   25  C19 UNL     1      -2.416   8.152  14.889  1.00  0.00     0.271 C 
BRANCH  25  26
HETATM   26  N3  UNL     1      -3.172   8.065  13.633  1.00  0.00     0.080 N 
HETATM   27  C20 UNL     1      -2.568   8.842  12.554  1.00  0.00     0.309 C 
HETATM   28  C21 UNL     1      -4.584   8.402  13.794  1.00  0.00     0.309 C 
ENDBRANCH  25  26
ENDBRANCH  24  25
ENDBRANCH  23  24
ENDBRANCH  19  23
ENDBRANCH   8  13
BRANCH   1  29
HETATM   29  S1  UNL     1      -7.817   4.020  12.807  1.00  0.00     0.258 S 
HETATM   30  O1  UNL     1      -7.886   5.313  12.165  1.00  0.00    -0.201 OA
HETATM   31  O2  UNL     1      -8.881   3.049  12.697  1.00  0.00    -0.201 OA
BRANCH  29  32
HETATM   32  N1  UNL     1      -7.551   4.254  14.443  1.00  0.00    -0.315 N 
HETATM   33  H10 UNL     1      -7.318   3.410  14.962  1.00  0.00     0.172 HD
BRANCH  32  34
HETATM   34  C4  UNL     1      -7.131   5.562  14.944  1.00  0.00     0.136 C 
BRANCH  34  35
HETATM   35  C2  UNL     1      -8.225   6.208  15.807  1.00  0.00    -0.004 C 
HETATM   36  C1  UNL     1      -7.644   7.171  16.845  1.00  0.00     0.011 C 
HETATM   37  C3  UNL     1      -9.296   6.903  14.964  1.00  0.00     0.011 C 
ENDBRANCH  34  35
ENDBRANCH  32  34
ENDBRANCH  29  32
ENDBRANCH   1  29
TORSDOF 9
ENDMDL
MODEL 4
REMARK minimizedAffinity -8.65780163
REMARK  9 active torsions:
REMARK  status: ('A' for Active; 'I' for Inactive)
REMARK    1  A    between atoms: C2_2  and  C4_4 
REMARK    2  A    between atoms: C4_4  and  N1_5 
REMARK    3  A    between atoms: N1_5  and  S1_6 
REMARK    4  A    between atoms: S1_6  and  C5_9 
REMARK    5  A    between atoms: C12_16  and  C13_17 
REMARK    6  A    between atoms: C16_21  and  C17_22 
REMARK    7  A    between atoms: C17_22  and  C18_23 
REMARK    8  A    between atoms: C18_23  and  C19_24 
REMARK    9  A    between atoms: C19_24  and  N3_25 
ROOT
HETATM    1  C5  UNL     1      -0.989   4.079  11.714  1.00  0.00     0.080 A 
HETATM    2  C6  UNL     1      -1.106   2.767  11.209  1.00  0.00     0.027 A 
HETATM    3  C7  UNL     1      -2.340   2.114  11.235  1.00  0.00     0.032 A 
HETATM    4  C8  UNL     1      -3.416   2.807  11.753  1.00  0.00     0.046 A 
HETATM    5  C9  UNL     1      -3.316   4.117  12.237  1.00  0.00     0.008 A 
HETATM    6  C10 UNL     1      -2.098   4.773  12.221  1.00  0.00     0.040 A 
HETATM    7  C11 UNL     1      -4.671   4.503  12.683  1.00  0.00     0.047 A 
HETATM    8  C12 UNL     1      -4.952   5.716  13.189  1.00  0.00     0.048 C 
HETATM    9  C26 UNL     1      -5.551   3.302  12.429  1.00  0.00     0.257 A 
HETATM   10  O3  UNL     1      -6.739   3.170  12.654  1.00  0.00    -0.267 OA
HETATM   11  N4  UNL     1      -4.719   2.344  11.874  1.00  0.00    -0.322 N 
HETATM   12  H36 UNL     1      -5.051   1.434  11.594  1.00  0.00     0.169 HD
ENDROOT
BRANCH   8  13
HETATM   13  C13 UNL     1      -6.191   6.250  13.647  1.00  0.00     0.040 A 
HETATM   14  N2  UNL     1      -7.400   5.873  13.107  1.00  0.00    -0.359 N 
HETATM   15  C14 UNL     1      -8.414   6.558  13.710  1.00  0.00     0.016 A 
HETATM   16  H15 UNL     1      -7.531   5.194  12.362  1.00  0.00     0.166 HD
HETATM   17  C15 UNL     1      -7.874   7.385  14.669  1.00  0.00    -0.027 A 
HETATM   18  C25 UNL     1      -9.857   6.408  13.382  1.00  0.00     0.057 C 
HETATM   19  C16 UNL     1      -6.462   7.196  14.639  1.00  0.00    -0.023 A 
HETATM   20  C22 UNL     1      -8.715   8.301  15.496  1.00  0.00     0.041 C 
HETATM   21  C23 UNL     1     -10.206   7.918  15.414  1.00  0.00     0.005 C 
HETATM   22  C24 UNL     1     -10.646   7.591  13.973  1.00  0.00     0.006 C 
BRANCH  19  23
HETATM   23  C17 UNL     1      -5.471   7.912  15.508  1.00  0.00     0.043 C 
BRANCH  23  24
HETATM   24  C18 UNL     1      -4.769   9.049  14.760  1.00  0.00     0.035 C 
BRANCH  24  25
HETATM   25  C19 UNL     1      -3.303   9.163  15.199  1.00  0.00     0.271 C 
BRANCH  25  26
HETATM   26  N3  UNL     1      -2.288   9.098  14.140  1.00  0.00     0.080 N 
HETATM   27  C20 UNL     1      -1.522  10.335  14.015  1.00  0.00     0.309 C 
HETATM   28  C21 UNL     1      -2.837   8.690  12.851  1.00  0.00     0.309 C 
ENDBRANCH  25  26
ENDBRANCH  24  25
ENDBRANCH  23  24
ENDBRANCH  19  23
ENDBRANCH   8  13
BRANCH   1  29
HETATM   29  S1  UNL     1       0.590   4.899  11.666  1.00  0.00     0.258 S 
HETATM   30  O1  UNL     1       0.846   5.452  12.976  1.00  0.00    -0.201 OA
HETATM   31  O2  UNL     1       1.524   4.012  11.011  1.00  0.00    -0.201 OA
BRANCH  29  32
HETATM   32  N1  UNL     1       0.304   6.160  10.604  1.00  0.00    -0.315 N 
HETATM   33  H10 UNL     1      -0.649   6.516  10.613  1.00  0.00     0.172 HD
BRANCH  32  34
HETATM   34  C4  UNL     1       1.403   7.018  10.162  1.00  0.00     0.136 C 
BRANCH  34  35
HETATM   35  C2  UNL     1       1.205   7.475   8.708  1.00  0.00    -0.004 C 
HETATM   36  C1  UNL     1       0.047   8.464   8.569  1.00  0.00     0.011 C 
HETATM   37  C3  UNL     1       2.486   8.051   8.101  1.00  0.00     0.011 C 
ENDBRANCH  34  35
ENDBRANCH  32  34
ENDBRANCH  29  32
ENDBRANCH   1  29
TORSDOF 9
ENDMDL
MODEL 5
REMARK minimizedAffinity -8.4869957
REMARK  9 active torsions:
REMARK  status: ('A' for Active; 'I' for Inactive)
REMARK    1  A    between atoms: C2_2  and  C4_4 
REMARK    2  A    between atoms: C4_4  and  N1_5 
REMARK    3  A    between atoms: N1_5  and  S1_6 
REMARK    4  A    between atoms: S1_6  and  C5_9 
REMARK    5  A    between atoms: C12_16  and  C13_17 
REMARK    6  A    between atoms: C16_21  and  C17_22 
REMARK    7  A    between atoms: C17_22  and  C18_23 
REMARK    8  A    between atoms: C18_23  and  C19_24 
REMARK    9  A    between atoms: C19_24  and  N3_25 
ROOT
HETATM    1  C5  UNL     1       2.079   6.612  10.526  1.00  0.00     0.080 A 
HETATM    2  C6  UNL     1       2.571   7.927  10.660  1.00  0.00     0.027 A 
HETATM    3  C7  UNL     1       1.796   8.905  11.287  1.00  0.00     0.032 A 
HETATM    4  C8  UNL     1       0.561   8.523  11.773  1.00  0.00     0.046 A 
HETATM    5  C9  UNL     1       0.071   7.216  11.665  1.00  0.00     0.008 A 
HETATM    6  C10 UNL     1       0.828   6.239  11.040  1.00  0.00     0.040 A 
HETATM    7  C11 UNL     1      -1.258   7.211  12.311  1.00  0.00     0.047 A 
HETATM    8  C12 UNL     1      -2.014   6.105  12.411  1.00  0.00     0.048 C 
HETATM    9  C26 UNL     1      -1.495   8.627  12.784  1.00  0.00     0.257 A 
HETATM   10  O3  UNL     1      -2.464   9.081  13.360  1.00  0.00    -0.267 OA
HETATM   11  N4  UNL     1      -0.361   9.333  12.422  1.00  0.00    -0.322 N 
HETATM   12  H36 UNL     1      -0.245  10.314  12.626  1.00  0.00     0.169 HD
ENDROOT
BRANCH   8  13
HETATM   13  C13 UNL     1      -3.295   5.926  13.009  1.00  0.00     0.040 A 
HETATM   14  N2  UNL     1      -3.779   6.771  13.982  1.00  0.00    -0.359 N 
HETATM   15  C14 UNL     1      -5.009   6.350  14.395  1.00  0.00     0.016 A 
HETATM   16  H15 UNL     1      -3.297   7.584  14.354  1.00  0.00     0.166 HD
HETATM   17  C15 UNL     1      -5.351   5.226  13.679  1.00  0.00    -0.027 A 
HETATM   18  C25 UNL     1      -5.833   7.021  15.436  1.00  0.00     0.057 C 
HETATM   19  C16 UNL     1      -4.270   4.949  12.793  1.00  0.00    -0.023 A 
HETATM   20  C22 UNL     1      -6.632   4.493  13.910  1.00  0.00     0.041 C 
HETATM   21  C23 UNL     1      -7.627   5.347  14.718  1.00  0.00     0.005 C 
HETATM   22  C24 UNL     1      -6.951   6.068  15.901  1.00  0.00     0.006 C 
BRANCH  19  23
HETATM   23  C17 UNL     1      -4.207   3.797  11.833  1.00  0.00     0.043 C 
BRANCH  23  24
HETATM   24  C18 UNL     1      -3.363   2.641  12.379  1.00  0.00     0.035 C 
BRANCH  24  25
HETATM   25  C19 UNL     1      -2.879   1.738  11.237  1.00  0.00     0.271 C 
BRANCH  25  26
HETATM   26  N3  UNL     1      -1.498   1.937  10.776  1.00  0.00     0.080 N 
HETATM   27  C20 UNL     1      -0.784   0.680  10.570  1.00  0.00     0.309 C 
HETATM   28  C21 UNL     1      -0.735   2.837  11.635  1.00  0.00     0.309 C 
ENDBRANCH  25  26
ENDBRANCH  24  25
ENDBRANCH  23  24
ENDBRANCH  19  23
ENDBRANCH   8  13
BRANCH   1  29
HETATM   29  S1  UNL     1       3.083   5.377   9.728  1.00  0.00     0.258 S 
HETATM   30  O1  UNL     1       2.631   4.078  10.174  1.00  0.00    -0.201 OA
HETATM   31  O2  UNL     1       3.170   5.722   8.328  1.00  0.00    -0.201 OA
BRANCH  29  32
HETATM   32  N1  UNL     1       4.594   5.667  10.387  1.00  0.00    -0.315 N 
HETATM   33  H10 UNL     1       5.372   5.521   9.748  1.00  0.00     0.172 HD
BRANCH  32  34
HETATM   34  C4  UNL     1       4.742   6.569  11.528  1.00  0.00     0.136 C 
BRANCH  34  35
HETATM   35  C2  UNL     1       6.212   6.957  11.748  1.00  0.00    -0.004 C 
HETATM   36  C1  UNL     1       6.558   7.081  13.233  1.00  0.00     0.011 C 
HETATM   37  C3  UNL     1       7.177   6.000  11.045  1.00  0.00     0.011 C 
ENDBRANCH  34  35
ENDBRANCH  32  34
ENDBRANCH  29  32
ENDBRANCH   1  29
TORSDOF 9
ENDMDL
MODEL 6
REMARK minimizedAffinity -8.48093605
REMARK  9 active torsions:
REMARK  status: ('A' for Active; 'I' for Inactive)
REMARK    1  A    between atoms: C2_2  and  C4_4 
REMARK    2  A    between atoms: C4_4  and  N1_5 
REMARK    3  A    between atoms: N1_5  and  S1_6 
REMARK    4  A    between atoms: S1_6  and  C5_9 
REMARK    5  A    between atoms: C12_16  and  C13_17 
REMARK    6  A    between atoms: C16_21  and  C17_22 
REMARK    7  A    between atoms: C17_22  and  C18_23 
REMARK    8  A    between atoms: C18_23  and  C19_24 
REMARK    9  A    between atoms: C19_24  and  N3_25 
ROOT
HETATM    1  C5  UNL     1      -6.293   4.745  13.392  1.00  0.00     0.080 A 
HETATM    2  C6  UNL     1      -6.738   3.542  12.805  1.00  0.00     0.027 A 
HETATM    3  C7  UNL     1      -5.881   2.803  11.987  1.00  0.00     0.032 A 
HETATM    4  C8  UNL     1      -4.603   3.289  11.800  1.00  0.00     0.046 A 
HETATM    5  C9  UNL     1      -4.143   4.470  12.394  1.00  0.00     0.008 A 
HETATM    6  C10 UNL     1      -4.984   5.215  13.203  1.00  0.00     0.040 A 
HETATM    7  C11 UNL     1      -2.738   4.635  11.966  1.00  0.00     0.047 A 
HETATM    8  C12 UNL     1      -1.971   5.662  12.369  1.00  0.00     0.048 C 
HETATM    9  C26 UNL     1      -2.437   3.460  11.066  1.00  0.00     0.257 A 
HETATM   10  O3  UNL     1      -1.403   3.198  10.482  1.00  0.00    -0.267 OA
HETATM   11  N4  UNL     1      -3.603   2.715  11.027  1.00  0.00    -0.322 N 
HETATM   12  H36 UNL     1      -3.681   1.858  10.501  1.00  0.00     0.169 HD
ENDROOT
BRANCH   8  13
HETATM   13  C13 UNL     1      -0.611   5.959  12.067  1.00  0.00     0.040 A 
HETATM   14  N2  UNL     1      -0.059   5.711  10.831  1.00  0.00    -0.359 N 
HETATM   15  C14 UNL     1       1.260   6.063  10.829  1.00  0.00     0.016 A 
HETATM   16  H15 UNL     1      -0.547   5.316  10.033  1.00  0.00     0.166 HD
HETATM   17  C15 UNL     1       1.581   6.562  12.070  1.00  0.00    -0.027 A 
HETATM   18  C25 UNL     1       2.174   5.934   9.663  1.00  0.00     0.057 C 
HETATM   19  C16 UNL     1       0.399   6.504  12.865  1.00  0.00    -0.023 A 
HETATM   20  C22 UNL     1       2.963   7.012  12.415  1.00  0.00     0.041 C 
HETATM   21  C23 UNL     1       3.820   7.206  11.148  1.00  0.00     0.005 C 
HETATM   22  C24 UNL     1       3.634   6.057  10.137  1.00  0.00     0.006 C 
BRANCH  19  23
HETATM   23  C17 UNL     1       0.295   6.932  14.299  1.00  0.00     0.043 C 
BRANCH  23  24
HETATM   24  C18 UNL     1       0.455   8.447  14.459  1.00  0.00     0.035 C 
BRANCH  24  25
HETATM   25  C19 UNL     1      -0.855   9.082  14.942  1.00  0.00     0.271 C 
BRANCH  25  26
HETATM   26  N3  UNL     1      -2.057   8.239  14.891  1.00  0.00     0.080 N 
HETATM   27  C20 UNL     1      -3.118   8.816  14.070  1.00  0.00     0.309 C 
HETATM   28  C21 UNL     1      -2.557   7.881  16.215  1.00  0.00     0.309 C 
ENDBRANCH  25  26
ENDBRANCH  24  25
ENDBRANCH  23  24
ENDBRANCH  19  23
ENDBRANCH   8  13
BRANCH   1  29
HETATM   29  S1  UNL     1      -7.396   5.672  14.437  1.00  0.00     0.258 S 
HETATM   30  O1  UNL     1      -7.388   5.062  15.747  1.00  0.00    -0.201 OA
HETATM   31  O2  UNL     1      -7.109   7.075  14.241  1.00  0.00    -0.201 OA
BRANCH  29  32
HETATM   32  N1  UNL     1      -8.884   5.384  13.727  1.00  0.00    -0.315 N 
HETATM   33  H10 UNL     1      -9.357   4.545  14.055  1.00  0.00     0.172 HD
BRANCH  32  34
HETATM   34  C4  UNL     1      -9.658   6.487  13.159  1.00  0.00     0.136 C 
BRANCH  34  35
HETATM   35  C2  UNL     1     -10.806   6.904  14.091  1.00  0.00    -0.004 C 
HETATM   36  C1  UNL     1     -10.417   8.075  14.994  1.00  0.00     0.011 C 
HETATM   37  C3  UNL     1     -12.093   7.216  13.324  1.00  0.00     0.011 C 
ENDBRANCH  34  35
ENDBRANCH  32  34
ENDBRANCH  29  32
ENDBRANCH   1  29
TORSDOF 9
ENDMDL
MODEL 7
REMARK minimizedAffinity -8.43719387
REMARK  9 active torsions:
REMARK  status: ('A' for Active; 'I' for Inactive)
REMARK    1  A    between atoms: C2_2  and  C4_4 
REMARK    2  A    between atoms: C4_4  and  N1_5 
REMARK    3  A    between atoms: N1_5  and  S1_6 
REMARK    4  A    between atoms: S1_6  and  C5_9 
REMARK    5  A    between atoms: C12_16  and  C13_17 
REMARK    6  A    between atoms: C16_21  and  C17_22 
REMARK    7  A    between atoms: C17_22  and  C18_23 
REMARK    8  A    between atoms: C18_23  and  C19_24 
REMARK    9  A    between atoms: C19_24  and  N3_25 
ROOT
HETATM    1  C5  UNL     1       2.754   7.229  12.498  1.00  0.00     0.080 A 
HETATM    2  C6  UNL     1       3.134   7.621  13.799  1.00  0.00     0.027 A 
HETATM    3  C7  UNL     1       2.268   7.413  14.874  1.00  0.00     0.032 A 
HETATM    4  C8  UNL     1       1.058   6.803  14.607  1.00  0.00     0.046 A 
HETATM    5  C9  UNL     1       0.679   6.390  13.325  1.00  0.00     0.008 A 
HETATM    6  C10 UNL     1       1.527   6.596  12.249  1.00  0.00     0.040 A 
HETATM    7  C11 UNL     1      -0.658   5.777  13.459  1.00  0.00     0.047 A 
HETATM    8  C12 UNL     1      -1.323   5.247  12.419  1.00  0.00     0.048 C 
HETATM    9  C26 UNL     1      -1.021   5.887  14.922  1.00  0.00     0.257 A 
HETATM   10  O3  UNL     1      -2.037   5.521  15.481  1.00  0.00    -0.267 OA
HETATM   11  N4  UNL     1       0.059   6.508  15.525  1.00  0.00    -0.322 N 
HETATM   12  H36 UNL     1       0.090   6.701  16.515  1.00  0.00     0.169 HD
ENDROOT
BRANCH   8  13
HETATM   13  C13 UNL     1      -2.598   4.612  12.378  1.00  0.00     0.040 A 
HETATM   14  N2  UNL     1      -2.770   3.335  11.895  1.00  0.00    -0.359 N 
HETATM   15  C14 UNL     1      -4.090   2.991  11.946  1.00  0.00     0.016 A 
HETATM   16  H15 UNL     1      -2.034   2.732  11.539  1.00  0.00     0.166 HD
HETATM   17  C15 UNL     1      -4.796   4.042  12.483  1.00  0.00    -0.027 A 
HETATM   18  C25 UNL     1      -4.647   1.684  11.506  1.00  0.00     0.057 C 
HETATM   19  C16 UNL     1      -3.858   5.078  12.764  1.00  0.00    -0.023 A 
HETATM   20  C22 UNL     1      -6.280   4.003  12.650  1.00  0.00     0.041 C 
HETATM   21  C23 UNL     1      -6.819   2.564  12.525  1.00  0.00     0.005 C 
HETATM   22  C24 UNL     1      -6.175   1.801  11.351  1.00  0.00     0.006 C 
BRANCH  19  23
HETATM   23  C17 UNL     1      -4.194   6.420  13.344  1.00  0.00     0.043 C 
BRANCH  23  24
HETATM   24  C18 UNL     1      -3.518   7.561  12.578  1.00  0.00     0.035 C 
BRANCH  24  25
HETATM   25  C19 UNL     1      -3.295   8.771  13.494  1.00  0.00     0.271 C 
BRANCH  25  26
HETATM   26  N3  UNL     1      -2.082   9.565  13.259  1.00  0.00     0.080 N 
HETATM   27  C20 UNL     1      -1.317   9.100  12.106  1.00  0.00     0.309 C 
HETATM   28  C21 UNL     1      -1.233   9.672  14.442  1.00  0.00     0.309 C 
ENDBRANCH  25  26
ENDBRANCH  24  25
ENDBRANCH  23  24
ENDBRANCH  19  23
ENDBRANCH   8  13
BRANCH   1  29
HETATM   29  S1  UNL     1       3.873   7.497  11.139  1.00  0.00     0.258 S 
HETATM   30  O1  UNL     1       4.334   8.865  11.203  1.00  0.00    -0.201 OA
HETATM   31  O2  UNL     1       4.788   6.379  11.099  1.00  0.00    -0.201 OA
BRANCH  29  32
HETATM   32  N1  UNL     1       2.865   7.339   9.812  1.00  0.00    -0.315 N 
HETATM   33  H10 UNL     1       1.921   7.028  10.029  1.00  0.00     0.172 HD
BRANCH  32  34
HETATM   34  C4  UNL     1       3.123   8.103   8.593  1.00  0.00     0.136 C 
BRANCH  34  35
HETATM   35  C2  UNL     1       1.870   8.185   7.709  1.00  0.00    -0.004 C 
HETATM   36  C1  UNL     1       1.826   7.066   6.667  1.00  0.00     0.011 C 
HETATM   37  C3  UNL     1       0.579   8.211   8.530  1.00  0.00     0.011 C 
ENDBRANCH  34  35
ENDBRANCH  32  34
ENDBRANCH  29  32
ENDBRANCH   1  29
TORSDOF 9
ENDMDL
MODEL 8
REMARK minimizedAffinity -8.37785244
REMARK  9 active torsions:
REMARK  status: ('A' for Active; 'I' for Inactive)
REMARK    1  A    between atoms: C2_2  and  C4_4 
REMARK    2  A    between atoms: C4_4  and  N1_5 
REMARK    3  A    between atoms: N1_5  and  S1_6 
REMARK    4  A    between atoms: S1_6  and  C5_9 
REMARK    5  A    between atoms: C12_16  and  C13_17 
REMARK    6  A    between atoms: C16_21  and  C17_22 
REMARK    7  A    between atoms: C17_22  and  C18_23 
REMARK    8  A    between atoms: C18_23  and  C19_24 
REMARK    9  A    between atoms: C19_24  and  N3_25 
ROOT
HETATM    1  C5  UNL     1      -2.797   3.147  11.846  1.00  0.00     0.080 A 
HETATM    2  C6  UNL     1      -3.100   1.839  11.415  1.00  0.00     0.027 A 
HETATM    3  C7  UNL     1      -4.411   1.363  11.485  1.00  0.00     0.032 A 
HETATM    4  C8  UNL     1      -5.375   2.225  11.970  1.00  0.00     0.046 A 
HETATM    5  C9  UNL     1      -5.091   3.533  12.380  1.00  0.00     0.008 A 
HETATM    6  C10 UNL     1      -3.794   4.014  12.320  1.00  0.00     0.040 A 
HETATM    7  C11 UNL     1      -6.374   4.125  12.812  1.00  0.00     0.047 A 
HETATM    8  C12 UNL     1      -6.479   5.390  13.251  1.00  0.00     0.048 C 
HETATM    9  C26 UNL     1      -7.413   3.043  12.629  1.00  0.00     0.257 A 
HETATM   10  O3  UNL     1      -8.605   3.089  12.869  1.00  0.00    -0.267 OA
HETATM   11  N4  UNL     1      -6.727   1.952  12.124  1.00  0.00    -0.322 N 
HETATM   12  H36 UNL     1      -7.184   1.082  11.897  1.00  0.00     0.169 HD
ENDROOT
BRANCH   8  13
HETATM   13  C13 UNL     1      -7.628   6.113  13.686  1.00  0.00     0.040 A 
HETATM   14  N2  UNL     1      -8.812   6.105  12.985  1.00  0.00    -0.359 N 
HETATM   15  C14 UNL     1      -9.729   6.901  13.608  1.00  0.00     0.016 A 
HETATM   16  H15 UNL     1      -8.988   5.595  12.123  1.00  0.00     0.166 HD
HETATM   17  C15 UNL     1      -9.152   7.428  14.741  1.00  0.00    -0.027 A 
HETATM   18  C25 UNL     1     -11.119   7.131  13.134  1.00  0.00     0.057 C 
HETATM   19  C16 UNL     1      -7.818   6.932  14.802  1.00  0.00    -0.023 A 
HETATM   20  C22 UNL     1      -9.881   8.372  15.640  1.00  0.00     0.041 C 
HETATM   21  C23 UNL     1     -11.397   8.352  15.362  1.00  0.00     0.005 C 
HETATM   22  C24 UNL     1     -11.713   8.357  13.853  1.00  0.00     0.006 C 
BRANCH  19  23
HETATM   23  C17 UNL     1      -6.815   7.266  15.867  1.00  0.00     0.043 C 
BRANCH  23  24
HETATM   24  C18 UNL     1      -5.422   7.523  15.284  1.00  0.00     0.035 C 
BRANCH  24  25
HETATM   25  C19 UNL     1      -5.165   9.029  15.140  1.00  0.00     0.271 C 
BRANCH  25  26
HETATM   26  N3  UNL     1      -4.258   9.641  16.121  1.00  0.00     0.080 N 
HETATM   27  C20 UNL     1      -4.166  11.092  15.977  1.00  0.00     0.309 C 
HETATM   28  C21 UNL     1      -2.933   9.031  16.128  1.00  0.00     0.309 C 
ENDBRANCH  25  26
ENDBRANCH  24  25
ENDBRANCH  23  24
ENDBRANCH  19  23
ENDBRANCH   8  13
BRANCH   1  29
HETATM   29  S1  UNL     1      -1.122   3.739  11.744  1.00  0.00     0.258 S 
HETATM   30  O1  UNL     1      -0.237   2.613  11.943  1.00  0.00    -0.201 OA
HETATM   31  O2  UNL     1      -1.029   4.593  10.581  1.00  0.00    -0.201 OA
BRANCH  29  32
HETATM   32  N1  UNL     1      -1.016   4.740  13.081  1.00  0.00    -0.315 N 
HETATM   33  H10 UNL     1      -1.708   4.558  13.805  1.00  0.00     0.172 HD
BRANCH  32  34
HETATM   34  C4  UNL     1       0.251   5.385  13.424  1.00  0.00     0.136 C 
BRANCH  34  35
HETATM   35  C2  UNL     1       0.142   6.915  13.334  1.00  0.00    -0.004 C 
HETATM   36  C1  UNL     1       1.207   7.513  12.414  1.00  0.00     0.011 C 
HETATM   37  C3  UNL     1      -1.256   7.374  12.916  1.00  0.00     0.011 C 
ENDBRANCH  34  35
ENDBRANCH  32  34
ENDBRANCH  29  32
ENDBRANCH   1  29
TORSDOF 9
ENDMDL
MODEL 9
REMARK minimizedAffinity -8.19695473
REMARK  9 active torsions:
REMARK  status: ('A' for Active; 'I' for Inactive)
REMARK    1  A    between atoms: C2_2  and  C4_4 
REMARK    2  A    between atoms: C4_4  and  N1_5 
REMARK    3  A    between atoms: N1_5  and  S1_6 
REMARK    4  A    between atoms: S1_6  and  C5_9 
REMARK    5  A    between atoms: C12_16  and  C13_17 
REMARK    6  A    between atoms: C16_21  and  C17_22 
REMARK    7  A    between atoms: C17_22  and  C18_23 
REMARK    8  A    between atoms: C18_23  and  C19_24 
REMARK    9  A    between atoms: C19_24  and  N3_25 
ROOT
HETATM    1  C5  UNL     1       0.269   6.288  12.027  1.00  0.00     0.080 A 
HETATM    2  C6  UNL     1       0.603   4.986  11.598  1.00  0.00     0.027 A 
HETATM    3  C7  UNL     1      -0.357   3.972  11.623  1.00  0.00     0.032 A 
HETATM    4  C8  UNL     1      -1.623   4.306  12.063  1.00  0.00     0.046 A 
HETATM    5  C9  UNL     1      -1.972   5.598  12.471  1.00  0.00     0.008 A 
HETATM    6  C10 UNL     1      -1.028   6.611  12.456  1.00  0.00     0.040 A 
HETATM    7  C11 UNL     1      -3.399   5.547  12.849  1.00  0.00     0.047 A 
HETATM    8  C12 UNL     1      -4.078   6.627  13.272  1.00  0.00     0.048 C 
HETATM    9  C26 UNL     1      -3.835   4.116  12.638  1.00  0.00     0.257 A 
HETATM   10  O3  UNL     1      -4.928   3.619  12.832  1.00  0.00    -0.267 OA
HETATM   11  N4  UNL     1      -2.714   3.453  12.169  1.00  0.00    -0.322 N 
HETATM   12  H36 UNL     1      -2.723   2.473  11.933  1.00  0.00     0.169 HD
ENDROOT
BRANCH   8  13
HETATM   13  C13 UNL     1      -5.444   6.753  13.656  1.00  0.00     0.040 A 
HETATM   14  N2  UNL     1      -6.457   6.078  13.013  1.00  0.00    -0.359 N 
HETATM   15  C14 UNL     1      -7.661   6.406  13.565  1.00  0.00     0.016 A 
HETATM   16  H15 UNL     1      -6.339   5.437  12.233  1.00  0.00     0.166 HD
HETATM   17  C15 UNL     1      -7.444   7.293  14.594  1.00  0.00    -0.027 A 
HETATM   18  C25 UNL     1      -8.975   5.867  13.123  1.00  0.00     0.057 C 
HETATM   19  C16 UNL     1      -6.038   7.520  14.663  1.00  0.00    -0.023 A 
HETATM   20  C22 UNL     1      -8.563   7.877  15.392  1.00  0.00     0.041 C 
HETATM   21  C23 UNL     1      -9.870   7.088  15.183  1.00  0.00     0.005 C 
HETATM   22  C24 UNL     1     -10.108   6.736  13.701  1.00  0.00     0.006 C 
BRANCH  19  23
HETATM   23  C17 UNL     1      -5.353   8.437  15.633  1.00  0.00     0.043 C 
BRANCH  23  24
HETATM   24  C18 UNL     1      -4.639   9.592  14.923  1.00  0.00     0.035 C 
BRANCH  24  25
HETATM   25  C19 UNL     1      -3.327   9.938  15.638  1.00  0.00     0.271 C 
BRANCH  25  26
HETATM   26  N3  UNL     1      -3.429  10.373  17.037  1.00  0.00     0.080 N 
HETATM   27  C20 UNL     1      -3.814  11.776  17.166  1.00  0.00     0.309 C 
HETATM   28  C21 UNL     1      -2.226  10.087  17.811  1.00  0.00     0.309 C 
ENDBRANCH  25  26
ENDBRANCH  24  25
ENDBRANCH  23  24
ENDBRANCH  19  23
ENDBRANCH   8  13
BRANCH   1  29
HETATM   29  S1  UNL     1       1.503   7.570  11.983  1.00  0.00     0.258 S 
HETATM   30  O1  UNL     1       0.825   8.839  11.845  1.00  0.00    -0.201 OA
HETATM   31  O2  UNL     1       2.441   7.311  13.051  1.00  0.00    -0.201 OA
BRANCH  29  32
HETATM   32  N1  UNL     1       2.306   7.241  10.552  1.00  0.00    -0.315 N 
HETATM   33  H10 UNL     1       2.902   6.416  10.577  1.00  0.00     0.172 HD
BRANCH  32  34
HETATM   34  C4  UNL     1       1.773   7.719   9.277  1.00  0.00     0.136 C 
BRANCH  34  35
HETATM   35  C2  UNL     1       2.544   7.125   8.089  1.00  0.00    -0.004 C 
HETATM   36  C1  UNL     1       2.945   5.669   8.334  1.00  0.00     0.011 C 
HETATM   37  C3  UNL     1       1.778   7.261   6.772  1.00  0.00     0.011 C 
ENDBRANCH  34  35
ENDBRANCH  32  34
ENDBRANCH  29  32
ENDBRANCH   1  29
TORSDOF 9
ENDMDL
