MODEL 1
REMARK minimizedAffinity -9.99794292
REMARK  5 active torsions:
REMARK  status: ('A' for Active; 'I' for Inactive)
REMARK    1  A    between atoms: C2_2  and  C3_3 
REMARK       I    between atoms: C3_3  and  N1_5 
REMARK    2  A    between atoms: C6_8  and  C7_9 
REMARK    3  A    between atoms: C7_9  and  N2_10 
REMARK    4  A    between atoms: C9_12  and  C10_13 
REMARK    5  A    between atoms: C18_23  and  N3_24 
ROOT
HETATM    1  N2  UNL     1      -0.322  52.884 -24.155  1.00  0.00    -0.341 N 
HETATM    2  C8  UNL     1      -1.233  51.926 -23.781  1.00  0.00     0.106 A 
HETATM    3  C9  UNL     1      -1.974  51.587 -24.896  1.00  0.00     0.007 A 
HETATM    4  C17 UNL     1      -1.495  52.376 -25.987  1.00  0.00     0.064 A 
HETATM    5  C18 UNL     1      -1.794  52.528 -27.350  1.00  0.00     0.114 A 
HETATM    6  N4  UNL     1      -1.103  53.433 -28.073  1.00  0.00    -0.338 N 
ATOM      7  H4  UNL     1      -1.305  53.575 -29.063  1.00  0.00     0.168 HD
HETATM    8  C19 UNL     1      -0.140  54.144 -27.458  1.00  0.00     0.183 A 
HETATM    9  N5  UNL     1       0.242  54.083 -26.174  1.00  0.00    -0.338 N 
ATOM     10  H5  UNL     1       0.985  54.653 -25.769  1.00  0.00     0.168 HD
HETATM   11  C20 UNL     1      -0.476  53.178 -25.486  1.00  0.00     0.123 A 
ENDROOT
BRANCH   1  12
HETATM   12  C7  UNL     1       0.698  53.440 -23.282  1.00  0.00     0.135 C 
BRANCH  12  13
HETATM   13  C6  UNL     1       0.762  52.779 -21.894  1.00  0.00     0.007 C 
HETATM   14  C5  UNL     1      -0.558  52.103 -21.501  1.00  0.00     0.026 C 
HETATM   15  C4  UNL     1      -0.449  51.456 -20.118  1.00  0.00     0.126 C 
HETATM   16  N1  UNL     1       0.279  52.272 -19.150  1.00  0.00    -0.349 N 
HETATM   17  C3  UNL     1       0.466  51.727 -17.886  1.00  0.00     0.242 C 
HETATM   18  C22 UNL     1       0.453  53.675 -19.502  1.00  0.00     0.126 C 
HETATM   19  O1  UNL     1       0.040  50.623 -17.564  1.00  0.00    -0.268 OA
HETATM   20  C21 UNL     1       1.186  53.821 -20.836  1.00  0.00     0.026 C 
BRANCH  17  21
HETATM   21  C2  UNL     1       1.245  52.531 -16.911  1.00  0.00     0.064 C 
HETATM   22  C1  UNL     1       2.581  52.405 -16.846  1.00  0.00     0.017 C 
ENDBRANCH  17  21
ENDBRANCH  12  13
ENDBRANCH   1  12
BRANCH   3  23
HETATM   23  C10 UNL     1      -3.015  50.582 -24.858  1.00  0.00    -0.021 A 
HETATM   24  C11 UNL     1      -2.812  49.336 -25.493  1.00  0.00     0.015 A 
HETATM   25  C12 UNL     1      -3.811  48.356 -25.483  1.00  0.00     0.040 A 
HETATM   26  C13 UNL     1      -4.990  48.657 -24.838  1.00  0.00     0.105 A 
HETATM   27  C14 UNL     1      -5.193  49.871 -24.219  1.00  0.00     0.105 A 
HETATM   28  O3  UNL     1      -6.068  47.836 -24.735  1.00  0.00    -0.323 OA
HETATM   29  C15 UNL     1      -4.226  50.855 -24.207  1.00  0.00     0.052 A 
HETATM   30  O2  UNL     1      -6.427  49.967 -23.655  1.00  0.00    -0.323 OA
HETATM   31  C16 UNL     1      -6.974  48.670 -23.977  1.00  0.00     0.352 A 
ENDBRANCH   3  23
BRANCH   5  32
HETATM   32  N3  UNL     1      -2.774  51.810 -28.015  1.00  0.00    -0.385 N 
HETATM   33  H17 UNL     1      -3.508  51.421 -27.438  1.00  0.00     0.157 HD
HETATM   34  H18 UNL     1      -3.051  52.264 -28.875  1.00  0.00     0.157 HD
ENDBRANCH   5  32
TORSDOF 5
ENDMDL
MODEL 2
REMARK minimizedAffinity -9.6506815
REMARK  5 active torsions:
REMARK  status: ('A' for Active; 'I' for Inactive)
REMARK    1  A    between atoms: C2_2  and  C3_3 
REMARK       I    between atoms: C3_3  and  N1_5 
REMARK    2  A    between atoms: C6_8  and  C7_9 
REMARK    3  A    between atoms: C7_9  and  N2_10 
REMARK    4  A    between atoms: C9_12  and  C10_13 
REMARK    5  A    between atoms: C18_23  and  N3_24 
ROOT
HETATM    1  N2  UNL     1      -1.263  51.255 -25.512  1.00  0.00    -0.341 N 
HETATM    2  C8  UNL     1      -0.966  51.141 -24.177  1.00  0.00     0.106 A 
HETATM    3  C9  UNL     1      -0.315  52.295 -23.786  1.00  0.00     0.007 A 
HETATM    4  C17 UNL     1      -0.209  53.139 -24.935  1.00  0.00     0.064 A 
HETATM    5  C18 UNL     1       0.320  54.404 -25.231  1.00  0.00     0.114 A 
HETATM    6  N4  UNL     1       0.241  54.866 -26.496  1.00  0.00    -0.338 N 
ATOM      7  H4  UNL     1       0.627  55.776 -26.745  1.00  0.00     0.168 HD
HETATM    8  C19 UNL     1      -0.359  54.096 -27.422  1.00  0.00     0.183 A 
HETATM    9  N5  UNL     1      -0.906  52.882 -27.261  1.00  0.00    -0.338 N 
ATOM     10  H5  UNL     1      -1.349  52.349 -28.010  1.00  0.00     0.168 HD
HETATM   11  C20 UNL     1      -0.799  52.454 -25.991  1.00  0.00     0.123 A 
ENDROOT
BRANCH   1  12
HETATM   12  C7  UNL     1      -2.022  50.280 -26.276  1.00  0.00     0.135 C 
BRANCH  12  13
HETATM   13  C6  UNL     1      -3.409  49.968 -25.689  1.00  0.00     0.007 C 
HETATM   14  C5  UNL     1      -3.903  51.060 -24.730  1.00  0.00     0.026 C 
HETATM   15  C4  UNL     1      -5.286  50.712 -24.173  1.00  0.00     0.126 C 
HETATM   16  N1  UNL     1      -5.434  49.301 -23.825  1.00  0.00    -0.349 N 
HETATM   17  C3  UNL     1      -6.681  48.898 -23.363  1.00  0.00     0.242 C 
HETATM   18  C22 UNL     1      -4.197  48.541 -23.698  1.00  0.00     0.126 C 
HETATM   19  O1  UNL     1      -7.625  49.668 -23.229  1.00  0.00    -0.268 OA
HETATM   20  C21 UNL     1      -3.387  48.590 -24.993  1.00  0.00     0.026 C 
BRANCH  17  21
HETATM   21  C2  UNL     1      -6.853  47.457 -23.051  1.00  0.00     0.064 C 
HETATM   22  C1  UNL     1      -7.553  46.665 -23.882  1.00  0.00     0.017 C 
ENDBRANCH  17  21
ENDBRANCH  12  13
ENDBRANCH   1  12
BRANCH   3  23
HETATM   23  C10 UNL     1       0.123  52.515 -22.424  1.00  0.00    -0.021 A 
HETATM   24  C11 UNL     1       1.160  53.438 -22.160  1.00  0.00     0.015 A 
HETATM   25  C12 UNL     1       1.610  53.654 -20.853  1.00  0.00     0.040 A 
HETATM   26  C13 UNL     1       1.008  52.933 -19.845  1.00  0.00     0.105 A 
HETATM   27  C14 UNL     1      -0.002  52.032 -20.099  1.00  0.00     0.105 A 
HETATM   28  O3  UNL     1       1.320  53.006 -18.525  1.00  0.00    -0.323 OA
HETATM   29  C15 UNL     1      -0.471  51.800 -21.375  1.00  0.00     0.052 A 
HETATM   30  O2  UNL     1      -0.448  51.420 -18.969  1.00  0.00    -0.323 OA
HETATM   31  C16 UNL     1       0.387  52.048 -17.973  1.00  0.00     0.352 A 
ENDBRANCH   3  23
BRANCH   5  32
HETATM   32  N3  UNL     1       0.939  55.224 -24.303  1.00  0.00    -0.385 N 
HETATM   33  H17 UNL     1       1.316  54.764 -23.485  1.00  0.00     0.157 HD
HETATM   34  H18 UNL     1       1.516  55.925 -24.748  1.00  0.00     0.157 HD
ENDBRANCH   5  32
TORSDOF 5
ENDMDL
MODEL 3
REMARK minimizedAffinity -9.49845505
REMARK  5 active torsions:
REMARK  status: ('A' for Active; 'I' for Inactive)
REMARK    1  A    between atoms: C2_2  and  C3_3 
REMARK       I    between atoms: C3_3  and  N1_5 
REMARK    2  A    between atoms: C6_8  and  C7_9 
REMARK    3  A    between atoms: C7_9  and  N2_10 
REMARK    4  A    between atoms: C9_12  and  C10_13 
REMARK    5  A    between atoms: C18_23  and  N3_24 
ROOT
HETATM    1  N2  UNL     1      -0.846  51.430 -25.729  1.00  0.00    -0.341 N 
HETATM    2  C8  UNL     1      -0.616  51.243 -24.389  1.00  0.00     0.106 A 
HETATM    3  C9  UNL     1      -0.113  52.423 -23.876  1.00  0.00     0.007 A 
HETATM    4  C17 UNL     1      -0.030  53.360 -24.953  1.00  0.00     0.064 A 
HETATM    5  C18 UNL     1       0.380  54.691 -25.123  1.00  0.00     0.114 A 
HETATM    6  N4  UNL     1       0.325  55.238 -26.355  1.00  0.00    -0.338 N 
ATOM      7  H4  UNL     1       0.627  56.199 -26.513  1.00  0.00     0.168 HD
HETATM    8  C19 UNL     1      -0.137  54.486 -27.370  1.00  0.00     0.183 A 
HETATM    9  N5  UNL     1      -0.563  53.214 -27.332  1.00  0.00    -0.338 N 
ATOM     10  H5  UNL     1      -0.904  52.699 -28.143  1.00  0.00     0.168 HD
HETATM   11  C20 UNL     1      -0.484  52.703 -26.091  1.00  0.00     0.123 A 
ENDROOT
BRANCH   1  12
HETATM   12  C7  UNL     1      -1.455  50.446 -26.608  1.00  0.00     0.135 C 
BRANCH  12  13
HETATM   13  C6  UNL     1      -2.834  49.953 -26.137  1.00  0.00     0.007 C 
HETATM   14  C5  UNL     1      -2.735  48.845 -25.080  1.00  0.00     0.026 C 
HETATM   15  C4  UNL     1      -4.127  48.388 -24.638  1.00  0.00     0.126 C 
HETATM   16  N1  UNL     1      -5.080  48.275 -25.739  1.00  0.00    -0.349 N 
HETATM   17  C3  UNL     1      -6.380  47.916 -25.408  1.00  0.00     0.242 C 
HETATM   18  C22 UNL     1      -4.505  48.238 -27.078  1.00  0.00     0.126 C 
HETATM   19  O1  UNL     1      -6.738  47.686 -24.258  1.00  0.00    -0.268 OA
HETATM   20  C21 UNL     1      -3.668  49.487 -27.351  1.00  0.00     0.026 C 
BRANCH  17  21
HETATM   21  C2  UNL     1      -7.365  47.844 -26.516  1.00  0.00     0.064 C 
HETATM   22  C1  UNL     1      -7.241  46.906 -27.470  1.00  0.00     0.017 C 
ENDBRANCH  17  21
ENDBRANCH  12  13
ENDBRANCH   1  12
BRANCH   3  23
HETATM   23  C10 UNL     1       0.221  52.580 -22.476  1.00  0.00    -0.021 A 
HETATM   24  C11 UNL     1       1.361  53.327 -22.105  1.00  0.00     0.015 A 
HETATM   25  C12 UNL     1       1.711  53.478 -20.759  1.00  0.00     0.040 A 
HETATM   26  C13 UNL     1       0.908  52.869 -19.821  1.00  0.00     0.105 A 
HETATM   27  C14 UNL     1      -0.204  52.138 -20.178  1.00  0.00     0.105 A 
HETATM   28  O3  UNL     1       1.098  52.901 -18.475  1.00  0.00    -0.323 OA
HETATM   29  C15 UNL     1      -0.578  51.976 -21.495  1.00  0.00     0.052 A 
HETATM   30  O2  UNL     1      -0.848  51.613 -19.102  1.00  0.00    -0.323 OA
HETATM   31  C16 UNL     1      -0.023  52.107 -18.024  1.00  0.00     0.352 A 
ENDBRANCH   3  23
BRANCH   5  32
HETATM   32  N3  UNL     1       0.855  55.494 -24.101  1.00  0.00    -0.385 N 
HETATM   33  H17 UNL     1       1.231  55.012 -23.295  1.00  0.00     0.157 HD
HETATM   34  H18 UNL     1       1.380  56.281 -24.457  1.00  0.00     0.157 HD
ENDBRANCH   5  32
TORSDOF 5
ENDMDL
MODEL 4
REMARK minimizedAffinity -9.27854729
REMARK  5 active torsions:
REMARK  status: ('A' for Active; 'I' for Inactive)
REMARK    1  A    between atoms: C2_2  and  C3_3 
REMARK       I    between atoms: C3_3  and  N1_5 
REMARK    2  A    between atoms: C6_8  and  C7_9 
REMARK    3  A    between atoms: C7_9  and  N2_10 
REMARK    4  A    between atoms: C9_12  and  C10_13 
REMARK    5  A    between atoms: C18_23  and  N3_24 
ROOT
HETATM    1  N2  UNL     1      -3.586  48.983 -23.391  1.00  0.00    -0.341 N 
HETATM    2  C8  UNL     1      -3.729  48.418 -24.635  1.00  0.00     0.106 A 
HETATM    3  C9  UNL     1      -5.046  48.570 -25.021  1.00  0.00     0.007 A 
HETATM    4  C17 UNL     1      -5.729  49.250 -23.965  1.00  0.00     0.064 A 
HETATM    5  C18 UNL     1      -7.033  49.702 -23.714  1.00  0.00     0.114 A 
HETATM    6  N4  UNL     1      -7.299  50.306 -22.537  1.00  0.00    -0.338 N 
ATOM      7  H4  UNL     1      -8.240  50.635 -22.319  1.00  0.00     0.168 HD
HETATM    8  C19 UNL     1      -6.294  50.464 -21.656  1.00  0.00     0.183 A 
HETATM    9  N5  UNL     1      -5.013  50.085 -21.785  1.00  0.00    -0.338 N 
ATOM     10  H5  UNL     1      -4.297  50.236 -21.075  1.00  0.00     0.168 HD
HETATM   11  C20 UNL     1      -4.792  49.480 -22.965  1.00  0.00     0.123 A 
ENDROOT
BRANCH   1  12
HETATM   12  C7  UNL     1      -2.327  49.099 -22.676  1.00  0.00     0.135 C 
BRANCH  12  13
HETATM   13  C6  UNL     1      -1.406  50.211 -23.208  1.00  0.00     0.007 C 
HETATM   14  C5  UNL     1      -1.281  51.390 -22.233  1.00  0.00     0.026 C 
HETATM   15  C4  UNL     1      -0.355  52.470 -22.799  1.00  0.00     0.126 C 
HETATM   16  N1  UNL     1      -0.547  52.710 -24.227  1.00  0.00    -0.349 N 
HETATM   17  C3  UNL     1       0.296  53.639 -24.824  1.00  0.00     0.242 C 
HETATM   18  C22 UNL     1      -1.785  52.198 -24.799  1.00  0.00     0.126 C 
HETATM   19  O1  UNL     1       1.158  54.254 -24.205  1.00  0.00    -0.268 OA
HETATM   20  C21 UNL     1      -1.904  50.688 -24.590  1.00  0.00     0.026 C 
BRANCH  17  21
HETATM   21  C2  UNL     1       0.138  53.855 -26.283  1.00  0.00     0.064 C 
HETATM   22  C1  UNL     1       0.533  52.910 -27.153  1.00  0.00     0.017 C 
ENDBRANCH  17  21
ENDBRANCH  12  13
ENDBRANCH   1  12
BRANCH   3  23
HETATM   23  C10 UNL     1      -5.537  48.103 -26.301  1.00  0.00    -0.021 A 
HETATM   24  C11 UNL     1      -6.762  47.401 -26.369  1.00  0.00     0.015 A 
HETATM   25  C12 UNL     1      -7.248  46.927 -27.592  1.00  0.00     0.040 A 
HETATM   26  C13 UNL     1      -6.486  47.165 -28.715  1.00  0.00     0.105 A 
HETATM   27  C14 UNL     1      -5.291  47.847 -28.652  1.00  0.00     0.105 A 
HETATM   28  O3  UNL     1      -6.795  46.773 -29.979  1.00  0.00    -0.323 OA
HETATM   29  C15 UNL     1      -4.788  48.332 -27.463  1.00  0.00     0.052 A 
HETATM   30  O2  UNL     1      -4.695  47.963 -29.869  1.00  0.00    -0.323 OA
HETATM   31  C16 UNL     1      -5.657  47.288 -30.708  1.00  0.00     0.352 A 
ENDBRANCH   3  23
BRANCH   5  32
HETATM   32  N3  UNL     1      -8.089  49.561 -24.598  1.00  0.00    -0.385 N 
HETATM   33  H17 UNL     1      -7.998  48.824 -25.285  1.00  0.00     0.157 HD
HETATM   34  H18 UNL     1      -8.982  49.654 -24.133  1.00  0.00     0.157 HD
ENDBRANCH   5  32
TORSDOF 5
ENDMDL
MODEL 5
REMARK minimizedAffinity -9.08684158
REMARK  5 active torsions:
REMARK  status: ('A' for Active; 'I' for Inactive)
REMARK    1  A    between atoms: C2_2  and  C3_3 
REMARK       I    between atoms: C3_3  and  N1_5 
REMARK    2  A    between atoms: C6_8  and  C7_9 
REMARK    3  A    between atoms: C7_9  and  N2_10 
REMARK    4  A    between atoms: C9_12  and  C10_13 
REMARK    5  A    between atoms: C18_23  and  N3_24 
ROOT
HETATM    1  N2  UNL     1      -1.968  49.302 -20.832  1.00  0.00    -0.341 N 
HETATM    2  C8  UNL     1      -1.017  49.699 -21.740  1.00  0.00     0.106 A 
HETATM    3  C9  UNL     1      -1.619  50.560 -22.637  1.00  0.00     0.007 A 
HETATM    4  C17 UNL     1      -2.993  50.683 -22.259  1.00  0.00     0.064 A 
HETATM    5  C18 UNL     1      -4.124  51.371 -22.723  1.00  0.00     0.114 A 
HETATM    6  N4  UNL     1      -5.299  51.203 -22.080  1.00  0.00    -0.338 N 
ATOM      7  H4  UNL     1      -6.142  51.680 -22.400  1.00  0.00     0.168 HD
HETATM    8  C19 UNL     1      -5.332  50.392 -21.007  1.00  0.00     0.183 A 
HETATM    9  N5  UNL     1      -4.323  49.692 -20.467  1.00  0.00    -0.338 N 
ATOM     10  H5  UNL     1      -4.416  49.093 -19.647  1.00  0.00     0.168 HD
HETATM   11  C20 UNL     1      -3.174  49.879 -21.140  1.00  0.00     0.123 A 
ENDROOT
BRANCH   1  12
HETATM   12  C7  UNL     1      -1.708  48.459 -19.678  1.00  0.00     0.135 C 
BRANCH  12  13
HETATM   13  C6  UNL     1      -0.665  49.035 -18.705  1.00  0.00     0.007 C 
HETATM   14  C5  UNL     1      -1.096  48.910 -17.237  1.00  0.00     0.026 C 
HETATM   15  C4  UNL     1      -0.030  49.491 -16.305  1.00  0.00     0.126 C 
HETATM   16  N1  UNL     1       0.559  50.734 -16.798  1.00  0.00    -0.349 N 
HETATM   17  C3  UNL     1       1.574  51.293 -16.031  1.00  0.00     0.242 C 
HETATM   18  C22 UNL     1      -0.178  51.414 -17.854  1.00  0.00     0.126 C 
HETATM   19  O1  UNL     1       1.967  50.799 -14.980  1.00  0.00    -0.268 OA
HETATM   20  C21 UNL     1      -0.363  50.506 -19.069  1.00  0.00     0.026 C 
BRANCH  17  21
HETATM   21  C2  UNL     1       2.209  52.530 -16.549  1.00  0.00     0.064 C 
HETATM   22  C1  UNL     1       3.487  52.811 -16.244  1.00  0.00     0.017 C 
ENDBRANCH  17  21
ENDBRANCH  12  13
ENDBRANCH   1  12
BRANCH   3  23
HETATM   23  C10 UNL     1      -0.890  51.185 -23.720  1.00  0.00    -0.021 A 
HETATM   24  C11 UNL     1      -0.044  52.285 -23.454  1.00  0.00     0.015 A 
HETATM   25  C12 UNL     1       0.657  52.915 -24.488  1.00  0.00     0.040 A 
HETATM   26  C13 UNL     1       0.485  52.426 -25.764  1.00  0.00     0.105 A 
HETATM   27  C14 UNL     1      -0.340  51.354 -26.028  1.00  0.00     0.105 A 
HETATM   28  O3  UNL     1       1.076  52.915 -26.886  1.00  0.00    -0.323 OA
HETATM   29  C15 UNL     1      -1.040  50.709 -25.030  1.00  0.00     0.052 A 
HETATM   30  O2  UNL     1      -0.377  51.041 -27.350  1.00  0.00    -0.323 OA
HETATM   31  C16 UNL     1       0.530  52.027 -27.889  1.00  0.00     0.352 A 
ENDBRANCH   3  23
BRANCH   5  32
HETATM   32  N3  UNL     1      -4.125  52.216 -23.819  1.00  0.00    -0.385 N 
HETATM   33  H17 UNL     1      -3.385  52.070 -24.493  1.00  0.00     0.157 HD
HETATM   34  H18 UNL     1      -5.059  52.362 -24.178  1.00  0.00     0.157 HD
ENDBRANCH   5  32
TORSDOF 5
ENDMDL
MODEL 6
REMARK minimizedAffinity -9.03781319
REMARK  5 active torsions:
REMARK  status: ('A' for Active; 'I' for Inactive)
REMARK    1  A    between atoms: C2_2  and  C3_3 
REMARK       I    between atoms: C3_3  and  N1_5 
REMARK    2  A    between atoms: C6_8  and  C7_9 
REMARK    3  A    between atoms: C7_9  and  N2_10 
REMARK    4  A    between atoms: C9_12  and  C10_13 
REMARK    5  A    between atoms: C18_23  and  N3_24 
ROOT
HETATM    1  N2  UNL     1      -0.958  50.755 -21.578  1.00  0.00    -0.341 N 
HETATM    2  C8  UNL     1      -1.064  50.142 -20.353  1.00  0.00     0.106 A 
HETATM    3  C9  UNL     1      -0.321  50.873 -19.447  1.00  0.00     0.007 A 
HETATM    4  C17 UNL     1       0.262  51.970 -20.154  1.00  0.00     0.064 A 
HETATM    5  C18 UNL     1       1.099  53.055 -19.852  1.00  0.00     0.114 A 
HETATM    6  N4  UNL     1       1.462  53.896 -20.842  1.00  0.00    -0.338 N 
ATOM      7  H4  UNL     1       2.078  54.687 -20.657  1.00  0.00     0.168 HD
HETATM    8  C19 UNL     1       0.991  53.667 -22.082  1.00  0.00     0.183 A 
HETATM    9  N5  UNL     1       0.184  52.677 -22.491  1.00  0.00    -0.338 N 
ATOM     10  H5  UNL     1      -0.139  52.560 -23.452  1.00  0.00     0.168 HD
HETATM   11  C20 UNL     1      -0.147  51.857 -21.478  1.00  0.00     0.123 A 
ENDROOT
BRANCH   1  12
HETATM   12  C7  UNL     1      -1.665  50.335 -22.776  1.00  0.00     0.135 C 
BRANCH  12  13
HETATM   13  C6  UNL     1      -1.517  51.303 -23.962  1.00  0.00     0.007 C 
HETATM   14  C5  UNL     1      -2.839  51.530 -24.707  1.00  0.00     0.026 C 
HETATM   15  C4  UNL     1      -2.647  52.501 -25.875  1.00  0.00     0.126 C 
HETATM   16  N1  UNL     1      -1.410  52.279 -26.618  1.00  0.00    -0.349 N 
HETATM   17  C3  UNL     1      -1.140  53.156 -27.661  1.00  0.00     0.242 C 
HETATM   18  C22 UNL     1      -0.757  50.994 -26.401  1.00  0.00     0.126 C 
HETATM   19  O1  UNL     1      -1.891  54.073 -27.975  1.00  0.00    -0.268 OA
HETATM   20  C21 UNL     1      -0.421  50.792 -24.924  1.00  0.00     0.026 C 
BRANCH  17  21
HETATM   21  C2  UNL     1       0.138  52.966 -28.392  1.00  0.00     0.064 C 
HETATM   22  C1  UNL     1       0.766  51.779 -28.355  1.00  0.00     0.017 C 
ENDBRANCH  17  21
ENDBRANCH  12  13
ENDBRANCH   1  12
BRANCH   3  23
HETATM   23  C10 UNL     1      -0.234  50.514 -18.047  1.00  0.00    -0.021 A 
HETATM   24  C11 UNL     1      -0.460  49.177 -17.650  1.00  0.00     0.015 A 
HETATM   25  C12 UNL     1      -0.397  48.811 -16.301  1.00  0.00     0.040 A 
HETATM   26  C13 UNL     1      -0.113  49.801 -15.386  1.00  0.00     0.105 A 
HETATM   27  C14 UNL     1       0.107  51.106 -15.769  1.00  0.00     0.105 A 
HETATM   28  O3  UNL     1      -0.020  49.632 -14.041  1.00  0.00    -0.323 OA
HETATM   29  C15 UNL     1       0.056  51.497 -17.091  1.00  0.00     0.052 A 
HETATM   30  O2  UNL     1       0.358  51.922 -14.711  1.00  0.00    -0.323 OA
HETATM   31  C16 UNL     1       0.286  50.981 -13.619  1.00  0.00     0.352 A 
ENDBRANCH   3  23
BRANCH   5  32
HETATM   32  N3  UNL     1       1.597  53.323 -18.588  1.00  0.00    -0.385 N 
HETATM   33  H17 UNL     1       1.636  52.539 -17.950  1.00  0.00     0.157 HD
HETATM   34  H18 UNL     1       2.404  53.931 -18.626  1.00  0.00     0.157 HD
ENDBRANCH   5  32
TORSDOF 5
ENDMDL
MODEL 7
REMARK minimizedAffinity -8.95543003
REMARK  5 active torsions:
REMARK  status: ('A' for Active; 'I' for Inactive)
REMARK    1  A    between atoms: C2_2  and  C3_3 
REMARK       I    between atoms: C3_3  and  N1_5 
REMARK    2  A    between atoms: C6_8  and  C7_9 
REMARK    3  A    between atoms: C7_9  and  N2_10 
REMARK    4  A    between atoms: C9_12  and  C10_13 
REMARK    5  A    between atoms: C18_23  and  N3_24 
ROOT
HETATM    1  N2  UNL     1      -0.764  50.745 -20.387  1.00  0.00    -0.341 N 
HETATM    2  C8  UNL     1      -1.038  50.688 -21.731  1.00  0.00     0.106 A 
HETATM    3  C9  UNL     1      -0.400  51.751 -22.340  1.00  0.00     0.007 A 
HETATM    4  C17 UNL     1       0.283  52.484 -21.320  1.00  0.00     0.064 A 
HETATM    5  C18 UNL     1       1.091  53.629 -21.248  1.00  0.00     0.114 A 
HETATM    6  N4  UNL     1       1.546  54.032 -20.044  1.00  0.00    -0.338 N 
ATOM      7  H4  UNL     1       2.126  54.867 -19.958  1.00  0.00     0.168 HD
HETATM    8  C19 UNL     1       1.218  53.308 -18.960  1.00  0.00     0.183 A 
HETATM    9  N5  UNL     1       0.466  52.198 -18.901  1.00  0.00    -0.338 N 
ATOM     10  H5  UNL     1       0.255  51.693 -18.041  1.00  0.00     0.168 HD
HETATM   11  C20 UNL     1       0.025  51.834 -20.118  1.00  0.00     0.123 A 
ENDROOT
BRANCH   1  12
HETATM   12  C7  UNL     1      -1.187  49.751 -19.414  1.00  0.00     0.135 C 
BRANCH  12  13
HETATM   13  C6  UNL     1      -1.188  50.258 -17.962  1.00  0.00     0.007 C 
HETATM   14  C5  UNL     1      -0.666  49.209 -16.971  1.00  0.00     0.026 C 
HETATM   15  C4  UNL     1      -0.681  49.755 -15.540  1.00  0.00     0.126 C 
HETATM   16  N1  UNL     1      -1.877  50.535 -15.229  1.00  0.00    -0.349 N 
HETATM   17  C3  UNL     1      -1.937  51.109 -13.965  1.00  0.00     0.242 C 
HETATM   18  C22 UNL     1      -3.002  50.370 -16.139  1.00  0.00     0.126 C 
HETATM   19  O1  UNL     1      -1.053  50.974 -13.126  1.00  0.00    -0.268 OA
HETATM   20  C21 UNL     1      -2.607  50.729 -17.572  1.00  0.00     0.026 C 
BRANCH  17  21
HETATM   21  C2  UNL     1      -3.127  51.941 -13.657  1.00  0.00     0.064 C 
HETATM   22  C1  UNL     1      -3.263  52.501 -12.443  1.00  0.00     0.017 C 
ENDBRANCH  17  21
ENDBRANCH  12  13
ENDBRANCH   1  12
BRANCH   3  23
HETATM   23  C10 UNL     1      -0.463  51.978 -23.768  1.00  0.00    -0.021 A 
HETATM   24  C11 UNL     1      -0.843  50.925 -24.631  1.00  0.00     0.015 A 
HETATM   25  C12 UNL     1      -0.894  51.117 -26.015  1.00  0.00     0.040 A 
HETATM   26  C13 UNL     1      -0.558  52.363 -26.498  1.00  0.00     0.105 A 
HETATM   27  C14 UNL     1      -0.186  53.391 -25.660  1.00  0.00     0.105 A 
HETATM   28  O3  UNL     1      -0.543  52.727 -27.807  1.00  0.00    -0.323 OA
HETATM   29  C15 UNL     1      -0.130  53.235 -24.291  1.00  0.00     0.052 A 
HETATM   30  O2  UNL     1       0.116  54.530 -26.339  1.00  0.00    -0.323 OA
HETATM   31  C16 UNL     1      -0.120  54.106 -27.699  1.00  0.00     0.352 A 
ENDBRANCH   3  23
BRANCH   5  32
HETATM   32  N3  UNL     1       1.452  54.395 -22.344  1.00  0.00    -0.385 N 
HETATM   33  H17 UNL     1       0.849  54.324 -23.153  1.00  0.00     0.157 HD
HETATM   34  H18 UNL     1       1.756  55.319 -22.070  1.00  0.00     0.157 HD
ENDBRANCH   5  32
TORSDOF 5
ENDMDL
MODEL 8
REMARK minimizedAffinity -8.83416748
REMARK  5 active torsions:
REMARK  status: ('A' for Active; 'I' for Inactive)
REMARK    1  A    between atoms: C2_2  and  C3_3 
REMARK       I    between atoms: C3_3  and  N1_5 
REMARK    2  A    between atoms: C6_8  and  C7_9 
REMARK    3  A    between atoms: C7_9  and  N2_10 
REMARK    4  A    between atoms: C9_12  and  C10_13 
REMARK    5  A    between atoms: C18_23  and  N3_24 
ROOT
HETATM    1  N2  UNL     1       5.950  64.851 -34.679  1.00  0.00    -0.341 N 
HETATM    2  C8  UNL     1       7.307  65.036 -34.766  1.00  0.00     0.106 A 
HETATM    3  C9  UNL     1       7.913  63.799 -34.661  1.00  0.00     0.007 A 
HETATM    4  C17 UNL     1       6.878  62.827 -34.499  1.00  0.00     0.064 A 
HETATM    5  C18 UNL     1       6.796  61.435 -34.339  1.00  0.00     0.114 A 
HETATM    6  N4  UNL     1       5.583  60.865 -34.187  1.00  0.00    -0.338 N 
ATOM      7  H4  UNL     1       5.492  59.858 -34.056  1.00  0.00     0.168 HD
HETATM    8  C19 UNL     1       4.496  61.657 -34.211  1.00  0.00     0.183 A 
HETATM    9  N5  UNL     1       4.445  62.989 -34.364  1.00  0.00    -0.338 N 
ATOM     10  H5  UNL     1       3.581  63.532 -34.374  1.00  0.00     0.168 HD
HETATM   11  C20 UNL     1       5.672  63.519 -34.503  1.00  0.00     0.123 A 
ENDROOT
BRANCH   1  12
HETATM   12  C7  UNL     1       4.960  65.905 -34.828  1.00  0.00     0.135 C 
BRANCH  12  13
HETATM   13  C6  UNL     1       4.537  66.164 -36.284  1.00  0.00     0.007 C 
HETATM   14  C5  UNL     1       5.276  67.355 -36.910  1.00  0.00     0.026 C 
HETATM   15  C4  UNL     1       4.828  67.574 -38.358  1.00  0.00     0.126 C 
HETATM   16  N1  UNL     1       3.389  67.413 -38.552  1.00  0.00    -0.349 N 
HETATM   17  C3  UNL     1       2.915  67.544 -39.851  1.00  0.00     0.242 C 
HETATM   18  C22 UNL     1       2.575  67.447 -37.345  1.00  0.00     0.126 C 
HETATM   19  O1  UNL     1       3.641  67.797 -40.806  1.00  0.00    -0.268 OA
HETATM   20  C21 UNL     1       3.007  66.362 -36.359  1.00  0.00     0.026 C 
BRANCH  17  21
HETATM   21  C2  UNL     1       1.461  67.336 -40.064  1.00  0.00     0.064 C 
HETATM   22  C1  UNL     1       0.965  67.260 -41.311  1.00  0.00     0.017 C 
ENDBRANCH  17  21
ENDBRANCH  12  13
ENDBRANCH   1  12
BRANCH   3  23
HETATM   23  C10 UNL     1       9.348  63.630 -34.736  1.00  0.00    -0.021 A 
HETATM   24  C11 UNL     1      10.078  63.298 -33.573  1.00  0.00     0.015 A 
HETATM   25  C12 UNL     1      11.468  63.145 -33.619  1.00  0.00     0.040 A 
HETATM   26  C13 UNL     1      12.089  63.336 -34.833  1.00  0.00     0.105 A 
HETATM   27  C14 UNL     1      11.381  63.661 -35.970  1.00  0.00     0.105 A 
HETATM   28  O3  UNL     1      13.425  63.238 -35.063  1.00  0.00    -0.323 OA
HETATM   29  C15 UNL     1      10.011  63.813 -35.958  1.00  0.00     0.052 A 
HETATM   30  O2  UNL     1      12.185  63.815 -37.056  1.00  0.00    -0.323 OA
HETATM   31  C16 UNL     1      13.479  63.537 -36.477  1.00  0.00     0.352 A 
ENDBRANCH   3  23
BRANCH   5  32
HETATM   32  N3  UNL     1       7.893  60.590 -34.314  1.00  0.00    -0.385 N 
HETATM   33  H17 UNL     1       8.777  61.016 -34.067  1.00  0.00     0.157 HD
HETATM   34  H18 UNL     1       7.671  59.701 -33.887  1.00  0.00     0.157 HD
ENDBRANCH   5  32
TORSDOF 5
ENDMDL
MODEL 9
REMARK minimizedAffinity -8.7848177
REMARK  5 active torsions:
REMARK  status: ('A' for Active; 'I' for Inactive)
REMARK    1  A    between atoms: C2_2  and  C3_3 
REMARK       I    between atoms: C3_3  and  N1_5 
REMARK    2  A    between atoms: C6_8  and  C7_9 
REMARK    3  A    between atoms: C7_9  and  N2_10 
REMARK    4  A    between atoms: C9_12  and  C10_13 
REMARK    5  A    between atoms: C18_23  and  N3_24 
ROOT
HETATM    1  N2  UNL     1      -0.738  50.577 -20.651  1.00  0.00    -0.341 N 
HETATM    2  C8  UNL     1      -0.896  50.620 -22.015  1.00  0.00     0.106 A 
HETATM    3  C9  UNL     1      -0.249  51.747 -22.483  1.00  0.00     0.007 A 
HETATM    4  C17 UNL     1       0.319  52.416 -21.354  1.00  0.00     0.064 A 
HETATM    5  C18 UNL     1       1.074  53.576 -21.125  1.00  0.00     0.114 A 
HETATM    6  N4  UNL     1       1.411  53.896 -19.859  1.00  0.00    -0.338 N 
ATOM      7  H4  UNL     1       1.950  54.739 -19.658  1.00  0.00     0.168 HD
HETATM    8  C19 UNL     1       1.020  53.078 -18.865  1.00  0.00     0.183 A 
HETATM    9  N5  UNL     1       0.307  51.945 -18.958  1.00  0.00    -0.338 N 
ATOM     10  H5  UNL     1       0.043  51.367 -18.160  1.00  0.00     0.168 HD
HETATM   11  C20 UNL     1      -0.016  51.666 -20.233  1.00  0.00     0.123 A 
ENDROOT
BRANCH   1  12
HETATM   12  C7  UNL     1      -1.204  49.497 -19.799  1.00  0.00     0.135 C 
BRANCH  12  13
HETATM   13  C6  UNL     1      -2.571  48.922 -20.208  1.00  0.00     0.007 C 
HETATM   14  C5  UNL     1      -2.468  47.928 -21.373  1.00  0.00     0.026 C 
HETATM   15  C4  UNL     1      -3.848  47.379 -21.745  1.00  0.00     0.126 C 
HETATM   16  N1  UNL     1      -4.900  48.392 -21.729  1.00  0.00    -0.349 N 
HETATM   17  C3  UNL     1      -6.191  47.957 -22.004  1.00  0.00     0.242 C 
HETATM   18  C22 UNL     1      -4.452  49.778 -21.742  1.00  0.00     0.126 C 
HETATM   19  O1  UNL     1      -6.462  46.790 -22.264  1.00  0.00    -0.268 OA
HETATM   20  C21 UNL     1      -3.544  50.073 -20.548  1.00  0.00     0.026 C 
BRANCH  17  21
HETATM   21  C2  UNL     1      -7.273  48.971 -21.945  1.00  0.00     0.064 C 
HETATM   22  C1  UNL     1      -7.697  49.573 -23.069  1.00  0.00     0.017 C 
ENDBRANCH  17  21
ENDBRANCH  12  13
ENDBRANCH   1  12
BRANCH   3  23
HETATM   23  C10 UNL     1      -0.200  52.085 -23.889  1.00  0.00    -0.021 A 
HETATM   24  C11 UNL     1      -0.203  51.057 -24.859  1.00  0.00     0.015 A 
HETATM   25  C12 UNL     1      -0.139  51.360 -26.223  1.00  0.00     0.040 A 
HETATM   26  C13 UNL     1      -0.069  52.689 -26.577  1.00  0.00     0.105 A 
HETATM   27  C14 UNL     1      -0.065  53.694 -25.635  1.00  0.00     0.105 A 
HETATM   28  O3  UNL     1       0.007  53.168 -27.847  1.00  0.00    -0.323 OA
HETATM   29  C15 UNL     1      -0.132  53.428 -24.283  1.00  0.00     0.052 A 
HETATM   30  O2  UNL     1       0.022  54.931 -26.194  1.00  0.00    -0.323 OA
HETATM   31  C16 UNL     1       0.057  54.592 -27.597  1.00  0.00     0.352 A 
ENDBRANCH   3  23
BRANCH   5  32
HETATM   32  N3  UNL     1       1.498  54.438 -22.123  1.00  0.00    -0.385 N 
HETATM   33  H17 UNL     1       0.968  54.414 -22.985  1.00  0.00     0.157 HD
HETATM   34  H18 UNL     1       1.742  55.346 -21.754  1.00  0.00     0.157 HD
ENDBRANCH   5  32
TORSDOF 5
ENDMDL
