MODEL 1
REMARK minimizedAffinity -8.43179607
REMARK  8 active torsions:
REMARK  status: ('A' for Active; 'I' for Inactive)
REMARK    1  A    between atoms: O1_2  and  C2_3 
REMARK    2  A    between atoms: C6_11  and  N3_12 
REMARK    3  A    between atoms: N3_12  and  C7_13 
REMARK    4  A    between atoms: C15_23  and  O2_24 
REMARK    5  A    between atoms: O2_24  and  C16_25 
REMARK    6  A    between atoms: C16_25  and  C17_26 
REMARK    7  A    between atoms: C17_26  and  C18_27 
REMARK    8  A    between atoms: C18_27  and  N4_28 
ROOT
HETATM    1  C2  UNL     1       0.441  52.817 -23.211  1.00  0.00     0.103 A 
HETATM    2  C3  UNL     1       0.621  53.781 -24.208  1.00  0.00     0.070 A 
HETATM    3  C4  UNL     1       0.014  53.678 -25.456  1.00  0.00     0.050 A 
HETATM    4  N1  UNL     1       0.243  54.639 -26.354  1.00  0.00    -0.351 N 
ATOM      5  H1  UNL     1       0.846  55.435 -26.143  1.00  0.00     0.166 HD
HETATM    6  C5  UNL     1      -0.354  54.509 -27.543  1.00  0.00     0.182 A 
HETATM    7  N2  UNL     1      -1.164  53.514 -27.913  1.00  0.00    -0.338 N 
ATOM      8  H2  UNL     1      -1.583  53.485 -28.842  1.00  0.00     0.168 HD
HETATM    9  C6  UNL     1      -1.403  52.553 -27.003  1.00  0.00     0.119 A 
HETATM   10  C13 UNL     1      -0.812  52.578 -25.723  1.00  0.00     0.038 A 
HETATM   11  C14 UNL     1      -0.991  51.589 -24.725  1.00  0.00     0.057 A 
HETATM   12  C15 UNL     1      -0.356  51.702 -23.488  1.00  0.00     0.103 A 
ENDROOT
BRANCH   9  13
HETATM   13  N3  UNL     1      -2.278  51.483 -27.334  1.00  0.00    -0.342 N 
HETATM   14  H6  UNL     1      -1.891  50.980 -28.127  1.00  0.00     0.167 HD
BRANCH  13  15
HETATM   15  C7  UNL     1      -2.985  50.622 -26.465  1.00  0.00     0.035 A 
HETATM   16  C8  UNL     1      -2.881  49.232 -26.657  1.00  0.00     0.032 A 
HETATM   17  C9  UNL     1      -3.608  48.338 -25.868  1.00  0.00     0.046 A 
HETATM   18  C10 UNL     1      -4.468  48.828 -24.892  1.00  0.00     0.138 A 
HETATM   19  F1  UNL     1      -5.158  47.955 -24.145  1.00  0.00    -0.204 F 
HETATM   20  C11 UNL     1      -4.614  50.200 -24.708  1.00  0.00     0.074 A 
HETATM   21 CL1  UNL     1      -5.696  50.814 -23.515  1.00  0.00    -0.081 Cl
HETATM   22  C12 UNL     1      -3.887  51.091 -25.500  1.00  0.00     0.056 A 
ENDBRANCH  13  15
ENDBRANCH   9  13
BRANCH  12  23
HETATM   23  O2  UNL     1      -0.565  50.786 -22.490  1.00  0.00    -0.348 OA
BRANCH  23  24
HETATM   24  C16 UNL     1      -1.674  49.907 -22.711  1.00  0.00     0.177 C 
BRANCH  24  25
HETATM   25  C17 UNL     1      -1.618  48.772 -21.693  1.00  0.00     0.057 C 
BRANCH  25  26
HETATM   26  C18 UNL     1      -0.597  49.063 -20.588  1.00  0.00     0.274 C 
BRANCH  26  27
HETATM   27  N4  UNL     1      -1.259  49.359 -19.312  1.00  0.00     0.092 N 
HETATM   28  C19 UNL     1      -2.724  49.539 -19.430  1.00  0.00     0.298 C 
HETATM   29  C20 UNL     1      -3.192  50.994 -19.251  1.00  0.00     0.198 C 
HETATM   30  O3  UNL     1      -2.797  51.564 -17.998  1.00  0.00    -0.388 OA
HETATM   31  C21 UNL     1      -1.538  51.068 -17.525  1.00  0.00     0.198 C 
HETATM   32  C22 UNL     1      -0.642  50.528 -18.650  1.00  0.00     0.298 C 
ENDBRANCH  26  27
ENDBRANCH  25  26
ENDBRANCH  24  25
ENDBRANCH  23  24
ENDBRANCH  12  23
BRANCH   1  33
HETATM   33  O1  UNL     1       1.009  52.862 -21.965  1.00  0.00    -0.353 OA
HETATM   34  C1  UNL     1       1.493  54.118 -21.509  1.00  0.00     0.210 C 
ENDBRANCH   1  33
TORSDOF 8
ENDMDL
MODEL 2
REMARK minimizedAffinity -8.19783401
REMARK  8 active torsions:
REMARK  status: ('A' for Active; 'I' for Inactive)
REMARK    1  A    between atoms: O1_2  and  C2_3 
REMARK    2  A    between atoms: C6_11  and  N3_12 
REMARK    3  A    between atoms: N3_12  and  C7_13 
REMARK    4  A    between atoms: C15_23  and  O2_24 
REMARK    5  A    between atoms: O2_24  and  C16_25 
REMARK    6  A    between atoms: C16_25  and  C17_26 
REMARK    7  A    between atoms: C17_26  and  C18_27 
REMARK    8  A    between atoms: C18_27  and  N4_28 
ROOT
HETATM    1  C2  UNL     1       0.532  52.815 -23.153  1.00  0.00     0.103 A 
HETATM    2  C3  UNL     1       0.688  53.755 -24.177  1.00  0.00     0.070 A 
HETATM    3  C4  UNL     1       0.039  53.631 -25.401  1.00  0.00     0.050 A 
HETATM    4  N1  UNL     1       0.248  54.569 -26.328  1.00  0.00    -0.351 N 
ATOM      5  H1  UNL     1       0.865  55.363 -26.155  1.00  0.00     0.166 HD
HETATM    6  C5  UNL     1      -0.391  54.420 -27.493  1.00  0.00     0.182 A 
HETATM    7  N2  UNL     1      -1.223  53.427 -27.813  1.00  0.00    -0.338 N 
ATOM      8  H2  UNL     1      -1.673  53.382 -28.727  1.00  0.00     0.168 HD
HETATM    9  C6  UNL     1      -1.441  52.489 -26.874  1.00  0.00     0.119 A 
HETATM   10  C13 UNL     1      -0.807  52.535 -25.615  1.00  0.00     0.038 A 
HETATM   11  C14 UNL     1      -0.963  51.571 -24.590  1.00  0.00     0.057 A 
HETATM   12  C15 UNL     1      -0.285  51.703 -23.378  1.00  0.00     0.103 A 
ENDROOT
BRANCH   9  13
HETATM   13  N3  UNL     1      -2.338  51.422 -27.152  1.00  0.00    -0.342 N 
HETATM   14  H6  UNL     1      -1.969  50.881 -27.928  1.00  0.00     0.167 HD
BRANCH  13  15
HETATM   15  C7  UNL     1      -3.048  50.608 -26.241  1.00  0.00     0.035 A 
HETATM   16  C8  UNL     1      -2.966  49.210 -26.375  1.00  0.00     0.032 A 
HETATM   17  C9  UNL     1      -3.697  48.360 -25.542  1.00  0.00     0.046 A 
HETATM   18  C10 UNL     1      -4.540  48.903 -24.580  1.00  0.00     0.138 A 
HETATM   19  F1  UNL     1      -5.236  48.073 -23.790  1.00  0.00    -0.204 F 
HETATM   20  C11 UNL     1      -4.666  50.283 -24.453  1.00  0.00     0.074 A 
HETATM   21 CL1  UNL     1      -5.728  50.963 -23.277  1.00  0.00    -0.081 Cl
HETATM   22  C12 UNL     1      -3.935  51.130 -25.289  1.00  0.00     0.056 A 
ENDBRANCH  13  15
ENDBRANCH   9  13
BRANCH  12  23
HETATM   23  O2  UNL     1      -0.470  50.812 -22.353  1.00  0.00    -0.348 OA
BRANCH  23  24
HETATM   24  C16 UNL     1      -1.517  51.163 -21.440  1.00  0.00     0.177 C 
BRANCH  24  25
HETATM   25  C17 UNL     1      -1.359  50.339 -20.166  1.00  0.00     0.057 C 
BRANCH  25  26
HETATM   26  C18 UNL     1      -1.282  51.236 -18.926  1.00  0.00     0.274 C 
BRANCH  26  27
HETATM   27  N4  UNL     1       0.044  51.172 -18.301  1.00  0.00     0.092 N 
HETATM   28  C19 UNL     1       0.071  50.388 -17.045  1.00  0.00     0.298 C 
HETATM   29  C20 UNL     1       0.244  51.242 -15.776  1.00  0.00     0.198 C 
HETATM   30  O3  UNL     1       1.426  52.048 -15.796  1.00  0.00    -0.388 OA
HETATM   31  C21 UNL     1       1.785  52.493 -17.111  1.00  0.00     0.198 C 
HETATM   32  C22 UNL     1       0.594  52.527 -18.080  1.00  0.00     0.298 C 
ENDBRANCH  26  27
ENDBRANCH  25  26
ENDBRANCH  24  25
ENDBRANCH  23  24
ENDBRANCH  12  23
BRANCH   1  33
HETATM   33  O1  UNL     1       1.143  52.881 -21.928  1.00  0.00    -0.353 OA
HETATM   34  C1  UNL     1       1.407  54.172 -21.394  1.00  0.00     0.210 C 
ENDBRANCH   1  33
TORSDOF 8
ENDMDL
MODEL 3
REMARK minimizedAffinity -8.12854481
REMARK  8 active torsions:
REMARK  status: ('A' for Active; 'I' for Inactive)
REMARK    1  A    between atoms: O1_2  and  C2_3 
REMARK    2  A    between atoms: C6_11  and  N3_12 
REMARK    3  A    between atoms: N3_12  and  C7_13 
REMARK    4  A    between atoms: C15_23  and  O2_24 
REMARK    5  A    between atoms: O2_24  and  C16_25 
REMARK    6  A    between atoms: C16_25  and  C17_26 
REMARK    7  A    between atoms: C17_26  and  C18_27 
REMARK    8  A    between atoms: C18_27  and  N4_28 
ROOT
HETATM    1  C2  UNL     1      -0.134  51.048 -18.420  1.00  0.00     0.103 A 
HETATM    2  C3  UNL     1       0.484  52.272 -18.695  1.00  0.00     0.070 A 
HETATM    3  C4  UNL     1       0.677  52.729 -19.994  1.00  0.00     0.050 A 
HETATM    4  N1  UNL     1       1.283  53.906 -20.169  1.00  0.00    -0.351 N 
ATOM      5  H1  UNL     1       1.601  54.466 -19.377  1.00  0.00     0.166 HD
HETATM    6  C5  UNL     1       1.453  54.317 -21.430  1.00  0.00     0.182 A 
HETATM    7  N2  UNL     1       1.065  53.665 -22.529  1.00  0.00    -0.338 N 
ATOM      8  H2  UNL     1       1.232  54.045 -23.461  1.00  0.00     0.168 HD
HETATM    9  C6  UNL     1       0.445  52.485 -22.351  1.00  0.00     0.119 A 
HETATM   10  C13 UNL     1       0.228  51.946 -21.066  1.00  0.00     0.038 A 
HETATM   11  C14 UNL     1      -0.388  50.699 -20.800  1.00  0.00     0.057 A 
HETATM   12  C15 UNL     1      -0.552  50.250 -19.490  1.00  0.00     0.103 A 
ENDROOT
BRANCH   9  13
HETATM   13  N3  UNL     1      -0.011  51.760 -23.485  1.00  0.00    -0.342 N 
HETATM   14  H6  UNL     1      -0.886  51.302 -23.248  1.00  0.00     0.167 HD
BRANCH  13  15
HETATM   15  C7  UNL     1       0.025  52.140 -24.846  1.00  0.00     0.035 A 
HETATM   16  C8  UNL     1       0.265  51.151 -25.818  1.00  0.00     0.032 A 
HETATM   17  C9  UNL     1       0.375  51.482 -27.171  1.00  0.00     0.046 A 
HETATM   18  C10 UNL     1       0.270  52.811 -27.562  1.00  0.00     0.138 A 
HETATM   19  F1  UNL     1       0.379  53.109 -28.865  1.00  0.00    -0.204 F 
HETATM   20  C11 UNL     1       0.068  53.810 -26.615  1.00  0.00     0.074 A 
HETATM   21 CL1  UNL     1      -0.039  55.463 -27.092  1.00  0.00    -0.081 Cl
HETATM   22  C12 UNL     1      -0.039  53.477 -25.263  1.00  0.00     0.056 A 
ENDBRANCH  13  15
ENDBRANCH   9  13
BRANCH  12  23
HETATM   23  O2  UNL     1      -1.200  49.074 -19.212  1.00  0.00    -0.348 OA
BRANCH  23  24
HETATM   24  C16 UNL     1      -2.622  49.124 -19.380  1.00  0.00     0.177 C 
BRANCH  24  25
HETATM   25  C17 UNL     1      -3.049  50.577 -19.563  1.00  0.00     0.057 C 
BRANCH  25  26
HETATM   26  C18 UNL     1      -4.132  50.710 -20.638  1.00  0.00     0.274 C 
BRANCH  26  27
HETATM   27  N4  UNL     1      -3.555  51.074 -21.938  1.00  0.00     0.092 N 
HETATM   28  C19 UNL     1      -4.198  52.251 -22.564  1.00  0.00     0.298 C 
HETATM   29  C20 UNL     1      -5.066  51.913 -23.789  1.00  0.00     0.198 C 
HETATM   30  O3  UNL     1      -4.345  51.228 -24.819  1.00  0.00    -0.388 OA
HETATM   31  C21 UNL     1      -3.314  50.371 -24.312  1.00  0.00     0.198 C 
HETATM   32  C22 UNL     1      -3.562  49.922 -22.865  1.00  0.00     0.298 C 
ENDBRANCH  26  27
ENDBRANCH  25  26
ENDBRANCH  24  25
ENDBRANCH  23  24
ENDBRANCH  12  23
BRANCH   1  33
HETATM   33  O1  UNL     1      -0.353  50.542 -17.166  1.00  0.00    -0.353 OA
HETATM   34  C1  UNL     1       0.556  50.919 -16.139  1.00  0.00     0.210 C 
ENDBRANCH   1  33
TORSDOF 8
ENDMDL
MODEL 4
REMARK minimizedAffinity -7.95905256
REMARK  8 active torsions:
REMARK  status: ('A' for Active; 'I' for Inactive)
REMARK    1  A    between atoms: O1_2  and  C2_3 
REMARK    2  A    between atoms: C6_11  and  N3_12 
REMARK    3  A    between atoms: N3_12  and  C7_13 
REMARK    4  A    between atoms: C15_23  and  O2_24 
REMARK    5  A    between atoms: O2_24  and  C16_25 
REMARK    6  A    between atoms: C16_25  and  C17_26 
REMARK    7  A    between atoms: C17_26  and  C18_27 
REMARK    8  A    between atoms: C18_27  and  N4_28 
ROOT
HETATM    1  C2  UNL     1      -0.091  51.055 -18.271  1.00  0.00     0.103 A 
HETATM    2  C3  UNL     1       0.533  52.278 -18.536  1.00  0.00     0.070 A 
HETATM    3  C4  UNL     1       0.701  52.758 -19.831  1.00  0.00     0.050 A 
HETATM    4  N1  UNL     1       1.314  53.933 -19.998  1.00  0.00    -0.351 N 
ATOM      5  H1  UNL     1       1.655  54.475 -19.203  1.00  0.00     0.166 HD
HETATM    6  C5  UNL     1       1.460  54.365 -21.254  1.00  0.00     0.182 A 
HETATM    7  N2  UNL     1       1.043  53.738 -22.356  1.00  0.00    -0.338 N 
ATOM      8  H2  UNL     1       1.193  54.133 -23.284  1.00  0.00     0.168 HD
HETATM    9  C6  UNL     1       0.416  52.560 -22.186  1.00  0.00     0.119 A 
HETATM   10  C13 UNL     1       0.222  51.999 -20.907  1.00  0.00     0.038 A 
HETATM   11  C14 UNL     1      -0.400  50.753 -20.651  1.00  0.00     0.057 A 
HETATM   12  C15 UNL     1      -0.539  50.281 -19.345  1.00  0.00     0.103 A 
ENDROOT
BRANCH   9  13
HETATM   13  N3  UNL     1      -0.072  51.861 -23.323  1.00  0.00    -0.342 N 
HETATM   14  H6  UNL     1      -1.008  51.523 -23.120  1.00  0.00     0.167 HD
BRANCH  13  15
HETATM   15  C7  UNL     1       0.079  52.187 -24.690  1.00  0.00     0.035 A 
HETATM   16  C8  UNL     1      -1.004  52.774 -25.369  1.00  0.00     0.032 A 
HETATM   17  C9  UNL     1      -0.930  53.058 -26.735  1.00  0.00     0.046 A 
HETATM   18  C10 UNL     1       0.221  52.733 -27.442  1.00  0.00     0.138 A 
HETATM   19  F1  UNL     1       0.273  53.012 -28.752  1.00  0.00    -0.204 F 
HETATM   20  C11 UNL     1       1.292  52.120 -26.798  1.00  0.00     0.074 A 
HETATM   21 CL1  UNL     1       2.715  51.694 -27.674  1.00  0.00    -0.081 Cl
HETATM   22  C12 UNL     1       1.215  51.836 -25.433  1.00  0.00     0.056 A 
ENDBRANCH  13  15
ENDBRANCH   9  13
BRANCH  12  23
HETATM   23  O2  UNL     1      -1.192  49.106 -19.075  1.00  0.00    -0.348 OA
BRANCH  23  24
HETATM   24  C16 UNL     1      -2.423  48.932 -19.787  1.00  0.00     0.177 C 
BRANCH  24  25
HETATM   25  C17 UNL     1      -3.530  49.684 -19.054  1.00  0.00     0.057 C 
BRANCH  25  26
HETATM   26  C18 UNL     1      -4.123  50.794 -19.927  1.00  0.00     0.274 C 
BRANCH  26  27
HETATM   27  N4  UNL     1      -4.167  50.399 -21.339  1.00  0.00     0.092 N 
HETATM   28  C19 UNL     1      -3.555  51.391 -22.253  1.00  0.00     0.298 C 
HETATM   29  C20 UNL     1      -4.571  52.154 -23.120  1.00  0.00     0.198 C 
HETATM   30  O3  UNL     1      -5.390  51.294 -23.919  1.00  0.00    -0.388 OA
HETATM   31  C21 UNL     1      -5.664  50.034 -23.293  1.00  0.00     0.198 C 
HETATM   32  C22 UNL     1      -5.549  50.086 -21.762  1.00  0.00     0.298 C 
ENDBRANCH  26  27
ENDBRANCH  25  26
ENDBRANCH  24  25
ENDBRANCH  23  24
ENDBRANCH  12  23
BRANCH   1  33
HETATM   33  O1  UNL     1      -0.287  50.528 -17.021  1.00  0.00    -0.353 OA
HETATM   34  C1  UNL     1       0.704  50.792 -16.036  1.00  0.00     0.210 C 
ENDBRANCH   1  33
TORSDOF 8
ENDMDL
MODEL 5
REMARK minimizedAffinity -7.94823456
REMARK  8 active torsions:
REMARK  status: ('A' for Active; 'I' for Inactive)
REMARK    1  A    between atoms: O1_2  and  C2_3 
REMARK    2  A    between atoms: C6_11  and  N3_12 
REMARK    3  A    between atoms: N3_12  and  C7_13 
REMARK    4  A    between atoms: C15_23  and  O2_24 
REMARK    5  A    between atoms: O2_24  and  C16_25 
REMARK    6  A    between atoms: C16_25  and  C17_26 
REMARK    7  A    between atoms: C17_26  and  C18_27 
REMARK    8  A    between atoms: C18_27  and  N4_28 
ROOT
HETATM    1  C2  UNL     1      -4.641  48.294 -25.538  1.00  0.00     0.103 A 
HETATM    2  C3  UNL     1      -5.401  48.243 -24.365  1.00  0.00     0.070 A 
HETATM    3  C4  UNL     1      -4.839  48.446 -23.109  1.00  0.00     0.050 A 
HETATM    4  N1  UNL     1      -5.635  48.373 -22.039  1.00  0.00    -0.351 N 
ATOM      5  H1  UNL     1      -6.631  48.173 -22.127  1.00  0.00     0.166 HD
HETATM    6  C5  UNL     1      -5.063  48.573 -20.847  1.00  0.00     0.182 A 
HETATM    7  N2  UNL     1      -3.775  48.848 -20.627  1.00  0.00    -0.338 N 
ATOM      8  H2  UNL     1      -3.413  48.988 -19.684  1.00  0.00     0.168 HD
HETATM    9  C6  UNL     1      -2.978  48.933 -21.707  1.00  0.00     0.119 A 
HETATM   10  C13 UNL     1      -3.469  48.722 -23.012  1.00  0.00     0.038 A 
HETATM   11  C14 UNL     1      -2.687  48.765 -24.192  1.00  0.00     0.057 A 
HETATM   12  C15 UNL     1      -3.267  48.536 -25.440  1.00  0.00     0.103 A 
ENDROOT
BRANCH   9  13
HETATM   13  N3  UNL     1      -1.603  49.248 -21.533  1.00  0.00    -0.342 N 
HETATM   14  H6  UNL     1      -1.072  48.806 -22.277  1.00  0.00     0.167 HD
BRANCH  13  15
HETATM   15  C7  UNL     1      -1.024  50.475 -21.138  1.00  0.00     0.035 A 
HETATM   16  C8  UNL     1      -0.728  51.433 -22.125  1.00  0.00     0.032 A 
HETATM   17  C9  UNL     1      -0.097  52.636 -21.797  1.00  0.00     0.046 A 
HETATM   18  C10 UNL     1       0.268  52.881 -20.479  1.00  0.00     0.138 A 
HETATM   19  F1  UNL     1       0.873  54.039 -20.183  1.00  0.00    -0.204 F 
HETATM   20  C11 UNL     1       0.018  51.932 -19.492  1.00  0.00     0.074 A 
HETATM   21 CL1  UNL     1       0.490  52.221 -17.859  1.00  0.00    -0.081 Cl
HETATM   22  C12 UNL     1      -0.611  50.730 -19.823  1.00  0.00     0.056 A 
ENDBRANCH  13  15
ENDBRANCH   9  13
BRANCH  12  23
HETATM   23  O2  UNL     1      -2.537  48.632 -26.596  1.00  0.00    -0.348 OA
BRANCH  23  24
HETATM   24  C16 UNL     1      -2.301  49.974 -27.042  1.00  0.00     0.177 C 
BRANCH  24  25
HETATM   25  C17 UNL     1      -1.351  50.660 -26.065  1.00  0.00     0.057 C 
BRANCH  25  26
HETATM   26  C18 UNL     1       0.095  50.614 -26.568  1.00  0.00     0.274 C 
BRANCH  26  27
HETATM   27  N4  UNL     1       0.620  51.962 -26.813  1.00  0.00     0.092 N 
HETATM   28  C19 UNL     1       1.107  52.642 -25.591  1.00  0.00     0.298 C 
HETATM   29  C20 UNL     1       0.207  53.797 -25.116  1.00  0.00     0.198 C 
HETATM   30  O3  UNL     1       0.014  54.807 -26.111  1.00  0.00    -0.388 OA
HETATM   31  C21 UNL     1       0.007  54.289 -27.448  1.00  0.00     0.198 C 
HETATM   32  C22 UNL     1      -0.374  52.802 -27.514  1.00  0.00     0.298 C 
ENDBRANCH  26  27
ENDBRANCH  25  26
ENDBRANCH  24  25
ENDBRANCH  23  24
ENDBRANCH  12  23
BRANCH   1  33
HETATM   33  O1  UNL     1      -5.133  48.103 -26.802  1.00  0.00    -0.353 OA
HETATM   34  C1  UNL     1      -4.539  48.848 -27.857  1.00  0.00     0.210 C 
ENDBRANCH   1  33
TORSDOF 8
ENDMDL
MODEL 6
REMARK minimizedAffinity -7.90071297
REMARK  8 active torsions:
REMARK  status: ('A' for Active; 'I' for Inactive)
REMARK    1  A    between atoms: O1_2  and  C2_3 
REMARK    2  A    between atoms: C6_11  and  N3_12 
REMARK    3  A    between atoms: N3_12  and  C7_13 
REMARK    4  A    between atoms: C15_23  and  O2_24 
REMARK    5  A    between atoms: O2_24  and  C16_25 
REMARK    6  A    between atoms: C16_25  and  C17_26 
REMARK    7  A    between atoms: C17_26  and  C18_27 
REMARK    8  A    between atoms: C18_27  and  N4_28 
ROOT
HETATM    1  C2  UNL     1      -0.248  52.174 -25.973  1.00  0.00     0.103 A 
HETATM    2  C3  UNL     1       0.522  53.217 -25.451  1.00  0.00     0.070 A 
HETATM    3  C4  UNL     1       0.659  53.423 -24.082  1.00  0.00     0.050 A 
HETATM    4  N1  UNL     1       1.409  54.447 -23.666  1.00  0.00    -0.351 N 
ATOM      5  H1  UNL     1       1.874  55.070 -24.325  1.00  0.00     0.166 HD
HETATM    6  C5  UNL     1       1.519  54.617 -22.344  1.00  0.00     0.182 A 
HETATM    7  N2  UNL     1       0.959  53.854 -21.403  1.00  0.00    -0.338 N 
ATOM      8  H2  UNL     1       1.090  54.049 -20.410  1.00  0.00     0.168 HD
HETATM    9  C6  UNL     1       0.214  52.816 -21.823  1.00  0.00     0.119 A 
HETATM   10  C13 UNL     1       0.013  52.552 -23.194  1.00  0.00     0.038 A 
HETATM   11  C14 UNL     1      -0.780  51.500 -23.712  1.00  0.00     0.057 A 
HETATM   12  C15 UNL     1      -0.921  51.325 -25.089  1.00  0.00     0.103 A 
ENDROOT
BRANCH   9  13
HETATM   13  N3  UNL     1      -0.386  51.956 -20.864  1.00  0.00    -0.342 N 
HETATM   14  H6  UNL     1      -0.630  51.081 -21.319  1.00  0.00     0.167 HD
BRANCH  13  15
HETATM   15  C7  UNL     1      -0.025  51.757 -19.512  1.00  0.00     0.035 A 
HETATM   16  C8  UNL     1       0.750  52.738 -18.867  1.00  0.00     0.032 A 
HETATM   17  C9  UNL     1       1.188  52.562 -17.552  1.00  0.00     0.046 A 
HETATM   18  C10 UNL     1       0.874  51.389 -16.876  1.00  0.00     0.138 A 
HETATM   19  F1  UNL     1       1.304  51.237 -15.616  1.00  0.00    -0.204 F 
HETATM   20  C11 UNL     1       0.139  50.389 -17.506  1.00  0.00     0.074 A 
HETATM   21 CL1  UNL     1      -0.233  48.922 -16.682  1.00  0.00    -0.081 Cl
HETATM   22  C12 UNL     1      -0.296  50.567 -18.822  1.00  0.00     0.056 A 
ENDBRANCH  13  15
ENDBRANCH   9  13
BRANCH  12  23
HETATM   23  O2  UNL     1      -1.636  50.277 -25.608  1.00  0.00    -0.348 OA
BRANCH  23  24
HETATM   24  C16 UNL     1      -2.986  50.186 -25.138  1.00  0.00     0.177 C 
BRANCH  24  25
HETATM   25  C17 UNL     1      -3.254  48.758 -24.671  1.00  0.00     0.057 C 
BRANCH  25  26
HETATM   26  C18 UNL     1      -3.174  48.646 -23.145  1.00  0.00     0.274 C 
BRANCH  26  27
HETATM   27  N4  UNL     1      -4.511  48.577 -22.543  1.00  0.00     0.092 N 
HETATM   28  C19 UNL     1      -5.595  48.354 -23.527  1.00  0.00     0.298 C 
HETATM   29  C20 UNL     1      -6.489  49.585 -23.762  1.00  0.00     0.198 C 
HETATM   30  O3  UNL     1      -7.101  50.075 -22.564  1.00  0.00    -0.388 OA
HETATM   31  C21 UNL     1      -6.285  49.893 -21.399  1.00  0.00     0.198 C 
HETATM   32  C22 UNL     1      -4.789  49.776 -21.724  1.00  0.00     0.298 C 
ENDBRANCH  26  27
ENDBRANCH  25  26
ENDBRANCH  24  25
ENDBRANCH  23  24
ENDBRANCH  12  23
BRANCH   1  33
HETATM   33  O1  UNL     1      -0.422  51.919 -27.308  1.00  0.00    -0.353 OA
HETATM   34  C1  UNL     1       0.743  51.839 -28.118  1.00  0.00     0.210 C 
ENDBRANCH   1  33
TORSDOF 8
ENDMDL
MODEL 7
REMARK minimizedAffinity -7.87530518
REMARK  8 active torsions:
REMARK  status: ('A' for Active; 'I' for Inactive)
REMARK    1  A    between atoms: O1_2  and  C2_3 
REMARK    2  A    between atoms: C6_11  and  N3_12 
REMARK    3  A    between atoms: N3_12  and  C7_13 
REMARK    4  A    between atoms: C15_23  and  O2_24 
REMARK    5  A    between atoms: O2_24  and  C16_25 
REMARK    6  A    between atoms: C16_25  and  C17_26 
REMARK    7  A    between atoms: C17_26  and  C18_27 
REMARK    8  A    between atoms: C18_27  and  N4_28 
ROOT
HETATM    1  C2  UNL     1      -5.521  48.172 -22.681  1.00  0.00     0.103 A 
HETATM    2  C3  UNL     1      -6.281  47.954 -23.835  1.00  0.00     0.070 A 
HETATM    3  C4  UNL     1      -5.748  48.105 -25.111  1.00  0.00     0.050 A 
HETATM    4  N1  UNL     1      -6.544  47.884 -26.161  1.00  0.00    -0.351 N 
ATOM      5  H1  UNL     1      -7.520  47.611 -26.043  1.00  0.00     0.166 HD
HETATM    6  C5  UNL     1      -6.001  48.039 -27.373  1.00  0.00     0.182 A 
HETATM    7  N2  UNL     1      -4.738  48.383 -27.632  1.00  0.00    -0.338 N 
ATOM      8  H2  UNL     1      -4.397  48.481 -28.588  1.00  0.00     0.168 HD
HETATM    9  C6  UNL     1      -3.935  48.594 -26.574  1.00  0.00     0.119 A 
HETATM   10  C13 UNL     1      -4.404  48.478 -25.249  1.00  0.00     0.038 A 
HETATM   11  C14 UNL     1      -3.629  48.713 -24.088  1.00  0.00     0.057 A 
HETATM   12  C15 UNL     1      -4.190  48.577 -22.817  1.00  0.00     0.103 A 
ENDROOT
BRANCH   9  13
HETATM   13  N3  UNL     1      -2.573  48.938 -26.792  1.00  0.00    -0.342 N 
HETATM   14  H6  UNL     1      -2.204  48.351 -27.533  1.00  0.00     0.167 HD
BRANCH  13  15
HETATM   15  C7  UNL     1      -1.979  50.220 -26.798  1.00  0.00     0.035 A 
HETATM   16  C8  UNL     1      -2.715  51.305 -27.307  1.00  0.00     0.032 A 
HETATM   17  C9  UNL     1      -2.153  52.581 -27.396  1.00  0.00     0.046 A 
HETATM   18  C10 UNL     1      -0.836  52.778 -26.998  1.00  0.00     0.138 A 
HETATM   19  F1  UNL     1      -0.313  54.009 -27.092  1.00  0.00    -0.204 F 
HETATM   20  C11 UNL     1      -0.077  51.713 -26.525  1.00  0.00     0.074 A 
HETATM   21 CL1  UNL     1       1.565  51.946 -26.053  1.00  0.00    -0.081 Cl
HETATM   22  C12 UNL     1      -0.641  50.438 -26.440  1.00  0.00     0.056 A 
ENDBRANCH  13  15
ENDBRANCH   9  13
BRANCH  12  23
HETATM   23  O2  UNL     1      -3.439  48.742 -21.683  1.00  0.00    -0.348 OA
BRANCH  23  24
HETATM   24  C16 UNL     1      -2.737  49.989 -21.609  1.00  0.00     0.177 C 
BRANCH  24  25
HETATM   25  C17 UNL     1      -1.244  49.729 -21.793  1.00  0.00     0.057 C 
BRANCH  25  26
HETATM   26  C18 UNL     1      -0.425  50.357 -20.661  1.00  0.00     0.274 C 
BRANCH  26  27
HETATM   27  N4  UNL     1      -0.531  51.821 -20.671  1.00  0.00     0.092 N 
HETATM   28  C19 UNL     1       0.191  52.460 -21.795  1.00  0.00     0.298 C 
HETATM   29  C20 UNL     1       1.463  53.217 -21.372  1.00  0.00     0.198 C 
HETATM   30  O3  UNL     1       1.216  54.234 -20.396  1.00  0.00    -0.388 OA
HETATM   31  C21 UNL     1       0.148  53.907 -19.497  1.00  0.00     0.198 C 
HETATM   32  C22 UNL     1      -0.098  52.395 -19.380  1.00  0.00     0.298 C 
ENDBRANCH  26  27
ENDBRANCH  25  26
ENDBRANCH  24  25
ENDBRANCH  23  24
ENDBRANCH  12  23
BRANCH   1  33
HETATM   33  O1  UNL     1      -5.986  48.040 -21.399  1.00  0.00    -0.353 OA
HETATM   34  C1  UNL     1      -6.826  49.071 -20.897  1.00  0.00     0.210 C 
ENDBRANCH   1  33
TORSDOF 8
ENDMDL
MODEL 8
REMARK minimizedAffinity -7.85889292
REMARK  8 active torsions:
REMARK  status: ('A' for Active; 'I' for Inactive)
REMARK    1  A    between atoms: O1_2  and  C2_3 
REMARK    2  A    between atoms: C6_11  and  N3_12 
REMARK    3  A    between atoms: N3_12  and  C7_13 
REMARK    4  A    between atoms: C15_23  and  O2_24 
REMARK    5  A    between atoms: O2_24  and  C16_25 
REMARK    6  A    between atoms: C16_25  and  C17_26 
REMARK    7  A    between atoms: C17_26  and  C18_27 
REMARK    8  A    between atoms: C18_27  and  N4_28 
ROOT
HETATM    1  C2  UNL     1      -0.984  51.049 -23.756  1.00  0.00     0.103 A 
HETATM    2  C3  UNL     1      -0.074  52.110 -23.707  1.00  0.00     0.070 A 
HETATM    3  C4  UNL     1       0.298  52.712 -22.510  1.00  0.00     0.050 A 
HETATM    4  N1  UNL     1       1.168  53.724 -22.553  1.00  0.00    -0.351 N 
ATOM      5  H1  UNL     1       1.557  54.057 -23.435  1.00  0.00     0.166 HD
HETATM    6  C5  UNL     1       1.504  54.281 -21.384  1.00  0.00     0.182 A 
HETATM    7  N2  UNL     1       1.059  53.914 -20.180  1.00  0.00    -0.338 N 
ATOM      8  H2  UNL     1       1.363  54.391 -19.331  1.00  0.00     0.168 HD
HETATM    9  C6  UNL     1       0.192  52.888 -20.139  1.00  0.00     0.119 A 
HETATM   10  C13 UNL     1      -0.247  52.236 -21.310  1.00  0.00     0.038 A 
HETATM   11  C14 UNL     1      -1.179  51.171 -21.348  1.00  0.00     0.057 A 
HETATM   12  C15 UNL     1      -1.555  50.596 -22.562  1.00  0.00     0.103 A 
ENDROOT
BRANCH   9  13
HETATM   13  N3  UNL     1      -0.295  52.439 -18.881  1.00  0.00    -0.342 N 
HETATM   14  H6  UNL     1      -1.123  51.871 -19.036  1.00  0.00     0.167 HD
BRANCH  13  15
HETATM   15  C7  UNL     1       0.441  51.991 -17.760  1.00  0.00     0.035 A 
HETATM   16  C8  UNL     1      -0.142  51.039 -16.904  1.00  0.00     0.032 A 
HETATM   17  C9  UNL     1       0.515  50.610 -15.748  1.00  0.00     0.046 A 
HETATM   18  C10 UNL     1       1.753  51.149 -15.424  1.00  0.00     0.138 A 
HETATM   19  F1  UNL     1       2.368  50.726 -14.311  1.00  0.00    -0.204 F 
HETATM   20  C11 UNL     1       2.334  52.118 -16.237  1.00  0.00     0.074 A 
HETATM   21 CL1  UNL     1       3.859  52.808 -15.827  1.00  0.00    -0.081 Cl
HETATM   22  C12 UNL     1       1.673  52.547 -17.390  1.00  0.00     0.056 A 
ENDBRANCH  13  15
ENDBRANCH   9  13
BRANCH  12  23
HETATM   23  O2  UNL     1      -2.409  49.525 -22.613  1.00  0.00    -0.348 OA
BRANCH  23  24
HETATM   24  C16 UNL     1      -3.536  49.703 -23.480  1.00  0.00     0.177 C 
BRANCH  24  25
HETATM   25  C17 UNL     1      -3.933  48.348 -24.059  1.00  0.00     0.057 C 
BRANCH  25  26
HETATM   26  C18 UNL     1      -5.121  48.478 -25.018  1.00  0.00     0.274 C 
BRANCH  26  27
HETATM   27  N4  UNL     1      -4.794  47.955 -26.350  1.00  0.00     0.092 N 
HETATM   28  C19 UNL     1      -3.516  48.470 -26.893  1.00  0.00     0.298 C 
HETATM   29  C20 UNL     1      -3.685  49.468 -28.053  1.00  0.00     0.198 C 
HETATM   30  O3  UNL     1      -4.425  48.931 -29.154  1.00  0.00    -0.388 OA
HETATM   31  C21 UNL     1      -5.435  47.996 -28.754  1.00  0.00     0.198 C 
HETATM   32  C22 UNL     1      -5.898  48.195 -27.303  1.00  0.00     0.298 C 
ENDBRANCH  26  27
ENDBRANCH  25  26
ENDBRANCH  24  25
ENDBRANCH  23  24
ENDBRANCH  12  23
BRANCH   1  33
HETATM   33  O1  UNL     1      -1.391  50.415 -24.901  1.00  0.00    -0.353 OA
HETATM   34  C1  UNL     1      -0.746  50.776 -26.115  1.00  0.00     0.210 C 
ENDBRANCH   1  33
TORSDOF 8
ENDMDL
MODEL 9
REMARK minimizedAffinity -7.82244682
REMARK  8 active torsions:
REMARK  status: ('A' for Active; 'I' for Inactive)
REMARK    1  A    between atoms: O1_2  and  C2_3 
REMARK    2  A    between atoms: C6_11  and  N3_12 
REMARK    3  A    between atoms: N3_12  and  C7_13 
REMARK    4  A    between atoms: C15_23  and  O2_24 
REMARK    5  A    between atoms: O2_24  and  C16_25 
REMARK    6  A    between atoms: C16_25  and  C17_26 
REMARK    7  A    between atoms: C17_26  and  C18_27 
REMARK    8  A    between atoms: C18_27  and  N4_28 
ROOT
HETATM    1  C2  UNL     1       0.465  51.811 -25.997  1.00  0.00     0.103 A 
HETATM    2  C3  UNL     1      -0.408  51.316 -26.970  1.00  0.00     0.070 A 
HETATM    3  C4  UNL     1      -1.628  50.734 -26.643  1.00  0.00     0.050 A 
HETATM    4  N1  UNL     1      -2.400  50.280 -27.633  1.00  0.00    -0.351 N 
ATOM      5  H1  UNL     1      -2.114  50.351 -28.610  1.00  0.00     0.166 HD
HETATM    6  C5  UNL     1      -3.567  49.726 -27.284  1.00  0.00     0.182 A 
HETATM    7  N2  UNL     1      -4.035  49.594 -26.041  1.00  0.00    -0.338 N 
ATOM      8  H2  UNL     1      -4.938  49.158 -25.855  1.00  0.00     0.168 HD
HETATM    9  C6  UNL     1      -3.261  50.063 -25.046  1.00  0.00     0.119 A 
HETATM   10  C13 UNL     1      -2.003  50.650 -25.295  1.00  0.00     0.038 A 
HETATM   11  C14 UNL     1      -1.122  51.137 -24.301  1.00  0.00     0.057 A 
HETATM   12  C15 UNL     1       0.108  51.697 -24.650  1.00  0.00     0.103 A 
ENDROOT
BRANCH   9  13
HETATM   13  N3  UNL     1      -3.722  49.971 -23.705  1.00  0.00    -0.342 N 
HETATM   14  H6  UNL     1      -4.588  50.495 -23.622  1.00  0.00     0.167 HD
BRANCH  13  15
HETATM   15  C7  UNL     1      -3.707  48.851 -22.842  1.00  0.00     0.035 A 
HETATM   16  C8  UNL     1      -2.468  48.366 -22.385  1.00  0.00     0.032 A 
HETATM   17  C9  UNL     1      -2.391  47.225 -21.583  1.00  0.00     0.046 A 
HETATM   18  C10 UNL     1      -3.555  46.542 -21.251  1.00  0.00     0.138 A 
HETATM   19  F1  UNL     1      -3.462  45.448 -20.482  1.00  0.00    -0.204 F 
HETATM   20  C11 UNL     1      -4.788  46.982 -21.722  1.00  0.00     0.074 A 
HETATM   21 CL1  UNL     1      -6.232  46.125 -21.333  1.00  0.00    -0.081 Cl
HETATM   22  C12 UNL     1      -4.861  48.122 -22.525  1.00  0.00     0.056 A 
ENDBRANCH  13  15
ENDBRANCH   9  13
BRANCH  12  23
HETATM   23  O2  UNL     1       0.947  52.227 -23.705  1.00  0.00    -0.348 OA
BRANCH  23  24
HETATM   24  C16 UNL     1       0.368  52.358 -22.400  1.00  0.00     0.177 C 
BRANCH  24  25
HETATM   25  C17 UNL     1       1.049  53.511 -21.669  1.00  0.00     0.057 C 
BRANCH  25  26
HETATM   26  C18 UNL     1       0.515  53.660 -20.241  1.00  0.00     0.274 C 
BRANCH  26  27
HETATM   27  N4  UNL     1       0.406  52.358 -19.572  1.00  0.00     0.092 N 
HETATM   28  C19 UNL     1      -0.914  51.711 -19.743  1.00  0.00     0.298 C 
HETATM   29  C20 UNL     1      -1.774  51.695 -18.467  1.00  0.00     0.198 C 
HETATM   30  O3  UNL     1      -1.130  51.053 -17.361  1.00  0.00    -0.388 OA
HETATM   31  C21 UNL     1       0.293  51.223 -17.361  1.00  0.00     0.198 C 
HETATM   32  C22 UNL     1       0.751  52.466 -18.138  1.00  0.00     0.298 C 
ENDBRANCH  26  27
ENDBRANCH  25  26
ENDBRANCH  24  25
ENDBRANCH  23  24
ENDBRANCH  12  23
BRANCH   1  33
HETATM   33  O1  UNL     1       1.679  52.394 -26.254  1.00  0.00    -0.353 OA
HETATM   34  C1  UNL     1       2.627  51.636 -26.994  1.00  0.00     0.210 C 
ENDBRANCH   1  33
TORSDOF 8
ENDMDL
