MODEL 1
REMARK minimizedAffinity -9.374156
REMARK CNNscore 0.171025157
REMARK CNNaffinity 6.04878473
REMARK  6 active torsions:
REMARK  status: ('A' for Active; 'I' for Inactive)
REMARK    1  A    between atoms: C2_2  and  C3_3 
REMARK       I    between atoms: C3_3  and  N1_5 
REMARK    2  A    between atoms: C7_9  and  C8_10 
REMARK    3  A    between atoms: C13_17  and  C14_18 
REMARK       I    between atoms: C14_18  and  N3_20 
REMARK    4  A    between atoms: N3_20  and  C15_21 
REMARK    5  A    between atoms: C17_23  and  C18_24 
REMARK    6  A    between atoms: C24_36  and  N5_37 
ROOT
HETATM    1  C8  UNL     1     -10.679  45.799 -33.642  1.00  0.00     0.094 A 
HETATM    2  N2  UNL     1     -11.424  45.864 -32.553  1.00  0.00    -0.342 N 
ATOM      3  H2  UNL     1     -12.368  45.498 -32.434  1.00  0.00     0.167 HD
HETATM    4  C9  UNL     1     -10.671  46.524 -31.613  1.00  0.00     0.077 A 
HETATM    5  C10 UNL     1     -11.157  46.738 -30.274  1.00  0.00     0.032 A 
HETATM    6  C11 UNL     1     -12.186  47.658 -30.050  1.00  0.00     0.018 A 
HETATM    7  C12 UNL     1     -12.711  47.831 -28.764  1.00  0.00     0.018 A 
HETATM    8  C13 UNL     1     -12.230  47.058 -27.694  1.00  0.00     0.035 A 
HETATM    9  C21 UNL     1     -11.186  46.151 -27.919  1.00  0.00     0.060 A 
HETATM   10  C22 UNL     1     -10.661  45.996 -29.200  1.00  0.00     0.130 A 
HETATM   11  F4  UNL     1      -9.675  45.107 -29.381  1.00  0.00    -0.205 F 
HETATM   12  C23 UNL     1      -9.480  46.948 -32.154  1.00  0.00     0.106 A 
HETATM   13  C24 UNL     1      -8.344  47.704 -31.686  1.00  0.00     0.107 A 
HETATM   14  N6  UNL     1      -7.340  47.947 -32.498  1.00  0.00    -0.354 N 
ATOM     15  H6  UNL     1      -6.535  48.487 -32.178  1.00  0.00     0.166 HD
HETATM   16  C25 UNL     1      -7.389  47.463 -33.787  1.00  0.00     0.107 A 
HETATM   17  C26 UNL     1      -8.415  46.756 -34.284  1.00  0.00     0.116 A 
HETATM   18  N7  UNL     1      -9.489  46.483 -33.454  1.00  0.00    -0.305 N 
ENDROOT
BRANCH   1  19
HETATM   19  C7  UNL     1     -11.112  45.078 -34.887  1.00  0.00     0.072 C 
HETATM   20  C6  UNL     1      -9.993  44.265 -35.550  1.00  0.00     0.015 C 
HETATM   21  C5  UNL     1     -10.470  43.527 -36.808  1.00  0.00     0.021 C 
HETATM   22  C4  UNL     1     -11.856  43.959 -37.284  1.00  0.00     0.126 C 
HETATM   23  N1  UNL     1     -12.004  45.411 -37.210  1.00  0.00    -0.351 N 
HETATM   24  C3  UNL     1     -12.412  46.110 -38.355  1.00  0.00     0.232 C 
HETATM   25  C27 UNL     1     -11.826  46.007 -35.883  1.00  0.00     0.138 C 
HETATM   26  O1  UNL     1     -12.528  45.514 -39.437  1.00  0.00    -0.272 OA
BRANCH  24  27
HETATM   27  C2  UNL     1     -12.680  47.640 -38.265  1.00  0.00     0.080 C 
HETATM   28  C1  UNL     1     -11.388  48.461 -38.169  1.00  0.00     0.030 C 
HETATM   29  C28 UNL     1     -13.573  48.197 -39.408  1.00  0.00     0.188 C 
HETATM   30  O3  UNL     1     -14.364  48.960 -38.459  1.00  0.00    -0.389 OA
HETATM   31  C29 UNL     1     -13.842  48.144 -37.383  1.00  0.00     0.188 C 
ENDBRANCH  24  27
ENDBRANCH   1  19
BRANCH  13  32
HETATM   32  N5  UNL     1      -8.232  48.226 -30.431  1.00  0.00    -0.287 NA
HETATM   33  H18 UNL     1      -9.090  48.520 -29.983  1.00  0.00     0.125 HD
HETATM   34  H19 UNL     1      -7.488  48.912 -30.374  1.00  0.00     0.125 HD
ENDBRANCH  13  32
BRANCH   8  35
HETATM   35  C14 UNL     1     -12.776  47.168 -26.308  1.00  0.00     0.257 C 
HETATM   36  O2  UNL     1     -12.063  47.659 -25.438  1.00  0.00    -0.267 OA
HETATM   37  N3  UNL     1     -14.040  46.666 -26.119  1.00  0.00    -0.309 N 
HETATM   38  H13 UNL     1     -14.519  46.179 -26.862  1.00  0.00     0.170 HD
BRANCH  37  39
HETATM   39  C15 UNL     1     -14.810  46.678 -24.955  1.00  0.00     0.108 A 
HETATM   40  C16 UNL     1     -16.194  46.597 -24.925  1.00  0.00     0.064 A 
HETATM   41  C17 UNL     1     -16.853  46.609 -23.687  1.00  0.00     0.052 A 
HETATM   42  C19 UNL     1     -16.088  46.705 -22.524  1.00  0.00     0.033 A 
HETATM   43  C20 UNL     1     -14.713  46.782 -22.648  1.00  0.00     0.090 A 
HETATM   44  N4  UNL     1     -14.065  46.769 -23.833  1.00  0.00    -0.352 N 
ATOM     45  H4  UNL     1     -13.047  46.825 -23.879  1.00  0.00     0.166 HD
BRANCH  41  46
HETATM   46  C18 UNL     1     -18.357  46.549 -23.633  1.00  0.00     0.417 C 
HETATM   47  F1  UNL     1     -18.841  45.351 -24.058  1.00  0.00    -0.166 F 
HETATM   48  F2  UNL     1     -18.958  47.492 -24.411  1.00  0.00    -0.166 F 
HETATM   49  F3  UNL     1     -18.851  46.735 -22.379  1.00  0.00    -0.166 F 
ENDBRANCH  41  46
ENDBRANCH  37  39
ENDBRANCH   8  35
TORSDOF 6
ENDMDL
MODEL 2
REMARK minimizedAffinity -9.44995975
REMARK CNNscore 0.160523176
REMARK CNNaffinity 6.45496035
REMARK  6 active torsions:
REMARK  status: ('A' for Active; 'I' for Inactive)
REMARK    1  A    between atoms: C2_2  and  C3_3 
REMARK       I    between atoms: C3_3  and  N1_5 
REMARK    2  A    between atoms: C7_9  and  C8_10 
REMARK    3  A    between atoms: C13_17  and  C14_18 
REMARK       I    between atoms: C14_18  and  N3_20 
REMARK    4  A    between atoms: N3_20  and  C15_21 
REMARK    5  A    between atoms: C17_23  and  C18_24 
REMARK    6  A    between atoms: C24_36  and  N5_37 
ROOT
HETATM    1  C8  UNL     1     -10.255  46.802 -20.537  1.00  0.00     0.094 A 
HETATM    2  N2  UNL     1      -9.175  47.049 -21.258  1.00  0.00    -0.342 N 
ATOM      3  H2  UNL     1      -9.056  46.886 -22.257  1.00  0.00     0.167 HD
HETATM    4  C9  UNL     1      -8.248  47.570 -20.391  1.00  0.00     0.077 A 
HETATM    5  C10 UNL     1      -6.950  48.002 -20.847  1.00  0.00     0.032 A 
HETATM    6  C11 UNL     1      -6.003  47.051 -21.239  1.00  0.00     0.018 A 
HETATM    7  C12 UNL     1      -4.762  47.457 -21.743  1.00  0.00     0.018 A 
HETATM    8  C13 UNL     1      -4.470  48.824 -21.887  1.00  0.00     0.035 A 
HETATM    9  C21 UNL     1      -5.415  49.773 -21.474  1.00  0.00     0.060 A 
HETATM   10  C22 UNL     1      -6.642  49.359 -20.963  1.00  0.00     0.130 A 
HETATM   11  F4  UNL     1      -7.528  50.295 -20.594  1.00  0.00    -0.205 F 
HETATM   12  C23 UNL     1      -8.728  47.565 -19.103  1.00  0.00     0.106 A 
HETATM   13  C24 UNL     1      -8.213  47.932 -17.806  1.00  0.00     0.107 A 
HETATM   14  N6  UNL     1      -8.963  47.785 -16.738  1.00  0.00    -0.354 N 
ATOM     15  H6  UNL     1      -8.605  48.035 -15.815  1.00  0.00     0.166 HD
HETATM   16  C25 UNL     1     -10.241  47.290 -16.880  1.00  0.00     0.107 A 
HETATM   17  C26 UNL     1     -10.779  46.929 -18.055  1.00  0.00     0.116 A 
HETATM   18  N7  UNL     1     -10.014  47.071 -19.200  1.00  0.00    -0.305 N 
ENDROOT
BRANCH   1  19
HETATM   19  C7  UNL     1     -11.537  46.293 -21.132  1.00  0.00     0.072 C 
HETATM   20  C6  UNL     1     -11.747  46.708 -22.593  1.00  0.00     0.015 C 
HETATM   21  C5  UNL     1     -13.055  46.158 -23.177  1.00  0.00     0.021 C 
HETATM   22  C4  UNL     1     -13.987  45.552 -22.131  1.00  0.00     0.126 C 
HETATM   23  N1  UNL     1     -14.038  46.386 -20.931  1.00  0.00    -0.351 N 
HETATM   24  C3  UNL     1     -15.285  46.808 -20.450  1.00  0.00     0.232 C 
HETATM   25  C27 UNL     1     -12.758  46.612 -20.254  1.00  0.00     0.138 C 
HETATM   26  O1  UNL     1     -16.313  46.572 -21.103  1.00  0.00    -0.272 OA
BRANCH  24  27
HETATM   27  C2  UNL     1     -15.364  47.604 -19.115  1.00  0.00     0.080 C 
HETATM   28  C1  UNL     1     -16.794  48.034 -18.769  1.00  0.00     0.030 C 
HETATM   29  C28 UNL     1     -14.725  46.875 -17.902  1.00  0.00     0.188 C 
HETATM   30  O3  UNL     1     -14.047  48.091 -17.490  1.00  0.00    -0.389 OA
HETATM   31  C29 UNL     1     -14.274  48.652 -18.806  1.00  0.00     0.188 C 
ENDBRANCH  24  27
ENDBRANCH   1  19
BRANCH  13  32
HETATM   32  N5  UNL     1      -6.955  48.413 -17.587  1.00  0.00    -0.287 NA
HETATM   33  H18 UNL     1      -6.226  48.076 -18.200  1.00  0.00     0.125 HD
HETATM   34  H19 UNL     1      -6.707  48.383 -16.604  1.00  0.00     0.125 HD
ENDBRANCH  13  32
BRANCH   8  35
HETATM   35  C14 UNL     1      -3.180  49.319 -22.454  1.00  0.00     0.257 C 
HETATM   36  O2  UNL     1      -2.571  48.596 -23.236  1.00  0.00    -0.267 OA
HETATM   37  N3  UNL     1      -2.764  50.551 -22.011  1.00  0.00    -0.309 N 
HETATM   38  H13 UNL     1      -3.269  51.037 -21.284  1.00  0.00     0.170 HD
BRANCH  37  39
HETATM   39  C15 UNL     1      -1.637  51.275 -22.402  1.00  0.00     0.108 A 
HETATM   40  C16 UNL     1      -0.880  52.073 -21.558  1.00  0.00     0.064 A 
HETATM   41  C17 UNL     1       0.240  52.744 -22.071  1.00  0.00     0.052 A 
HETATM   42  C19 UNL     1       0.552  52.586 -23.422  1.00  0.00     0.033 A 
HETATM   43  C20 UNL     1      -0.259  51.771 -24.190  1.00  0.00     0.090 A 
HETATM   44  N4  UNL     1      -1.338  51.117 -23.710  1.00  0.00    -0.352 N 
ATOM     45  H4  UNL     1      -1.908  50.523 -24.313  1.00  0.00     0.166 HD
BRANCH  41  46
HETATM   46  C18 UNL     1       1.060  53.636 -21.177  1.00  0.00     0.417 C 
HETATM   47  F1  UNL     1       2.004  52.944 -20.483  1.00  0.00    -0.166 F 
HETATM   48  F2  UNL     1       0.313  54.288 -20.242  1.00  0.00    -0.166 F 
HETATM   49  F3  UNL     1       1.725  54.607 -21.860  1.00  0.00    -0.166 F 
ENDBRANCH  41  46
ENDBRANCH  37  39
ENDBRANCH   8  35
TORSDOF 6
ENDMDL
MODEL 3
REMARK minimizedAffinity -9.97403908
REMARK CNNscore 0.154993176
REMARK CNNaffinity 7.50965118
REMARK  6 active torsions:
REMARK  status: ('A' for Active; 'I' for Inactive)
REMARK    1  A    between atoms: C2_2  and  C3_3 
REMARK       I    between atoms: C3_3  and  N1_5 
REMARK    2  A    between atoms: C7_9  and  C8_10 
REMARK    3  A    between atoms: C13_17  and  C14_18 
REMARK       I    between atoms: C14_18  and  N3_20 
REMARK    4  A    between atoms: N3_20  and  C15_21 
REMARK    5  A    between atoms: C17_23  and  C18_24 
REMARK    6  A    between atoms: C24_36  and  N5_37 
ROOT
HETATM    1  C8  UNL     1      -1.698  51.103 -21.421  1.00  0.00     0.094 A 
HETATM    2  N2  UNL     1      -2.200  50.559 -20.326  1.00  0.00    -0.342 N 
ATOM      3  H2  UNL     1      -3.001  49.930 -20.266  1.00  0.00     0.167 HD
HETATM    4  C9  UNL     1      -1.428  51.012 -19.285  1.00  0.00     0.077 A 
HETATM    5  C10 UNL     1      -1.663  50.581 -17.930  1.00  0.00     0.032 A 
HETATM    6  C11 UNL     1      -2.795  51.036 -17.246  1.00  0.00     0.018 A 
HETATM    7  C12 UNL     1      -3.069  50.577 -15.953  1.00  0.00     0.018 A 
HETATM    8  C13 UNL     1      -2.226  49.633 -15.343  1.00  0.00     0.035 A 
HETATM    9  C21 UNL     1      -1.082  49.196 -16.025  1.00  0.00     0.060 A 
HETATM   10  C22 UNL     1      -0.811  49.668 -17.306  1.00  0.00     0.130 A 
HETATM   11  F4  UNL     1       0.283  49.214 -17.935  1.00  0.00    -0.205 F 
HETATM   12  C23 UNL     1      -0.491  51.914 -19.731  1.00  0.00     0.106 A 
HETATM   13  C24 UNL     1       0.531  52.730 -19.121  1.00  0.00     0.107 A 
HETATM   14  N6  UNL     1       1.272  53.518 -19.867  1.00  0.00    -0.354 N 
ATOM     15  H6  UNL     1       1.992  54.104 -19.443  1.00  0.00     0.166 HD
HETATM   16  C25 UNL     1       1.063  53.543 -21.228  1.00  0.00     0.107 A 
HETATM   17  C26 UNL     1       0.130  52.812 -21.857  1.00  0.00     0.116 A 
HETATM   18  N7  UNL     1      -0.668  51.971 -21.100  1.00  0.00    -0.305 N 
ENDROOT
BRANCH   1  19
HETATM   19  C7  UNL     1      -2.215  50.795 -22.798  1.00  0.00     0.072 C 
HETATM   20  C6  UNL     1      -2.223  49.299 -23.134  1.00  0.00     0.015 C 
HETATM   21  C5  UNL     1      -2.773  49.016 -24.538  1.00  0.00     0.021 C 
HETATM   22  C4  UNL     1      -2.941  50.268 -25.395  1.00  0.00     0.126 C 
HETATM   23  N1  UNL     1      -1.793  51.161 -25.245  1.00  0.00    -0.351 N 
HETATM   24  C3  UNL     1      -1.115  51.593 -26.393  1.00  0.00     0.232 C 
HETATM   25  C27 UNL     1      -1.521  51.633 -23.884  1.00  0.00     0.138 C 
HETATM   26  O1  UNL     1      -1.416  51.127 -27.503  1.00  0.00    -0.272 OA
BRANCH  24  27
HETATM   27  C2  UNL     1       0.040  52.628 -26.260  1.00  0.00     0.080 C 
HETATM   28  C1  UNL     1       1.417  51.965 -26.150  1.00  0.00     0.030 C 
HETATM   29  C28 UNL     1       0.061  53.703 -27.381  1.00  0.00     0.188 C 
HETATM   30  O3  UNL     1       0.270  54.759 -26.406  1.00  0.00    -0.389 OA
HETATM   31  C29 UNL     1      -0.166  53.862 -25.356  1.00  0.00     0.188 C 
ENDBRANCH  24  27
ENDBRANCH   1  19
BRANCH  13  32
HETATM   32  N5  UNL     1       0.784  52.769 -17.781  1.00  0.00    -0.287 NA
HETATM   33  H18 UNL     1      -0.005  52.631 -17.165  1.00  0.00     0.125 HD
HETATM   34  H19 UNL     1       1.362  53.564 -17.531  1.00  0.00     0.125 HD
ENDBRANCH  13  32
BRANCH   8  35
HETATM   35  C14 UNL     1      -2.486  49.077 -13.981  1.00  0.00     0.257 C 
HETATM   36  O2  UNL     1      -1.993  47.991 -13.692  1.00  0.00    -0.267 OA
HETATM   37  N3  UNL     1      -3.301  49.829 -13.172  1.00  0.00    -0.309 N 
HETATM   38  H13 UNL     1      -3.756  50.659 -13.523  1.00  0.00     0.170 HD
BRANCH  37  39
HETATM   39  C15 UNL     1      -3.672  49.582 -11.849  1.00  0.00     0.108 A 
HETATM   40  C16 UNL     1      -2.856  49.799 -10.749  1.00  0.00     0.064 A 
HETATM   41  C17 UNL     1      -3.349  49.521  -9.466  1.00  0.00     0.052 A 
HETATM   42  C19 UNL     1      -4.650  49.027  -9.343  1.00  0.00     0.033 A 
HETATM   43  C20 UNL     1      -5.391  48.840 -10.494  1.00  0.00     0.090 A 
HETATM   44  N4  UNL     1      -4.930  49.107 -11.736  1.00  0.00    -0.352 N 
ATOM     45  H4  UNL     1      -5.513  48.956 -12.559  1.00  0.00     0.166 HD
BRANCH  41  46
HETATM   46  C18 UNL     1      -2.472  49.725  -8.259  1.00  0.00     0.417 C 
HETATM   47  F1  UNL     1      -1.173  49.406  -8.506  1.00  0.00    -0.166 F 
HETATM   48  F2  UNL     1      -2.846  48.967  -7.191  1.00  0.00    -0.166 F 
HETATM   49  F3  UNL     1      -2.470  51.012  -7.816  1.00  0.00    -0.166 F 
ENDBRANCH  41  46
ENDBRANCH  37  39
ENDBRANCH   8  35
TORSDOF 6
ENDMDL
MODEL 4
REMARK minimizedAffinity -9.06047344
REMARK CNNscore 0.149900123
REMARK CNNaffinity 7.25673246
REMARK  6 active torsions:
REMARK  status: ('A' for Active; 'I' for Inactive)
REMARK    1  A    between atoms: C2_2  and  C3_3 
REMARK       I    between atoms: C3_3  and  N1_5 
REMARK    2  A    between atoms: C7_9  and  C8_10 
REMARK    3  A    between atoms: C13_17  and  C14_18 
REMARK       I    between atoms: C14_18  and  N3_20 
REMARK    4  A    between atoms: N3_20  and  C15_21 
REMARK    5  A    between atoms: C17_23  and  C18_24 
REMARK    6  A    between atoms: C24_36  and  N5_37 
ROOT
HETATM    1  C8  UNL     1      -0.194  48.041 -15.634  1.00  0.00     0.094 A 
HETATM    2  N2  UNL     1       0.321  48.874 -16.522  1.00  0.00    -0.342 N 
ATOM      3  H2  UNL     1       1.290  49.188 -16.576  1.00  0.00     0.167 HD
HETATM    4  C9  UNL     1      -0.709  49.230 -17.356  1.00  0.00     0.077 A 
HETATM    5  C10 UNL     1      -0.498  50.103 -18.483  1.00  0.00     0.032 A 
HETATM    6  C11 UNL     1      -0.246  51.461 -18.267  1.00  0.00     0.018 A 
HETATM    7  C12 UNL     1       0.024  52.309 -19.348  1.00  0.00     0.018 A 
HETATM    8  C13 UNL     1       0.072  51.796 -20.655  1.00  0.00     0.035 A 
HETATM    9  C21 UNL     1      -0.202  50.438 -20.868  1.00  0.00     0.060 A 
HETATM   10  C22 UNL     1      -0.481  49.605 -19.787  1.00  0.00     0.130 A 
HETATM   11  F4  UNL     1      -0.720  48.308 -20.027  1.00  0.00    -0.205 F 
HETATM   12  C23 UNL     1      -1.894  48.679 -16.928  1.00  0.00     0.106 A 
HETATM   13  C24 UNL     1      -3.272  48.731 -17.355  1.00  0.00     0.107 A 
HETATM   14  N6  UNL     1      -4.189  48.068 -16.689  1.00  0.00    -0.354 N 
ATOM     15  H6  UNL     1      -5.167  48.105 -16.979  1.00  0.00     0.166 HD
HETATM   16  C25 UNL     1      -3.813  47.321 -15.594  1.00  0.00     0.107 A 
HETATM   17  C26 UNL     1      -2.552  47.231 -15.145  1.00  0.00     0.116 A 
HETATM   18  N7  UNL     1      -1.561  47.919 -15.824  1.00  0.00    -0.305 N 
ENDROOT
BRANCH   1  19
HETATM   19  C7  UNL     1       0.629  47.355 -14.581  1.00  0.00     0.072 C 
HETATM   20  C6  UNL     1      -0.204  46.732 -13.455  1.00  0.00     0.015 C 
HETATM   21  C5  UNL     1       0.663  46.024 -12.406  1.00  0.00     0.021 C 
HETATM   22  C4  UNL     1       2.156  46.311 -12.550  1.00  0.00     0.126 C 
HETATM   23  N1  UNL     1       2.392  47.726 -12.832  1.00  0.00    -0.351 N 
HETATM   24  C3  UNL     1       3.277  48.442 -12.016  1.00  0.00     0.232 C 
HETATM   25  C27 UNL     1       1.757  48.252 -14.044  1.00  0.00     0.138 C 
HETATM   26  O1  UNL     1       3.758  47.908 -11.004  1.00  0.00    -0.272 OA
BRANCH  24  27
HETATM   27  C2  UNL     1       3.623  49.919 -12.367  1.00  0.00     0.080 C 
HETATM   28  C1  UNL     1       4.423  50.044 -13.668  1.00  0.00     0.030 C 
HETATM   29  C28 UNL     1       2.392  50.865 -12.413  1.00  0.00     0.188 C 
HETATM   30  O3  UNL     1       3.101  51.873 -11.645  1.00  0.00    -0.389 OA
HETATM   31  C29 UNL     1       4.062  50.872 -11.234  1.00  0.00     0.188 C 
ENDBRANCH  24  27
ENDBRANCH   1  19
BRANCH  13  32
HETATM   32  N5  UNL     1      -3.720  49.460 -18.417  1.00  0.00    -0.287 NA
HETATM   33  H18 UNL     1      -3.231  50.322 -18.616  1.00  0.00     0.125 HD
HETATM   34  H19 UNL     1      -4.729  49.557 -18.408  1.00  0.00     0.125 HD
ENDBRANCH  13  32
BRANCH   8  35
HETATM   35  C14 UNL     1       0.391  52.641 -21.845  1.00  0.00     0.257 C 
HETATM   36  O2  UNL     1       1.051  53.662 -21.674  1.00  0.00    -0.267 OA
HETATM   37  N3  UNL     1      -0.124  52.210 -23.042  1.00  0.00    -0.309 N 
HETATM   38  H13 UNL     1      -0.749  51.418 -23.082  1.00  0.00     0.170 HD
BRANCH  37  39
HETATM   39  C15 UNL     1       0.051  52.768 -24.310  1.00  0.00     0.108 A 
HETATM   40  C16 UNL     1       0.434  52.058 -25.437  1.00  0.00     0.064 A 
HETATM   41  C17 UNL     1       0.567  52.733 -26.659  1.00  0.00     0.052 A 
HETATM   42  C19 UNL     1       0.312  54.105 -26.695  1.00  0.00     0.033 A 
HETATM   43  C20 UNL     1      -0.064  54.733 -25.522  1.00  0.00     0.090 A 
HETATM   44  N4  UNL     1      -0.199  54.095 -24.339  1.00  0.00    -0.352 N 
ATOM     45  H4  UNL     1      -0.481  54.597 -23.497  1.00  0.00     0.166 HD
BRANCH  41  46
HETATM   46  C18 UNL     1       1.007  51.986 -27.890  1.00  0.00     0.417 C 
HETATM   47  F1  UNL     1       0.615  52.604 -29.037  1.00  0.00    -0.166 F 
HETATM   48  F2  UNL     1       0.503  50.722 -27.957  1.00  0.00    -0.166 F 
HETATM   49  F3  UNL     1       2.358  51.849 -27.975  1.00  0.00    -0.166 F 
ENDBRANCH  41  46
ENDBRANCH  37  39
ENDBRANCH   8  35
TORSDOF 6
ENDMDL
MODEL 5
REMARK minimizedAffinity -10.2958031
REMARK CNNscore 0.133658901
REMARK CNNaffinity 7.07828569
REMARK  6 active torsions:
REMARK  status: ('A' for Active; 'I' for Inactive)
REMARK    1  A    between atoms: C2_2  and  C3_3 
REMARK       I    between atoms: C3_3  and  N1_5 
REMARK    2  A    between atoms: C7_9  and  C8_10 
REMARK    3  A    between atoms: C13_17  and  C14_18 
REMARK       I    between atoms: C14_18  and  N3_20 
REMARK    4  A    between atoms: N3_20  and  C15_21 
REMARK    5  A    between atoms: C17_23  and  C18_24 
REMARK    6  A    between atoms: C24_36  and  N5_37 
ROOT
HETATM    1  C8  UNL     1      -1.608  50.941 -20.761  1.00  0.00     0.094 A 
HETATM    2  N2  UNL     1      -2.110  50.441 -19.645  1.00  0.00    -0.342 N 
ATOM      3  H2  UNL     1      -2.901  49.803 -19.561  1.00  0.00     0.167 HD
HETATM    4  C9  UNL     1      -1.353  50.955 -18.621  1.00  0.00     0.077 A 
HETATM    5  C10 UNL     1      -1.591  50.584 -17.249  1.00  0.00     0.032 A 
HETATM    6  C11 UNL     1      -2.735  51.053 -16.595  1.00  0.00     0.018 A 
HETATM    7  C12 UNL     1      -3.013  50.651 -15.284  1.00  0.00     0.018 A 
HETATM    8  C13 UNL     1      -2.160  49.750 -14.624  1.00  0.00     0.035 A 
HETATM    9  C21 UNL     1      -1.004  49.299 -15.276  1.00  0.00     0.060 A 
HETATM   10  C22 UNL     1      -0.731  49.714 -16.577  1.00  0.00     0.130 A 
HETATM   11  F4  UNL     1       0.375  49.249 -17.176  1.00  0.00    -0.205 F 
HETATM   12  C23 UNL     1      -0.426  51.849 -19.103  1.00  0.00     0.106 A 
HETATM   13  C24 UNL     1       0.578  52.708 -18.524  1.00  0.00     0.107 A 
HETATM   14  N6  UNL     1       1.313  53.472 -19.301  1.00  0.00    -0.354 N 
ATOM     15  H6  UNL     1       2.021  54.088 -18.900  1.00  0.00     0.166 HD
HETATM   16  C25 UNL     1       1.114  53.430 -20.664  1.00  0.00     0.107 A 
HETATM   17  C26 UNL     1       0.197  52.655 -21.264  1.00  0.00     0.116 A 
HETATM   18  N7  UNL     1      -0.593  51.839 -20.474  1.00  0.00    -0.305 N 
ENDROOT
BRANCH   1  19
HETATM   19  C7  UNL     1      -2.109  50.561 -22.125  1.00  0.00     0.072 C 
HETATM   20  C6  UNL     1      -2.242  49.048 -22.335  1.00  0.00     0.015 C 
HETATM   21  C5  UNL     1      -2.773  48.692 -23.729  1.00  0.00     0.021 C 
HETATM   22  C4  UNL     1      -2.802  49.876 -24.694  1.00  0.00     0.126 C 
HETATM   23  N1  UNL     1      -1.584  50.675 -24.577  1.00  0.00    -0.351 N 
HETATM   24  C3  UNL     1      -0.836  50.945 -25.732  1.00  0.00     0.232 C 
HETATM   25  C27 UNL     1      -1.311  51.237 -23.251  1.00  0.00     0.138 C 
HETATM   26  O1  UNL     1      -1.145  50.412 -26.809  1.00  0.00    -0.272 OA
BRANCH  24  27
HETATM   27  C2  UNL     1       0.402  51.884 -25.643  1.00  0.00     0.080 C 
HETATM   28  C1  UNL     1       1.649  51.278 -26.296  1.00  0.00     0.030 C 
HETATM   29  C28 UNL     1       0.157  53.313 -26.201  1.00  0.00     0.188 C 
HETATM   30  O3  UNL     1       0.806  53.907 -25.045  1.00  0.00    -0.389 OA
HETATM   31  C29 UNL     1       0.661  52.656 -24.332  1.00  0.00     0.188 C 
ENDBRANCH  24  27
ENDBRANCH   1  19
BRANCH  13  32
HETATM   32  N5  UNL     1       0.821  52.815 -17.186  1.00  0.00    -0.287 NA
HETATM   33  H18 UNL     1       0.029  52.693 -16.569  1.00  0.00     0.125 HD
HETATM   34  H19 UNL     1       1.384  53.629 -16.970  1.00  0.00     0.125 HD
ENDBRANCH  13  32
BRANCH   8  35
HETATM   35  C14 UNL     1      -2.422  49.254 -13.240  1.00  0.00     0.257 C 
HETATM   36  O2  UNL     1      -1.464  49.076 -12.493  1.00  0.00    -0.267 OA
HETATM   37  N3  UNL     1      -3.736  49.001 -12.932  1.00  0.00    -0.309 N 
HETATM   38  H13 UNL     1      -4.455  49.069 -13.638  1.00  0.00     0.170 HD
BRANCH  37  39
HETATM   39  C15 UNL     1      -4.273  48.582 -11.714  1.00  0.00     0.108 A 
HETATM   40  C16 UNL     1      -5.518  48.955 -11.232  1.00  0.00     0.064 A 
HETATM   41  C17 UNL     1      -5.951  48.457  -9.994  1.00  0.00     0.052 A 
HETATM   42  C19 UNL     1      -5.105  47.601  -9.287  1.00  0.00     0.033 A 
HETATM   43  C20 UNL     1      -3.880  47.283  -9.843  1.00  0.00     0.090 A 
HETATM   44  N4  UNL     1      -3.452  47.753 -11.035  1.00  0.00    -0.352 N 
ATOM     45  H4  UNL     1      -2.540  47.490 -11.410  1.00  0.00     0.166 HD
BRANCH  41  46
HETATM   46  C18 UNL     1      -7.289  48.870  -9.440  1.00  0.00     0.417 C 
HETATM   47  F1  UNL     1      -8.324  48.396 -10.185  1.00  0.00    -0.166 F 
HETATM   48  F2  UNL     1      -7.453  50.221  -9.391  1.00  0.00    -0.166 F 
HETATM   49  F3  UNL     1      -7.498  48.426  -8.171  1.00  0.00    -0.166 F 
ENDBRANCH  41  46
ENDBRANCH  37  39
ENDBRANCH   8  35
TORSDOF 6
ENDMDL
MODEL 6
REMARK minimizedAffinity -10.8170729
REMARK CNNscore 0.0979395062
REMARK CNNaffinity 7.19401693
REMARK  6 active torsions:
REMARK  status: ('A' for Active; 'I' for Inactive)
REMARK    1  A    between atoms: C2_2  and  C3_3 
REMARK       I    between atoms: C3_3  and  N1_5 
REMARK    2  A    between atoms: C7_9  and  C8_10 
REMARK    3  A    between atoms: C13_17  and  C14_18 
REMARK       I    between atoms: C14_18  and  N3_20 
REMARK    4  A    between atoms: N3_20  and  C15_21 
REMARK    5  A    between atoms: C17_23  and  C18_24 
REMARK    6  A    between atoms: C24_36  and  N5_37 
ROOT
HETATM    1  C8  UNL     1      -2.112  50.226 -24.383  1.00  0.00     0.094 A 
HETATM    2  N2  UNL     1      -2.378  50.047 -23.102  1.00  0.00    -0.342 N 
ATOM      3  H2  UNL     1      -3.102  49.448 -22.705  1.00  0.00     0.167 HD
HETATM    4  C9  UNL     1      -1.485  50.828 -22.412  1.00  0.00     0.077 A 
HETATM    5  C10 UNL     1      -1.455  50.846 -20.972  1.00  0.00     0.032 A 
HETATM    6  C11 UNL     1      -2.492  51.464 -20.266  1.00  0.00     0.018 A 
HETATM    7  C12 UNL     1      -2.509  51.434 -18.867  1.00  0.00     0.018 A 
HETATM    8  C13 UNL     1      -1.500  50.757 -18.161  1.00  0.00     0.035 A 
HETATM    9  C21 UNL     1      -0.452  50.156 -18.872  1.00  0.00     0.060 A 
HETATM   10  C22 UNL     1      -0.438  50.202 -20.264  1.00  0.00     0.130 A 
HETATM   11  F4  UNL     1       0.570  49.602 -20.911  1.00  0.00    -0.205 F 
HETATM   12  C23 UNL     1      -0.714  51.566 -23.279  1.00  0.00     0.106 A 
HETATM   13  C24 UNL     1       0.324  52.561 -23.149  1.00  0.00     0.107 A 
HETATM   14  N6  UNL     1       0.862  53.090 -24.224  1.00  0.00    -0.354 N 
ATOM     15  H6  UNL     1       1.591  53.800 -24.142  1.00  0.00     0.166 HD
HETATM   16  C25 UNL     1       0.429  52.674 -25.464  1.00  0.00     0.107 A 
HETATM   17  C26 UNL     1      -0.531  51.756 -25.654  1.00  0.00     0.116 A 
HETATM   18  N7  UNL     1      -1.118  51.179 -24.541  1.00  0.00    -0.305 N 
ENDROOT
BRANCH   1  19
HETATM   19  C7  UNL     1      -2.822  49.482 -25.478  1.00  0.00     0.072 C 
HETATM   20  C6  UNL     1      -3.096  50.331 -26.725  1.00  0.00     0.015 C 
HETATM   21  C5  UNL     1      -3.805  49.539 -27.831  1.00  0.00     0.021 C 
HETATM   22  C4  UNL     1      -4.323  48.177 -27.374  1.00  0.00     0.126 C 
HETATM   23  N1  UNL     1      -4.944  48.270 -26.054  1.00  0.00    -0.351 N 
HETATM   24  C3  UNL     1      -6.249  47.788 -25.883  1.00  0.00     0.232 C 
HETATM   25  C27 UNL     1      -4.084  48.762 -24.974  1.00  0.00     0.138 C 
HETATM   26  O1  UNL     1      -6.900  47.399 -26.865  1.00  0.00    -0.272 OA
BRANCH  24  27
HETATM   27  C2  UNL     1      -6.885  47.780 -24.462  1.00  0.00     0.080 C 
HETATM   28  C1  UNL     1      -7.711  46.518 -24.193  1.00  0.00     0.030 C 
HETATM   29  C28 UNL     1      -5.867  47.999 -23.309  1.00  0.00     0.188 C 
HETATM   30  O3  UNL     1      -6.752  48.956 -22.670  1.00  0.00    -0.389 OA
HETATM   31  C29 UNL     1      -7.490  49.088 -23.909  1.00  0.00     0.188 C 
ENDBRANCH  24  27
ENDBRANCH   1  19
BRANCH  13  32
HETATM   32  N5  UNL     1       0.791  53.032 -21.957  1.00  0.00    -0.287 NA
HETATM   33  H18 UNL     1       0.129  53.077 -21.194  1.00  0.00     0.125 HD
HETATM   34  H19 UNL     1       1.333  53.880 -22.075  1.00  0.00     0.125 HD
ENDBRANCH  13  32
BRANCH   8  35
HETATM   35  C14 UNL     1      -1.484  50.657 -16.671  1.00  0.00     0.257 C 
HETATM   36  O2  UNL     1      -0.411  50.450 -16.112  1.00  0.00    -0.267 OA
HETATM   37  N3  UNL     1      -2.703  50.771 -16.048  1.00  0.00    -0.309 N 
HETATM   38  H13 UNL     1      -3.554  50.832 -16.586  1.00  0.00     0.170 HD
BRANCH  37  39
HETATM   39  C15 UNL     1      -2.978  50.766 -14.680  1.00  0.00     0.108 A 
HETATM   40  C16 UNL     1      -3.207  51.901 -13.918  1.00  0.00     0.064 A 
HETATM   41  C17 UNL     1      -3.485  51.763 -12.550  1.00  0.00     0.052 A 
HETATM   42  C19 UNL     1      -3.516  50.480 -12.002  1.00  0.00     0.033 A 
HETATM   43  C20 UNL     1      -3.275  49.405 -12.836  1.00  0.00     0.090 A 
HETATM   44  N4  UNL     1      -3.010  49.522 -14.155  1.00  0.00    -0.352 N 
ATOM     45  H4  UNL     1      -2.840  48.701 -14.735  1.00  0.00     0.166 HD
BRANCH  41  46
HETATM   46  C18 UNL     1      -3.711  52.985 -11.699  1.00  0.00     0.417 C 
HETATM   47  F1  UNL     1      -2.562  53.434 -11.125  1.00  0.00    -0.166 F 
HETATM   48  F2  UNL     1      -4.581  52.768 -10.673  1.00  0.00    -0.166 F 
HETATM   49  F3  UNL     1      -4.221  54.034 -12.400  1.00  0.00    -0.166 F 
ENDBRANCH  41  46
ENDBRANCH  37  39
ENDBRANCH   8  35
TORSDOF 6
ENDMDL
MODEL 7
REMARK minimizedAffinity -10.1403046
REMARK CNNscore 0.0959917307
REMARK CNNaffinity 6.83871508
REMARK  6 active torsions:
REMARK  status: ('A' for Active; 'I' for Inactive)
REMARK    1  A    between atoms: C2_2  and  C3_3 
REMARK       I    between atoms: C3_3  and  N1_5 
REMARK    2  A    between atoms: C7_9  and  C8_10 
REMARK    3  A    between atoms: C13_17  and  C14_18 
REMARK       I    between atoms: C14_18  and  N3_20 
REMARK    4  A    between atoms: N3_20  and  C15_21 
REMARK    5  A    between atoms: C17_23  and  C18_24 
REMARK    6  A    between atoms: C24_36  and  N5_37 
ROOT
HETATM    1  C8  UNL     1       0.949  52.658 -11.556  1.00  0.00     0.094 A 
HETATM    2  N2  UNL     1       0.342  52.551 -12.725  1.00  0.00    -0.342 N 
ATOM      3  H2  UNL     1      -0.549  52.970 -12.993  1.00  0.00     0.167 HD
HETATM    4  C9  UNL     1       1.150  51.763 -13.505  1.00  0.00     0.077 A 
HETATM    5  C10 UNL     1       0.818  51.469 -14.876  1.00  0.00     0.032 A 
HETATM    6  C11 UNL     1      -0.245  50.605 -15.160  1.00  0.00     0.018 A 
HETATM    7  C12 UNL     1      -0.620  50.359 -16.486  1.00  0.00     0.018 A 
HETATM    8  C13 UNL     1       0.050  51.002 -17.541  1.00  0.00     0.035 A 
HETATM    9  C21 UNL     1       1.127  51.851 -17.253  1.00  0.00     0.060 A 
HETATM   10  C22 UNL     1       1.499  52.079 -15.931  1.00  0.00     0.130 A 
HETATM   11  F4  UNL     1       2.523  52.911 -15.691  1.00  0.00    -0.205 F 
HETATM   12  C23 UNL     1       2.228  51.306 -12.784  1.00  0.00     0.106 A 
HETATM   13  C24 UNL     1       3.350  50.436 -13.042  1.00  0.00     0.107 A 
HETATM   14  N6  UNL     1       4.224  50.195 -12.090  1.00  0.00    -0.354 N 
ATOM     15  H6  UNL     1       5.016  49.576 -12.261  1.00  0.00     0.166 HD
HETATM   16  C25 UNL     1       4.054  50.790 -10.859  1.00  0.00     0.107 A 
HETATM   17  C26 UNL     1       3.034  51.606 -10.555  1.00  0.00     0.116 A 
HETATM   18  N7  UNL     1       2.096  51.880 -11.535  1.00  0.00    -0.305 N 
ENDROOT
BRANCH   1  19
HETATM   19  C7  UNL     1       0.425  53.511 -10.436  1.00  0.00     0.072 C 
HETATM   20  C6  UNL     1      -0.723  54.439 -10.852  1.00  0.00     0.015 C 
HETATM   21  C5  UNL     1      -1.249  55.283  -9.685  1.00  0.00     0.021 C 
HETATM   22  C4  UNL     1      -0.365  55.227  -8.441  1.00  0.00     0.126 C 
HETATM   23  N1  UNL     1       1.049  55.311  -8.800  1.00  0.00    -0.351 N 
HETATM   24  C3  UNL     1       1.848  56.287  -8.190  1.00  0.00     0.232 C 
HETATM   25  C27 UNL     1       1.545  54.265  -9.700  1.00  0.00     0.138 C 
HETATM   26  O1  UNL     1       1.330  57.136  -7.448  1.00  0.00    -0.272 OA
BRANCH  24  27
HETATM   27  C2  UNL     1       3.377  56.321  -8.480  1.00  0.00     0.080 C 
HETATM   28  C1  UNL     1       3.691  56.417  -9.977  1.00  0.00     0.030 C 
HETATM   29  C28 UNL     1       4.145  57.428  -7.708  1.00  0.00     0.188 C 
HETATM   30  O3  UNL     1       5.192  56.490  -7.344  1.00  0.00    -0.389 OA
HETATM   31  C29 UNL     1       4.309  55.391  -7.674  1.00  0.00     0.188 C 
ENDBRANCH  24  27
ENDBRANCH   1  19
BRANCH  13  32
HETATM   32  N5  UNL     1       3.574  49.801 -14.228  1.00  0.00    -0.287 NA
HETATM   33  H18 UNL     1       2.758  49.530 -14.760  1.00  0.00     0.125 HD
HETATM   34  H19 UNL     1       4.263  49.064 -14.135  1.00  0.00     0.125 HD
ENDBRANCH  13  32
BRANCH   8  35
HETATM   35  C14 UNL     1      -0.328  50.811 -18.974  1.00  0.00     0.257 C 
HETATM   36  O2  UNL     1      -0.622  49.681 -19.354  1.00  0.00    -0.267 OA
HETATM   37  N3  UNL     1      -0.275  51.934 -19.763  1.00  0.00    -0.309 N 
HETATM   38  H13 UNL     1       0.081  52.805 -19.399  1.00  0.00     0.170 HD
BRANCH  37  39
HETATM   39  C15 UNL     1      -0.617  52.060 -21.111  1.00  0.00     0.108 A 
HETATM   40  C16 UNL     1       0.189  52.645 -22.076  1.00  0.00     0.064 A 
HETATM   41  C17 UNL     1      -0.265  52.702 -23.402  1.00  0.00     0.052 A 
HETATM   42  C19 UNL     1      -1.519  52.169 -23.703  1.00  0.00     0.033 A 
HETATM   43  C20 UNL     1      -2.254  51.606 -22.676  1.00  0.00     0.090 A 
HETATM   44  N4  UNL     1      -1.830  51.541 -21.396  1.00  0.00    -0.352 N 
ATOM     45  H4  UNL     1      -2.405  51.114 -20.670  1.00  0.00     0.166 HD
BRANCH  41  46
HETATM   46  C18 UNL     1       0.583  53.356 -24.461  1.00  0.00     0.417 C 
HETATM   47  F1  UNL     1      -0.166  53.900 -25.458  1.00  0.00    -0.166 F 
HETATM   48  F2  UNL     1       1.441  52.490 -25.069  1.00  0.00    -0.166 F 
HETATM   49  F3  UNL     1       1.358  54.364 -23.975  1.00  0.00    -0.166 F 
ENDBRANCH  41  46
ENDBRANCH  37  39
ENDBRANCH   8  35
TORSDOF 6
ENDMDL
MODEL 8
REMARK minimizedAffinity -10.2433271
REMARK CNNscore 0.0799710453
REMARK CNNaffinity 6.15908813
REMARK  6 active torsions:
REMARK  status: ('A' for Active; 'I' for Inactive)
REMARK    1  A    between atoms: C2_2  and  C3_3 
REMARK       I    between atoms: C3_3  and  N1_5 
REMARK    2  A    between atoms: C7_9  and  C8_10 
REMARK    3  A    between atoms: C13_17  and  C14_18 
REMARK       I    between atoms: C14_18  and  N3_20 
REMARK    4  A    between atoms: N3_20  and  C15_21 
REMARK    5  A    between atoms: C17_23  and  C18_24 
REMARK    6  A    between atoms: C24_36  and  N5_37 
ROOT
HETATM    1  C8  UNL     1      -0.204  50.848 -20.231  1.00  0.00     0.094 A 
HETATM    2  N2  UNL     1      -0.051  51.195 -18.965  1.00  0.00    -0.342 N 
ATOM      3  H2  UNL     1       0.450  52.009 -18.610  1.00  0.00     0.167 HD
HETATM    4  C9  UNL     1      -0.702  50.240 -18.225  1.00  0.00     0.077 A 
HETATM    5  C10 UNL     1      -0.781  50.324 -16.789  1.00  0.00     0.032 A 
HETATM    6  C11 UNL     1       0.364  50.095 -16.019  1.00  0.00     0.018 A 
HETATM    7  C12 UNL     1       0.318  50.235 -14.627  1.00  0.00     0.018 A 
HETATM    8  C13 UNL     1      -0.872  50.636 -13.995  1.00  0.00     0.035 A 
HETATM    9  C21 UNL     1      -2.021  50.846 -14.769  1.00  0.00     0.060 A 
HETATM   10  C22 UNL     1      -1.968  50.691 -16.152  1.00  0.00     0.130 A 
HETATM   11  F4  UNL     1      -3.083  50.917 -16.862  1.00  0.00    -0.205 F 
HETATM   12  C23 UNL     1      -1.190  49.243 -19.038  1.00  0.00     0.106 A 
HETATM   13  C24 UNL     1      -1.895  48.000 -18.839  1.00  0.00     0.107 A 
HETATM   14  N6  UNL     1      -2.214  47.255 -19.873  1.00  0.00    -0.354 N 
ATOM     15  H6  UNL     1      -2.706  46.371 -19.742  1.00  0.00     0.166 HD
HETATM   16  C25 UNL     1      -1.874  47.685 -21.138  1.00  0.00     0.107 A 
HETATM   17  C26 UNL     1      -1.219  48.828 -21.390  1.00  0.00     0.116 A 
HETATM   18  N7  UNL     1      -0.868  49.635 -20.322  1.00  0.00    -0.305 N 
ENDROOT
BRANCH   1  19
HETATM   19  C7  UNL     1       0.298  51.682 -21.375  1.00  0.00     0.072 C 
HETATM   20  C6  UNL     1       0.570  53.144 -21.000  1.00  0.00     0.015 C 
HETATM   21  C5  UNL     1       1.098  53.965 -22.182  1.00  0.00     0.021 C 
HETATM   22  C4  UNL     1       0.991  53.246 -23.525  1.00  0.00     0.126 C 
HETATM   23  N1  UNL     1      -0.294  52.562 -23.650  1.00  0.00    -0.351 N 
HETATM   24  C3  UNL     1      -1.092  52.817 -24.774  1.00  0.00     0.232 C 
HETATM   25  C27 UNL     1      -0.588  51.556 -22.625  1.00  0.00     0.138 C 
HETATM   26  O1  UNL     1      -0.759  53.697 -25.584  1.00  0.00    -0.272 OA
BRANCH  24  27
HETATM   27  C2  UNL     1      -2.411  52.017 -24.978  1.00  0.00     0.080 C 
HETATM   28  C1  UNL     1      -3.472  52.352 -23.923  1.00  0.00     0.030 C 
HETATM   29  C28 UNL     1      -3.022  52.150 -26.400  1.00  0.00     0.188 C 
HETATM   30  O3  UNL     1      -3.253  50.718 -26.466  1.00  0.00    -0.389 OA
HETATM   31  C29 UNL     1      -2.327  50.527 -25.370  1.00  0.00     0.188 C 
ENDBRANCH  24  27
ENDBRANCH   1  19
BRANCH  13  32
HETATM   32  N5  UNL     1      -2.250  47.504 -17.619  1.00  0.00    -0.287 NA
HETATM   33  H18 UNL     1      -1.633  47.715 -16.846  1.00  0.00     0.125 HD
HETATM   34  H19 UNL     1      -2.515  46.527 -17.673  1.00  0.00     0.125 HD
ENDBRANCH  13  32
BRANCH   8  35
HETATM   35  C14 UNL     1      -0.974  50.840 -12.519  1.00  0.00     0.257 C 
HETATM   36  O2  UNL     1      -0.922  49.855 -11.790  1.00  0.00    -0.267 OA
HETATM   37  N3  UNL     1      -1.157  52.137 -12.104  1.00  0.00    -0.309 N 
HETATM   38  H13 UNL     1      -1.298  52.879 -12.773  1.00  0.00     0.170 HD
BRANCH  37  39
HETATM   39  C15 UNL     1      -1.236  52.623 -10.798  1.00  0.00     0.108 A 
HETATM   40  C16 UNL     1      -0.757  53.857 -10.387  1.00  0.00     0.064 A 
HETATM   41  C17 UNL     1      -0.906  54.237  -9.045  1.00  0.00     0.052 A 
HETATM   42  C19 UNL     1      -1.532  53.351  -8.166  1.00  0.00     0.033 A 
HETATM   43  C20 UNL     1      -1.979  52.141  -8.663  1.00  0.00     0.090 A 
HETATM   44  N4  UNL     1      -1.845  51.764  -9.953  1.00  0.00    -0.352 N 
ATOM     45  H4  UNL     1      -2.191  50.861 -10.278  1.00  0.00     0.166 HD
BRANCH  41  46
HETATM   46  C18 UNL     1      -0.370  55.562  -8.571  1.00  0.00     0.417 C 
HETATM   47  F1  UNL     1       0.897  55.793  -9.012  1.00  0.00    -0.166 F 
HETATM   48  F2  UNL     1      -0.317  55.663  -7.213  1.00  0.00    -0.166 F 
HETATM   49  F3  UNL     1      -1.117  56.618  -8.991  1.00  0.00    -0.166 F 
ENDBRANCH  41  46
ENDBRANCH  37  39
ENDBRANCH   8  35
TORSDOF 6
ENDMDL
MODEL 9
REMARK minimizedAffinity -9.39797115
REMARK CNNscore 0.0796412528
REMARK CNNaffinity 6.73808241
REMARK  6 active torsions:
REMARK  status: ('A' for Active; 'I' for Inactive)
REMARK    1  A    between atoms: C2_2  and  C3_3 
REMARK       I    between atoms: C3_3  and  N1_5 
REMARK    2  A    between atoms: C7_9  and  C8_10 
REMARK    3  A    between atoms: C13_17  and  C14_18 
REMARK       I    between atoms: C14_18  and  N3_20 
REMARK    4  A    between atoms: N3_20  and  C15_21 
REMARK    5  A    between atoms: C17_23  and  C18_24 
REMARK    6  A    between atoms: C24_36  and  N5_37 
ROOT
HETATM    1  C8  UNL     1       0.284  51.143 -18.367  1.00  0.00     0.094 A 
HETATM    2  N2  UNL     1       0.932  51.716 -17.368  1.00  0.00    -0.342 N 
ATOM      3  H2  UNL     1       1.564  52.514 -17.426  1.00  0.00     0.167 HD
HETATM    4  C9  UNL     1       0.582  51.022 -16.237  1.00  0.00     0.077 A 
HETATM    5  C10 UNL     1       1.071  51.405 -14.936  1.00  0.00     0.032 A 
HETATM    6  C11 UNL     1       2.415  51.191 -14.613  1.00  0.00     0.018 A 
HETATM    7  C12 UNL     1       2.920  51.614 -13.379  1.00  0.00     0.018 A 
HETATM    8  C13 UNL     1       2.087  52.285 -12.466  1.00  0.00     0.035 A 
HETATM    9  C21 UNL     1       0.737  52.479 -12.786  1.00  0.00     0.060 A 
HETATM   10  C22 UNL     1       0.242  52.043 -14.013  1.00  0.00     0.130 A 
HETATM   11  F4  UNL     1      -1.051  52.261 -14.292  1.00  0.00    -0.205 F 
HETATM   12  C23 UNL     1      -0.224  49.953 -16.552  1.00  0.00     0.106 A 
HETATM   13  C24 UNL     1      -0.846  48.877 -15.819  1.00  0.00     0.107 A 
HETATM   14  N6  UNL     1      -1.572  47.985 -16.455  1.00  0.00    -0.354 N 
ATOM     15  H6  UNL     1      -2.009  47.216 -15.947  1.00  0.00     0.166 HD
HETATM   16  C25 UNL     1      -1.734  48.103 -17.819  1.00  0.00     0.107 A 
HETATM   17  C26 UNL     1      -1.182  49.078 -18.558  1.00  0.00     0.116 A 
HETATM   18  N7  UNL     1      -0.412  50.033 -17.917  1.00  0.00    -0.305 N 
ENDROOT
BRANCH   1  19
HETATM   19  C7  UNL     1       0.336  51.658 -19.778  1.00  0.00     0.072 C 
HETATM   20  C6  UNL     1       0.518  53.177 -19.874  1.00  0.00     0.015 C 
HETATM   21  C5  UNL     1       0.585  53.670 -21.325  1.00  0.00     0.021 C 
HETATM   22  C4  UNL     1       0.194  52.608 -22.352  1.00  0.00     0.126 C 
HETATM   23  N1  UNL     1      -0.979  51.859 -21.907  1.00  0.00    -0.351 N 
HETATM   24  C3  UNL     1      -2.087  51.763 -22.760  1.00  0.00     0.232 C 
HETATM   25  C27 UNL     1      -0.844  51.157 -20.627  1.00  0.00     0.138 C 
HETATM   26  O1  UNL     1      -2.108  52.404 -23.823  1.00  0.00    -0.272 OA
BRANCH  24  27
HETATM   27  C2  UNL     1      -3.300  50.879 -22.349  1.00  0.00     0.080 C 
HETATM   28  C1  UNL     1      -3.002  49.380 -22.460  1.00  0.00     0.030 C 
HETATM   29  C28 UNL     1      -3.870  51.199 -20.940  1.00  0.00     0.188 C 
HETATM   30  O3  UNL     1      -5.229  51.171 -21.451  1.00  0.00    -0.389 OA
HETATM   31  C29 UNL     1      -4.716  51.299 -22.798  1.00  0.00     0.188 C 
ENDBRANCH  24  27
ENDBRANCH   1  19
BRANCH  13  32
HETATM   32  N5  UNL     1      -0.718  48.687 -14.474  1.00  0.00    -0.287 NA
HETATM   33  H18 UNL     1       0.159  48.970 -14.057  1.00  0.00     0.125 HD
HETATM   34  H19 UNL     1      -1.023  47.762 -14.194  1.00  0.00     0.125 HD
ENDBRANCH  13  32
BRANCH   8  35
HETATM   35  C14 UNL     1       2.576  52.794 -11.150  1.00  0.00     0.257 C 
HETATM   36  O2  UNL     1       2.964  51.981 -10.317  1.00  0.00    -0.267 OA
HETATM   37  N3  UNL     1       2.511  54.155 -10.972  1.00  0.00    -0.309 N 
HETATM   38  H13 UNL     1       2.077  54.747 -11.665  1.00  0.00     0.170 HD
BRANCH  37  39
HETATM   39  C15 UNL     1       2.938  54.904  -9.875  1.00  0.00     0.108 A 
HETATM   40  C16 UNL     1       2.099  55.614  -9.030  1.00  0.00     0.064 A 
HETATM   41  C17 UNL     1       2.651  56.322  -7.953  1.00  0.00     0.052 A 
HETATM   42  C19 UNL     1       4.035  56.290  -7.772  1.00  0.00     0.033 A 
HETATM   43  C20 UNL     1       4.795  55.557  -8.663  1.00  0.00     0.090 A 
HETATM   44  N4  UNL     1       4.277  54.867  -9.703  1.00  0.00    -0.352 N 
ATOM     45  H4  UNL     1       4.876  54.337 -10.336  1.00  0.00     0.166 HD
BRANCH  41  46
HETATM   46  C18 UNL     1       1.760  57.121  -7.039  1.00  0.00     0.417 C 
HETATM   47  F1  UNL     1       2.250  58.367  -6.799  1.00  0.00    -0.166 F 
HETATM   48  F2  UNL     1       1.593  56.543  -5.816  1.00  0.00    -0.166 F 
HETATM   49  F3  UNL     1       0.506  57.295  -7.538  1.00  0.00    -0.166 F 
ENDBRANCH  41  46
ENDBRANCH  37  39
ENDBRANCH   8  35
TORSDOF 6
ENDMDL
