MODEL 1
REMARK minimizedAffinity -9.50915527
REMARK CNNscore 0.545173049
REMARK CNNaffinity 7.25263071
REMARK  6 active torsions:
REMARK  status: ('A' for Active; 'I' for Inactive)
REMARK    1  A    between atoms: N1_2  and  C3_4 
REMARK    2  A    between atoms: C3_4  and  C4_5 
REMARK    3  A    between atoms: C4_5  and  C5_6 
REMARK    4  A    between atoms: C5_6  and  C6_7 
REMARK    5  A    between atoms: C7_8  and  C8_9 
REMARK    6  A    between atoms: C14_17  and  C15_18 
ROOT
HETATM    1  C8  UNL     1      -1.798   5.877  12.296  1.00  0.00     0.048 C 
HETATM    2  C9  UNL     1      -2.449   4.756  11.956  1.00  0.00     0.047 A 
HETATM    3  C10 UNL     1      -1.935   3.556  11.195  1.00  0.00     0.257 A 
HETATM    4  O1  UNL     1      -0.827   3.342  10.743  1.00  0.00    -0.267 OA
HETATM    5  N2  UNL     1      -3.019   2.691  11.122  1.00  0.00    -0.322 N 
HETATM    6  C11 UNL     1      -4.136   3.216  11.761  1.00  0.00     0.046 A 
HETATM    7  C12 UNL     1      -5.373   2.621  11.883  1.00  0.00     0.031 A 
HETATM    8  C13 UNL     1      -6.361   3.332  12.573  1.00  0.00     0.014 A 
HETATM    9  C14 UNL     1      -6.110   4.614  13.125  1.00  0.00    -0.025 A 
HETATM   10  C21 UNL     1      -4.829   5.183  12.974  1.00  0.00     0.027 A 
HETATM   11  C22 UNL     1      -3.852   4.474  12.294  1.00  0.00     0.007 A 
HETATM   12  H14 UNL     1      -2.962   1.796  10.664  1.00  0.00     0.169 HD
ENDROOT
BRANCH   1  13
HETATM   13  C7  UNL     1      -0.462   6.153  11.923  1.00  0.00     0.040 A 
HETATM   14  C6  UNL     1       0.713   6.368  12.633  1.00  0.00    -0.023 A 
HETATM   15  C24 UNL     1       1.742   6.557  11.662  1.00  0.00    -0.027 A 
HETATM   16  C23 UNL     1       1.163   6.430  10.416  1.00  0.00     0.016 A 
HETATM   17  C25 UNL     1       3.201   6.822  11.838  1.00  0.00     0.041 C 
HETATM   18  N3  UNL     1      -0.171   6.195  10.581  1.00  0.00    -0.359 N 
HETATM   19  C28 UNL     1       1.851   6.574   9.106  1.00  0.00     0.057 C 
HETATM   20  H23 UNL     1      -0.843   6.093   9.833  1.00  0.00     0.166 HD
HETATM   21  C27 UNL     1       3.375   6.495   9.308  1.00  0.00     0.006 C 
HETATM   22  C26 UNL     1       3.842   7.314  10.525  1.00  0.00     0.005 C 
BRANCH  14  23
HETATM   23  C5  UNL     1       0.875   6.395  14.123  1.00  0.00     0.043 C 
BRANCH  23  24
HETATM   24  C4  UNL     1      -0.454   6.458  14.884  1.00  0.00     0.035 C 
BRANCH  24  25
HETATM   25  C3  UNL     1      -0.591   7.739  15.719  1.00  0.00     0.271 C 
BRANCH  25  26
HETATM   26  N1  UNL     1      -1.885   7.825  16.426  1.00  0.00     0.080 N 
HETATM   27  C1  UNL     1      -2.207   9.202  16.806  1.00  0.00     0.309 C 
HETATM   28  C2  UNL     1      -2.951   7.290  15.573  1.00  0.00     0.309 C 
ENDBRANCH  25  26
ENDBRANCH  24  25
ENDBRANCH  23  24
ENDBRANCH  14  23
ENDBRANCH   1  13
BRANCH   9  29
HETATM   29  C15 UNL     1      -7.172   5.339  13.842  1.00  0.00    -0.026 A 
HETATM   30  C16 UNL     1      -8.307   5.814  13.165  1.00  0.00     0.012 A 
HETATM   31  C17 UNL     1      -9.315   6.503  13.844  1.00  0.00     0.001 A 
HETATM   32  C18 UNL     1      -9.203   6.730  15.214  1.00  0.00     0.000 A 
HETATM   33  C19 UNL     1      -8.085   6.268  15.903  1.00  0.00     0.001 A 
HETATM   34  C20 UNL     1      -7.079   5.578  15.223  1.00  0.00     0.012 A 
ENDBRANCH   9  29
TORSDOF 6
ENDMDL
MODEL 2
REMARK minimizedAffinity -8.52472973
REMARK CNNscore 0.306847364
REMARK CNNaffinity 6.7763772
REMARK  6 active torsions:
REMARK  status: ('A' for Active; 'I' for Inactive)
REMARK    1  A    between atoms: N1_2  and  C3_4 
REMARK    2  A    between atoms: C3_4  and  C4_5 
REMARK    3  A    between atoms: C4_5  and  C5_6 
REMARK    4  A    between atoms: C5_6  and  C6_7 
REMARK    5  A    between atoms: C7_8  and  C8_9 
REMARK    6  A    between atoms: C14_17  and  C15_18 
ROOT
HETATM    1  C8  UNL     1      -8.472   6.509  14.841  1.00  0.00     0.048 C 
HETATM    2  C9  UNL     1      -9.550   7.153  14.371  1.00  0.00     0.047 A 
HETATM    3  C10 UNL     1     -10.207   7.034  13.015  1.00  0.00     0.257 A 
HETATM    4  O1  UNL     1      -9.915   6.326  12.072  1.00  0.00    -0.267 OA
HETATM    5  N2  UNL     1     -11.276   7.920  13.061  1.00  0.00    -0.322 N 
HETATM    6  C11 UNL     1     -11.358   8.560  14.292  1.00  0.00     0.046 A 
HETATM    7  C12 UNL     1     -12.298   9.491  14.677  1.00  0.00     0.031 A 
HETATM    8  C13 UNL     1     -12.193  10.010  15.972  1.00  0.00     0.014 A 
HETATM    9  C14 UNL     1     -11.164   9.602  16.858  1.00  0.00    -0.025 A 
HETATM   10  C21 UNL     1     -10.224   8.646  16.420  1.00  0.00     0.027 A 
HETATM   11  C22 UNL     1     -10.334   8.133  15.137  1.00  0.00     0.007 A 
HETATM   12  H14 UNL     1     -11.901   8.048  12.281  1.00  0.00     0.169 HD
ENDROOT
BRANCH   1  13
HETATM   13  C7  UNL     1      -7.703   5.604  14.075  1.00  0.00     0.040 A 
HETATM   14  C6  UNL     1      -6.420   5.636  13.544  1.00  0.00    -0.023 A 
HETATM   15  C24 UNL     1      -6.218   4.380  12.897  1.00  0.00    -0.027 A 
HETATM   16  C23 UNL     1      -7.365   3.634  13.076  1.00  0.00     0.016 A 
HETATM   17  C25 UNL     1      -5.032   3.851  12.160  1.00  0.00     0.041 C 
HETATM   18  N3  UNL     1      -8.262   4.383  13.781  1.00  0.00    -0.359 N 
HETATM   19  C28 UNL     1      -7.618   2.266  12.552  1.00  0.00     0.057 C 
HETATM   20  H23 UNL     1      -9.199   4.095  14.026  1.00  0.00     0.166 HD
HETATM   21  C27 UNL     1      -6.289   1.624  12.115  1.00  0.00     0.006 C 
HETATM   22  C26 UNL     1      -5.401   2.606  11.328  1.00  0.00     0.005 C 
BRANCH  14  23
HETATM   23  C5  UNL     1      -5.435   6.763  13.632  1.00  0.00     0.043 C 
BRANCH  23  24
HETATM   24  C4  UNL     1      -4.652   6.793  14.949  1.00  0.00     0.035 C 
BRANCH  24  25
HETATM   25  C3  UNL     1      -3.372   5.946  14.888  1.00  0.00     0.271 C 
BRANCH  25  26
HETATM   26  N1  UNL     1      -2.153   6.734  15.161  1.00  0.00     0.080 N 
HETATM   27  C1  UNL     1      -1.555   7.254  13.929  1.00  0.00     0.309 C 
HETATM   28  C2  UNL     1      -2.475   7.848  16.057  1.00  0.00     0.309 C 
ENDBRANCH  25  26
ENDBRANCH  24  25
ENDBRANCH  23  24
ENDBRANCH  14  23
ENDBRANCH   1  13
BRANCH   9  29
HETATM   29  C15 UNL     1     -11.077  10.169  18.214  1.00  0.00    -0.026 A 
HETATM   30  C16 UNL     1     -10.721  11.513  18.415  1.00  0.00     0.012 A 
HETATM   31  C17 UNL     1     -10.639  12.052  19.701  1.00  0.00     0.001 A 
HETATM   32  C18 UNL     1     -10.909  11.254  20.810  1.00  0.00     0.000 A 
HETATM   33  C19 UNL     1     -11.264   9.919  20.633  1.00  0.00     0.001 A 
HETATM   34  C20 UNL     1     -11.347   9.382  19.346  1.00  0.00     0.012 A 
ENDBRANCH   9  29
TORSDOF 6
ENDMDL
MODEL 3
REMARK minimizedAffinity -7.2142539
REMARK CNNscore 0.28516233
REMARK CNNaffinity 6.74780703
REMARK  6 active torsions:
REMARK  status: ('A' for Active; 'I' for Inactive)
REMARK    1  A    between atoms: N1_2  and  C3_4 
REMARK    2  A    between atoms: C3_4  and  C4_5 
REMARK    3  A    between atoms: C4_5  and  C5_6 
REMARK    4  A    between atoms: C5_6  and  C6_7 
REMARK    5  A    between atoms: C7_8  and  C8_9 
REMARK    6  A    between atoms: C14_17  and  C15_18 
ROOT
HETATM    1  C8  UNL     1      -8.299   5.628  13.677  1.00  0.00     0.048 C 
HETATM    2  C9  UNL     1      -8.608   6.850  14.135  1.00  0.00     0.047 A 
HETATM    3  C10 UNL     1      -7.690   8.022  14.399  1.00  0.00     0.257 A 
HETATM    4  O1  UNL     1      -6.489   8.116  14.242  1.00  0.00    -0.267 OA
HETATM    5  N2  UNL     1      -8.527   9.029  14.862  1.00  0.00    -0.322 N 
HETATM    6  C11 UNL     1      -9.853   8.616  14.902  1.00  0.00     0.046 A 
HETATM    7  C12 UNL     1     -10.939   9.363  15.303  1.00  0.00     0.031 A 
HETATM    8  C13 UNL     1     -12.193   8.744  15.261  1.00  0.00     0.014 A 
HETATM    9  C14 UNL     1     -12.349   7.402  14.828  1.00  0.00    -0.025 A 
HETATM   10  C21 UNL     1     -11.209   6.677  14.428  1.00  0.00     0.027 A 
HETATM   11  C22 UNL     1      -9.969   7.295  14.467  1.00  0.00     0.007 A 
HETATM   12  H14 UNL     1      -8.180   9.940  15.119  1.00  0.00     0.169 HD
ENDROOT
BRANCH   1  13
HETATM   13  C7  UNL     1      -6.979   5.202  13.406  1.00  0.00     0.040 A 
HETATM   14  C6  UNL     1      -5.778   5.279  14.100  1.00  0.00    -0.023 A 
HETATM   15  C24 UNL     1      -4.802   4.620  13.294  1.00  0.00    -0.027 A 
HETATM   16  C23 UNL     1      -5.444   4.156  12.164  1.00  0.00     0.016 A 
HETATM   17  C25 UNL     1      -3.345   4.392  13.531  1.00  0.00     0.041 C 
HETATM   18  N3  UNL     1      -6.758   4.519  12.234  1.00  0.00    -0.359 N 
HETATM   19  C28 UNL     1      -4.817   3.428  11.029  1.00  0.00     0.057 C 
HETATM   20  H23 UNL     1      -7.454   4.337  11.524  1.00  0.00     0.166 HD
HETATM   21  C27 UNL     1      -3.430   2.908  11.449  1.00  0.00     0.006 C 
HETATM   22  C26 UNL     1      -2.629   3.963  12.234  1.00  0.00     0.005 C 
BRANCH  14  23
HETATM   23  C5  UNL     1      -5.547   5.923  15.434  1.00  0.00     0.043 C 
BRANCH  23  24
HETATM   24  C4  UNL     1      -4.066   6.027  15.817  1.00  0.00     0.035 C 
BRANCH  24  25
HETATM   25  C3  UNL     1      -3.497   7.433  15.579  1.00  0.00     0.271 C 
BRANCH  25  26
HETATM   26  N1  UNL     1      -2.020   7.459  15.581  1.00  0.00     0.080 N 
HETATM   27  C1  UNL     1      -1.473   7.390  14.224  1.00  0.00     0.309 C 
HETATM   28  C2  UNL     1      -1.549   8.682  16.238  1.00  0.00     0.309 C 
ENDBRANCH  25  26
ENDBRANCH  24  25
ENDBRANCH  23  24
ENDBRANCH  14  23
ENDBRANCH   1  13
BRANCH   9  29
HETATM   29  C15 UNL     1     -13.682   6.777  14.800  1.00  0.00    -0.026 A 
HETATM   30  C16 UNL     1     -14.848   7.554  14.903  1.00  0.00     0.012 A 
HETATM   31  C17 UNL     1     -16.113   6.962  14.876  1.00  0.00     0.001 A 
HETATM   32  C18 UNL     1     -16.233   5.580  14.747  1.00  0.00     0.000 A 
HETATM   33  C19 UNL     1     -15.090   4.792  14.644  1.00  0.00     0.001 A 
HETATM   34  C20 UNL     1     -13.825   5.386  14.670  1.00  0.00     0.012 A 
ENDBRANCH   9  29
TORSDOF 6
ENDMDL
MODEL 4
REMARK minimizedAffinity -9.11164856
REMARK CNNscore 0.250871837
REMARK CNNaffinity 6.97108412
REMARK  6 active torsions:
REMARK  status: ('A' for Active; 'I' for Inactive)
REMARK    1  A    between atoms: N1_2  and  C3_4 
REMARK    2  A    between atoms: C3_4  and  C4_5 
REMARK    3  A    between atoms: C4_5  and  C5_6 
REMARK    4  A    between atoms: C5_6  and  C6_7 
REMARK    5  A    between atoms: C7_8  and  C8_9 
REMARK    6  A    between atoms: C14_17  and  C15_18 
ROOT
HETATM    1  C8  UNL     1      -1.699   6.130  12.424  1.00  0.00     0.048 C 
HETATM    2  C9  UNL     1      -2.446   5.063  12.107  1.00  0.00     0.047 A 
HETATM    3  C10 UNL     1      -2.080   3.871  11.252  1.00  0.00     0.257 A 
HETATM    4  O1  UNL     1      -1.036   3.616  10.685  1.00  0.00    -0.267 OA
HETATM    5  N2  UNL     1      -3.217   3.073  11.253  1.00  0.00    -0.322 N 
HETATM    6  C11 UNL     1      -4.234   3.630  12.018  1.00  0.00     0.046 A 
HETATM    7  C12 UNL     1      -5.486   3.101  12.238  1.00  0.00     0.031 A 
HETATM    8  C13 UNL     1      -6.359   3.835  13.049  1.00  0.00     0.014 A 
HETATM    9  C14 UNL     1      -5.980   5.074  13.623  1.00  0.00    -0.025 A 
HETATM   10  C21 UNL     1      -4.687   5.577  13.370  1.00  0.00     0.027 A 
HETATM   11  C22 UNL     1      -3.825   4.846  12.569  1.00  0.00     0.007 A 
HETATM   12  H14 UNL     1      -3.258   2.197  10.756  1.00  0.00     0.169 HD
ENDROOT
BRANCH   1  13
HETATM   13  C7  UNL     1      -0.391   6.346  11.933  1.00  0.00     0.040 A 
HETATM   14  C6  UNL     1       0.872   6.324  12.510  1.00  0.00    -0.023 A 
HETATM   15  C24 UNL     1       1.802   6.591  11.460  1.00  0.00    -0.027 A 
HETATM   16  C23 UNL     1       1.076   6.742  10.295  1.00  0.00     0.016 A 
HETATM   17  C25 UNL     1       3.291   6.688  11.487  1.00  0.00     0.041 C 
HETATM   18  N3  UNL     1      -0.249   6.602  10.590  1.00  0.00    -0.359 N 
HETATM   19  C28 UNL     1       1.625   7.057   8.950  1.00  0.00     0.057 C 
HETATM   20  H23 UNL     1      -1.008   6.697   9.930  1.00  0.00     0.166 HD
HETATM   21  C27 UNL     1       3.144   6.806   8.936  1.00  0.00     0.006 C 
HETATM   22  C26 UNL     1       3.832   7.348  10.202  1.00  0.00     0.005 C 
BRANCH  14  23
HETATM   23  C5  UNL     1       1.202   6.068  13.950  1.00  0.00     0.043 C 
BRANCH  23  24
HETATM   24  C4  UNL     1       1.250   7.340  14.804  1.00  0.00     0.035 C 
BRANCH  24  25
HETATM   25  C3  UNL     1       2.613   7.540  15.481  1.00  0.00     0.271 C 
BRANCH  25  26
HETATM   26  N1  UNL     1       3.628   8.103  14.566  1.00  0.00     0.080 N 
HETATM   27  C1  UNL     1       3.418   9.534  14.335  1.00  0.00     0.309 C 
HETATM   28  C2  UNL     1       4.967   7.887  15.120  1.00  0.00     0.309 C 
ENDBRANCH  25  26
ENDBRANCH  24  25
ENDBRANCH  23  24
ENDBRANCH  14  23
ENDBRANCH   1  13
BRANCH   9  29
HETATM   29  C15 UNL     1      -6.922   5.826  14.469  1.00  0.00    -0.026 A 
HETATM   30  C16 UNL     1      -6.599   6.154  15.796  1.00  0.00     0.012 A 
HETATM   31  C17 UNL     1      -7.493   6.867  16.599  1.00  0.00     0.001 A 
HETATM   32  C18 UNL     1      -8.727   7.262  16.089  1.00  0.00     0.000 A 
HETATM   33  C19 UNL     1      -9.066   6.946  14.776  1.00  0.00     0.001 A 
HETATM   34  C20 UNL     1      -8.171   6.234  13.973  1.00  0.00     0.012 A 
ENDBRANCH   9  29
TORSDOF 6
ENDMDL
MODEL 5
REMARK minimizedAffinity -7.21418333
REMARK CNNscore 0.175778195
REMARK CNNaffinity 6.06410027
REMARK  6 active torsions:
REMARK  status: ('A' for Active; 'I' for Inactive)
REMARK    1  A    between atoms: N1_2  and  C3_4 
REMARK    2  A    between atoms: C3_4  and  C4_5 
REMARK    3  A    between atoms: C4_5  and  C5_6 
REMARK    4  A    between atoms: C5_6  and  C6_7 
REMARK    5  A    between atoms: C7_8  and  C8_9 
REMARK    6  A    between atoms: C14_17  and  C15_18 
ROOT
HETATM    1  C8  UNL     1       1.445   9.139  15.758  1.00  0.00     0.048 C 
HETATM    2  C9  UNL     1       0.679  10.069  16.346  1.00  0.00     0.047 A 
HETATM    3  C10 UNL     1      -0.502  10.821  15.777  1.00  0.00     0.257 A 
HETATM    4  O1  UNL     1      -1.018  10.738  14.681  1.00  0.00    -0.267 OA
HETATM    5  N2  UNL     1      -0.918  11.656  16.806  1.00  0.00    -0.322 N 
HETATM    6  C11 UNL     1      -0.138  11.495  17.944  1.00  0.00     0.046 A 
HETATM    7  C12 UNL     1      -0.280  12.159  19.143  1.00  0.00     0.031 A 
HETATM    8  C13 UNL     1       0.622  11.838  20.164  1.00  0.00     0.014 A 
HETATM    9  C14 UNL     1       1.644  10.873  19.980  1.00  0.00    -0.025 A 
HETATM   10  C21 UNL     1       1.751  10.219  18.736  1.00  0.00     0.027 A 
HETATM   11  C22 UNL     1       0.854  10.537  17.729  1.00  0.00     0.007 A 
HETATM   12  H14 UNL     1      -1.702  12.282  16.706  1.00  0.00     0.169 HD
ENDROOT
BRANCH   1  13
HETATM   13  C7  UNL     1       1.292   8.733  14.412  1.00  0.00     0.040 A 
HETATM   14  C6  UNL     1       1.916   9.082  13.222  1.00  0.00    -0.023 A 
HETATM   15  C24 UNL     1       1.324   8.276  12.203  1.00  0.00    -0.027 A 
HETATM   16  C23 UNL     1       0.389   7.464  12.811  1.00  0.00     0.016 A 
HETATM   17  C25 UNL     1       1.597   8.215  10.736  1.00  0.00     0.041 C 
HETATM   18  N3  UNL     1       0.367   7.752  14.145  1.00  0.00    -0.359 N 
HETATM   19  C28 UNL     1      -0.493   6.475  12.135  1.00  0.00     0.057 C 
HETATM   20  H23 UNL     1      -0.249   7.328  14.824  1.00  0.00     0.166 HD
HETATM   21  C27 UNL     1       0.042   6.185  10.720  1.00  0.00     0.006 C 
HETATM   22  C26 UNL     1       0.473   7.470   9.989  1.00  0.00     0.005 C 
BRANCH  14  23
HETATM   23  C5  UNL     1       3.001  10.100  13.037  1.00  0.00     0.043 C 
BRANCH  23  24
HETATM   24  C4  UNL     1       4.240   9.554  12.317  1.00  0.00     0.035 C 
BRANCH  24  25
HETATM   25  C3  UNL     1       4.834   8.327  13.023  1.00  0.00     0.271 C 
BRANCH  25  26
HETATM   26  N1  UNL     1       5.150   7.228  12.088  1.00  0.00     0.080 N 
HETATM   27  C1  UNL     1       5.235   7.700  10.704  1.00  0.00     0.309 C 
HETATM   28  C2  UNL     1       6.418   6.601  12.471  1.00  0.00     0.309 C 
ENDBRANCH  25  26
ENDBRANCH  24  25
ENDBRANCH  23  24
ENDBRANCH  14  23
ENDBRANCH   1  13
BRANCH   9  29
HETATM   29  C15 UNL     1       2.581  10.560  21.073  1.00  0.00    -0.026 A 
HETATM   30  C16 UNL     1       3.658  11.412  21.368  1.00  0.00     0.012 A 
HETATM   31  C17 UNL     1       4.547  11.116  22.405  1.00  0.00     0.001 A 
HETATM   32  C18 UNL     1       4.375   9.959  23.162  1.00  0.00     0.000 A 
HETATM   33  C19 UNL     1       3.314   9.101  22.884  1.00  0.00     0.001 A 
HETATM   34  C20 UNL     1       2.425   9.399  21.849  1.00  0.00     0.012 A 
ENDBRANCH   9  29
TORSDOF 6
ENDMDL
MODEL 6
REMARK minimizedAffinity -8.73860931
REMARK CNNscore 0.164534643
REMARK CNNaffinity 6.81317902
REMARK  6 active torsions:
REMARK  status: ('A' for Active; 'I' for Inactive)
REMARK    1  A    between atoms: N1_2  and  C3_4 
REMARK    2  A    between atoms: C3_4  and  C4_5 
REMARK    3  A    between atoms: C4_5  and  C5_6 
REMARK    4  A    between atoms: C5_6  and  C6_7 
REMARK    5  A    between atoms: C7_8  and  C8_9 
REMARK    6  A    between atoms: C14_17  and  C15_18 
ROOT
HETATM    1  C8  UNL     1      -2.741   6.058  13.010  1.00  0.00     0.048 C 
HETATM    2  C9  UNL     1      -3.395   4.934  12.683  1.00  0.00     0.047 A 
HETATM    3  C10 UNL     1      -2.844   3.657  12.091  1.00  0.00     0.257 A 
HETATM    4  O1  UNL     1      -1.700   3.367  11.802  1.00  0.00    -0.267 OA
HETATM    5  N2  UNL     1      -3.949   2.826  11.952  1.00  0.00    -0.322 N 
HETATM    6  C11 UNL     1      -5.112   3.441  12.401  1.00  0.00     0.046 A 
HETATM    7  C12 UNL     1      -6.379   2.901  12.413  1.00  0.00     0.031 A 
HETATM    8  C13 UNL     1      -7.412   3.701  12.913  1.00  0.00     0.014 A 
HETATM    9  C14 UNL     1      -7.174   5.016  13.387  1.00  0.00    -0.025 A 
HETATM   10  C21 UNL     1      -5.860   5.527  13.355  1.00  0.00     0.027 A 
HETATM   11  C22 UNL     1      -4.840   4.730  12.862  1.00  0.00     0.007 A 
HETATM   12  H14 UNL     1      -3.875   1.893  11.578  1.00  0.00     0.169 HD
ENDROOT
BRANCH   1  13
HETATM   13  C7  UNL     1      -1.359   6.255  12.789  1.00  0.00     0.040 A 
HETATM   14  C6  UNL     1      -0.283   6.560  13.613  1.00  0.00    -0.023 A 
HETATM   15  C24 UNL     1       0.873   6.585  12.776  1.00  0.00    -0.027 A 
HETATM   16  C23 UNL     1       0.462   6.276  11.496  1.00  0.00     0.016 A 
HETATM   17  C25 UNL     1       2.303   6.854  13.110  1.00  0.00     0.041 C 
HETATM   18  N3  UNL     1      -0.889   6.087  11.508  1.00  0.00    -0.359 N 
HETATM   19  C28 UNL     1       1.324   6.210  10.286  1.00  0.00     0.057 C 
HETATM   20  H23 UNL     1      -1.458   5.881  10.699  1.00  0.00     0.166 HD
HETATM   21  C27 UNL     1       2.804   6.142  10.705  1.00  0.00     0.006 C 
HETATM   22  C26 UNL     1       3.131   7.131  11.839  1.00  0.00     0.005 C 
BRANCH  14  23
HETATM   23  C5  UNL     1      -0.322   6.812  15.090  1.00  0.00     0.043 C 
BRANCH  23  24
HETATM   24  C4  UNL     1      -1.246   7.967  15.492  1.00  0.00     0.035 C 
BRANCH  24  25
HETATM   25  C3  UNL     1      -0.534   9.010  16.367  1.00  0.00     0.271 C 
BRANCH  25  26
HETATM   26  N1  UNL     1      -1.475   9.936  17.030  1.00  0.00     0.080 N 
HETATM   27  C1  UNL     1      -1.087  11.335  16.837  1.00  0.00     0.309 C 
HETATM   28  C2  UNL     1      -2.828   9.726  16.507  1.00  0.00     0.309 C 
ENDBRANCH  25  26
ENDBRANCH  24  25
ENDBRANCH  23  24
ENDBRANCH  14  23
ENDBRANCH   1  13
BRANCH   9  29
HETATM   29  C15 UNL     1      -8.283   5.836  13.904  1.00  0.00    -0.026 A 
HETATM   30  C16 UNL     1      -9.389   6.148  13.096  1.00  0.00     0.012 A 
HETATM   31  C17 UNL     1     -10.442   6.925  13.586  1.00  0.00     0.001 A 
HETATM   32  C18 UNL     1     -10.404   7.407  14.892  1.00  0.00     0.000 A 
HETATM   33  C19 UNL     1      -9.316   7.109  15.709  1.00  0.00     0.001 A 
HETATM   34  C20 UNL     1      -8.265   6.330  15.219  1.00  0.00     0.012 A 
ENDBRANCH   9  29
TORSDOF 6
ENDMDL
MODEL 7
REMARK minimizedAffinity -7.4012351
REMARK CNNscore 0.10871499
REMARK CNNaffinity 5.48293638
REMARK  6 active torsions:
REMARK  status: ('A' for Active; 'I' for Inactive)
REMARK    1  A    between atoms: N1_2  and  C3_4 
REMARK    2  A    between atoms: C3_4  and  C4_5 
REMARK    3  A    between atoms: C4_5  and  C5_6 
REMARK    4  A    between atoms: C5_6  and  C6_7 
REMARK    5  A    between atoms: C7_8  and  C8_9 
REMARK    6  A    between atoms: C14_17  and  C15_18 
ROOT
HETATM    1  C8  UNL     1      -8.849   8.528  15.600  1.00  0.00     0.048 C 
HETATM    2  C9  UNL     1      -9.188   7.496  14.815  1.00  0.00     0.047 A 
HETATM    3  C10 UNL     1     -10.567   6.982  14.469  1.00  0.00     0.257 A 
HETATM    4  O1  UNL     1     -11.657   7.398  14.810  1.00  0.00    -0.267 OA
HETATM    5  N2  UNL     1     -10.341   5.900  13.628  1.00  0.00    -0.322 N 
HETATM    6  C11 UNL     1      -8.985   5.697  13.409  1.00  0.00     0.046 A 
HETATM    7  C12 UNL     1      -8.413   4.720  12.624  1.00  0.00     0.031 A 
HETATM    8  C13 UNL     1      -7.016   4.699  12.542  1.00  0.00     0.014 A 
HETATM    9  C14 UNL     1      -6.214   5.639  13.237  1.00  0.00    -0.025 A 
HETATM   10  C21 UNL     1      -6.844   6.622  14.028  1.00  0.00     0.027 A 
HETATM   11  C22 UNL     1      -8.227   6.640  14.104  1.00  0.00     0.007 A 
HETATM   12  H14 UNL     1     -11.096   5.359  13.236  1.00  0.00     0.169 HD
ENDROOT
BRANCH   1  13
HETATM   13  C7  UNL     1      -9.785   9.312  16.313  1.00  0.00     0.040 A 
HETATM   14  C6  UNL     1     -10.350  10.564  16.109  1.00  0.00    -0.023 A 
HETATM   15  C24 UNL     1     -11.265  10.776  17.184  1.00  0.00    -0.027 A 
HETATM   16  C23 UNL     1     -11.235   9.648  17.979  1.00  0.00     0.016 A 
HETATM   17  C25 UNL     1     -12.155  11.937  17.484  1.00  0.00     0.041 C 
HETATM   18  N3  UNL     1     -10.331   8.771  17.453  1.00  0.00    -0.359 N 
HETATM   19  C28 UNL     1     -12.009   9.431  19.230  1.00  0.00     0.057 C 
HETATM   20  H23 UNL     1     -10.084   7.876  17.851  1.00  0.00     0.166 HD
HETATM   21  C27 UNL     1     -13.149  10.461  19.321  1.00  0.00     0.006 C 
HETATM   22  C26 UNL     1     -12.684  11.876  18.931  1.00  0.00     0.005 C 
BRANCH  14  23
HETATM   23  C5  UNL     1     -10.064  11.510  14.981  1.00  0.00     0.043 C 
BRANCH  23  24
HETATM   24  C4  UNL     1      -9.284  12.758  15.410  1.00  0.00     0.035 C 
BRANCH  24  25
HETATM   25  C3  UNL     1      -9.431  13.913  14.410  1.00  0.00     0.271 C 
BRANCH  25  26
HETATM   26  N1  UNL     1      -8.258  14.812  14.399  1.00  0.00     0.080 N 
HETATM   27  C1  UNL     1      -8.647  16.211  14.206  1.00  0.00     0.309 C 
HETATM   28  C2  UNL     1      -7.520  14.677  15.658  1.00  0.00     0.309 C 
ENDBRANCH  25  26
ENDBRANCH  24  25
ENDBRANCH  23  24
ENDBRANCH  14  23
ENDBRANCH   1  13
BRANCH   9  29
HETATM   29  C15 UNL     1      -4.746   5.589  13.134  1.00  0.00    -0.026 A 
HETATM   30  C16 UNL     1      -3.968   6.744  13.319  1.00  0.00     0.012 A 
HETATM   31  C17 UNL     1      -2.575   6.697  13.223  1.00  0.00     0.001 A 
HETATM   32  C18 UNL     1      -1.936   5.493  12.936  1.00  0.00     0.000 A 
HETATM   33  C19 UNL     1      -2.689   4.337  12.748  1.00  0.00     0.001 A 
HETATM   34  C20 UNL     1      -4.082   4.385  12.847  1.00  0.00     0.012 A 
ENDBRANCH   9  29
TORSDOF 6
ENDMDL
MODEL 8
REMARK minimizedAffinity -8.17060852
REMARK CNNscore 0.102795064
REMARK CNNaffinity 5.75432205
REMARK  6 active torsions:
REMARK  status: ('A' for Active; 'I' for Inactive)
REMARK    1  A    between atoms: N1_2  and  C3_4 
REMARK    2  A    between atoms: C3_4  and  C4_5 
REMARK    3  A    between atoms: C4_5  and  C5_6 
REMARK    4  A    between atoms: C5_6  and  C6_7 
REMARK    5  A    between atoms: C7_8  and  C8_9 
REMARK    6  A    between atoms: C14_17  and  C15_18 
ROOT
HETATM    1  C8  UNL     1     -10.199   7.265  14.564  1.00  0.00     0.048 C 
HETATM    2  C9  UNL     1      -8.923   7.670  14.618  1.00  0.00     0.047 A 
HETATM    3  C10 UNL     1      -8.363   8.968  15.153  1.00  0.00     0.257 A 
HETATM    4  O1  UNL     1      -8.939   9.910  15.660  1.00  0.00    -0.267 OA
HETATM    5  N2  UNL     1      -6.991   8.866  14.963  1.00  0.00    -0.322 N 
HETATM    6  C11 UNL     1      -6.642   7.652  14.384  1.00  0.00     0.046 A 
HETATM    7  C12 UNL     1      -5.372   7.224  14.066  1.00  0.00     0.031 A 
HETATM    8  C13 UNL     1      -5.249   5.956  13.487  1.00  0.00     0.014 A 
HETATM    9  C14 UNL     1      -6.380   5.140  13.232  1.00  0.00    -0.025 A 
HETATM   10  C21 UNL     1      -7.661   5.620  13.575  1.00  0.00     0.027 A 
HETATM   11  C22 UNL     1      -7.777   6.875  14.151  1.00  0.00     0.007 A 
HETATM   12  H14 UNL     1      -6.355   9.600  15.235  1.00  0.00     0.169 HD
ENDROOT
BRANCH   1  13
HETATM   13  C7  UNL     1     -11.293   8.061  14.975  1.00  0.00     0.040 A 
HETATM   14  C6  UNL     1     -12.453   8.503  14.352  1.00  0.00    -0.023 A 
HETATM   15  C24 UNL     1     -13.178   9.250  15.330  1.00  0.00    -0.027 A 
HETATM   16  C23 UNL     1     -12.448   9.214  16.501  1.00  0.00     0.016 A 
HETATM   17  C25 UNL     1     -14.490   9.956  15.231  1.00  0.00     0.041 C 
HETATM   18  N3  UNL     1     -11.306   8.502  16.277  1.00  0.00    -0.359 N 
HETATM   19  C28 UNL     1     -12.806   9.878  17.782  1.00  0.00     0.057 C 
HETATM   20  H23 UNL     1     -10.573   8.345  16.955  1.00  0.00     0.166 HD
HETATM   21  C27 UNL     1     -14.289  10.287  17.759  1.00  0.00     0.006 C 
HETATM   22  C26 UNL     1     -14.696  10.921  16.416  1.00  0.00     0.005 C 
BRANCH  14  23
HETATM   23  C5  UNL     1     -12.869   8.248  12.935  1.00  0.00     0.043 C 
BRANCH  23  24
HETATM   24  C4  UNL     1     -13.745   7.002  12.767  1.00  0.00     0.035 C 
BRANCH  24  25
HETATM   25  C3  UNL     1     -15.225   7.350  12.555  1.00  0.00     0.271 C 
BRANCH  25  26
HETATM   26  N1  UNL     1     -16.117   6.648  13.501  1.00  0.00     0.080 N 
HETATM   27  C1  UNL     1     -17.096   5.810  12.804  1.00  0.00     0.309 C 
HETATM   28  C2  UNL     1     -15.320   5.819  14.409  1.00  0.00     0.309 C 
ENDBRANCH  25  26
ENDBRANCH  24  25
ENDBRANCH  23  24
ENDBRANCH  14  23
ENDBRANCH   1  13
BRANCH   9  29
HETATM   29  C15 UNL     1      -6.220   3.811  12.618  1.00  0.00    -0.026 A 
HETATM   30  C16 UNL     1      -7.199   2.817  12.778  1.00  0.00     0.012 A 
HETATM   31  C17 UNL     1      -7.047   1.556  12.195  1.00  0.00     0.001 A 
HETATM   32  C18 UNL     1      -5.911   1.268  11.443  1.00  0.00     0.000 A 
HETATM   33  C19 UNL     1      -4.928   2.240  11.273  1.00  0.00     0.001 A 
HETATM   34  C20 UNL     1      -5.082   3.500  11.855  1.00  0.00     0.012 A 
ENDBRANCH   9  29
TORSDOF 6
ENDMDL
MODEL 9
REMARK minimizedAffinity -7.81255579
REMARK CNNscore 0.0945442021
REMARK CNNaffinity 5.61194563
REMARK  6 active torsions:
REMARK  status: ('A' for Active; 'I' for Inactive)
REMARK    1  A    between atoms: N1_2  and  C3_4 
REMARK    2  A    between atoms: C3_4  and  C4_5 
REMARK    3  A    between atoms: C4_5  and  C5_6 
REMARK    4  A    between atoms: C5_6  and  C6_7 
REMARK    5  A    between atoms: C7_8  and  C8_9 
REMARK    6  A    between atoms: C14_17  and  C15_18 
ROOT
HETATM    1  C8  UNL     1     -10.386   6.521  13.658  1.00  0.00     0.048 C 
HETATM    2  C9  UNL     1      -9.493   7.151  14.434  1.00  0.00     0.047 A 
HETATM    3  C10 UNL     1      -9.734   8.199  15.496  1.00  0.00     0.257 A 
HETATM    4  O1  UNL     1     -10.779   8.681  15.886  1.00  0.00    -0.267 OA
HETATM    5  N2  UNL     1      -8.470   8.508  15.981  1.00  0.00    -0.322 N 
HETATM    6  C11 UNL     1      -7.482   7.764  15.348  1.00  0.00     0.046 A 
HETATM    7  C12 UNL     1      -6.126   7.815  15.590  1.00  0.00     0.031 A 
HETATM    8  C13 UNL     1      -5.307   6.971  14.833  1.00  0.00     0.014 A 
HETATM    9  C14 UNL     1      -5.841   6.097  13.852  1.00  0.00    -0.025 A 
HETATM   10  C21 UNL     1      -7.235   6.078  13.639  1.00  0.00     0.027 A 
HETATM   11  C22 UNL     1      -8.042   6.914  14.394  1.00  0.00     0.007 A 
HETATM   12  H14 UNL     1      -8.327   9.188  16.712  1.00  0.00     0.169 HD
ENDROOT
BRANCH   1  13
HETATM   13  C7  UNL     1     -11.773   6.794  13.677  1.00  0.00     0.040 A 
HETATM   14  C6  UNL     1     -12.564   7.808  13.152  1.00  0.00    -0.023 A 
HETATM   15  C24 UNL     1     -13.913   7.485  13.491  1.00  0.00    -0.027 A 
HETATM   16  C23 UNL     1     -13.890   6.291  14.182  1.00  0.00     0.016 A 
HETATM   17  C25 UNL     1     -15.185   8.206  13.191  1.00  0.00     0.041 C 
HETATM   18  N3  UNL     1     -12.593   5.883  14.300  1.00  0.00    -0.359 N 
HETATM   19  C28 UNL     1     -15.065   5.582  14.755  1.00  0.00     0.057 C 
HETATM   20  H23 UNL     1     -12.282   5.056  14.789  1.00  0.00     0.166 HD
HETATM   21  C27 UNL     1     -16.360   6.144  14.143  1.00  0.00     0.006 C 
HETATM   22  C26 UNL     1     -16.344   7.681  14.062  1.00  0.00     0.005 C 
BRANCH  14  23
HETATM   23  C5  UNL     1     -12.100   9.005  12.379  1.00  0.00     0.043 C 
BRANCH  23  24
HETATM   24  C4  UNL     1     -12.921  10.270  12.654  1.00  0.00     0.035 C 
BRANCH  24  25
HETATM   25  C3  UNL     1     -12.526  10.950  13.973  1.00  0.00     0.271 C 
BRANCH  25  26
HETATM   26  N1  UNL     1     -13.384  12.108  14.298  1.00  0.00     0.080 N 
HETATM   27  C1  UNL     1     -12.660  13.374  14.169  1.00  0.00     0.309 C 
HETATM   28  C2  UNL     1     -14.554  12.119  13.415  1.00  0.00     0.309 C 
ENDBRANCH  25  26
ENDBRANCH  24  25
ENDBRANCH  23  24
ENDBRANCH  14  23
ENDBRANCH   1  13
BRANCH   9  29
HETATM   29  C15 UNL     1      -4.952   5.223  13.068  1.00  0.00    -0.026 A 
HETATM   30  C16 UNL     1      -5.453   4.089  12.407  1.00  0.00     0.012 A 
HETATM   31  C17 UNL     1      -4.611   3.260  11.662  1.00  0.00     0.001 A 
HETATM   32  C18 UNL     1      -3.252   3.549  11.568  1.00  0.00     0.000 A 
HETATM   33  C19 UNL     1      -2.736   4.669  12.216  1.00  0.00     0.001 A 
HETATM   34  C20 UNL     1      -3.579   5.498  12.959  1.00  0.00     0.012 A 
ENDBRANCH   9  29
TORSDOF 6
ENDMDL
