MODEL 1
REMARK minimizedAffinity -8.38520718
REMARK  8 active torsions:
REMARK  status: ('A' for Active; 'I' for Inactive)
REMARK    1  A    between atoms: O1_2  and  C2_3 
REMARK    2  A    between atoms: C5_6  and  N1_7 
REMARK    3  A    between atoms: N1_7  and  C6_8 
REMARK    4  A    between atoms: C16_24  and  O4_25 
REMARK    5  A    between atoms: O4_25  and  C17_26 
REMARK    6  A    between atoms: C17_26  and  C18_27 
REMARK    7  A    between atoms: C18_27  and  C19_28 
REMARK    8  A    between atoms: C19_28  and  N4_29 
ROOT
HETATM    1  C2  UNL     1      -1.588  50.287 -21.374  1.00  0.00     0.102 A 
HETATM    2  C3  UNL     1      -1.056  51.019 -20.310  1.00  0.00     0.057 A 
HETATM    3  C4  UNL     1      -0.179  52.112 -20.539  1.00  0.00     0.038 A 
HETATM    4  C5  UNL     1       0.411  52.903 -19.531  1.00  0.00     0.119 A 
HETATM    5  N2  UNL     1       1.202  53.951 -19.821  1.00  0.00    -0.338 N 
ATOM      6  H2  UNL     1       1.611  54.531 -19.088  1.00  0.00     0.168 HD
HETATM    7  C13 UNL     1       1.425  54.198 -21.113  1.00  0.00     0.182 A 
HETATM    8  N3  UNL     1       0.940  53.501 -22.145  1.00  0.00    -0.351 N 
ATOM      9  H3  UNL     1       1.168  53.744 -23.110  1.00  0.00     0.166 HD
HETATM   10  C14 UNL     1       0.141  52.472 -21.853  1.00  0.00     0.050 A 
HETATM   11  C15 UNL     1      -0.389  51.730 -22.902  1.00  0.00     0.070 A 
HETATM   12  C16 UNL     1      -1.243  50.643 -22.687  1.00  0.00     0.104 A 
ENDROOT
BRANCH   4  13
HETATM   13  N1  UNL     1       0.181  52.559 -18.170  1.00  0.00    -0.342 N 
HETATM   14  H5  UNL     1      -0.654  51.983 -18.122  1.00  0.00     0.167 HD
BRANCH  13  15
HETATM   15  C6  UNL     1       1.129  52.168 -17.194  1.00  0.00     0.036 A 
HETATM   16  C7  UNL     1       2.388  52.795 -17.071  1.00  0.00     0.032 A 
HETATM   17  C8  UNL     1       3.288  52.444 -16.056  1.00  0.00     0.042 A 
HETATM   18  C9  UNL     1       2.894  51.479 -15.159  1.00  0.00     0.105 A 
HETATM   19  C10 UNL     1       1.661  50.883 -15.243  1.00  0.00     0.107 A 
HETATM   20  O3  UNL     1       3.626  51.017 -14.112  1.00  0.00    -0.323 OA
HETATM   21  C11 UNL     1       0.757  51.212 -16.233  1.00  0.00     0.069 A 
HETATM   22  O2  UNL     1       1.458  49.969 -14.255  1.00  0.00    -0.323 OA
HETATM   23  C12 UNL     1       2.712  50.054 -13.547  1.00  0.00     0.352 A 
ENDBRANCH  13  15
ENDBRANCH   4  13
BRANCH   1  24
HETATM   24  O1  UNL     1      -2.436  49.218 -21.236  1.00  0.00    -0.353 OA
HETATM   25  C1  UNL     1      -1.907  48.021 -20.683  1.00  0.00     0.210 C 
ENDBRANCH   1  24
BRANCH  12  26
HETATM   26  O4  UNL     1      -1.791  49.875 -23.682  1.00  0.00    -0.348 OA
BRANCH  26  27
HETATM   27  C17 UNL     1      -2.403  50.542 -24.786  1.00  0.00     0.177 C 
BRANCH  27  28
HETATM   28  C18 UNL     1      -1.873  49.926 -26.081  1.00  0.00     0.057 C 
BRANCH  28  29
HETATM   29  C19 UNL     1      -1.834  50.925 -27.247  1.00  0.00     0.274 C 
BRANCH  29  30
HETATM   30  N4  UNL     1      -0.493  51.484 -27.471  1.00  0.00     0.092 N 
HETATM   31  C20 UNL     1       0.497  50.827 -26.590  1.00  0.00     0.298 C 
HETATM   32  C21 UNL     1       1.775  51.668 -26.453  1.00  0.00     0.198 C 
HETATM   33  O5  UNL     1       1.543  52.932 -25.816  1.00  0.00    -0.388 OA
HETATM   34  C22 UNL     1       0.203  53.412 -25.994  1.00  0.00     0.198 C 
HETATM   35  C23 UNL     1      -0.435  52.954 -27.316  1.00  0.00     0.298 C 
ENDBRANCH  29  30
ENDBRANCH  28  29
ENDBRANCH  27  28
ENDBRANCH  26  27
ENDBRANCH  12  26
TORSDOF 8
ENDMDL
MODEL 2
REMARK minimizedAffinity -8.37745667
REMARK  8 active torsions:
REMARK  status: ('A' for Active; 'I' for Inactive)
REMARK    1  A    between atoms: O1_2  and  C2_3 
REMARK    2  A    between atoms: C5_6  and  N1_7 
REMARK    3  A    between atoms: N1_7  and  C6_8 
REMARK    4  A    between atoms: C16_24  and  O4_25 
REMARK    5  A    between atoms: O4_25  and  C17_26 
REMARK    6  A    between atoms: C17_26  and  C18_27 
REMARK    7  A    between atoms: C18_27  and  C19_28 
REMARK    8  A    between atoms: C19_28  and  N4_29 
ROOT
HETATM    1  C2  UNL     1      -2.266  50.012 -26.321  1.00  0.00     0.102 A 
HETATM    2  C3  UNL     1      -1.269  50.712 -25.637  1.00  0.00     0.057 A 
HETATM    3  C4  UNL     1      -0.840  51.992 -26.076  1.00  0.00     0.038 A 
HETATM    4  C5  UNL     1       0.161  52.769 -25.457  1.00  0.00     0.119 A 
HETATM    5  N2  UNL     1       0.490  53.994 -25.903  1.00  0.00    -0.338 N 
ATOM      6  H2  UNL     1       1.202  54.559 -25.440  1.00  0.00     0.168 HD
HETATM    7  C13 UNL     1      -0.160  54.436 -26.982  1.00  0.00     0.182 A 
HETATM    8  N3  UNL     1      -1.104  53.777 -27.660  1.00  0.00    -0.351 N 
ATOM      9  H3  UNL     1      -1.547  54.177 -28.487  1.00  0.00     0.166 HD
HETATM   10  C14 UNL     1      -1.440  52.568 -27.202  1.00  0.00     0.050 A 
HETATM   11  C15 UNL     1      -2.424  51.857 -27.878  1.00  0.00     0.070 A 
HETATM   12  C16 UNL     1      -2.844  50.589 -27.461  1.00  0.00     0.104 A 
ENDROOT
BRANCH   4  13
HETATM   13  N1  UNL     1       0.858  52.223 -24.343  1.00  0.00    -0.342 N 
HETATM   14  H5  UNL     1       1.846  52.176 -24.575  1.00  0.00     0.167 HD
BRANCH  13  15
HETATM   15  C6  UNL     1       0.669  52.506 -22.969  1.00  0.00     0.036 A 
HETATM   16  C7  UNL     1       1.251  53.629 -22.342  1.00  0.00     0.032 A 
HETATM   17  C8  UNL     1       0.998  53.935 -20.998  1.00  0.00     0.042 A 
HETATM   18  C9  UNL     1       0.137  53.114 -20.308  1.00  0.00     0.105 A 
HETATM   19  C10 UNL     1      -0.465  52.037 -20.910  1.00  0.00     0.107 A 
HETATM   20  O3  UNL     1      -0.231  53.255 -19.008  1.00  0.00    -0.323 OA
HETATM   21  C11 UNL     1      -0.232  51.716 -22.233  1.00  0.00     0.069 A 
HETATM   22  O2  UNL     1      -1.291  51.363 -20.065  1.00  0.00    -0.323 OA
HETATM   23  C12 UNL     1      -1.131  52.137 -18.858  1.00  0.00     0.352 A 
ENDBRANCH  13  15
ENDBRANCH   4  13
BRANCH   1  24
HETATM   24  O1  UNL     1      -2.730  48.772 -25.963  1.00  0.00    -0.353 OA
HETATM   25  C1  UNL     1      -3.118  48.574 -24.612  1.00  0.00     0.210 C 
ENDBRANCH   1  24
BRANCH  12  26
HETATM   26  O4  UNL     1      -3.807  49.842 -28.091  1.00  0.00    -0.348 OA
BRANCH  26  27
HETATM   27  C17 UNL     1      -3.833  48.436 -27.847  1.00  0.00     0.177 C 
BRANCH  27  28
HETATM   28  C18 UNL     1      -5.179  47.885 -28.319  1.00  0.00     0.057 C 
BRANCH  28  29
HETATM   29  C19 UNL     1      -5.262  47.731 -29.845  1.00  0.00     0.274 C 
BRANCH  29  30
HETATM   30  N4  UNL     1      -6.630  47.479 -30.317  1.00  0.00     0.092 N 
HETATM   31  C20 UNL     1      -7.027  48.488 -31.322  1.00  0.00     0.298 C 
HETATM   32  C21 UNL     1      -8.553  48.546 -31.490  1.00  0.00     0.198 C 
HETATM   33  O5  UNL     1      -9.227  48.973 -30.299  1.00  0.00    -0.388 OA
HETATM   34  C22 UNL     1      -8.497  48.671 -29.102  1.00  0.00     0.198 C 
HETATM   35  C23 UNL     1      -7.626  47.410 -29.225  1.00  0.00     0.298 C 
ENDBRANCH  29  30
ENDBRANCH  28  29
ENDBRANCH  27  28
ENDBRANCH  26  27
ENDBRANCH  12  26
TORSDOF 8
ENDMDL
MODEL 3
REMARK minimizedAffinity -8.36977386
REMARK  8 active torsions:
REMARK  status: ('A' for Active; 'I' for Inactive)
REMARK    1  A    between atoms: O1_2  and  C2_3 
REMARK    2  A    between atoms: C5_6  and  N1_7 
REMARK    3  A    between atoms: N1_7  and  C6_8 
REMARK    4  A    between atoms: C16_24  and  O4_25 
REMARK    5  A    between atoms: O4_25  and  C17_26 
REMARK    6  A    between atoms: C17_26  and  C18_27 
REMARK    7  A    between atoms: C18_27  and  C19_28 
REMARK    8  A    between atoms: C19_28  and  N4_29 
ROOT
HETATM    1  C2  UNL     1       5.777  65.975 -36.017  1.00  0.00     0.102 A 
HETATM    2  C3  UNL     1       6.285  64.698 -35.773  1.00  0.00     0.057 A 
HETATM    3  C4  UNL     1       5.540  63.742 -35.033  1.00  0.00     0.038 A 
HETATM    4  C5  UNL     1       5.972  62.434 -34.732  1.00  0.00     0.119 A 
HETATM    5  N2  UNL     1       5.196  61.565 -34.060  1.00  0.00    -0.338 N 
ATOM      6  H2  UNL     1       5.506  60.614 -33.860  1.00  0.00     0.168 HD
HETATM    7  C13 UNL     1       4.000  62.007 -33.665  1.00  0.00     0.182 A 
HETATM    8  N3  UNL     1       3.501  63.229 -33.874  1.00  0.00    -0.351 N 
ATOM      9  H3  UNL     1       2.580  63.497 -33.528  1.00  0.00     0.166 HD
HETATM   10  C14 UNL     1       4.268  64.082 -34.558  1.00  0.00     0.050 A 
HETATM   11  C15 UNL     1       3.779  65.360 -34.800  1.00  0.00     0.070 A 
HETATM   12  C16 UNL     1       4.510  66.313 -35.517  1.00  0.00     0.104 A 
ENDROOT
BRANCH   4  13
HETATM   13  N1  UNL     1       7.278  62.037 -35.130  1.00  0.00    -0.342 N 
HETATM   14  H5  UNL     1       7.385  62.233 -36.120  1.00  0.00     0.167 HD
BRANCH  13  15
HETATM   15  C6  UNL     1       8.499  62.224 -34.437  1.00  0.00     0.036 A 
HETATM   16  C7  UNL     1       9.470  63.158 -34.859  1.00  0.00     0.032 A 
HETATM   17  C8  UNL     1      10.642  63.383 -34.125  1.00  0.00     0.042 A 
HETATM   18  C9  UNL     1      10.807  62.679 -32.955  1.00  0.00     0.105 A 
HETATM   19  C10 UNL     1       9.858  61.792 -32.511  1.00  0.00     0.107 A 
HETATM   20  O3  UNL     1      11.870  62.768 -32.113  1.00  0.00    -0.323 OA
HETATM   21  C11 UNL     1       8.695  61.554 -33.217  1.00  0.00     0.069 A 
HETATM   22  O2  UNL     1      10.201  61.212 -31.330  1.00  0.00    -0.323 OA
HETATM   23  C12 UNL     1      11.482  61.830 -31.087  1.00  0.00     0.352 A 
ENDBRANCH  13  15
ENDBRANCH   4  13
BRANCH   1  24
HETATM   24  O1  UNL     1       6.435  66.954 -36.717  1.00  0.00    -0.353 OA
HETATM   25  C1  UNL     1       6.775  66.686 -38.070  1.00  0.00     0.210 C 
ENDBRANCH   1  24
BRANCH  12  26
HETATM   26  O4  UNL     1       4.078  67.587 -35.781  1.00  0.00    -0.348 OA
BRANCH  26  27
HETATM   27  C17 UNL     1       2.713  67.770 -36.155  1.00  0.00     0.177 C 
BRANCH  27  28
HETATM   28  C18 UNL     1       2.618  67.749 -37.681  1.00  0.00     0.057 C 
BRANCH  28  29
HETATM   29  C19 UNL     1       1.308  67.131 -38.191  1.00  0.00     0.274 C 
BRANCH  29  30
HETATM   30  N4  UNL     1       0.777  67.823 -39.374  1.00  0.00     0.092 N 
HETATM   31  C20 UNL     1       0.150  66.859 -40.302  1.00  0.00     0.298 C 
HETATM   32  C21 UNL     1       0.007  67.446 -41.714  1.00  0.00     0.198 C 
HETATM   33  O5  UNL     1       1.271  67.732 -42.328  1.00  0.00    -0.388 OA
HETATM   34  C22 UNL     1       2.307  68.005 -41.376  1.00  0.00     0.198 C 
HETATM   35  C23 UNL     1       1.786  68.644 -40.078  1.00  0.00     0.298 C 
ENDBRANCH  29  30
ENDBRANCH  28  29
ENDBRANCH  27  28
ENDBRANCH  26  27
ENDBRANCH  12  26
TORSDOF 8
ENDMDL
MODEL 4
REMARK minimizedAffinity -8.36346054
REMARK  8 active torsions:
REMARK  status: ('A' for Active; 'I' for Inactive)
REMARK    1  A    between atoms: O1_2  and  C2_3 
REMARK    2  A    between atoms: C5_6  and  N1_7 
REMARK    3  A    between atoms: N1_7  and  C6_8 
REMARK    4  A    between atoms: C16_24  and  O4_25 
REMARK    5  A    between atoms: O4_25  and  C17_26 
REMARK    6  A    between atoms: C17_26  and  C18_27 
REMARK    7  A    between atoms: C18_27  and  C19_28 
REMARK    8  A    between atoms: C19_28  and  N4_29 
ROOT
HETATM    1  C2  UNL     1      -0.357  51.548 -23.468  1.00  0.00     0.102 A 
HETATM    2  C3  UNL     1      -1.079  51.435 -24.658  1.00  0.00     0.057 A 
HETATM    3  C4  UNL     1      -0.931  52.390 -25.698  1.00  0.00     0.038 A 
HETATM    4  C5  UNL     1      -1.620  52.363 -26.928  1.00  0.00     0.119 A 
HETATM    5  N2  UNL     1      -1.400  53.280 -27.888  1.00  0.00    -0.338 N 
ATOM      6  H2  UNL     1      -1.888  53.244 -28.783  1.00  0.00     0.168 HD
HETATM    7  C13 UNL     1      -0.513  54.238 -27.613  1.00  0.00     0.182 A 
HETATM    8  N3  UNL     1       0.176  54.373 -26.476  1.00  0.00    -0.351 N 
ATOM      9  H3  UNL     1       0.830  55.144 -26.335  1.00  0.00     0.166 HD
HETATM   10  C14 UNL     1      -0.032  53.451 -25.533  1.00  0.00     0.050 A 
HETATM   11  C15 UNL     1       0.673  53.556 -24.341  1.00  0.00     0.070 A 
HETATM   12  C16 UNL     1       0.524  52.627 -23.304  1.00  0.00     0.104 A 
ENDROOT
BRANCH   4  13
HETATM   13  N1  UNL     1      -2.594  51.350 -27.144  1.00  0.00    -0.342 N 
HETATM   14  H5  UNL     1      -2.232  50.698 -27.833  1.00  0.00     0.167 HD
BRANCH  13  15
HETATM   15  C6  UNL     1      -3.393  50.685 -26.181  1.00  0.00     0.036 A 
HETATM   16  C7  UNL     1      -3.434  49.278 -26.077  1.00  0.00     0.032 A 
HETATM   17  C8  UNL     1      -4.174  48.636 -25.075  1.00  0.00     0.042 A 
HETATM   18  C9  UNL     1      -4.845  49.427 -24.172  1.00  0.00     0.105 A 
HETATM   19  C10 UNL     1      -4.789  50.797 -24.237  1.00  0.00     0.107 A 
HETATM   20  O3  UNL     1      -5.605  48.986 -23.135  1.00  0.00    -0.323 OA
HETATM   21  C11 UNL     1      -4.066  51.451 -25.215  1.00  0.00     0.069 A 
HETATM   22  O2  UNL     1      -5.505  51.394 -23.247  1.00  0.00    -0.323 OA
HETATM   23  C12 UNL     1      -6.027  50.238 -22.557  1.00  0.00     0.352 A 
ENDBRANCH  13  15
ENDBRANCH   4  13
BRANCH   1  24
HETATM   24  O1  UNL     1      -0.448  50.672 -22.417  1.00  0.00    -0.353 OA
HETATM   25  C1  UNL     1      -1.619  49.875 -22.318  1.00  0.00     0.210 C 
ENDBRANCH   1  24
BRANCH  12  26
HETATM   26  O4  UNL     1       1.191  52.684 -22.107  1.00  0.00    -0.348 OA
BRANCH  26  27
HETATM   27  C17 UNL     1       1.336  53.958 -21.478  1.00  0.00     0.177 C 
BRANCH  27  28
HETATM   28  C18 UNL     1       1.030  53.803 -19.988  1.00  0.00     0.057 C 
BRANCH  28  29
HETATM   29  C19 UNL     1      -0.201  52.926 -19.718  1.00  0.00     0.274 C 
BRANCH  29  30
HETATM   30  N4  UNL     1      -0.305  52.512 -18.311  1.00  0.00     0.092 N 
HETATM   31  C20 UNL     1       1.038  52.385 -17.707  1.00  0.00     0.298 C 
HETATM   32  C21 UNL     1       1.004  51.532 -16.430  1.00  0.00     0.198 C 
HETATM   33  O5  UNL     1       0.616  50.174 -16.679  1.00  0.00    -0.388 OA
HETATM   34  C22 UNL     1      -0.213  50.031 -17.840  1.00  0.00     0.198 C 
HETATM   35  C23 UNL     1      -1.083  51.268 -18.120  1.00  0.00     0.298 C 
ENDBRANCH  29  30
ENDBRANCH  28  29
ENDBRANCH  27  28
ENDBRANCH  26  27
ENDBRANCH  12  26
TORSDOF 8
ENDMDL
MODEL 5
REMARK minimizedAffinity -8.27129841
REMARK  8 active torsions:
REMARK  status: ('A' for Active; 'I' for Inactive)
REMARK    1  A    between atoms: O1_2  and  C2_3 
REMARK    2  A    between atoms: C5_6  and  N1_7 
REMARK    3  A    between atoms: N1_7  and  C6_8 
REMARK    4  A    between atoms: C16_24  and  O4_25 
REMARK    5  A    between atoms: O4_25  and  C17_26 
REMARK    6  A    between atoms: C17_26  and  C18_27 
REMARK    7  A    between atoms: C18_27  and  C19_28 
REMARK    8  A    between atoms: C19_28  and  N4_29 
ROOT
HETATM    1  C2  UNL     1      -0.418  50.064 -18.186  1.00  0.00     0.102 A 
HETATM    2  C3  UNL     1      -0.433  50.452 -19.527  1.00  0.00     0.057 A 
HETATM    3  C4  UNL     1       0.090  51.708 -19.932  1.00  0.00     0.038 A 
HETATM    4  C5  UNL     1       0.112  52.189 -21.258  1.00  0.00     0.119 A 
HETATM    5  N2  UNL     1       0.661  53.374 -21.576  1.00  0.00    -0.338 N 
ATOM      6  H2  UNL     1       0.691  53.708 -22.540  1.00  0.00     0.168 HD
HETATM    7  C13 UNL     1       1.165  54.094 -20.572  1.00  0.00     0.182 A 
HETATM    8  N3  UNL     1       1.175  53.748 -19.280  1.00  0.00    -0.351 N 
ATOM      9  H3  UNL     1       1.569  54.361 -18.565  1.00  0.00     0.166 HD
HETATM   10  C14 UNL     1       0.645  52.562 -18.971  1.00  0.00     0.050 A 
HETATM   11  C15 UNL     1       0.645  52.166 -17.640  1.00  0.00     0.070 A 
HETATM   12  C16 UNL     1       0.120  50.936 -17.229  1.00  0.00     0.104 A 
ENDROOT
BRANCH   4  13
HETATM   13  N1  UNL     1      -0.489  51.403 -22.279  1.00  0.00    -0.342 N 
HETATM   14  H5  UNL     1      -1.232  50.850 -21.863  1.00  0.00     0.167 HD
BRANCH  13  15
HETATM   15  C6  UNL     1      -0.820  51.790 -23.601  1.00  0.00     0.036 A 
HETATM   16  C7  UNL     1      -2.149  51.793 -24.076  1.00  0.00     0.032 A 
HETATM   17  C8  UNL     1      -2.469  52.246 -25.363  1.00  0.00     0.042 A 
HETATM   18  C9  UNL     1      -1.442  52.715 -26.148  1.00  0.00     0.105 A 
HETATM   19  C10 UNL     1      -0.148  52.752 -25.691  1.00  0.00     0.107 A 
HETATM   20  O3  UNL     1      -1.560  53.197 -27.413  1.00  0.00    -0.323 OA
HETATM   21  C11 UNL     1       0.191  52.312 -24.426  1.00  0.00     0.069 A 
HETATM   22  O2  UNL     1       0.714  53.264 -26.610  1.00  0.00    -0.323 OA
HETATM   23  C12 UNL     1      -0.188  53.536 -27.703  1.00  0.00     0.352 A 
ENDBRANCH  13  15
ENDBRANCH   4  13
BRANCH   1  24
HETATM   24  O1  UNL     1      -0.908  48.872 -17.716  1.00  0.00    -0.353 OA
HETATM   25  C1  UNL     1      -2.297  48.618 -17.870  1.00  0.00     0.210 C 
ENDBRANCH   1  24
BRANCH  12  26
HETATM   26  O4  UNL     1       0.091  50.498 -15.930  1.00  0.00    -0.348 OA
BRANCH  26  27
HETATM   27  C17 UNL     1       0.313  51.453 -14.892  1.00  0.00     0.177 C 
BRANCH  27  28
HETATM   28  C18 UNL     1      -0.912  51.474 -13.979  1.00  0.00     0.057 C 
BRANCH  28  29
HETATM   29  C19 UNL     1      -0.744  52.408 -12.772  1.00  0.00     0.274 C 
BRANCH  29  30
HETATM   30  N4  UNL     1      -1.763  52.188 -11.736  1.00  0.00     0.092 N 
HETATM   31  C20 UNL     1      -3.118  52.409 -12.286  1.00  0.00     0.298 C 
HETATM   32  C21 UNL     1      -4.148  52.643 -11.171  1.00  0.00     0.198 C 
HETATM   33  O5  UNL     1      -3.890  53.836 -10.418  1.00  0.00    -0.388 OA
HETATM   34  C22 UNL     1      -2.505  54.207 -10.412  1.00  0.00     0.198 C 
HETATM   35  C23 UNL     1      -1.554  53.004 -10.520  1.00  0.00     0.298 C 
ENDBRANCH  29  30
ENDBRANCH  28  29
ENDBRANCH  27  28
ENDBRANCH  26  27
ENDBRANCH  12  26
TORSDOF 8
ENDMDL
MODEL 6
REMARK minimizedAffinity -8.19270897
REMARK  8 active torsions:
REMARK  status: ('A' for Active; 'I' for Inactive)
REMARK    1  A    between atoms: O1_2  and  C2_3 
REMARK    2  A    between atoms: C5_6  and  N1_7 
REMARK    3  A    between atoms: N1_7  and  C6_8 
REMARK    4  A    between atoms: C16_24  and  O4_25 
REMARK    5  A    between atoms: O4_25  and  C17_26 
REMARK    6  A    between atoms: C17_26  and  C18_27 
REMARK    7  A    between atoms: C18_27  and  C19_28 
REMARK    8  A    between atoms: C19_28  and  N4_29 
ROOT
HETATM    1  C2  UNL     1      -3.007  51.190 -24.848  1.00  0.00     0.102 A 
HETATM    2  C3  UNL     1      -1.912  51.952 -24.435  1.00  0.00     0.057 A 
HETATM    3  C4  UNL     1      -0.640  51.798 -25.047  1.00  0.00     0.038 A 
HETATM    4  C5  UNL     1       0.522  52.515 -24.694  1.00  0.00     0.119 A 
HETATM    5  N2  UNL     1       1.687  52.347 -25.344  1.00  0.00    -0.338 N 
ATOM      6  H2  UNL     1       2.520  52.882 -25.096  1.00  0.00     0.168 HD
HETATM    7  C13 UNL     1       1.703  51.447 -26.329  1.00  0.00     0.182 A 
HETATM    8  N3  UNL     1       0.672  50.697 -26.729  1.00  0.00    -0.351 N 
ATOM      9  H3  UNL     1       0.766  50.017 -27.484  1.00  0.00     0.166 HD
HETATM   10  C14 UNL     1      -0.488  50.880 -26.092  1.00  0.00     0.050 A 
HETATM   11  C15 UNL     1      -1.584  50.122 -26.487  1.00  0.00     0.070 A 
HETATM   12  C16 UNL     1      -2.838  50.257 -25.882  1.00  0.00     0.104 A 
ENDROOT
BRANCH   4  13
HETATM   13  N1  UNL     1       0.460  53.422 -23.600  1.00  0.00    -0.342 N 
HETATM   14  H5  UNL     1      -0.296  54.078 -23.770  1.00  0.00     0.167 HD
BRANCH  13  15
HETATM   15  C6  UNL     1       0.588  53.136 -22.219  1.00  0.00     0.036 A 
HETATM   16  C7  UNL     1       1.154  54.055 -21.308  1.00  0.00     0.032 A 
HETATM   17  C8  UNL     1       1.210  53.788 -19.933  1.00  0.00     0.042 A 
HETATM   18  C9  UNL     1       0.669  52.603 -19.491  1.00  0.00     0.105 A 
HETATM   19  C10 UNL     1       0.085  51.713 -20.358  1.00  0.00     0.107 A 
HETATM   20  O3  UNL     1       0.627  52.177 -18.202  1.00  0.00    -0.323 OA
HETATM   21  C11 UNL     1       0.017  51.955 -21.715  1.00  0.00     0.069 A 
HETATM   22  O2  UNL     1      -0.402  50.613 -19.723  1.00  0.00    -0.323 OA
HETATM   23  C12 UNL     1      -0.047  50.911 -18.356  1.00  0.00     0.352 A 
ENDBRANCH  13  15
ENDBRANCH   4  13
BRANCH   1  24
HETATM   24  O1  UNL     1      -4.264  51.277 -24.306  1.00  0.00    -0.353 OA
HETATM   25  C1  UNL     1      -4.485  52.253 -23.299  1.00  0.00     0.210 C 
ENDBRANCH   1  24
BRANCH  12  26
HETATM   26  O4  UNL     1      -3.951  49.534 -26.229  1.00  0.00    -0.348 OA
BRANCH  26  27
HETATM   27  C17 UNL     1      -3.767  48.346 -26.998  1.00  0.00     0.177 C 
BRANCH  27  28
HETATM   28  C18 UNL     1      -4.670  48.419 -28.230  1.00  0.00     0.057 C 
BRANCH  28  29
HETATM   29  C19 UNL     1      -6.016  47.707 -28.030  1.00  0.00     0.274 C 
BRANCH  29  30
HETATM   30  N4  UNL     1      -6.684  47.388 -29.299  1.00  0.00     0.092 N 
HETATM   31  C20 UNL     1      -6.060  48.131 -30.415  1.00  0.00     0.298 C 
HETATM   32  C21 UNL     1      -6.987  48.192 -31.639  1.00  0.00     0.198 C 
HETATM   33  O5  UNL     1      -8.197  48.917 -31.384  1.00  0.00    -0.388 OA
HETATM   34  C22 UNL     1      -8.584  48.896 -30.004  1.00  0.00     0.198 C 
HETATM   35  C23 UNL     1      -8.144  47.618 -29.270  1.00  0.00     0.298 C 
ENDBRANCH  29  30
ENDBRANCH  28  29
ENDBRANCH  27  28
ENDBRANCH  26  27
ENDBRANCH  12  26
TORSDOF 8
ENDMDL
MODEL 7
REMARK minimizedAffinity -7.95312214
REMARK  8 active torsions:
REMARK  status: ('A' for Active; 'I' for Inactive)
REMARK    1  A    between atoms: O1_2  and  C2_3 
REMARK    2  A    between atoms: C5_6  and  N1_7 
REMARK    3  A    between atoms: N1_7  and  C6_8 
REMARK    4  A    between atoms: C16_24  and  O4_25 
REMARK    5  A    between atoms: O4_25  and  C17_26 
REMARK    6  A    between atoms: C17_26  and  C18_27 
REMARK    7  A    between atoms: C18_27  and  C19_28 
REMARK    8  A    between atoms: C19_28  and  N4_29 
ROOT
HETATM    1  C2  UNL     1      -0.798  50.330 -18.509  1.00  0.00     0.102 A 
HETATM    2  C3  UNL     1      -0.819  50.792 -19.826  1.00  0.00     0.057 A 
HETATM    3  C4  UNL     1      -0.120  51.970 -20.200  1.00  0.00     0.038 A 
HETATM    4  C5  UNL     1      -0.088  52.516 -21.500  1.00  0.00     0.119 A 
HETATM    5  N2  UNL     1       0.630  53.615 -21.792  1.00  0.00    -0.338 N 
ATOM      6  H2  UNL     1       0.664  53.995 -22.739  1.00  0.00     0.168 HD
HETATM    7  C13 UNL     1       1.295  54.186 -20.786  1.00  0.00     0.182 A 
HETATM    8  N3  UNL     1       1.315  53.769 -19.516  1.00  0.00    -0.351 N 
ATOM      9  H3  UNL     1       1.839  54.269 -18.797  1.00  0.00     0.166 HD
HETATM   10  C14 UNL     1       0.615  52.667 -19.234  1.00  0.00     0.050 A 
HETATM   11  C15 UNL     1       0.620  52.201 -17.925  1.00  0.00     0.070 A 
HETATM   12  C16 UNL     1      -0.076  51.049 -17.544  1.00  0.00     0.104 A 
ENDROOT
BRANCH   4  13
HETATM   13  N1  UNL     1      -0.860  51.897 -22.521  1.00  0.00    -0.342 N 
HETATM   14  H5  UNL     1      -1.805  52.268 -22.477  1.00  0.00     0.167 HD
BRANCH  13  15
HETATM   15  C6  UNL     1      -0.482  51.616 -23.856  1.00  0.00     0.036 A 
HETATM   16  C7  UNL     1      -1.317  50.904 -24.743  1.00  0.00     0.032 A 
HETATM   17  C8  UNL     1      -0.960  50.694 -26.082  1.00  0.00     0.042 A 
HETATM   18  C9  UNL     1       0.230  51.231 -26.516  1.00  0.00     0.105 A 
HETATM   19  C10 UNL     1       1.039  51.956 -25.677  1.00  0.00     0.107 A 
HETATM   20  O3  UNL     1       0.736  51.137 -27.773  1.00  0.00    -0.323 OA
HETATM   21  C11 UNL     1       0.707  52.176 -24.354  1.00  0.00     0.069 A 
HETATM   22  O2  UNL     1       2.158  52.413 -26.300  1.00  0.00    -0.323 OA
HETATM   23  C12 UNL     1       1.963  51.882 -27.628  1.00  0.00     0.352 A 
ENDBRANCH  13  15
ENDBRANCH   4  13
BRANCH   1  24
HETATM   24  O1  UNL     1      -1.450  49.206 -18.068  1.00  0.00    -0.353 OA
HETATM   25  C1  UNL     1      -2.577  48.760 -18.809  1.00  0.00     0.210 C 
ENDBRANCH   1  24
BRANCH  12  26
HETATM   26  O4  UNL     1      -0.110  50.546 -16.269  1.00  0.00    -0.348 OA
BRANCH  26  27
HETATM   27  C17 UNL     1      -1.182  50.948 -15.416  1.00  0.00     0.177 C 
BRANCH  27  28
HETATM   28  C18 UNL     1      -0.849  50.526 -13.984  1.00  0.00     0.057 C 
BRANCH  28  29
HETATM   29  C19 UNL     1      -2.010  50.760 -13.006  1.00  0.00     0.274 C 
BRANCH  29  30
HETATM   30  N4  UNL     1      -2.129  52.165 -12.591  1.00  0.00     0.092 N 
HETATM   31  C20 UNL     1      -1.456  52.381 -11.292  1.00  0.00     0.298 C 
HETATM   32  C21 UNL     1      -1.939  53.672 -10.616  1.00  0.00     0.198 C 
HETATM   33  O5  UNL     1      -3.331  53.634 -10.273  1.00  0.00    -0.388 OA
HETATM   34  C22 UNL     1      -4.093  52.760 -11.117  1.00  0.00     0.198 C 
HETATM   35  C23 UNL     1      -3.526  52.648 -12.542  1.00  0.00     0.298 C 
ENDBRANCH  29  30
ENDBRANCH  28  29
ENDBRANCH  27  28
ENDBRANCH  26  27
ENDBRANCH  12  26
TORSDOF 8
ENDMDL
MODEL 8
REMARK minimizedAffinity -7.89904118
REMARK  8 active torsions:
REMARK  status: ('A' for Active; 'I' for Inactive)
REMARK    1  A    between atoms: O1_2  and  C2_3 
REMARK    2  A    between atoms: C5_6  and  N1_7 
REMARK    3  A    between atoms: N1_7  and  C6_8 
REMARK    4  A    between atoms: C16_24  and  O4_25 
REMARK    5  A    between atoms: O4_25  and  C17_26 
REMARK    6  A    between atoms: C17_26  and  C18_27 
REMARK    7  A    between atoms: C18_27  and  C19_28 
REMARK    8  A    between atoms: C19_28  and  N4_29 
ROOT
HETATM    1  C2  UNL     1      -2.943  51.620 -25.088  1.00  0.00     0.102 A 
HETATM    2  C3  UNL     1      -1.795  52.279 -24.644  1.00  0.00     0.057 A 
HETATM    3  C4  UNL     1      -0.521  51.984 -25.198  1.00  0.00     0.038 A 
HETATM    4  C5  UNL     1       0.692  52.590 -24.810  1.00  0.00     0.119 A 
HETATM    5  N2  UNL     1       1.860  52.291 -25.407  1.00  0.00    -0.338 N 
ATOM      6  H2  UNL     1       2.731  52.747 -25.135  1.00  0.00     0.168 HD
HETATM    7  C13 UNL     1       1.824  51.370 -26.372  1.00  0.00     0.182 A 
HETATM    8  N3  UNL     1       0.740  50.717 -26.800  1.00  0.00    -0.351 N 
ATOM      9  H3  UNL     1       0.795  50.013 -27.537  1.00  0.00     0.166 HD
HETATM   10  C14 UNL     1      -0.420  51.030 -26.217  1.00  0.00     0.050 A 
HETATM   11  C15 UNL     1      -1.569  50.376 -26.643  1.00  0.00     0.070 A 
HETATM   12  C16 UNL     1      -2.827  50.650 -26.095  1.00  0.00     0.104 A 
ENDROOT
BRANCH   4  13
HETATM   13  N1  UNL     1       0.677  53.525 -23.738  1.00  0.00    -0.342 N 
HETATM   14  H5  UNL     1      -0.024  54.231 -23.939  1.00  0.00     0.167 HD
BRANCH  13  15
HETATM   15  C6  UNL     1       0.757  53.264 -22.349  1.00  0.00     0.036 A 
HETATM   16  C7  UNL     1       1.371  54.160 -21.447  1.00  0.00     0.032 A 
HETATM   17  C8  UNL     1       1.381  53.922 -20.066  1.00  0.00     0.042 A 
HETATM   18  C9  UNL     1       0.747  52.791 -19.609  1.00  0.00     0.105 A 
HETATM   19  C10 UNL     1       0.116  51.926 -20.467  1.00  0.00     0.107 A 
HETATM   20  O3  UNL     1       0.649  52.400 -18.311  1.00  0.00    -0.323 OA
HETATM   21  C11 UNL     1       0.092  52.140 -21.831  1.00  0.00     0.069 A 
HETATM   22  O2  UNL     1      -0.464  50.880 -19.818  1.00  0.00    -0.323 OA
HETATM   23  C12 UNL     1      -0.114  51.184 -18.452  1.00  0.00     0.352 A 
ENDBRANCH  13  15
ENDBRANCH   4  13
BRANCH   1  24
HETATM   24  O1  UNL     1      -4.206  51.845 -24.601  1.00  0.00    -0.353 OA
HETATM   25  C1  UNL     1      -4.325  52.464 -23.329  1.00  0.00     0.210 C 
ENDBRANCH   1  24
BRANCH  12  26
HETATM   26  O4  UNL     1      -3.992  50.033 -26.473  1.00  0.00    -0.348 OA
BRANCH  26  27
HETATM   27  C17 UNL     1      -4.156  48.651 -26.154  1.00  0.00     0.177 C 
BRANCH  27  28
HETATM   28  C18 UNL     1      -3.768  48.441 -24.690  1.00  0.00     0.057 C 
BRANCH  28  29
HETATM   29  C19 UNL     1      -4.974  48.137 -23.789  1.00  0.00     0.274 C 
BRANCH  29  30
HETATM   30  N4  UNL     1      -5.386  49.294 -22.982  1.00  0.00     0.092 N 
HETATM   31  C20 UNL     1      -4.985  49.111 -21.571  1.00  0.00     0.298 C 
HETATM   32  C21 UNL     1      -5.777  50.037 -20.636  1.00  0.00     0.198 C 
HETATM   33  O5  UNL     1      -7.182  49.750 -20.628  1.00  0.00    -0.388 OA
HETATM   34  C22 UNL     1      -7.639  49.153 -21.848  1.00  0.00     0.198 C 
HETATM   35  C23 UNL     1      -6.831  49.595 -23.080  1.00  0.00     0.298 C 
ENDBRANCH  29  30
ENDBRANCH  28  29
ENDBRANCH  27  28
ENDBRANCH  26  27
ENDBRANCH  12  26
TORSDOF 8
ENDMDL
MODEL 9
REMARK minimizedAffinity -7.86591434
REMARK  8 active torsions:
REMARK  status: ('A' for Active; 'I' for Inactive)
REMARK    1  A    between atoms: O1_2  and  C2_3 
REMARK    2  A    between atoms: C5_6  and  N1_7 
REMARK    3  A    between atoms: N1_7  and  C6_8 
REMARK    4  A    between atoms: C16_24  and  O4_25 
REMARK    5  A    between atoms: O4_25  and  C17_26 
REMARK    6  A    between atoms: C17_26  and  C18_27 
REMARK    7  A    between atoms: C18_27  and  C19_28 
REMARK    8  A    between atoms: C19_28  and  N4_29 
ROOT
HETATM    1  C2  UNL     1       0.234  52.766 -21.885  1.00  0.00     0.102 A 
HETATM    2  C3  UNL     1       0.465  52.722 -20.509  1.00  0.00     0.057 A 
HETATM    3  C4  UNL     1      -0.445  52.075 -19.633  1.00  0.00     0.038 A 
HETATM    4  C5  UNL     1      -0.300  51.985 -18.233  1.00  0.00     0.119 A 
HETATM    5  N2  UNL     1      -1.182  51.320 -17.467  1.00  0.00    -0.338 N 
ATOM      6  H2  UNL     1      -1.062  51.243 -16.457  1.00  0.00     0.168 HD
HETATM    7  C13 UNL     1      -2.224  50.765 -18.091  1.00  0.00     0.182 A 
HETATM    8  N3  UNL     1      -2.473  50.809 -19.403  1.00  0.00    -0.351 N 
ATOM      9  H3  UNL     1      -3.301  50.370 -19.806  1.00  0.00     0.166 HD
HETATM   10  C14 UNL     1      -1.584  51.455 -20.162  1.00  0.00     0.050 A 
HETATM   11  C15 UNL     1      -1.806  51.514 -21.532  1.00  0.00     0.070 A 
HETATM   12  C16 UNL     1      -0.922  52.161 -22.402  1.00  0.00     0.104 A 
ENDROOT
BRANCH   4  13
HETATM   13  N1  UNL     1       0.801  52.643 -17.617  1.00  0.00    -0.342 N 
HETATM   14  H5  UNL     1       0.519  53.591 -17.387  1.00  0.00     0.167 HD
BRANCH  13  15
HETATM   15  C6  UNL     1       1.699  52.127 -16.651  1.00  0.00     0.036 A 
HETATM   16  C7  UNL     1       3.038  52.563 -16.558  1.00  0.00     0.032 A 
HETATM   17  C8  UNL     1       3.896  52.095 -15.553  1.00  0.00     0.042 A 
HETATM   18  C9  UNL     1       3.381  51.209 -14.636  1.00  0.00     0.105 A 
HETATM   19  C10 UNL     1       2.071  50.800 -14.691  1.00  0.00     0.107 A 
HETATM   20  O3  UNL     1       4.055  50.656 -13.595  1.00  0.00    -0.323 OA
HETATM   21  C11 UNL     1       1.208  51.248 -15.671  1.00  0.00     0.069 A 
HETATM   22  O2  UNL     1       1.754  49.938 -13.687  1.00  0.00    -0.323 OA
HETATM   23  C12 UNL     1       3.020  49.845 -13.001  1.00  0.00     0.352 A 
ENDBRANCH  13  15
ENDBRANCH   4  13
BRANCH   1  24
HETATM   24  O1  UNL     1       1.061  53.374 -22.795  1.00  0.00    -0.353 OA
HETATM   25  C1  UNL     1       1.505  54.692 -22.507  1.00  0.00     0.210 C 
ENDBRANCH   1  24
BRANCH  12  26
HETATM   26  O4  UNL     1      -1.094  52.253 -23.760  1.00  0.00    -0.348 OA
BRANCH  26  27
HETATM   27  C17 UNL     1      -2.424  52.387 -24.261  1.00  0.00     0.177 C 
BRANCH  27  28
HETATM   28  C18 UNL     1      -2.655  51.309 -25.321  1.00  0.00     0.057 C 
BRANCH  28  29
HETATM   29  C19 UNL     1      -2.875  51.889 -26.727  1.00  0.00     0.274 C 
BRANCH  29  30
HETATM   30  N4  UNL     1      -1.633  51.965 -27.510  1.00  0.00     0.092 N 
HETATM   31  C20 UNL     1      -0.607  51.063 -26.945  1.00  0.00     0.298 C 
HETATM   32  C21 UNL     1       0.802  51.444 -27.423  1.00  0.00     0.198 C 
HETATM   33  O5  UNL     1       1.210  52.743 -26.973  1.00  0.00    -0.388 OA
HETATM   34  C22 UNL     1       0.106  53.627 -26.737  1.00  0.00     0.198 C 
HETATM   35  C23 UNL     1      -1.104  53.340 -27.642  1.00  0.00     0.298 C 
ENDBRANCH  29  30
ENDBRANCH  28  29
ENDBRANCH  27  28
ENDBRANCH  26  27
ENDBRANCH  12  26
TORSDOF 8
ENDMDL
