MODEL 1
REMARK minimizedAffinity -9.96332741
REMARK  6 active torsions:
REMARK  status: ('A' for Active; 'I' for Inactive)
REMARK    1  A    between atoms: C2_2  and  C3_3 
REMARK       I    between atoms: C3_3  and  N1_5 
REMARK    2  A    between atoms: C7_9  and  N2_10 
REMARK    3  A    between atoms: C8_13  and  C9_14 
REMARK    4  A    between atoms: C13_18  and  O2_19 
REMARK    5  A    between atoms: O2_19  and  C14_20 
REMARK    6  A    between atoms: C24_30  and  N4_31 
ROOT
HETATM    1  N2  UNL     1      -1.352  51.488 -19.400  1.00  0.00    -0.269 N 
HETATM    2  N3  UNL     1      -2.357  50.736 -19.905  1.00  0.00    -0.295 N 
ATOM      3  H3  UNL     1      -3.076  50.222 -19.394  1.00  0.00     0.187 HD
HETATM    4  C8  UNL     1      -2.189  50.825 -21.235  1.00  0.00     0.077 A 
HETATM    5  C23 UNL     1      -1.056  51.616 -21.573  1.00  0.00     0.082 A 
HETATM    6  C24 UNL     1      -0.379  52.033 -22.728  1.00  0.00     0.116 A 
HETATM    7  N5  UNL     1       0.715  52.809 -22.587  1.00  0.00    -0.338 N 
ATOM      8  H5  UNL     1       1.238  53.128 -23.403  1.00  0.00     0.168 HD
HETATM    9  C25 UNL     1       1.103  53.153 -21.341  1.00  0.00     0.183 A 
HETATM   10  N6  UNL     1       0.543  52.803 -20.169  1.00  0.00    -0.337 N 
ATOM     11  H6  UNL     1       0.896  53.084 -19.254  1.00  0.00     0.168 HD
HETATM   12  C26 UNL     1      -0.543  52.033 -20.360  1.00  0.00     0.140 A 
ENDROOT
BRANCH   4  13
HETATM   13  C9  UNL     1      -3.083  50.141 -22.167  1.00  0.00     0.005 A 
HETATM   14  C10 UNL     1      -2.938  48.751 -22.391  1.00  0.00    -0.046 A 
HETATM   15  C11 UNL     1      -1.829  47.956 -21.756  1.00  0.00     0.049 C 
HETATM   16  C12 UNL     1      -3.874  48.085 -23.195  1.00  0.00     0.045 A 
HETATM   17  C13 UNL     1      -4.947  48.782 -23.748  1.00  0.00     0.077 A 
HETATM   18  C20 UNL     1      -5.064  50.160 -23.572  1.00  0.00     0.045 A 
HETATM   19  C21 UNL     1      -4.135  50.856 -22.786  1.00  0.00    -0.046 A 
HETATM   20  C22 UNL     1      -4.287  52.345 -22.620  1.00  0.00     0.049 C 
BRANCH  17  21
HETATM   21  O2  UNL     1      -5.849  48.103 -24.533  1.00  0.00    -0.311 OA
BRANCH  21  22
HETATM   22  C14 UNL     1      -5.522  48.075 -25.870  1.00  0.00     0.076 A 
HETATM   23  C15 UNL     1      -6.506  47.709 -26.794  1.00  0.00     0.037 A 
HETATM   24  C16 UNL     1      -6.211  47.709 -28.158  1.00  0.00     0.003 A 
HETATM   25  C17 UNL     1      -4.944  48.098 -28.596  1.00  0.00     0.000 A 
HETATM   26  C18 UNL     1      -3.970  48.490 -27.671  1.00  0.00     0.003 A 
HETATM   27  C19 UNL     1      -4.259  48.483 -26.305  1.00  0.00     0.037 A 
ENDBRANCH  21  22
ENDBRANCH  17  21
ENDBRANCH   4  13
BRANCH   1  28
HETATM   28  C7  UNL     1      -1.164  51.596 -17.960  1.00  0.00     0.128 C 
HETATM   29  C6  UNL     1      -2.019  50.598 -17.172  1.00  0.00     0.030 C 
HETATM   30  C5  UNL     1      -1.761  50.769 -15.677  1.00  0.00     0.022 C 
HETATM   31  C4  UNL     1      -0.282  50.596 -15.349  1.00  0.00     0.126 C 
HETATM   32  N1  UNL     1       0.577  51.461 -16.157  1.00  0.00    -0.347 N 
HETATM   33  C3  UNL     1       1.836  51.736 -15.625  1.00  0.00     0.242 C 
HETATM   34  C27 UNL     1       0.322  51.461 -17.606  1.00  0.00     0.153 C 
HETATM   35  O1  UNL     1       2.180  51.458 -14.480  1.00  0.00    -0.268 OA
BRANCH  33  36
HETATM   36  C2  UNL     1       2.793  52.413 -16.527  1.00  0.00     0.064 C 
HETATM   37  C1  UNL     1       4.074  52.519 -16.151  1.00  0.00     0.017 C 
ENDBRANCH  33  36
ENDBRANCH   1  28
BRANCH   6  38
HETATM   38  N4  UNL     1      -0.748  51.695 -24.018  1.00  0.00    -0.385 N 
HETATM   39  H24 UNL     1      -0.020  51.862 -24.699  1.00  0.00     0.157 HD
HETATM   40  H25 UNL     1      -1.332  50.876 -24.142  1.00  0.00     0.157 HD
ENDBRANCH   6  38
TORSDOF 6
ENDMDL
MODEL 2
REMARK minimizedAffinity -9.74093723
REMARK  6 active torsions:
REMARK  status: ('A' for Active; 'I' for Inactive)
REMARK    1  A    between atoms: C2_2  and  C3_3 
REMARK       I    between atoms: C3_3  and  N1_5 
REMARK    2  A    between atoms: C7_9  and  N2_10 
REMARK    3  A    between atoms: C8_13  and  C9_14 
REMARK    4  A    between atoms: C13_18  and  O2_19 
REMARK    5  A    between atoms: O2_19  and  C14_20 
REMARK    6  A    between atoms: C24_30  and  N4_31 
ROOT
HETATM    1  N2  UNL     1      -0.664  52.225 -23.683  1.00  0.00    -0.269 N 
HETATM    2  N3  UNL     1      -1.651  51.331 -23.448  1.00  0.00    -0.295 N 
ATOM      3  H3  UNL     1      -1.859  50.836 -22.581  1.00  0.00     0.187 HD
HETATM    4  C8  UNL     1      -2.297  51.247 -24.625  1.00  0.00     0.077 A 
HETATM    5  C23 UNL     1      -1.698  52.074 -25.616  1.00  0.00     0.082 A 
HETATM    6  C24 UNL     1      -1.882  52.380 -26.972  1.00  0.00     0.116 A 
HETATM    7  N5  UNL     1      -1.035  53.255 -27.553  1.00  0.00    -0.338 N 
ATOM      8  H5  UNL     1      -1.133  53.499 -28.539  1.00  0.00     0.168 HD
HETATM    9  C25 UNL     1      -0.056  53.799 -26.801  1.00  0.00     0.183 A 
HETATM   10  N6  UNL     1       0.222  53.571 -25.505  1.00  0.00    -0.337 N 
ATOM     11  H6  UNL     1       0.991  54.004 -24.995  1.00  0.00     0.168 HD
HETATM   12  C26 UNL     1      -0.648  52.696 -24.968  1.00  0.00     0.140 A 
ENDROOT
BRANCH   4  13
HETATM   13  C9  UNL     1      -3.451  50.369 -24.804  1.00  0.00     0.005 A 
HETATM   14  C10 UNL     1      -3.298  49.131 -25.472  1.00  0.00    -0.046 A 
HETATM   15  C11 UNL     1      -1.988  48.717 -26.085  1.00  0.00     0.049 C 
HETATM   16  C12 UNL     1      -4.384  48.246 -25.534  1.00  0.00     0.045 A 
HETATM   17  C13 UNL     1      -5.592  48.576 -24.924  1.00  0.00     0.077 A 
HETATM   18  C20 UNL     1      -5.764  49.815 -24.309  1.00  0.00     0.045 A 
HETATM   19  C21 UNL     1      -4.700  50.727 -24.245  1.00  0.00    -0.046 A 
HETATM   20  C22 UNL     1      -4.918  52.059 -23.578  1.00  0.00     0.049 C 
BRANCH  17  21
HETATM   21  O2  UNL     1      -6.641  47.689 -25.001  1.00  0.00    -0.311 OA
BRANCH  21  22
HETATM   22  C14 UNL     1      -7.048  47.409 -26.287  1.00  0.00     0.076 A 
HETATM   23  C15 UNL     1      -6.223  47.790 -27.349  1.00  0.00     0.037 A 
HETATM   24  C16 UNL     1      -6.594  47.484 -28.660  1.00  0.00     0.003 A 
HETATM   25  C17 UNL     1      -7.773  46.776 -28.902  1.00  0.00     0.000 A 
HETATM   26  C18 UNL     1      -8.582  46.371 -27.834  1.00  0.00     0.003 A 
HETATM   27  C19 UNL     1      -8.218  46.684 -26.522  1.00  0.00     0.037 A 
ENDBRANCH  21  22
ENDBRANCH  17  21
ENDBRANCH   4  13
BRANCH   1  28
HETATM   28  C7  UNL     1       0.302  52.547 -22.642  1.00  0.00     0.128 C 
HETATM   29  C6  UNL     1       0.816  53.988 -22.734  1.00  0.00     0.030 C 
HETATM   30  C5  UNL     1       1.815  54.250 -21.609  1.00  0.00     0.022 C 
HETATM   31  C4  UNL     1       1.191  53.980 -20.244  1.00  0.00     0.126 C 
HETATM   32  N1  UNL     1       0.596  52.647 -20.151  1.00  0.00    -0.347 N 
HETATM   33  C3  UNL     1       0.449  52.135 -18.864  1.00  0.00     0.242 C 
HETATM   34  C27 UNL     1      -0.288  52.252 -21.259  1.00  0.00     0.153 C 
HETATM   35  O1  UNL     1       0.938  52.638 -17.857  1.00  0.00    -0.268 OA
BRANCH  33  36
HETATM   36  C2  UNL     1      -0.355  50.899 -18.740  1.00  0.00     0.064 C 
HETATM   37  C1  UNL     1      -0.202  50.132 -17.653  1.00  0.00     0.017 C 
ENDBRANCH  33  36
ENDBRANCH   1  28
BRANCH   6  38
HETATM   38  N4  UNL     1      -2.871  51.837 -27.771  1.00  0.00    -0.385 N 
HETATM   39  H24 UNL     1      -2.704  51.966 -28.760  1.00  0.00     0.157 HD
HETATM   40  H25 UNL     1      -3.291  50.964 -27.474  1.00  0.00     0.157 HD
ENDBRANCH   6  38
TORSDOF 6
ENDMDL
MODEL 3
REMARK minimizedAffinity -9.66730404
REMARK  6 active torsions:
REMARK  status: ('A' for Active; 'I' for Inactive)
REMARK    1  A    between atoms: C2_2  and  C3_3 
REMARK       I    between atoms: C3_3  and  N1_5 
REMARK    2  A    between atoms: C7_9  and  N2_10 
REMARK    3  A    between atoms: C8_13  and  C9_14 
REMARK    4  A    between atoms: C13_18  and  O2_19 
REMARK    5  A    between atoms: O2_19  and  C14_20 
REMARK    6  A    between atoms: C24_30  and  N4_31 
ROOT
HETATM    1  N2  UNL     1      -1.380  50.715 -18.397  1.00  0.00    -0.269 N 
HETATM    2  N3  UNL     1      -1.391  51.640 -19.385  1.00  0.00    -0.295 N 
ATOM      3  H3  UNL     1      -1.173  52.634 -19.317  1.00  0.00     0.187 HD
HETATM    4  C8  UNL     1      -1.754  50.943 -20.475  1.00  0.00     0.077 A 
HETATM    5  C23 UNL     1      -1.999  49.575 -20.171  1.00  0.00     0.082 A 
HETATM    6  C24 UNL     1      -2.414  48.414 -20.838  1.00  0.00     0.116 A 
HETATM    7  N5  UNL     1      -2.530  47.272 -20.129  1.00  0.00    -0.338 N 
ATOM      8  H5  UNL     1      -2.834  46.408 -20.578  1.00  0.00     0.168 HD
HETATM    9  C25 UNL     1      -2.236  47.300 -18.813  1.00  0.00     0.183 A 
HETATM   10  N6  UNL     1      -1.845  48.351 -18.069  1.00  0.00    -0.337 N 
ATOM     11  H6  UNL     1      -1.653  48.310 -17.068  1.00  0.00     0.168 HD
HETATM   12  C26 UNL     1      -1.741  49.463 -18.817  1.00  0.00     0.140 A 
ENDROOT
BRANCH   4  13
HETATM   13  C9  UNL     1      -1.890  51.582 -21.782  1.00  0.00     0.005 A 
HETATM   14  C10 UNL     1      -0.735  51.935 -22.518  1.00  0.00    -0.046 A 
HETATM   15  C11 UNL     1       0.650  51.749 -21.960  1.00  0.00     0.049 C 
HETATM   16  C12 UNL     1      -0.878  52.439 -23.819  1.00  0.00     0.045 A 
HETATM   17  C13 UNL     1      -2.145  52.567 -24.386  1.00  0.00     0.077 A 
HETATM   18  C20 UNL     1      -3.288  52.269 -23.647  1.00  0.00     0.045 A 
HETATM   19  C21 UNL     1      -3.176  51.778 -22.338  1.00  0.00    -0.046 A 
HETATM   20  C22 UNL     1      -4.431  51.469 -21.564  1.00  0.00     0.049 C 
BRANCH  17  21
HETATM   21  O2  UNL     1      -2.255  53.065 -25.664  1.00  0.00    -0.311 OA
BRANCH  21  22
HETATM   22  C14 UNL     1      -1.236  52.682 -26.507  1.00  0.00     0.076 A 
HETATM   23  C15 UNL     1      -0.781  51.361 -26.454  1.00  0.00     0.037 A 
HETATM   24  C16 UNL     1       0.225  50.938 -27.324  1.00  0.00     0.003 A 
HETATM   25  C17 UNL     1       0.753  51.828 -28.262  1.00  0.00     0.000 A 
HETATM   26  C18 UNL     1       0.275  53.141 -28.331  1.00  0.00     0.003 A 
HETATM   27  C19 UNL     1      -0.724  53.570 -27.456  1.00  0.00     0.037 A 
ENDBRANCH  21  22
ENDBRANCH  17  21
ENDBRANCH   4  13
BRANCH   1  28
HETATM   28  C7  UNL     1      -1.081  51.103 -17.027  1.00  0.00     0.128 C 
HETATM   29  C6  UNL     1      -1.819  50.248 -15.991  1.00  0.00     0.030 C 
HETATM   30  C5  UNL     1      -1.449  50.710 -14.584  1.00  0.00     0.022 C 
HETATM   31  C4  UNL     1       0.059  50.652 -14.363  1.00  0.00     0.126 C 
HETATM   32  N1  UNL     1       0.806  51.373 -15.392  1.00  0.00    -0.347 N 
HETATM   33  C3  UNL     1       2.088  51.786 -15.036  1.00  0.00     0.242 C 
HETATM   34  C27 UNL     1       0.434  51.087 -16.787  1.00  0.00     0.153 C 
HETATM   35  O1  UNL     1       2.538  51.745 -13.895  1.00  0.00    -0.268 OA
BRANCH  33  36
HETATM   36  C2  UNL     1       2.935  52.308 -16.132  1.00  0.00     0.064 C 
HETATM   37  C1  UNL     1       4.252  52.442 -15.926  1.00  0.00     0.017 C 
ENDBRANCH  33  36
ENDBRANCH   1  28
BRANCH   6  38
HETATM   38  N4  UNL     1      -2.726  48.352 -22.184  1.00  0.00    -0.385 N 
HETATM   39  H24 UNL     1      -3.242  47.520 -22.438  1.00  0.00     0.157 HD
HETATM   40  H25 UNL     1      -2.968  49.218 -22.652  1.00  0.00     0.157 HD
ENDBRANCH   6  38
TORSDOF 6
ENDMDL
MODEL 4
REMARK minimizedAffinity -9.62751865
REMARK  6 active torsions:
REMARK  status: ('A' for Active; 'I' for Inactive)
REMARK    1  A    between atoms: C2_2  and  C3_3 
REMARK       I    between atoms: C3_3  and  N1_5 
REMARK    2  A    between atoms: C7_9  and  N2_10 
REMARK    3  A    between atoms: C8_13  and  C9_14 
REMARK    4  A    between atoms: C13_18  and  O2_19 
REMARK    5  A    between atoms: O2_19  and  C14_20 
REMARK    6  A    between atoms: C24_30  and  N4_31 
ROOT
HETATM    1  N2  UNL     1      -1.365  51.406 -19.218  1.00  0.00    -0.269 N 
HETATM    2  N3  UNL     1      -2.430  50.682 -19.634  1.00  0.00    -0.295 N 
ATOM      3  H3  UNL     1      -3.160  50.254 -19.064  1.00  0.00     0.187 HD
HETATM    4  C8  UNL     1      -2.302  50.659 -20.972  1.00  0.00     0.077 A 
HETATM    5  C23 UNL     1      -1.135  51.350 -21.403  1.00  0.00     0.082 A 
HETATM    6  C24 UNL     1      -0.474  51.635 -22.606  1.00  0.00     0.116 A 
HETATM    7  N5  UNL     1       0.669  52.350 -22.557  1.00  0.00    -0.338 N 
ATOM      8  H5  UNL     1       1.182  52.573 -23.410  1.00  0.00     0.168 HD
HETATM    9  C25 UNL     1       1.119  52.762 -21.354  1.00  0.00     0.183 A 
HETATM   10  N6  UNL     1       0.579  52.538 -20.142  1.00  0.00    -0.337 N 
ATOM     11  H6  UNL     1       0.979  52.865 -19.263  1.00  0.00     0.168 HD
HETATM   12  C26 UNL     1      -0.557  51.825 -20.241  1.00  0.00     0.140 A 
ENDROOT
BRANCH   4  13
HETATM   13  C9  UNL     1      -3.266  49.963 -21.821  1.00  0.00     0.005 A 
HETATM   14  C10 UNL     1      -4.277  50.695 -22.485  1.00  0.00    -0.046 A 
HETATM   15  C11 UNL     1      -4.450  52.176 -22.281  1.00  0.00     0.049 C 
HETATM   16  C12 UNL     1      -5.122  50.033 -23.389  1.00  0.00     0.045 A 
HETATM   17  C13 UNL     1      -4.948  48.675 -23.645  1.00  0.00     0.077 A 
HETATM   18  C20 UNL     1      -3.986  47.939 -22.955  1.00  0.00     0.045 A 
HETATM   19  C21 UNL     1      -3.138  48.570 -22.034  1.00  0.00    -0.046 A 
HETATM   20  C22 UNL     1      -2.112  47.746 -21.302  1.00  0.00     0.049 C 
BRANCH  17  21
HETATM   21  O2  UNL     1      -5.791  48.052 -24.536  1.00  0.00    -0.311 OA
BRANCH  21  22
HETATM   22  C14 UNL     1      -5.381  48.128 -25.848  1.00  0.00     0.076 A 
HETATM   23  C15 UNL     1      -4.057  48.490 -26.117  1.00  0.00     0.037 A 
HETATM   24  C16 UNL     1      -3.605  48.538 -27.436  1.00  0.00     0.003 A 
HETATM   25  C17 UNL     1      -4.469  48.198 -28.480  1.00  0.00     0.000 A 
HETATM   26  C18 UNL     1      -5.785  47.808 -28.205  1.00  0.00     0.003 A 
HETATM   27  C19 UNL     1      -6.242  47.769 -26.887  1.00  0.00     0.037 A 
ENDBRANCH  21  22
ENDBRANCH  17  21
ENDBRANCH   4  13
BRANCH   1  28
HETATM   28  C7  UNL     1      -1.122  51.611 -17.798  1.00  0.00     0.128 C 
HETATM   29  C6  UNL     1      -1.979  50.702 -16.910  1.00  0.00     0.030 C 
HETATM   30  C5  UNL     1      -1.663  50.971 -15.442  1.00  0.00     0.022 C 
HETATM   31  C4  UNL     1      -0.179  50.772 -15.151  1.00  0.00     0.126 C 
HETATM   32  N1  UNL     1       0.677  51.547 -16.048  1.00  0.00    -0.347 N 
HETATM   33  C3  UNL     1       1.962  51.817 -15.580  1.00  0.00     0.242 C 
HETATM   34  C27 UNL     1       0.370  51.452 -17.484  1.00  0.00     0.153 C 
HETATM   35  O1  UNL     1       2.339  51.611 -14.430  1.00  0.00    -0.268 OA
BRANCH  33  36
HETATM   36  C2  UNL     1       2.908  52.395 -16.561  1.00  0.00     0.064 C 
HETATM   37  C1  UNL     1       4.208  52.459 -16.248  1.00  0.00     0.017 C 
ENDBRANCH  33  36
ENDBRANCH   1  28
BRANCH   6  38
HETATM   38  N4  UNL     1      -0.906  51.224 -23.854  1.00  0.00    -0.385 N 
HETATM   39  H24 UNL     1      -0.192  51.293 -24.567  1.00  0.00     0.157 HD
HETATM   40  H25 UNL     1      -1.542  50.436 -23.897  1.00  0.00     0.157 HD
ENDBRANCH   6  38
TORSDOF 6
ENDMDL
MODEL 5
REMARK minimizedAffinity -9.58636189
REMARK  6 active torsions:
REMARK  status: ('A' for Active; 'I' for Inactive)
REMARK    1  A    between atoms: C2_2  and  C3_3 
REMARK       I    between atoms: C3_3  and  N1_5 
REMARK    2  A    between atoms: C7_9  and  N2_10 
REMARK    3  A    between atoms: C8_13  and  C9_14 
REMARK    4  A    between atoms: C13_18  and  O2_19 
REMARK    5  A    between atoms: O2_19  and  C14_20 
REMARK    6  A    between atoms: C24_30  and  N4_31 
ROOT
HETATM    1  N2  UNL     1      -2.291  50.088 -23.251  1.00  0.00    -0.269 N 
HETATM    2  N3  UNL     1      -1.307  50.047 -22.323  1.00  0.00    -0.295 N 
ATOM      3  H3  UNL     1      -0.308  49.906 -22.471  1.00  0.00     0.187 HD
HETATM    4  C8  UNL     1      -1.954  50.237 -21.159  1.00  0.00     0.077 A 
HETATM    5  C23 UNL     1      -3.357  50.373 -21.351  1.00  0.00     0.082 A 
HETATM    6  C24 UNL     1      -4.506  50.550 -20.568  1.00  0.00     0.116 A 
HETATM    7  N5  UNL     1      -5.702  50.620 -21.188  1.00  0.00    -0.338 N 
ATOM      8  H5  UNL     1      -6.561  50.744 -20.653  1.00  0.00     0.168 HD
HETATM    9  C25 UNL     1      -5.735  50.523 -22.533  1.00  0.00     0.183 A 
HETATM   10  N6  UNL     1      -4.706  50.339 -23.380  1.00  0.00    -0.337 N 
ATOM     11  H6  UNL     1      -4.799  50.256 -24.392  1.00  0.00     0.168 HD
HETATM   12  C26 UNL     1      -3.537  50.277 -22.718  1.00  0.00     0.140 A 
ENDROOT
BRANCH   4  13
HETATM   13  C9  UNL     1      -1.243  50.260 -19.883  1.00  0.00     0.005 A 
HETATM   14  C10 UNL     1      -0.612  51.449 -19.449  1.00  0.00    -0.046 A 
HETATM   15  C11 UNL     1      -0.576  52.687 -20.304  1.00  0.00     0.049 C 
HETATM   16  C12 UNL     1      -0.035  51.493 -18.171  1.00  0.00     0.045 A 
HETATM   17  C13 UNL     1      -0.105  50.382 -17.332  1.00  0.00     0.077 A 
HETATM   18  C20 UNL     1      -0.680  49.192 -17.775  1.00  0.00     0.045 A 
HETATM   19  C21 UNL     1      -1.251  49.114 -19.053  1.00  0.00    -0.046 A 
HETATM   20  C22 UNL     1      -1.861  47.813 -19.503  1.00  0.00     0.049 C 
BRANCH  17  21
HETATM   21  O2  UNL     1       0.470  50.453 -16.085  1.00  0.00    -0.311 OA
BRANCH  21  22
HETATM   22  C14 UNL     1       1.646  51.168 -16.046  1.00  0.00     0.076 A 
HETATM   23  C15 UNL     1       1.785  52.277 -16.887  1.00  0.00     0.037 A 
HETATM   24  C16 UNL     1       2.952  53.041 -16.841  1.00  0.00     0.003 A 
HETATM   25  C17 UNL     1       3.964  52.711 -15.937  1.00  0.00     0.000 A 
HETATM   26  C18 UNL     1       3.809  51.618 -15.077  1.00  0.00     0.003 A 
HETATM   27  C19 UNL     1       2.648  50.846 -15.127  1.00  0.00     0.037 A 
ENDBRANCH  21  22
ENDBRANCH  17  21
ENDBRANCH   4  13
BRANCH   1  28
HETATM   28  C7  UNL     1      -1.987  49.865 -24.657  1.00  0.00     0.128 C 
HETATM   29  C6  UNL     1      -3.244  49.714 -25.520  1.00  0.00     0.030 C 
HETATM   30  C5  UNL     1      -2.844  49.491 -26.976  1.00  0.00     0.022 C 
HETATM   31  C4  UNL     1      -1.966  50.628 -27.488  1.00  0.00     0.126 C 
HETATM   32  N1  UNL     1      -0.806  50.871 -26.631  1.00  0.00    -0.347 N 
HETATM   33  C3  UNL     1       0.272  51.515 -27.235  1.00  0.00     0.242 C 
HETATM   34  C27 UNL     1      -1.075  50.977 -25.188  1.00  0.00     0.153 C 
HETATM   35  O1  UNL     1       0.373  51.715 -28.442  1.00  0.00    -0.268 OA
BRANCH  33  36
HETATM   36  C2  UNL     1       1.351  51.971 -26.331  1.00  0.00     0.064 C 
HETATM   37  C1  UNL     1       2.530  51.337 -26.356  1.00  0.00     0.017 C 
ENDBRANCH  33  36
ENDBRANCH   1  28
BRANCH   6  38
HETATM   38  N4  UNL     1      -4.508  50.650 -19.188  1.00  0.00    -0.385 N 
HETATM   39  H24 UNL     1      -5.422  50.518 -18.778  1.00  0.00     0.157 HD
HETATM   40  H25 UNL     1      -3.708  50.278 -18.688  1.00  0.00     0.157 HD
ENDBRANCH   6  38
TORSDOF 6
ENDMDL
MODEL 6
REMARK minimizedAffinity -9.58424473
REMARK  6 active torsions:
REMARK  status: ('A' for Active; 'I' for Inactive)
REMARK    1  A    between atoms: C2_2  and  C3_3 
REMARK       I    between atoms: C3_3  and  N1_5 
REMARK    2  A    between atoms: C7_9  and  N2_10 
REMARK    3  A    between atoms: C8_13  and  C9_14 
REMARK    4  A    between atoms: C13_18  and  O2_19 
REMARK    5  A    between atoms: O2_19  and  C14_20 
REMARK    6  A    between atoms: C24_30  and  N4_31 
ROOT
HETATM    1  N2  UNL     1      -6.565  47.745 -24.266  1.00  0.00    -0.269 N 
HETATM    2  N3  UNL     1      -6.126  48.673 -25.148  1.00  0.00    -0.295 N 
ATOM      3  H3  UNL     1      -6.580  48.991 -26.005  1.00  0.00     0.187 HD
HETATM    4  C8  UNL     1      -4.953  49.079 -24.632  1.00  0.00     0.077 A 
HETATM    5  C23 UNL     1      -4.636  48.385 -23.431  1.00  0.00     0.082 A 
HETATM    6  C24 UNL     1      -3.595  48.342 -22.493  1.00  0.00     0.116 A 
HETATM    7  N5  UNL     1      -3.700  47.486 -21.455  1.00  0.00    -0.338 N 
ATOM      8  H5  UNL     1      -2.961  47.421 -20.755  1.00  0.00     0.168 HD
HETATM    9  C25 UNL     1      -4.805  46.717 -21.365  1.00  0.00     0.183 A 
HETATM   10  N6  UNL     1      -5.853  46.664 -22.208  1.00  0.00    -0.337 N 
ATOM     11  H6  UNL     1      -6.655  46.046 -22.092  1.00  0.00     0.168 HD
HETATM   12  C26 UNL     1      -5.705  47.534 -23.223  1.00  0.00     0.140 A 
ENDROOT
BRANCH   4  13
HETATM   13  C9  UNL     1      -4.136  50.094 -25.293  1.00  0.00     0.005 A 
HETATM   14  C10 UNL     1      -4.122  51.419 -24.797  1.00  0.00    -0.046 A 
HETATM   15  C11 UNL     1      -4.993  51.846 -23.647  1.00  0.00     0.049 C 
HETATM   16  C12 UNL     1      -3.245  52.355 -25.366  1.00  0.00     0.045 A 
HETATM   17  C13 UNL     1      -2.383  51.974 -26.392  1.00  0.00     0.077 A 
HETATM   18  C20 UNL     1      -2.429  50.684 -26.918  1.00  0.00     0.045 A 
HETATM   19  C21 UNL     1      -3.307  49.731 -26.380  1.00  0.00    -0.046 A 
HETATM   20  C22 UNL     1      -3.336  48.348 -26.973  1.00  0.00     0.049 C 
BRANCH  17  21
HETATM   21  O2  UNL     1      -1.534  52.913 -26.932  1.00  0.00    -0.311 OA
BRANCH  21  22
HETATM   22  C14 UNL     1      -0.215  52.523 -26.971  1.00  0.00     0.076 A 
HETATM   23  C15 UNL     1       0.454  52.296 -25.765  1.00  0.00     0.037 A 
HETATM   24  C16 UNL     1       1.782  51.863 -25.778  1.00  0.00     0.003 A 
HETATM   25  C17 UNL     1       2.427  51.635 -26.995  1.00  0.00     0.000 A 
HETATM   26  C18 UNL     1       1.745  51.836 -28.200  1.00  0.00     0.003 A 
HETATM   27  C19 UNL     1       0.421  52.278 -28.191  1.00  0.00     0.037 A 
ENDBRANCH  21  22
ENDBRANCH  17  21
ENDBRANCH   4  13
BRANCH   1  28
HETATM   28  C7  UNL     1      -7.804  47.022 -24.512  1.00  0.00     0.128 C 
HETATM   29  C6  UNL     1      -9.051  47.881 -24.270  1.00  0.00     0.030 C 
HETATM   30  C5  UNL     1     -10.305  47.058 -24.554  1.00  0.00     0.022 C 
HETATM   31  C4  UNL     1     -10.292  46.506 -25.976  1.00  0.00     0.126 C 
HETATM   32  N1  UNL     1      -9.068  45.765 -26.280  1.00  0.00    -0.347 N 
HETATM   33  C3  UNL     1      -9.158  44.844 -27.321  1.00  0.00     0.242 C 
HETATM   34  C27 UNL     1      -7.803  46.426 -25.925  1.00  0.00     0.153 C 
HETATM   35  O1  UNL     1     -10.209  44.499 -27.854  1.00  0.00    -0.268 OA
BRANCH  33  36
HETATM   36  C2  UNL     1      -7.881  44.259 -27.789  1.00  0.00     0.064 C 
HETATM   37  C1  UNL     1      -7.515  44.437 -29.065  1.00  0.00     0.017 C 
ENDBRANCH  33  36
ENDBRANCH   1  28
BRANCH   6  38
HETATM   38  N4  UNL     1      -2.448  49.112 -22.558  1.00  0.00    -0.385 N 
HETATM   39  H24 UNL     1      -1.705  48.777 -21.959  1.00  0.00     0.157 HD
HETATM   40  H25 UNL     1      -2.190  49.498 -23.459  1.00  0.00     0.157 HD
ENDBRANCH   6  38
TORSDOF 6
ENDMDL
MODEL 7
REMARK minimizedAffinity -9.50421333
REMARK  6 active torsions:
REMARK  status: ('A' for Active; 'I' for Inactive)
REMARK    1  A    between atoms: C2_2  and  C3_3 
REMARK       I    between atoms: C3_3  and  N1_5 
REMARK    2  A    between atoms: C7_9  and  N2_10 
REMARK    3  A    between atoms: C8_13  and  C9_14 
REMARK    4  A    between atoms: C13_18  and  O2_19 
REMARK    5  A    between atoms: O2_19  and  C14_20 
REMARK    6  A    between atoms: C24_30  and  N4_31 
ROOT
HETATM    1  N2  UNL     1      -0.697  52.214 -23.629  1.00  0.00    -0.269 N 
HETATM    2  N3  UNL     1      -1.725  51.372 -23.370  1.00  0.00    -0.295 N 
ATOM      3  H3  UNL     1      -1.950  50.906 -22.491  1.00  0.00     0.187 HD
HETATM    4  C8  UNL     1      -2.381  51.294 -24.540  1.00  0.00     0.077 A 
HETATM    5  C23 UNL     1      -1.750  52.071 -25.552  1.00  0.00     0.082 A 
HETATM    6  C24 UNL     1      -1.927  52.356 -26.913  1.00  0.00     0.116 A 
HETATM    7  N5  UNL     1      -1.044  53.178 -27.518  1.00  0.00    -0.338 N 
ATOM      8  H5  UNL     1      -1.136  53.405 -28.508  1.00  0.00     0.168 HD
HETATM    9  C25 UNL     1      -0.036  53.691 -26.783  1.00  0.00     0.183 A 
HETATM   10  N6  UNL     1       0.239  53.477 -25.483  1.00  0.00    -0.337 N 
ATOM     11  H6  UNL     1       1.031  53.884 -24.987  1.00  0.00     0.168 HD
HETATM   12  C26 UNL     1      -0.667  52.656 -24.924  1.00  0.00     0.140 A 
ENDROOT
BRANCH   4  13
HETATM   13  C9  UNL     1      -3.576  50.469 -24.695  1.00  0.00     0.005 A 
HETATM   14  C10 UNL     1      -3.493  49.227 -25.367  1.00  0.00    -0.046 A 
HETATM   15  C11 UNL     1      -2.217  48.756 -26.011  1.00  0.00     0.049 C 
HETATM   16  C12 UNL     1      -4.618  48.391 -25.406  1.00  0.00     0.045 A 
HETATM   17  C13 UNL     1      -5.797  48.772 -24.769  1.00  0.00     0.077 A 
HETATM   18  C20 UNL     1      -5.900  50.017 -24.149  1.00  0.00     0.045 A 
HETATM   19  C21 UNL     1      -4.795  50.880 -24.108  1.00  0.00    -0.046 A 
HETATM   20  C22 UNL     1      -4.940  52.219 -23.435  1.00  0.00     0.049 C 
BRANCH  17  21
HETATM   21  O2  UNL     1      -6.886  47.933 -24.824  1.00  0.00    -0.311 OA
BRANCH  21  22
HETATM   22  C14 UNL     1      -6.943  47.016 -23.798  1.00  0.00     0.076 A 
HETATM   23  C15 UNL     1      -7.789  45.911 -23.932  1.00  0.00     0.037 A 
HETATM   24  C16 UNL     1      -7.838  44.948 -22.922  1.00  0.00     0.003 A 
HETATM   25  C17 UNL     1      -7.022  45.079 -21.796  1.00  0.00     0.000 A 
HETATM   26  C18 UNL     1      -6.156  46.171 -21.679  1.00  0.00     0.003 A 
HETATM   27  C19 UNL     1      -6.112  47.141 -22.682  1.00  0.00     0.037 A 
ENDBRANCH  21  22
ENDBRANCH  17  21
ENDBRANCH   4  13
BRANCH   1  28
HETATM   28  C7  UNL     1       0.289  52.511 -22.600  1.00  0.00     0.128 C 
HETATM   29  C6  UNL     1       0.834  53.940 -22.695  1.00  0.00     0.030 C 
HETATM   30  C5  UNL     1       1.853  54.176 -21.583  1.00  0.00     0.022 C 
HETATM   31  C4  UNL     1       1.242  53.918 -20.211  1.00  0.00     0.126 C 
HETATM   32  N1  UNL     1       0.619  52.598 -20.113  1.00  0.00    -0.347 N 
HETATM   33  C3  UNL     1       0.476  52.086 -18.825  1.00  0.00     0.242 C 
HETATM   34  C27 UNL     1      -0.289  52.226 -21.209  1.00  0.00     0.153 C 
HETATM   35  O1  UNL     1       0.991  52.576 -17.823  1.00  0.00    -0.268 OA
BRANCH  33  36
HETATM   36  C2  UNL     1      -0.353  50.868 -18.693  1.00  0.00     0.064 C 
HETATM   37  C1  UNL     1      -0.234  50.119 -17.589  1.00  0.00     0.017 C 
ENDBRANCH  33  36
ENDBRANCH   1  28
BRANCH   6  38
HETATM   38  N4  UNL     1      -2.947  51.845 -27.696  1.00  0.00    -0.385 N 
HETATM   39  H24 UNL     1      -2.779  51.945 -28.688  1.00  0.00     0.157 HD
HETATM   40  H25 UNL     1      -3.406  50.999 -27.378  1.00  0.00     0.157 HD
ENDBRANCH   6  38
TORSDOF 6
ENDMDL
MODEL 8
REMARK minimizedAffinity -9.19358349
REMARK  6 active torsions:
REMARK  status: ('A' for Active; 'I' for Inactive)
REMARK    1  A    between atoms: C2_2  and  C3_3 
REMARK       I    between atoms: C3_3  and  N1_5 
REMARK    2  A    between atoms: C7_9  and  N2_10 
REMARK    3  A    between atoms: C8_13  and  C9_14 
REMARK    4  A    between atoms: C13_18  and  O2_19 
REMARK    5  A    between atoms: O2_19  and  C14_20 
REMARK    6  A    between atoms: C24_30  and  N4_31 
ROOT
HETATM    1  N2  UNL     1      -6.696  48.002 -23.668  1.00  0.00    -0.269 N 
HETATM    2  N3  UNL     1      -6.338  48.939 -24.577  1.00  0.00    -0.295 N 
ATOM      3  H3  UNL     1      -6.911  49.354 -25.311  1.00  0.00     0.187 HD
HETATM    4  C8  UNL     1      -5.050  49.194 -24.288  1.00  0.00     0.077 A 
HETATM    5  C23 UNL     1      -4.584  48.396 -23.205  1.00  0.00     0.082 A 
HETATM    6  C24 UNL     1      -3.392  48.190 -22.496  1.00  0.00     0.116 A 
HETATM    7  N5  UNL     1      -3.387  47.283 -21.497  1.00  0.00    -0.338 N 
ATOM      8  H5  UNL     1      -2.539  47.102 -20.962  1.00  0.00     0.168 HD
HETATM    9  C25 UNL     1      -4.531  46.622 -21.224  1.00  0.00     0.183 A 
HETATM   10  N6  UNL     1      -5.721  46.727 -21.842  1.00  0.00    -0.337 N 
ATOM     11  H6  UNL     1      -6.548  46.183 -21.597  1.00  0.00     0.168 HD
HETATM   12  C26 UNL     1      -5.678  47.642 -22.826  1.00  0.00     0.140 A 
ENDROOT
BRANCH   4  13
HETATM   13  C9  UNL     1      -4.271  50.165 -25.052  1.00  0.00     0.005 A 
HETATM   14  C10 UNL     1      -4.181  51.504 -24.605  1.00  0.00    -0.046 A 
HETATM   15  C11 UNL     1      -4.936  51.991 -23.397  1.00  0.00     0.049 C 
HETATM   16  C12 UNL     1      -3.336  52.397 -25.280  1.00  0.00     0.045 A 
HETATM   17  C13 UNL     1      -2.578  51.961 -26.364  1.00  0.00     0.077 A 
HETATM   18  C20 UNL     1      -2.702  50.656 -26.840  1.00  0.00     0.045 A 
HETATM   19  C21 UNL     1      -3.551  49.746 -26.194  1.00  0.00    -0.046 A 
HETATM   20  C22 UNL     1      -3.666  48.345 -26.736  1.00  0.00     0.049 C 
BRANCH  17  21
HETATM   21  O2  UNL     1      -1.758  52.859 -27.008  1.00  0.00    -0.311 OA
BRANCH  21  22
HETATM   22  C14 UNL     1      -0.428  52.503 -27.017  1.00  0.00     0.076 A 
HETATM   23  C15 UNL     1       0.236  52.359 -25.795  1.00  0.00     0.037 A 
HETATM   24  C16 UNL     1       1.574  51.962 -25.774  1.00  0.00     0.003 A 
HETATM   25  C17 UNL     1       2.235  51.684 -26.972  1.00  0.00     0.000 A 
HETATM   26  C18 UNL     1       1.559  51.802 -28.192  1.00  0.00     0.003 A 
HETATM   27  C19 UNL     1       0.224  52.208 -28.217  1.00  0.00     0.037 A 
ENDBRANCH  21  22
ENDBRANCH  17  21
ENDBRANCH   4  13
BRANCH   1  28
HETATM   28  C7  UNL     1      -8.031  47.422 -23.694  1.00  0.00     0.128 C 
HETATM   29  C6  UNL     1      -8.102  46.133 -24.520  1.00  0.00     0.030 C 
HETATM   30  C5  UNL     1      -9.527  45.584 -24.493  1.00  0.00     0.022 C 
HETATM   31  C4  UNL     1      -9.998  45.342 -23.063  1.00  0.00     0.126 C 
HETATM   32  N1  UNL     1      -9.849  46.523 -22.215  1.00  0.00    -0.347 N 
HETATM   33  C3  UNL     1     -10.664  46.569 -21.085  1.00  0.00     0.242 C 
HETATM   34  C27 UNL     1      -8.543  47.200 -22.266  1.00  0.00     0.153 C 
HETATM   35  O1  UNL     1     -11.593  45.796 -20.869  1.00  0.00    -0.268 OA
BRANCH  33  36
HETATM   36  C2  UNL     1     -10.363  47.634 -20.104  1.00  0.00     0.064 C 
HETATM   37  C1  UNL     1     -11.370  48.177 -19.407  1.00  0.00     0.017 C 
ENDBRANCH  33  36
ENDBRANCH   1  28
BRANCH   6  38
HETATM   38  N4  UNL     1      -2.203  48.848 -22.754  1.00  0.00    -0.385 N 
HETATM   39  H24 UNL     1      -1.400  48.403 -22.330  1.00  0.00     0.157 HD
HETATM   40  H25 UNL     1      -2.083  49.264 -23.670  1.00  0.00     0.157 HD
ENDBRANCH   6  38
TORSDOF 6
ENDMDL
MODEL 9
REMARK minimizedAffinity -9.18789387
REMARK  6 active torsions:
REMARK  status: ('A' for Active; 'I' for Inactive)
REMARK    1  A    between atoms: C2_2  and  C3_3 
REMARK       I    between atoms: C3_3  and  N1_5 
REMARK    2  A    between atoms: C7_9  and  N2_10 
REMARK    3  A    between atoms: C8_13  and  C9_14 
REMARK    4  A    between atoms: C13_18  and  O2_19 
REMARK    5  A    between atoms: O2_19  and  C14_20 
REMARK    6  A    between atoms: C24_30  and  N4_31 
ROOT
HETATM    1  N2  UNL     1       0.287  52.131 -18.295  1.00  0.00    -0.269 N 
HETATM    2  N3  UNL     1       0.878  52.692 -17.214  1.00  0.00    -0.295 N 
ATOM      3  H3  UNL     1       1.276  53.628 -17.130  1.00  0.00     0.187 HD
HETATM    4  C8  UNL     1       0.819  51.729 -16.278  1.00  0.00     0.077 A 
HETATM    5  C23 UNL     1       0.210  50.544 -16.777  1.00  0.00     0.082 A 
HETATM    6  C24 UNL     1      -0.096  49.254 -16.320  1.00  0.00     0.116 A 
HETATM    7  N5  UNL     1      -0.697  48.397 -17.171  1.00  0.00    -0.338 N 
ATOM      8  H5  UNL     1      -0.931  47.449 -16.878  1.00  0.00     0.168 HD
HETATM    9  C25 UNL     1      -0.981  48.823 -18.420  1.00  0.00     0.183 A 
HETATM   10  N6  UNL     1      -0.722  50.024 -18.968  1.00  0.00    -0.337 N 
ATOM     11  H6  UNL     1      -0.948  50.280 -19.929  1.00  0.00     0.168 HD
HETATM   12  C26 UNL     1      -0.127  50.844 -18.084  1.00  0.00     0.140 A 
ENDROOT
BRANCH   4  13
HETATM   13  C9  UNL     1       1.361  51.931 -14.937  1.00  0.00     0.005 A 
HETATM   14  C10 UNL     1       0.486  52.030 -13.830  1.00  0.00    -0.046 A 
HETATM   15  C11 UNL     1      -1.010  52.018 -13.997  1.00  0.00     0.049 C 
HETATM   16  C12 UNL     1       1.022  52.105 -12.536  1.00  0.00     0.045 A 
HETATM   17  C13 UNL     1       2.401  52.058 -12.345  1.00  0.00     0.077 A 
HETATM   18  C20 UNL     1       3.269  52.012 -13.435  1.00  0.00     0.045 A 
HETATM   19  C21 UNL     1       2.762  51.952 -14.741  1.00  0.00    -0.046 A 
HETATM   20  C22 UNL     1       3.726  51.907 -15.897  1.00  0.00     0.049 C 
BRANCH  17  21
HETATM   21  O2  UNL     1       2.898  52.135 -11.064  1.00  0.00    -0.311 OA
BRANCH  21  22
HETATM   22  C14 UNL     1       3.238  53.408 -10.667  1.00  0.00     0.076 A 
HETATM   23  C15 UNL     1       4.509  53.627 -10.127  1.00  0.00     0.037 A 
HETATM   24  C16 UNL     1       4.892  54.915  -9.751  1.00  0.00     0.003 A 
HETATM   25  C17 UNL     1       4.013  55.984  -9.939  1.00  0.00     0.000 A 
HETATM   26  C18 UNL     1       2.752  55.766 -10.506  1.00  0.00     0.003 A 
HETATM   27  C19 UNL     1       2.363  54.477 -10.874  1.00  0.00     0.037 A 
ENDBRANCH  21  22
ENDBRANCH  17  21
ENDBRANCH   4  13
BRANCH   1  28
HETATM   28  C7  UNL     1       0.206  52.860 -19.552  1.00  0.00     0.128 C 
HETATM   29  C6  UNL     1       1.553  53.450 -19.985  1.00  0.00     0.030 C 
HETATM   30  C5  UNL     1       1.387  54.190 -21.310  1.00  0.00     0.022 C 
HETATM   31  C4  UNL     1       0.823  53.272 -22.389  1.00  0.00     0.126 C 
HETATM   32  N1  UNL     1      -0.412  52.609 -21.972  1.00  0.00    -0.347 N 
HETATM   33  C3  UNL     1      -1.238  52.160 -23.001  1.00  0.00     0.242 C 
HETATM   34  C27 UNL     1      -0.392  51.969 -20.647  1.00  0.00     0.153 C 
HETATM   35  O1  UNL     1      -1.086  52.441 -24.186  1.00  0.00    -0.268 OA
BRANCH  33  36
HETATM   36  C2  UNL     1      -2.367  51.291 -22.601  1.00  0.00     0.064 C 
HETATM   37  C1  UNL     1      -3.589  51.827 -22.485  1.00  0.00     0.017 C 
ENDBRANCH  33  36
ENDBRANCH   1  28
BRANCH   6  38
HETATM   38  N4  UNL     1       0.184  48.785 -15.050  1.00  0.00    -0.385 N 
HETATM   39  H24 UNL     1       0.131  47.778 -14.974  1.00  0.00     0.157 HD
HETATM   40  H25 UNL     1       0.904  49.261 -14.520  1.00  0.00     0.157 HD
ENDBRANCH   6  38
TORSDOF 6
ENDMDL
