MODEL 1
REMARK minimizedAffinity -9.61631584
REMARK CNNscore 0.830668509
REMARK CNNaffinity 8.0230093
REMARK  7 active torsions:
REMARK  status: ('A' for Active; 'I' for Inactive)
REMARK    1  A    between atoms: N1_2  and  S1_3 
REMARK    2  A    between atoms: S1_3  and  C2_6 
REMARK    3  A    between atoms: C9_13  and  C10_14 
REMARK    4  A    between atoms: C13_18  and  C14_19 
REMARK    5  A    between atoms: C14_19  and  C15_20 
REMARK    6  A    between atoms: C15_20  and  C16_21 
REMARK    7  A    between atoms: C16_21  and  N3_22 
REMARK       I    between atoms: N4_25  and  C19_26 
ROOT
HETATM    1  C10 UNL     1      -7.436   6.282  13.866  1.00  0.00     0.040 A 
HETATM    2  N2  UNL     1      -8.719   6.063  13.416  1.00  0.00    -0.359 N 
HETATM    3  C11 UNL     1      -9.572   6.956  13.998  1.00  0.00     0.016 A 
HETATM    4  C12 UNL     1      -8.852   7.761  14.850  1.00  0.00    -0.027 A 
HETATM    5  C13 UNL     1      -7.493   7.339  14.778  1.00  0.00    -0.023 A 
HETATM    6  C23 UNL     1      -9.488   8.867  15.627  1.00  0.00     0.041 C 
HETATM    7  C24 UNL     1     -11.022   8.722  15.651  1.00  0.00     0.005 C 
HETATM    8  C25 UNL     1     -11.596   8.352  14.270  1.00  0.00     0.006 C 
HETATM    9  C26 UNL     1     -11.037   7.015  13.749  1.00  0.00     0.057 C 
HETATM   10  H9  UNL     1      -8.997   5.355  12.744  1.00  0.00     0.166 HD
ENDROOT
BRANCH   1  11
HETATM   11  C9  UNL     1      -6.324   5.519  13.408  1.00  0.00     0.048 C 
HETATM   12  C8  UNL     1      -6.279   4.269  12.919  1.00  0.00     0.047 A 
HETATM   13  C6  UNL     1      -5.027   3.639  12.455  1.00  0.00     0.008 A 
HETATM   14  C27 UNL     1      -7.367   3.243  12.703  1.00  0.00     0.257 A 
HETATM   15  C5  UNL     1      -5.371   2.363  11.995  1.00  0.00     0.046 A 
HETATM   16  C7  UNL     1      -3.712   4.069  12.397  1.00  0.00     0.040 A 
HETATM   17  C4  UNL     1      -4.447   1.482  11.466  1.00  0.00     0.032 A 
HETATM   18  N5  UNL     1      -6.733   2.143  12.146  1.00  0.00    -0.322 N 
HETATM   19  C3  UNL     1      -3.118   1.905  11.400  1.00  0.00     0.027 A 
HETATM   20  C2  UNL     1      -2.758   3.184  11.873  1.00  0.00     0.080 A 
HETATM   21  H35 UNL     1      -7.230   1.303  11.890  1.00  0.00     0.169 HD
HETATM   22  O4  UNL     1      -8.553   3.331  12.957  1.00  0.00    -0.267 OA
BRANCH  20  23
HETATM   23  S1  UNL     1      -1.066   3.722  11.755  1.00  0.00     0.258 S 
HETATM   24  O1  UNL     1      -0.989   4.676  10.671  1.00  0.00    -0.201 OA
HETATM   25  O2  UNL     1      -0.217   2.553  11.809  1.00  0.00    -0.201 OA
BRANCH  23  26
HETATM   26  N1  UNL     1      -0.867   4.586  13.169  1.00  0.00    -0.320 N 
HETATM   27  C1  UNL     1       0.322   5.391  13.395  1.00  0.00     0.159 C 
HETATM   28  H4  UNL     1      -1.444   4.296  13.956  1.00  0.00     0.171 HD
ENDBRANCH  23  26
ENDBRANCH  20  23
ENDBRANCH   1  11
BRANCH   5  29
HETATM   29  C14 UNL     1      -6.346   7.943  15.532  1.00  0.00     0.043 C 
BRANCH  29  30
HETATM   30  C15 UNL     1      -5.370   8.678  14.608  1.00  0.00     0.035 C 
BRANCH  30  31
HETATM   31  C16 UNL     1      -3.960   8.690  15.212  1.00  0.00     0.273 C 
BRANCH  31  32
HETATM   32  N3  UNL     1      -2.883   8.205  14.348  1.00  0.00     0.091 N 
HETATM   33  C17 UNL     1      -2.916   8.749  12.983  1.00  0.00     0.292 C 
HETATM   34  C18 UNL     1      -1.682   8.338  12.156  1.00  0.00     0.156 C 
HETATM   35  N4  UNL     1      -0.424   8.744  12.791  1.00  0.00    -0.349 N 
HETATM   36  C19 UNL     1       0.795   8.804  12.140  1.00  0.00     0.215 C 
HETATM   37  C21 UNL     1      -0.499   9.093  14.211  1.00  0.00     0.156 C 
HETATM   38  C20 UNL     1       0.817   8.388  10.690  1.00  0.00     0.117 C 
HETATM   39  O3  UNL     1       1.828   9.189  12.691  1.00  0.00    -0.274 OA
HETATM   40  C22 UNL     1      -1.544   8.247  14.964  1.00  0.00     0.292 C 
ENDBRANCH  31  32
ENDBRANCH  30  31
ENDBRANCH  29  30
ENDBRANCH   5  29
TORSDOF 7
ENDMDL
MODEL 2
REMARK minimizedAffinity -9.53018284
REMARK CNNscore 0.734625876
REMARK CNNaffinity 7.71895361
REMARK  7 active torsions:
REMARK  status: ('A' for Active; 'I' for Inactive)
REMARK    1  A    between atoms: N1_2  and  S1_3 
REMARK    2  A    between atoms: S1_3  and  C2_6 
REMARK    3  A    between atoms: C9_13  and  C10_14 
REMARK    4  A    between atoms: C13_18  and  C14_19 
REMARK    5  A    between atoms: C14_19  and  C15_20 
REMARK    6  A    between atoms: C15_20  and  C16_21 
REMARK    7  A    between atoms: C16_21  and  N3_22 
REMARK       I    between atoms: N4_25  and  C19_26 
ROOT
HETATM    1  C10 UNL     1      -7.468   6.305  13.845  1.00  0.00     0.040 A 
HETATM    2  N2  UNL     1      -8.741   6.069  13.376  1.00  0.00    -0.359 N 
HETATM    3  C11 UNL     1      -9.617   6.942  13.952  1.00  0.00     0.016 A 
HETATM    4  C12 UNL     1      -8.922   7.752  14.822  1.00  0.00    -0.027 A 
HETATM    5  C13 UNL     1      -7.556   7.354  14.765  1.00  0.00    -0.023 A 
HETATM    6  C23 UNL     1      -9.588   8.840  15.598  1.00  0.00     0.041 C 
HETATM    7  C24 UNL     1     -11.120   8.669  15.600  1.00  0.00     0.005 C 
HETATM    8  C25 UNL     1     -11.668   8.301  14.208  1.00  0.00     0.006 C 
HETATM    9  C26 UNL     1     -11.080   6.978  13.684  1.00  0.00     0.057 C 
HETATM   10  H9  UNL     1      -8.998   5.362  12.694  1.00  0.00     0.166 HD
ENDROOT
BRANCH   1  11
HETATM   11  C9  UNL     1      -6.337   5.565  13.396  1.00  0.00     0.048 C 
HETATM   12  C8  UNL     1      -6.261   4.314  12.915  1.00  0.00     0.047 A 
HETATM   13  C6  UNL     1      -4.993   3.711  12.460  1.00  0.00     0.008 A 
HETATM   14  C27 UNL     1      -7.324   3.262  12.700  1.00  0.00     0.257 A 
HETATM   15  C5  UNL     1      -5.305   2.424  12.006  1.00  0.00     0.046 A 
HETATM   16  C7  UNL     1      -3.688   4.170  12.405  1.00  0.00     0.040 A 
HETATM   17  C4  UNL     1      -4.360   1.561  11.486  1.00  0.00     0.032 A 
HETATM   18  N5  UNL     1      -6.663   2.174  12.152  1.00  0.00    -0.322 N 
HETATM   19  C3  UNL     1      -3.040   2.014  11.423  1.00  0.00     0.027 A 
HETATM   20  C2  UNL     1      -2.712   3.304  11.891  1.00  0.00     0.080 A 
HETATM   21  H35 UNL     1      -7.140   1.322  11.899  1.00  0.00     0.169 HD
HETATM   22  O4  UNL     1      -8.514   3.325  12.948  1.00  0.00    -0.267 OA
BRANCH  20  23
HETATM   23  S1  UNL     1      -1.031   3.880  11.776  1.00  0.00     0.258 S 
HETATM   24  O1  UNL     1      -0.965   4.805  10.668  1.00  0.00    -0.201 OA
HETATM   25  O2  UNL     1      -0.156   2.734  11.873  1.00  0.00    -0.201 OA
BRANCH  23  26
HETATM   26  N1  UNL     1      -0.871   4.787  13.169  1.00  0.00    -0.320 N 
HETATM   27  C1  UNL     1       0.242   5.705  13.341  1.00  0.00     0.159 C 
HETATM   28  H4  UNL     1      -1.393   4.460  13.980  1.00  0.00     0.171 HD
ENDBRANCH  23  26
ENDBRANCH  20  23
ENDBRANCH   1  11
BRANCH   5  29
HETATM   29  C14 UNL     1      -6.430   7.971  15.540  1.00  0.00     0.043 C 
BRANCH  29  30
HETATM   30  C15 UNL     1      -5.493   8.788  14.645  1.00  0.00     0.035 C 
BRANCH  30  31
HETATM   31  C16 UNL     1      -4.355   9.400  15.472  1.00  0.00     0.273 C 
BRANCH  31  32
HETATM   32  N3  UNL     1      -2.996   9.111  15.012  1.00  0.00     0.091 N 
HETATM   33  C17 UNL     1      -2.070  10.247  15.121  1.00  0.00     0.292 C 
HETATM   34  C18 UNL     1      -0.619   9.858  14.778  1.00  0.00     0.156 C 
HETATM   35  N4  UNL     1      -0.119   8.766  15.618  1.00  0.00    -0.349 N 
HETATM   36  C19 UNL     1       1.218   8.438  15.760  1.00  0.00     0.215 C 
HETATM   37  C21 UNL     1      -1.130   7.985  16.332  1.00  0.00     0.156 C 
HETATM   38  C20 UNL     1       2.209   9.249  14.963  1.00  0.00     0.117 C 
HETATM   39  O3  UNL     1       1.609   7.539  16.507  1.00  0.00    -0.274 OA
HETATM   40  C22 UNL     1      -2.436   7.847  15.526  1.00  0.00     0.292 C 
ENDBRANCH  31  32
ENDBRANCH  30  31
ENDBRANCH  29  30
ENDBRANCH   5  29
TORSDOF 7
ENDMDL
MODEL 3
REMARK minimizedAffinity -7.75155735
REMARK CNNscore 0.411879569
REMARK CNNaffinity 7.12364817
REMARK  7 active torsions:
REMARK  status: ('A' for Active; 'I' for Inactive)
REMARK    1  A    between atoms: N1_2  and  S1_3 
REMARK    2  A    between atoms: S1_3  and  C2_6 
REMARK    3  A    between atoms: C9_13  and  C10_14 
REMARK    4  A    between atoms: C13_18  and  C14_19 
REMARK    5  A    between atoms: C14_19  and  C15_20 
REMARK    6  A    between atoms: C15_20  and  C16_21 
REMARK    7  A    between atoms: C16_21  and  N3_22 
REMARK       I    between atoms: N4_25  and  C19_26 
ROOT
HETATM    1  C10 UNL     1      -9.169   7.069  14.424  1.00  0.00     0.040 A 
HETATM    2  N2  UNL     1     -10.200   6.186  14.189  1.00  0.00    -0.359 N 
HETATM    3  C11 UNL     1     -11.398   6.805  14.402  1.00  0.00     0.016 A 
HETATM    4  C12 UNL     1     -11.159   8.101  14.797  1.00  0.00    -0.027 A 
HETATM    5  C13 UNL     1      -9.746   8.280  14.818  1.00  0.00    -0.023 A 
HETATM    6  C23 UNL     1     -12.266   9.061  15.086  1.00  0.00     0.041 C 
HETATM    7  C24 UNL     1     -13.609   8.326  15.267  1.00  0.00     0.005 C 
HETATM    8  C25 UNL     1     -13.825   7.234  14.202  1.00  0.00     0.006 C 
HETATM    9  C26 UNL     1     -12.727   6.156  14.246  1.00  0.00     0.057 C 
HETATM   10  H9  UNL     1     -10.095   5.222  13.888  1.00  0.00     0.166 HD
ENDROOT
BRANCH   1  11
HETATM   11  C9  UNL     1      -7.802   6.712  14.252  1.00  0.00     0.048 C 
HETATM   12  C8  UNL     1      -7.260   5.633  13.664  1.00  0.00     0.047 A 
HETATM   13  C6  UNL     1      -5.801   5.439  13.545  1.00  0.00     0.008 A 
HETATM   14  C27 UNL     1      -7.896   4.431  13.006  1.00  0.00     0.257 A 
HETATM   15  C5  UNL     1      -5.615   4.232  12.861  1.00  0.00     0.046 A 
HETATM   16  C7  UNL     1      -4.707   6.186  13.948  1.00  0.00     0.040 A 
HETATM   17  C4  UNL     1      -4.366   3.730  12.550  1.00  0.00     0.032 A 
HETATM   18  N5  UNL     1      -6.840   3.655  12.554  1.00  0.00    -0.322 N 
HETATM   19  C3  UNL     1      -3.255   4.476  12.948  1.00  0.00     0.027 A 
HETATM   20  C2  UNL     1      -3.430   5.686  13.651  1.00  0.00     0.080 A 
HETATM   21  H35 UNL     1      -6.979   2.784  12.064  1.00  0.00     0.169 HD
HETATM   22  O4  UNL     1      -9.078   4.169  12.887  1.00  0.00    -0.267 OA
BRANCH  20  23
HETATM   23  S1  UNL     1      -2.006   6.643  14.126  1.00  0.00     0.258 S 
HETATM   24  O1  UNL     1      -2.191   7.042  15.503  1.00  0.00    -0.201 OA
HETATM   25  O2  UNL     1      -1.740   7.603  13.078  1.00  0.00    -0.201 OA
BRANCH  23  26
HETATM   26  N1  UNL     1      -0.790   5.499  14.116  1.00  0.00    -0.320 N 
HETATM   27  C1  UNL     1       0.522   5.805  13.572  1.00  0.00     0.159 C 
HETATM   28  H4  UNL     1      -1.085   4.531  14.224  1.00  0.00     0.171 HD
ENDBRANCH  23  26
ENDBRANCH  20  23
ENDBRANCH   1  11
BRANCH   5  29
HETATM   29  C14 UNL     1      -9.027   9.546  15.180  1.00  0.00     0.043 C 
BRANCH  29  30
HETATM   30  C15 UNL     1      -9.932  10.528  15.930  1.00  0.00     0.035 C 
BRANCH  30  31
HETATM   31  C16 UNL     1      -9.909  11.906  15.254  1.00  0.00     0.273 C 
BRANCH  31  32
HETATM   32  N3  UNL     1      -9.649  13.050  16.130  1.00  0.00     0.091 N 
HETATM   33  C17 UNL     1      -9.819  12.762  17.561  1.00  0.00     0.292 C 
HETATM   34  C18 UNL     1      -9.385  13.941  18.453  1.00  0.00     0.156 C 
HETATM   35  N4  UNL     1      -7.993  14.338  18.219  1.00  0.00    -0.349 N 
HETATM   36  C19 UNL     1      -7.249  15.123  19.080  1.00  0.00     0.215 C 
HETATM   37  C21 UNL     1      -7.387  13.860  16.974  1.00  0.00     0.156 C 
HETATM   38  C20 UNL     1      -7.944  15.623  20.322  1.00  0.00     0.117 C 
HETATM   39  O3  UNL     1      -6.068  15.405  18.874  1.00  0.00    -0.274 OA
HETATM   40  C22 UNL     1      -8.406  13.781  15.822  1.00  0.00     0.292 C 
ENDBRANCH  31  32
ENDBRANCH  30  31
ENDBRANCH  29  30
ENDBRANCH   5  29
TORSDOF 7
ENDMDL
MODEL 4
REMARK minimizedAffinity -9.75273514
REMARK CNNscore 0.380037338
REMARK CNNaffinity 7.33419657
REMARK  7 active torsions:
REMARK  status: ('A' for Active; 'I' for Inactive)
REMARK    1  A    between atoms: N1_2  and  S1_3 
REMARK    2  A    between atoms: S1_3  and  C2_6 
REMARK    3  A    between atoms: C9_13  and  C10_14 
REMARK    4  A    between atoms: C13_18  and  C14_19 
REMARK    5  A    between atoms: C14_19  and  C15_20 
REMARK    6  A    between atoms: C15_20  and  C16_21 
REMARK    7  A    between atoms: C16_21  and  N3_22 
REMARK       I    between atoms: N4_25  and  C19_26 
ROOT
HETATM    1  C10 UNL     1      -0.800   5.516  12.134  1.00  0.00     0.040 A 
HETATM    2  N2  UNL     1      -0.001   5.433  11.016  1.00  0.00    -0.359 N 
HETATM    3  C11 UNL     1       1.216   5.995  11.273  1.00  0.00     0.016 A 
HETATM    4  C12 UNL     1       1.217   6.469  12.565  1.00  0.00    -0.027 A 
HETATM    5  C13 UNL     1      -0.061   6.173  13.121  1.00  0.00    -0.023 A 
HETATM    6  C23 UNL     1       2.415   7.121  13.172  1.00  0.00     0.041 C 
HETATM    7  C24 UNL     1       3.435   7.532  12.091  1.00  0.00     0.005 C 
HETATM    8  C25 UNL     1       3.639   6.430  11.033  1.00  0.00     0.006 C 
HETATM    9  C26 UNL     1       2.333   6.087  10.294  1.00  0.00     0.057 C 
HETATM   10  H9  UNL     1      -0.262   5.007  10.132  1.00  0.00     0.166 HD
ENDROOT
BRANCH   1  11
HETATM   11  C9  UNL     1      -2.120   4.983  12.172  1.00  0.00     0.048 C 
HETATM   12  C8  UNL     1      -2.569   3.767  11.821  1.00  0.00     0.047 A 
HETATM   13  C6  UNL     1      -3.984   3.370  11.960  1.00  0.00     0.008 A 
HETATM   14  C27 UNL     1      -1.852   2.564  11.256  1.00  0.00     0.257 A 
HETATM   15  C5  UNL     1      -4.069   2.042  11.524  1.00  0.00     0.046 A 
HETATM   16  C7  UNL     1      -5.115   4.026  12.413  1.00  0.00     0.040 A 
HETATM   17  C4  UNL     1      -5.250   1.325  11.526  1.00  0.00     0.032 A 
HETATM   18  N5  UNL     1      -2.823   1.585  11.116  1.00  0.00    -0.322 N 
HETATM   19  C3  UNL     1      -6.397   1.975  11.985  1.00  0.00     0.027 A 
HETATM   20  C2  UNL     1      -6.326   3.318  12.412  1.00  0.00     0.080 A 
HETATM   21  H35 UNL     1      -2.617   0.663  10.761  1.00  0.00     0.169 HD
HETATM   22  O4  UNL     1      -0.675   2.449  10.969  1.00  0.00    -0.267 OA
BRANCH  20  23
HETATM   23  S1  UNL     1      -7.790   4.126  13.024  1.00  0.00     0.258 S 
HETATM   24  O1  UNL     1      -8.918   3.280  12.703  1.00  0.00    -0.201 OA
HETATM   25  O2  UNL     1      -7.736   5.515  12.627  1.00  0.00    -0.201 OA
BRANCH  23  26
HETATM   26  N1  UNL     1      -7.580   4.039  14.677  1.00  0.00    -0.320 N 
HETATM   27  C1  UNL     1      -7.500   5.243  15.487  1.00  0.00     0.159 C 
HETATM   28  H4  UNL     1      -7.222   3.157  15.038  1.00  0.00     0.171 HD
ENDBRANCH  23  26
ENDBRANCH  20  23
ENDBRANCH   1  11
BRANCH   5  29
HETATM   29  C14 UNL     1      -0.506   6.496  14.516  1.00  0.00     0.043 C 
BRANCH  29  30
HETATM   30  C15 UNL     1      -1.204   7.857  14.599  1.00  0.00     0.035 C 
BRANCH  30  31
HETATM   31  C16 UNL     1      -2.715   7.677  14.795  1.00  0.00     0.273 C 
BRANCH  31  32
HETATM   32  N3  UNL     1      -3.342   8.534  15.803  1.00  0.00     0.091 N 
HETATM   33  C17 UNL     1      -2.400   9.101  16.778  1.00  0.00     0.292 C 
HETATM   34  C18 UNL     1      -3.072  10.118  17.721  1.00  0.00     0.156 C 
HETATM   35  N4  UNL     1      -3.710  11.220  16.993  1.00  0.00    -0.349 N 
HETATM   36  C19 UNL     1      -4.092  12.418  17.568  1.00  0.00     0.215 C 
HETATM   37  C21 UNL     1      -3.952  10.997  15.566  1.00  0.00     0.156 C 
HETATM   38  C20 UNL     1      -3.860  12.570  19.050  1.00  0.00     0.117 C 
HETATM   39  O3  UNL     1      -4.589  13.341  16.920  1.00  0.00    -0.274 OA
HETATM   40  C22 UNL     1      -4.287   9.526  15.255  1.00  0.00     0.292 C 
ENDBRANCH  31  32
ENDBRANCH  30  31
ENDBRANCH  29  30
ENDBRANCH   5  29
TORSDOF 7
ENDMDL
MODEL 5
REMARK minimizedAffinity -9.54005814
REMARK CNNscore 0.364165843
REMARK CNNaffinity 7.58828974
REMARK  7 active torsions:
REMARK  status: ('A' for Active; 'I' for Inactive)
REMARK    1  A    between atoms: N1_2  and  S1_3 
REMARK    2  A    between atoms: S1_3  and  C2_6 
REMARK    3  A    between atoms: C9_13  and  C10_14 
REMARK    4  A    between atoms: C13_18  and  C14_19 
REMARK    5  A    between atoms: C14_19  and  C15_20 
REMARK    6  A    between atoms: C15_20  and  C16_21 
REMARK    7  A    between atoms: C16_21  and  N3_22 
REMARK       I    between atoms: N4_25  and  C19_26 
ROOT
HETATM    1  C10 UNL     1      -0.837   5.402  12.205  1.00  0.00     0.040 A 
HETATM    2  N2  UNL     1      -0.002   5.312  11.113  1.00  0.00    -0.359 N 
HETATM    3  C11 UNL     1       1.176   5.948  11.378  1.00  0.00     0.016 A 
HETATM    4  C12 UNL     1       1.116   6.476  12.647  1.00  0.00    -0.027 A 
HETATM    5  C13 UNL     1      -0.161   6.138  13.181  1.00  0.00    -0.023 A 
HETATM    6  C23 UNL     1       2.261   7.216  13.255  1.00  0.00     0.041 C 
HETATM    7  C24 UNL     1       3.290   7.632  12.185  1.00  0.00     0.005 C 
HETATM    8  C25 UNL     1       3.580   6.498  11.183  1.00  0.00     0.006 C 
HETATM    9  C26 UNL     1       2.314   6.055  10.425  1.00  0.00     0.057 C 
HETATM   10  H9  UNL     1      -0.217   4.836  10.242  1.00  0.00     0.166 HD
ENDROOT
BRANCH   1  11
HETATM   11  C9  UNL     1      -2.128   4.802  12.232  1.00  0.00     0.048 C 
HETATM   12  C8  UNL     1      -2.522   3.583  11.829  1.00  0.00     0.047 A 
HETATM   13  C6  UNL     1      -3.914   3.110  11.964  1.00  0.00     0.008 A 
HETATM   14  C27 UNL     1      -1.753   2.444  11.201  1.00  0.00     0.257 A 
HETATM   15  C5  UNL     1      -3.938   1.801  11.468  1.00  0.00     0.046 A 
HETATM   16  C7  UNL     1      -5.070   3.688  12.459  1.00  0.00     0.040 A 
HETATM   17  C4  UNL     1      -5.083   1.027  11.449  1.00  0.00     0.032 A 
HETATM   18  N5  UNL     1      -2.677   1.426  11.026  1.00  0.00    -0.322 N 
HETATM   19  C3  UNL     1      -6.255   1.598  11.949  1.00  0.00     0.027 A 
HETATM   20  C2  UNL     1      -6.244   2.921  12.438  1.00  0.00     0.080 A 
HETATM   21  H35 UNL     1      -2.430   0.533  10.627  1.00  0.00     0.169 HD
HETATM   22  O4  UNL     1      -0.575   2.401  10.897  1.00  0.00    -0.267 OA
BRANCH  20  23
HETATM   23  S1  UNL     1      -7.739   3.627  13.101  1.00  0.00     0.258 S 
HETATM   24  O1  UNL     1      -7.563   3.750  14.530  1.00  0.00    -0.201 OA
HETATM   25  O2  UNL     1      -8.862   2.923  12.524  1.00  0.00    -0.201 OA
BRANCH  23  26
HETATM   26  N1  UNL     1      -7.708   5.175  12.478  1.00  0.00    -0.320 N 
HETATM   27  C1  UNL     1      -8.937   5.922  12.266  1.00  0.00     0.159 C 
HETATM   28  H4  UNL     1      -6.856   5.446  11.991  1.00  0.00     0.171 HD
ENDBRANCH  23  26
ENDBRANCH  20  23
ENDBRANCH   1  11
BRANCH   5  29
HETATM   29  C14 UNL     1      -0.662   6.498  14.548  1.00  0.00     0.043 C 
BRANCH  29  30
HETATM   30  C15 UNL     1      -2.065   5.943  14.813  1.00  0.00     0.035 C 
BRANCH  30  31
HETATM   31  C16 UNL     1      -2.959   7.017  15.448  1.00  0.00     0.273 C 
BRANCH  31  32
HETATM   32  N3  UNL     1      -4.359   7.026  15.022  1.00  0.00     0.091 N 
HETATM   33  C17 UNL     1      -5.289   6.447  16.001  1.00  0.00     0.292 C 
HETATM   34  C18 UNL     1      -6.763   6.619  15.585  1.00  0.00     0.156 C 
HETATM   35  N4  UNL     1      -7.124   8.024  15.371  1.00  0.00    -0.349 N 
HETATM   36  C19 UNL     1      -8.423   8.497  15.317  1.00  0.00     0.215 C 
HETATM   37  C21 UNL     1      -6.010   8.958  15.198  1.00  0.00     0.156 C 
HETATM   38  C20 UNL     1      -9.527   7.479  15.454  1.00  0.00     0.117 C 
HETATM   39  O3  UNL     1      -8.693   9.691  15.176  1.00  0.00    -0.274 OA
HETATM   40  C22 UNL     1      -4.817   8.313  14.467  1.00  0.00     0.292 C 
ENDBRANCH  31  32
ENDBRANCH  30  31
ENDBRANCH  29  30
ENDBRANCH   5  29
TORSDOF 7
ENDMDL
MODEL 6
REMARK minimizedAffinity -7.88947344
REMARK CNNscore 0.221601278
REMARK CNNaffinity 6.90668631
REMARK  7 active torsions:
REMARK  status: ('A' for Active; 'I' for Inactive)
REMARK    1  A    between atoms: N1_2  and  S1_3 
REMARK    2  A    between atoms: S1_3  and  C2_6 
REMARK    3  A    between atoms: C9_13  and  C10_14 
REMARK    4  A    between atoms: C13_18  and  C14_19 
REMARK    5  A    between atoms: C14_19  and  C15_20 
REMARK    6  A    between atoms: C15_20  and  C16_21 
REMARK    7  A    between atoms: C16_21  and  N3_22 
REMARK       I    between atoms: N4_25  and  C19_26 
ROOT
HETATM    1  C10 UNL     1      -9.288   7.285  14.559  1.00  0.00     0.040 A 
HETATM    2  N2  UNL     1     -10.264   6.336  14.351  1.00  0.00    -0.359 N 
HETATM    3  C11 UNL     1     -11.498   6.913  14.447  1.00  0.00     0.016 A 
HETATM    4  C12 UNL     1     -11.338   8.249  14.735  1.00  0.00    -0.027 A 
HETATM    5  C13 UNL     1      -9.937   8.496  14.813  1.00  0.00    -0.023 A 
HETATM    6  C23 UNL     1     -12.499   9.175  14.880  1.00  0.00     0.041 C 
HETATM    7  C24 UNL     1     -13.818   8.396  15.057  1.00  0.00     0.005 C 
HETATM    8  C25 UNL     1     -13.927   7.206  14.084  1.00  0.00     0.006 C 
HETATM    9  C26 UNL     1     -12.787   6.190  14.282  1.00  0.00     0.057 C 
HETATM   10  H9  UNL     1     -10.102   5.355  14.145  1.00  0.00     0.166 HD
ENDROOT
BRANCH   1  11
HETATM   11  C9  UNL     1      -7.899   6.980  14.490  1.00  0.00     0.048 C 
HETATM   12  C8  UNL     1      -7.263   5.998  13.830  1.00  0.00     0.047 A 
HETATM   13  C6  UNL     1      -5.794   5.849  13.844  1.00  0.00     0.008 A 
HETATM   14  C27 UNL     1      -7.787   4.880  12.959  1.00  0.00     0.257 A 
HETATM   15  C5  UNL     1      -5.498   4.746  13.035  1.00  0.00     0.046 A 
HETATM   16  C7  UNL     1      -4.773   6.558  14.455  1.00  0.00     0.040 A 
HETATM   17  C4  UNL     1      -4.208   4.314  12.798  1.00  0.00     0.032 A 
HETATM   18  N5  UNL     1      -6.665   4.190  12.527  1.00  0.00    -0.322 N 
HETATM   19  C3  UNL     1      -3.169   5.022  13.405  1.00  0.00     0.027 A 
HETATM   20  C2  UNL     1      -3.457   6.126  14.235  1.00  0.00     0.080 A 
HETATM   21  H35 UNL     1      -6.723   3.389  11.917  1.00  0.00     0.169 HD
HETATM   22  O4  UNL     1      -8.941   4.613  12.681  1.00  0.00    -0.267 OA
BRANCH  20  23
HETATM   23  S1  UNL     1      -2.122   7.040  14.979  1.00  0.00     0.258 S 
HETATM   24  O1  UNL     1      -2.520   7.367  16.329  1.00  0.00    -0.201 OA
HETATM   25  O2  UNL     1      -1.691   8.051  14.039  1.00  0.00    -0.201 OA
BRANCH  23  26
HETATM   26  N1  UNL     1      -0.923   5.884  15.098  1.00  0.00    -0.320 N 
HETATM   27  C1  UNL     1       0.218   5.892  14.198  1.00  0.00     0.159 C 
HETATM   28  H4  UNL     1      -1.167   5.035  15.605  1.00  0.00     0.171 HD
ENDBRANCH  23  26
ENDBRANCH  20  23
ENDBRANCH   1  11
BRANCH   5  29
HETATM   29  C14 UNL     1      -9.295   9.821  15.096  1.00  0.00     0.043 C 
BRANCH  29  30
HETATM   30  C15 UNL     1      -9.962  10.548  16.267  1.00  0.00     0.035 C 
BRANCH  30  31
HETATM   31  C16 UNL     1      -9.870  12.068  16.082  1.00  0.00     0.273 C 
BRANCH  31  32
HETATM   32  N3  UNL     1     -10.479  12.608  14.866  1.00  0.00     0.091 N 
HETATM   33  C17 UNL     1     -11.898  12.963  15.010  1.00  0.00     0.292 C 
HETATM   34  C18 UNL     1     -12.457  13.671  13.761  1.00  0.00     0.156 C 
HETATM   35  N4  UNL     1     -11.705  14.883  13.421  1.00  0.00    -0.349 N 
HETATM   36  C19 UNL     1     -12.164  15.875  12.574  1.00  0.00     0.215 C 
HETATM   37  C21 UNL     1     -10.380  15.013  14.030  1.00  0.00     0.156 C 
HETATM   38  C20 UNL     1     -13.516  15.662  11.941  1.00  0.00     0.117 C 
HETATM   39  O3  UNL     1     -11.524  16.902  12.340  1.00  0.00    -0.274 OA
HETATM   40  C22 UNL     1      -9.679  13.651  14.197  1.00  0.00     0.292 C 
ENDBRANCH  31  32
ENDBRANCH  30  31
ENDBRANCH  29  30
ENDBRANCH   5  29
TORSDOF 7
ENDMDL
MODEL 7
REMARK minimizedAffinity -9.81407738
REMARK CNNscore 0.195162192
REMARK CNNaffinity 6.88316727
REMARK  7 active torsions:
REMARK  status: ('A' for Active; 'I' for Inactive)
REMARK    1  A    between atoms: N1_2  and  S1_3 
REMARK    2  A    between atoms: S1_3  and  C2_6 
REMARK    3  A    between atoms: C9_13  and  C10_14 
REMARK    4  A    between atoms: C13_18  and  C14_19 
REMARK    5  A    between atoms: C14_19  and  C15_20 
REMARK    6  A    between atoms: C15_20  and  C16_21 
REMARK    7  A    between atoms: C16_21  and  N3_22 
REMARK       I    between atoms: N4_25  and  C19_26 
ROOT
HETATM    1  C10 UNL     1      -0.831   5.537  12.184  1.00  0.00     0.040 A 
HETATM    2  N2  UNL     1      -0.001   5.402  11.093  1.00  0.00    -0.359 N 
HETATM    3  C11 UNL     1       1.207   5.979  11.356  1.00  0.00     0.016 A 
HETATM    4  C12 UNL     1       1.173   6.515  12.623  1.00  0.00    -0.027 A 
HETATM    5  C13 UNL     1      -0.119   6.243  13.157  1.00  0.00    -0.023 A 
HETATM    6  C23 UNL     1       2.353   7.200  13.229  1.00  0.00     0.041 C 
HETATM    7  C24 UNL     1       3.402   7.560  12.158  1.00  0.00     0.005 C 
HETATM    8  C25 UNL     1       3.636   6.409  11.160  1.00  0.00     0.006 C 
HETATM    9  C26 UNL     1       2.350   6.026  10.404  1.00  0.00     0.057 C 
HETATM   10  H9  UNL     1      -0.238   4.933  10.224  1.00  0.00     0.166 HD
ENDROOT
BRANCH   1  11
HETATM   11  C9  UNL     1      -2.150   5.003  12.212  1.00  0.00     0.048 C 
HETATM   12  C8  UNL     1      -2.597   3.789  11.849  1.00  0.00     0.047 A 
HETATM   13  C6  UNL     1      -4.013   3.390  11.979  1.00  0.00     0.008 A 
HETATM   14  C27 UNL     1      -1.877   2.591  11.277  1.00  0.00     0.257 A 
HETATM   15  C5  UNL     1      -4.095   2.066  11.532  1.00  0.00     0.046 A 
HETATM   16  C7  UNL     1      -5.146   4.042  12.433  1.00  0.00     0.040 A 
HETATM   17  C4  UNL     1      -5.275   1.348  11.523  1.00  0.00     0.032 A 
HETATM   18  N5  UNL     1      -2.847   1.613  11.125  1.00  0.00    -0.322 N 
HETATM   19  C3  UNL     1      -6.425   1.994  11.982  1.00  0.00     0.027 A 
HETATM   20  C2  UNL     1      -6.357   3.333  12.421  1.00  0.00     0.080 A 
HETATM   21  H35 UNL     1      -2.638   0.695  10.764  1.00  0.00     0.169 HD
HETATM   22  O4  UNL     1      -0.698   2.479  10.994  1.00  0.00    -0.267 OA
BRANCH  20  23
HETATM   23  S1  UNL     1      -7.824   4.135  13.033  1.00  0.00     0.258 S 
HETATM   24  O1  UNL     1      -8.949   3.292  12.700  1.00  0.00    -0.201 OA
HETATM   25  O2  UNL     1      -7.768   5.528  12.648  1.00  0.00    -0.201 OA
BRANCH  23  26
HETATM   26  N1  UNL     1      -7.621   4.034  14.687  1.00  0.00    -0.320 N 
HETATM   27  C1  UNL     1      -7.466   5.231  15.497  1.00  0.00     0.159 C 
HETATM   28  H4  UNL     1      -7.319   3.131  15.047  1.00  0.00     0.171 HD
ENDBRANCH  23  26
ENDBRANCH  20  23
ENDBRANCH   1  11
BRANCH   5  29
HETATM   29  C14 UNL     1      -0.603   6.632  14.523  1.00  0.00     0.043 C 
BRANCH  29  30
HETATM   30  C15 UNL     1      -1.594   7.799  14.473  1.00  0.00     0.035 C 
BRANCH  30  31
HETATM   31  C16 UNL     1      -0.880   9.097  14.072  1.00  0.00     0.273 C 
BRANCH  31  32
HETATM   32  N3  UNL     1      -0.446   9.961  15.170  1.00  0.00     0.091 N 
HETATM   33  C17 UNL     1      -1.147   9.717  16.439  1.00  0.00     0.292 C 
HETATM   34  C18 UNL     1      -0.554  10.533  17.604  1.00  0.00     0.156 C 
HETATM   35  N4  UNL     1       0.876  10.270  17.801  1.00  0.00    -0.349 N 
HETATM   36  C19 UNL     1       1.579  10.597  18.946  1.00  0.00     0.215 C 
HETATM   37  C21 UNL     1       1.574   9.627  16.687  1.00  0.00     0.156 C 
HETATM   38  C20 UNL     1       0.816  11.300  20.041  1.00  0.00     0.117 C 
HETATM   39  O3  UNL     1       2.772  10.325  19.097  1.00  0.00    -0.274 OA
HETATM   40  C22 UNL     1       1.017  10.066  15.319  1.00  0.00     0.292 C 
ENDBRANCH  31  32
ENDBRANCH  30  31
ENDBRANCH  29  30
ENDBRANCH   5  29
TORSDOF 7
ENDMDL
MODEL 8
REMARK minimizedAffinity -9.03447151
REMARK CNNscore 0.125545934
REMARK CNNaffinity 6.99529123
REMARK  7 active torsions:
REMARK  status: ('A' for Active; 'I' for Inactive)
REMARK    1  A    between atoms: N1_2  and  S1_3 
REMARK    2  A    between atoms: S1_3  and  C2_6 
REMARK    3  A    between atoms: C9_13  and  C10_14 
REMARK    4  A    between atoms: C13_18  and  C14_19 
REMARK    5  A    between atoms: C14_19  and  C15_20 
REMARK    6  A    between atoms: C15_20  and  C16_21 
REMARK    7  A    between atoms: C16_21  and  N3_22 
REMARK       I    between atoms: N4_25  and  C19_26 
ROOT
HETATM    1  C10 UNL     1      -0.122   5.706  11.835  1.00  0.00     0.040 A 
HETATM    2  N2  UNL     1       0.676   5.301  10.788  1.00  0.00    -0.359 N 
HETATM    3  C11 UNL     1       1.929   5.821  10.933  1.00  0.00     0.016 A 
HETATM    4  C12 UNL     1       1.958   6.589  12.074  1.00  0.00    -0.027 A 
HETATM    5  C13 UNL     1       0.659   6.526  12.654  1.00  0.00    -0.023 A 
HETATM    6  C23 UNL     1       3.198   7.281  12.536  1.00  0.00     0.041 C 
HETATM    7  C24 UNL     1       4.253   7.347  11.413  1.00  0.00     0.005 C 
HETATM    8  C25 UNL     1       4.380   6.012  10.653  1.00  0.00     0.006 C 
HETATM    9  C26 UNL     1       3.055   5.596   9.987  1.00  0.00     0.057 C 
HETATM   10  H9  UNL     1       0.388   4.696  10.025  1.00  0.00     0.166 HD
ENDROOT
BRANCH   1  11
HETATM   11  C9  UNL     1      -1.478   5.293  11.968  1.00  0.00     0.048 C 
HETATM   12  C8  UNL     1      -2.046   4.104  11.710  1.00  0.00     0.047 A 
HETATM   13  C6  UNL     1      -3.480   3.839  11.940  1.00  0.00     0.008 A 
HETATM   14  C27 UNL     1      -1.464   2.814  11.182  1.00  0.00     0.257 A 
HETATM   15  C5  UNL     1      -3.700   2.503  11.587  1.00  0.00     0.046 A 
HETATM   16  C7  UNL     1      -4.526   4.616  12.410  1.00  0.00     0.040 A 
HETATM   17  C4  UNL     1      -4.935   1.893  11.688  1.00  0.00     0.032 A 
HETATM   18  N5  UNL     1      -2.520   1.917  11.147  1.00  0.00    -0.322 N 
HETATM   19  C3  UNL     1      -5.997   2.664  12.163  1.00  0.00     0.027 A 
HETATM   20  C2  UNL     1      -5.791   4.016  12.508  1.00  0.00     0.080 A 
HETATM   21  H35 UNL     1      -2.412   0.964  10.836  1.00  0.00     0.169 HD
HETATM   22  O4  UNL     1      -0.318   2.582  10.845  1.00  0.00    -0.267 OA
BRANCH  20  23
HETATM   23  S1  UNL     1      -7.147   4.980  13.142  1.00  0.00     0.258 S 
HETATM   24  O1  UNL     1      -6.773   6.373  13.043  1.00  0.00    -0.201 OA
HETATM   25  O2  UNL     1      -7.575   4.388  14.389  1.00  0.00    -0.201 OA
BRANCH  23  26
HETATM   26  N1  UNL     1      -8.334   4.719  11.998  1.00  0.00    -0.320 N 
HETATM   27  C1  UNL     1      -9.017   5.832  11.359  1.00  0.00     0.159 C 
HETATM   28  H4  UNL     1      -8.753   3.791  11.990  1.00  0.00     0.171 HD
ENDBRANCH  23  26
ENDBRANCH  20  23
ENDBRANCH   1  11
BRANCH   5  29
HETATM   29  C14 UNL     1       0.231   7.205  13.922  1.00  0.00     0.043 C 
BRANCH  29  30
HETATM   30  C15 UNL     1       0.069   8.717  13.740  1.00  0.00     0.035 C 
BRANCH  30  31
HETATM   31  C16 UNL     1      -0.201   9.396  15.089  1.00  0.00     0.273 C 
BRANCH  31  32
HETATM   32  N3  UNL     1      -1.601   9.463  15.510  1.00  0.00     0.091 N 
HETATM   33  C17 UNL     1      -2.541   9.772  14.423  1.00  0.00     0.292 C 
HETATM   34  C18 UNL     1      -4.012   9.677  14.873  1.00  0.00     0.156 C 
HETATM   35  N4  UNL     1      -4.346   8.357  15.418  1.00  0.00    -0.349 N 
HETATM   36  C19 UNL     1      -5.635   7.886  15.589  1.00  0.00     0.215 C 
HETATM   37  C21 UNL     1      -3.214   7.513  15.806  1.00  0.00     0.156 C 
HETATM   38  C20 UNL     1      -6.759   8.820  15.215  1.00  0.00     0.117 C 
HETATM   39  O3  UNL     1      -5.882   6.756  16.012  1.00  0.00    -0.274 OA
HETATM   40  C22 UNL     1      -2.035   8.337  16.358  1.00  0.00     0.292 C 
ENDBRANCH  31  32
ENDBRANCH  30  31
ENDBRANCH  29  30
ENDBRANCH   5  29
TORSDOF 7
ENDMDL
MODEL 9
REMARK minimizedAffinity -8.76504517
REMARK CNNscore 0.122028023
REMARK CNNaffinity 6.59718561
REMARK  7 active torsions:
REMARK  status: ('A' for Active; 'I' for Inactive)
REMARK    1  A    between atoms: N1_2  and  S1_3 
REMARK    2  A    between atoms: S1_3  and  C2_6 
REMARK    3  A    between atoms: C9_13  and  C10_14 
REMARK    4  A    between atoms: C13_18  and  C14_19 
REMARK    5  A    between atoms: C14_19  and  C15_20 
REMARK    6  A    between atoms: C15_20  and  C16_21 
REMARK    7  A    between atoms: C16_21  and  N3_22 
REMARK       I    between atoms: N4_25  and  C19_26 
ROOT
HETATM    1  C10 UNL     1      -6.352   7.752  14.074  1.00  0.00     0.040 A 
HETATM    2  N2  UNL     1      -6.852   8.770  14.853  1.00  0.00    -0.359 N 
HETATM    3  C11 UNL     1      -8.187   8.578  15.066  1.00  0.00     0.016 A 
HETATM    4  C12 UNL     1      -8.576   7.434  14.409  1.00  0.00    -0.027 A 
HETATM    5  C13 UNL     1      -7.419   6.902  13.772  1.00  0.00    -0.023 A 
HETATM    6  C23 UNL     1      -9.979   6.925  14.463  1.00  0.00     0.041 C 
HETATM    7  C24 UNL     1     -10.948   8.009  14.977  1.00  0.00     0.005 C 
HETATM    8  C25 UNL     1     -10.381   8.768  16.192  1.00  0.00     0.006 C 
HETATM    9  C26 UNL     1      -9.057   9.484  15.863  1.00  0.00     0.057 C 
HETATM   10  H9  UNL     1      -6.315   9.546  15.230  1.00  0.00     0.166 HD
ENDROOT
BRANCH   1  11
HETATM   11  C9  UNL     1      -4.977   7.669  13.712  1.00  0.00     0.048 C 
HETATM   12  C8  UNL     1      -3.971   6.995  14.294  1.00  0.00     0.047 A 
HETATM   13  C6  UNL     1      -2.596   6.997  13.757  1.00  0.00     0.008 A 
HETATM   14  C27 UNL     1      -3.939   6.117  15.523  1.00  0.00     0.257 A 
HETATM   15  C5  UNL     1      -1.839   6.175  14.601  1.00  0.00     0.046 A 
HETATM   16  C7  UNL     1      -2.003   7.607  12.665  1.00  0.00     0.040 A 
HETATM   17  C4  UNL     1      -0.496   5.924  14.397  1.00  0.00     0.032 A 
HETATM   18  N5  UNL     1      -2.631   5.670  15.624  1.00  0.00    -0.322 N 
HETATM   19  C3  UNL     1       0.113   6.531  13.297  1.00  0.00     0.027 A 
HETATM   20  C2  UNL     1      -0.636   7.374  12.449  1.00  0.00     0.080 A 
HETATM   21  H35 UNL     1      -2.324   5.053  16.361  1.00  0.00     0.169 HD
HETATM   22  O4  UNL     1      -4.848   5.845  16.284  1.00  0.00    -0.267 OA
BRANCH  20  23
HETATM   23  S1  UNL     1       0.145   8.117  11.032  1.00  0.00     0.258 S 
HETATM   24  O1  UNL     1      -0.838   8.956  10.386  1.00  0.00    -0.201 OA
HETATM   25  O2  UNL     1       0.858   7.082  10.318  1.00  0.00    -0.201 OA
BRANCH  23  26
HETATM   26  N1  UNL     1       1.261   9.139  11.737  1.00  0.00    -0.320 N 
HETATM   27  C1  UNL     1       2.389   8.614  12.486  1.00  0.00     0.159 C 
HETATM   28  H4  UNL     1       0.963  10.103  11.871  1.00  0.00     0.171 HD
ENDBRANCH  23  26
ENDBRANCH  20  23
ENDBRANCH   1  11
BRANCH   5  29
HETATM   29  C14 UNL     1      -7.369   5.648  12.950  1.00  0.00     0.043 C 
BRANCH  29  30
HETATM   30  C15 UNL     1      -7.140   4.402  13.811  1.00  0.00     0.035 C 
BRANCH  30  31
HETATM   31  C16 UNL     1      -6.794   3.194  12.930  1.00  0.00     0.273 C 
BRANCH  31  32
HETATM   32  N3  UNL     1      -5.538   3.279  12.183  1.00  0.00     0.091 N 
HETATM   33  C17 UNL     1      -4.378   3.661  13.001  1.00  0.00     0.292 C 
HETATM   34  C18 UNL     1      -3.055   3.585  12.215  1.00  0.00     0.156 C 
HETATM   35  N4  UNL     1      -2.812   2.252  11.655  1.00  0.00    -0.349 N 
HETATM   36  C19 UNL     1      -1.585   1.808  11.197  1.00  0.00     0.215 C 
HETATM   37  C21 UNL     1      -3.972   1.361  11.581  1.00  0.00     0.156 C 
HETATM   38  C20 UNL     1      -0.439   2.787  11.255  1.00  0.00     0.117 C 
HETATM   39  O3  UNL     1      -1.405   0.667  10.770  1.00  0.00    -0.274 OA
HETATM   40  C22 UNL     1      -5.278   2.128  11.298  1.00  0.00     0.292 C 
ENDBRANCH  31  32
ENDBRANCH  30  31
ENDBRANCH  29  30
ENDBRANCH   5  29
TORSDOF 7
ENDMDL
