MODEL 1
REMARK minimizedAffinity -8.75122356
REMARK CNNscore 0.683933556
REMARK CNNaffinity 7.79837942
REMARK  10 active torsions:
REMARK  status: ('A' for Active; 'I' for Inactive)
REMARK    1  A    between atoms: C2_2  and  S1_3 
REMARK    2  A    between atoms: S1_3  and  C3_6 
REMARK    3  A    between atoms: C10_13  and  C11_14 
REMARK    4  A    between atoms: C14_18  and  C15_19 
REMARK    5  A    between atoms: C15_19  and  C16_20 
REMARK    6  A    between atoms: C16_20  and  C17_21 
REMARK    7  A    between atoms: C17_21  and  N2_22 
REMARK    8  A    between atoms: N3_25  and  C20_26 
REMARK    9  A    between atoms: C20_26  and  C21_27 
REMARK   10  A    between atoms: C21_27  and  O3_28 
ROOT
HETATM    1  C11 UNL     1      -7.190   6.579  13.876  1.00  0.00     0.040 A 
HETATM    2  N1  UNL     1      -8.381   6.150  13.340  1.00  0.00    -0.359 N 
HETATM    3  C12 UNL     1      -9.402   6.888  13.866  1.00  0.00     0.016 A 
HETATM    4  C13 UNL     1      -8.871   7.802  14.751  1.00  0.00    -0.027 A 
HETATM    5  C14 UNL     1      -7.456   7.618  14.760  1.00  0.00    -0.023 A 
HETATM    6  C24 UNL     1      -9.724   8.782  15.489  1.00  0.00     0.041 C 
HETATM    7  C25 UNL     1     -11.207   8.372  15.446  1.00  0.00     0.005 C 
HETATM    8  C26 UNL     1     -11.646   7.921  14.040  1.00  0.00     0.006 C 
HETATM    9  C27 UNL     1     -10.842   6.707  13.539  1.00  0.00     0.057 C 
HETATM   10  H10 UNL     1      -8.483   5.414  12.655  1.00  0.00     0.166 HD
ENDROOT
BRANCH   1  11
HETATM   11  C10 UNL     1      -6.015   5.895  13.496  1.00  0.00     0.048 C 
HETATM   12  C9  UNL     1      -6.002   4.645  13.012  1.00  0.00     0.047 A 
HETATM   13  C7  UNL     1      -4.795   3.956  12.532  1.00  0.00     0.008 A 
HETATM   14  C28 UNL     1      -7.152   3.679  12.845  1.00  0.00     0.257 A 
HETATM   15  C6  UNL     1      -5.208   2.686  12.116  1.00  0.00     0.046 A 
HETATM   16  C8  UNL     1      -3.469   4.333  12.424  1.00  0.00     0.038 A 
HETATM   17  C5  UNL     1      -4.337   1.750  11.596  1.00  0.00     0.032 A 
HETATM   18  N4  UNL     1      -6.578   2.536  12.301  1.00  0.00    -0.322 N 
HETATM   19  C4  UNL     1      -2.994   2.117  11.478  1.00  0.00     0.026 A 
HETATM   20  C3  UNL     1      -2.574   3.403  11.876  1.00  0.00     0.060 A 
HETATM   21  H38 UNL     1      -7.122   1.713  12.088  1.00  0.00     0.169 HD
HETATM   22  O4  UNL     1      -8.326   3.819  13.119  1.00  0.00    -0.267 OA
BRANCH  20  23
HETATM   23  S1  UNL     1      -0.859   3.857  11.712  1.00  0.00     0.175 S 
HETATM   24  O1  UNL     1      -0.753   4.730  10.559  1.00  0.00    -0.223 OA
HETATM   25  O2  UNL     1      -0.092   2.629  11.794  1.00  0.00    -0.223 OA
BRANCH  23  26
HETATM   26  C2  UNL     1      -0.559   4.819  13.184  1.00  0.00     0.141 C 
HETATM   27  C1  UNL     1       0.705   5.643  13.065  1.00  0.00     0.021 C 
ENDBRANCH  23  26
ENDBRANCH  20  23
ENDBRANCH   1  11
BRANCH   5  28
HETATM   28  C15 UNL     1      -6.462   8.396  15.568  1.00  0.00     0.043 C 
BRANCH  28  29
HETATM   29  C16 UNL     1      -5.013   8.260  15.087  1.00  0.00     0.035 C 
BRANCH  29  30
HETATM   30  C17 UNL     1      -4.282   9.608  15.017  1.00  0.00     0.273 C 
BRANCH  30  31
HETATM   31  N2  UNL     1      -2.937   9.491  14.416  1.00  0.00     0.091 N 
HETATM   32  C18 UNL     1      -2.317   8.195  14.775  1.00  0.00     0.302 C 
HETATM   33  C19 UNL     1      -1.811   8.100  16.236  1.00  0.00     0.302 C 
HETATM   34  N3  UNL     1      -0.891   9.186  16.647  1.00  0.00     0.093 N 
HETATM   35  C22 UNL     1      -1.500  10.485  16.278  1.00  0.00     0.302 C 
HETATM   36  C23 UNL     1      -2.023  10.579  14.823  1.00  0.00     0.302 C 
BRANCH  34  37
HETATM   37  C20 UNL     1       0.450   8.995  16.043  1.00  0.00     0.298 C 
BRANCH  37  38
HETATM   38  C21 UNL     1       0.845   7.510  15.995  1.00  0.00     0.194 C 
BRANCH  38  39
HETATM   39  O3  UNL     1       2.149   7.335  16.545  1.00  0.00    -0.399 OA
HETATM   40  H25 UNL     1       2.611   8.180  16.357  1.00  0.00     0.209 HD
ENDBRANCH  38  39
ENDBRANCH  37  38
ENDBRANCH  34  37
ENDBRANCH  30  31
ENDBRANCH  29  30
ENDBRANCH  28  29
ENDBRANCH   5  28
TORSDOF 10
ENDMDL
MODEL 2
REMARK minimizedAffinity -9.07063866
REMARK CNNscore 0.380319357
REMARK CNNaffinity 7.54950094
REMARK  10 active torsions:
REMARK  status: ('A' for Active; 'I' for Inactive)
REMARK    1  A    between atoms: C2_2  and  S1_3 
REMARK    2  A    between atoms: S1_3  and  C3_6 
REMARK    3  A    between atoms: C10_13  and  C11_14 
REMARK    4  A    between atoms: C14_18  and  C15_19 
REMARK    5  A    between atoms: C15_19  and  C16_20 
REMARK    6  A    between atoms: C16_20  and  C17_21 
REMARK    7  A    between atoms: C17_21  and  N2_22 
REMARK    8  A    between atoms: N3_25  and  C20_26 
REMARK    9  A    between atoms: C20_26  and  C21_27 
REMARK   10  A    between atoms: C21_27  and  O3_28 
ROOT
HETATM    1  C11 UNL     1      -0.826   5.599  12.140  1.00  0.00     0.040 A 
HETATM    2  N1  UNL     1      -0.155   5.461  10.948  1.00  0.00    -0.359 N 
HETATM    3  C12 UNL     1       1.097   5.990  11.073  1.00  0.00     0.016 A 
HETATM    4  C13 UNL     1       1.242   6.474  12.357  1.00  0.00    -0.027 A 
HETATM    5  C14 UNL     1       0.020   6.223  13.050  1.00  0.00    -0.023 A 
HETATM    6  C24 UNL     1       2.511   7.103  12.831  1.00  0.00     0.041 C 
HETATM    7  C25 UNL     1       3.417   7.488  11.647  1.00  0.00     0.005 C 
HETATM    8  C26 UNL     1       3.494   6.375  10.585  1.00  0.00     0.006 C 
HETATM    9  C27 UNL     1       2.115   6.040   9.990  1.00  0.00     0.057 C 
HETATM   10  H10 UNL     1      -0.527   5.027  10.114  1.00  0.00     0.166 HD
ENDROOT
BRANCH   1  11
HETATM   11  C10 UNL     1      -2.167   5.161  12.193  1.00  0.00     0.048 C 
HETATM   12  C9  UNL     1      -2.564   3.928  11.850  1.00  0.00     0.047 A 
HETATM   13  C7  UNL     1      -3.943   3.435  11.982  1.00  0.00     0.008 A 
HETATM   14  C28 UNL     1      -1.750   2.794  11.272  1.00  0.00     0.257 A 
HETATM   15  C6  UNL     1      -3.934   2.116  11.519  1.00  0.00     0.046 A 
HETATM   16  C8  UNL     1      -5.110   4.005  12.458  1.00  0.00     0.038 A 
HETATM   17  C5  UNL     1      -5.065   1.323  11.497  1.00  0.00     0.032 A 
HETATM   18  N4  UNL     1      -2.656   1.753  11.109  1.00  0.00    -0.322 N 
HETATM   19  C4  UNL     1      -6.251   1.884  11.976  1.00  0.00     0.026 A 
HETATM   20  C3  UNL     1      -6.263   3.207  12.464  1.00  0.00     0.060 A 
HETATM   21  H38 UNL     1      -2.383   0.860  10.729  1.00  0.00     0.169 HD
HETATM   22  O4  UNL     1      -0.571   2.756  10.985  1.00  0.00    -0.267 OA
BRANCH  20  23
HETATM   23  S1  UNL     1      -7.785   3.903  13.079  1.00  0.00     0.175 S 
HETATM   24  O1  UNL     1      -7.639   4.055  14.514  1.00  0.00    -0.223 OA
HETATM   25  O2  UNL     1      -8.863   3.114  12.515  1.00  0.00    -0.223 OA
BRANCH  23  26
HETATM   26  C2  UNL     1      -7.809   5.523  12.334  1.00  0.00     0.141 C 
HETATM   27  C1  UNL     1      -9.096   5.770  11.574  1.00  0.00     0.021 C 
ENDBRANCH  23  26
ENDBRANCH  20  23
ENDBRANCH   1  11
BRANCH   5  28
HETATM   28  C15 UNL     1      -0.282   6.569  14.476  1.00  0.00     0.043 C 
BRANCH  28  29
HETATM   29  C16 UNL     1      -1.720   6.262  14.910  1.00  0.00     0.035 C 
BRANCH  29  30
HETATM   30  C17 UNL     1      -2.597   7.519  14.987  1.00  0.00     0.273 C 
BRANCH  30  31
HETATM   31  N2  UNL     1      -3.804   7.419  14.139  1.00  0.00     0.091 N 
HETATM   32  C18 UNL     1      -4.543   8.702  14.132  1.00  0.00     0.302 C 
HETATM   33  C19 UNL     1      -5.328   9.005  15.432  1.00  0.00     0.302 C 
HETATM   34  N3  UNL     1      -6.257   7.935  15.862  1.00  0.00     0.093 N 
HETATM   35  C22 UNL     1      -5.526   6.646  15.858  1.00  0.00     0.302 C 
HETATM   36  C23 UNL     1      -4.726   6.346  14.566  1.00  0.00     0.302 C 
BRANCH  34  37
HETATM   37  C20 UNL     1      -7.462   7.907  14.999  1.00  0.00     0.298 C 
BRANCH  37  38
HETATM   38  C21 UNL     1      -8.735   7.611  15.809  1.00  0.00     0.194 C 
BRANCH  38  39
HETATM   39  O3  UNL     1      -9.246   6.326  15.459  1.00  0.00    -0.399 OA
HETATM   40  H25 UNL     1      -8.976   6.199  14.525  1.00  0.00     0.209 HD
ENDBRANCH  38  39
ENDBRANCH  37  38
ENDBRANCH  34  37
ENDBRANCH  30  31
ENDBRANCH  29  30
ENDBRANCH  28  29
ENDBRANCH   5  28
TORSDOF 10
ENDMDL
MODEL 3
REMARK minimizedAffinity -8.26451111
REMARK CNNscore 0.155719116
REMARK CNNaffinity 6.97392273
REMARK  10 active torsions:
REMARK  status: ('A' for Active; 'I' for Inactive)
REMARK    1  A    between atoms: C2_2  and  S1_3 
REMARK    2  A    between atoms: S1_3  and  C3_6 
REMARK    3  A    between atoms: C10_13  and  C11_14 
REMARK    4  A    between atoms: C14_18  and  C15_19 
REMARK    5  A    between atoms: C15_19  and  C16_20 
REMARK    6  A    between atoms: C16_20  and  C17_21 
REMARK    7  A    between atoms: C17_21  and  N2_22 
REMARK    8  A    between atoms: N3_25  and  C20_26 
REMARK    9  A    between atoms: C20_26  and  C21_27 
REMARK   10  A    between atoms: C21_27  and  O3_28 
ROOT
HETATM    1  C11 UNL     1      -7.593   5.500  14.054  1.00  0.00     0.040 A 
HETATM    2  N1  UNL     1      -8.185   4.295  13.758  1.00  0.00    -0.359 N 
HETATM    3  C12 UNL     1      -7.311   3.527  13.044  1.00  0.00     0.016 A 
HETATM    4  C13 UNL     1      -6.141   4.238  12.875  1.00  0.00    -0.027 A 
HETATM    5  C14 UNL     1      -6.308   5.498  13.523  1.00  0.00    -0.023 A 
HETATM    6  C24 UNL     1      -4.965   3.671  12.150  1.00  0.00     0.041 C 
HETATM    7  C25 UNL     1      -5.366   2.442  11.314  1.00  0.00     0.005 C 
HETATM    8  C26 UNL     1      -6.287   1.483  12.092  1.00  0.00     0.006 C 
HETATM    9  C27 UNL     1      -7.598   2.161  12.530  1.00  0.00     0.057 C 
HETATM   10  H10 UNL     1      -9.117   4.017  14.035  1.00  0.00     0.166 HD
ENDROOT
BRANCH   1  11
HETATM   11  C10 UNL     1      -8.366   6.459  14.743  1.00  0.00     0.048 C 
HETATM   12  C9  UNL     1      -9.465   7.036  14.238  1.00  0.00     0.047 A 
HETATM   13  C7  UNL     1     -10.324   7.971  14.978  1.00  0.00     0.008 A 
HETATM   14  C28 UNL     1     -10.068   6.887  12.860  1.00  0.00     0.257 A 
HETATM   15  C6  UNL     1     -11.351   8.338  14.102  1.00  0.00     0.046 A 
HETATM   16  C8  UNL     1     -10.289   8.471  16.267  1.00  0.00     0.038 A 
HETATM   17  C5  UNL     1     -12.360   9.211  14.457  1.00  0.00     0.032 A 
HETATM   18  N4  UNL     1     -11.193   7.702  12.876  1.00  0.00    -0.322 N 
HETATM   19  C4  UNL     1     -12.339   9.723  15.756  1.00  0.00     0.026 A 
HETATM   20  C3  UNL     1     -11.319   9.341  16.652  1.00  0.00     0.060 A 
HETATM   21  H38 UNL     1     -11.793   7.802  12.071  1.00  0.00     0.169 HD
HETATM   22  O4  UNL     1      -9.687   6.225  11.916  1.00  0.00    -0.267 OA
BRANCH  20  23
HETATM   23  S1  UNL     1     -11.312   9.999  18.308  1.00  0.00     0.175 S 
HETATM   24  O1  UNL     1     -10.576  11.248  18.271  1.00  0.00    -0.223 OA
HETATM   25  O2  UNL     1     -10.910   8.918  19.187  1.00  0.00    -0.223 OA
BRANCH  23  26
HETATM   26  C2  UNL     1     -13.034  10.363  18.598  1.00  0.00     0.141 C 
HETATM   27  C1  UNL     1     -13.642   9.419  19.614  1.00  0.00     0.021 C 
ENDBRANCH  23  26
ENDBRANCH  20  23
ENDBRANCH   1  11
BRANCH   5  28
HETATM   28  C15 UNL     1      -5.293   6.597  13.607  1.00  0.00     0.043 C 
BRANCH  28  29
HETATM   29  C16 UNL     1      -4.374   6.515  14.832  1.00  0.00     0.035 C 
BRANCH  29  30
HETATM   30  C17 UNL     1      -3.016   5.874  14.513  1.00  0.00     0.273 C 
BRANCH  30  31
HETATM   31  N2  UNL     1      -2.321   6.548  13.397  1.00  0.00     0.091 N 
HETATM   32  C18 UNL     1      -1.746   5.553  12.464  1.00  0.00     0.302 C 
HETATM   33  C19 UNL     1      -0.478   4.833  12.985  1.00  0.00     0.302 C 
HETATM   34  N3  UNL     1       0.610   5.734  13.434  1.00  0.00     0.093 N 
HETATM   35  C22 UNL     1       0.037   6.740  14.358  1.00  0.00     0.302 C 
HETATM   36  C23 UNL     1      -1.241   7.452  13.848  1.00  0.00     0.302 C 
BRANCH  34  37
HETATM   37  C20 UNL     1       1.293   6.351  12.272  1.00  0.00     0.298 C 
BRANCH  37  38
HETATM   38  C21 UNL     1       1.730   5.296  11.242  1.00  0.00     0.194 C 
BRANCH  38  39
HETATM   39  O3  UNL     1       1.370   5.719   9.929  1.00  0.00    -0.399 OA
HETATM   40  H25 UNL     1       0.567   6.268  10.058  1.00  0.00     0.209 HD
ENDBRANCH  38  39
ENDBRANCH  37  38
ENDBRANCH  34  37
ENDBRANCH  30  31
ENDBRANCH  29  30
ENDBRANCH  28  29
ENDBRANCH   5  28
TORSDOF 10
ENDMDL
MODEL 4
REMARK minimizedAffinity -8.81521702
REMARK CNNscore 0.148342162
REMARK CNNaffinity 7.09943914
REMARK  10 active torsions:
REMARK  status: ('A' for Active; 'I' for Inactive)
REMARK    1  A    between atoms: C2_2  and  S1_3 
REMARK    2  A    between atoms: S1_3  and  C3_6 
REMARK    3  A    between atoms: C10_13  and  C11_14 
REMARK    4  A    between atoms: C14_18  and  C15_19 
REMARK    5  A    between atoms: C15_19  and  C16_20 
REMARK    6  A    between atoms: C16_20  and  C17_21 
REMARK    7  A    between atoms: C17_21  and  N2_22 
REMARK    8  A    between atoms: N3_25  and  C20_26 
REMARK    9  A    between atoms: C20_26  and  C21_27 
REMARK   10  A    between atoms: C21_27  and  O3_28 
ROOT
HETATM    1  C11 UNL     1      -0.731   5.682  12.062  1.00  0.00     0.040 A 
HETATM    2  N1  UNL     1      -0.094   5.713  10.844  1.00  0.00    -0.359 N 
HETATM    3  C12 UNL     1       1.169   6.204  11.009  1.00  0.00     0.016 A 
HETATM    4  C13 UNL     1       1.355   6.495  12.344  1.00  0.00    -0.027 A 
HETATM    5  C14 UNL     1       0.149   6.159  13.028  1.00  0.00    -0.023 A 
HETATM    6  C24 UNL     1       2.645   7.036  12.868  1.00  0.00     0.041 C 
HETATM    7  C25 UNL     1       3.524   7.580  11.727  1.00  0.00     0.005 C 
HETATM    8  C26 UNL     1       3.557   6.631  10.513  1.00  0.00     0.006 C 
HETATM    9  C27 UNL     1       2.158   6.401   9.915  1.00  0.00     0.057 C 
HETATM   10  H10 UNL     1      -0.494   5.408   9.967  1.00  0.00     0.166 HD
ENDROOT
BRANCH   1  11
HETATM   11  C10 UNL     1      -2.076   5.255  12.089  1.00  0.00     0.048 C 
HETATM   12  C9  UNL     1      -2.470   4.010  11.789  1.00  0.00     0.047 A 
HETATM   13  C7  UNL     1      -3.856   3.532  11.897  1.00  0.00     0.008 A 
HETATM   14  C28 UNL     1      -1.645   2.846  11.292  1.00  0.00     0.257 A 
HETATM   15  C6  UNL     1      -3.842   2.193  11.496  1.00  0.00     0.046 A 
HETATM   16  C8  UNL     1      -5.035   4.130  12.306  1.00  0.00     0.038 A 
HETATM   17  C5  UNL     1      -4.977   1.407  11.472  1.00  0.00     0.032 A 
HETATM   18  N4  UNL     1      -2.553   1.804  11.147  1.00  0.00    -0.322 N 
HETATM   19  C4  UNL     1      -6.175   1.995  11.883  1.00  0.00     0.026 A 
HETATM   20  C3  UNL     1      -6.193   3.340  12.310  1.00  0.00     0.060 A 
HETATM   21  H38 UNL     1      -2.274   0.892  10.818  1.00  0.00     0.169 HD
HETATM   22  O4  UNL     1      -0.457   2.788  11.048  1.00  0.00    -0.267 OA
BRANCH  20  23
HETATM   23  S1  UNL     1      -7.729   4.073  12.839  1.00  0.00     0.175 S 
HETATM   24  O1  UNL     1      -8.713   3.009  12.902  1.00  0.00    -0.223 OA
HETATM   25  O2  UNL     1      -7.943   5.243  12.009  1.00  0.00    -0.223 OA
BRANCH  23  26
HETATM   26  C2  UNL     1      -7.363   4.607  14.501  1.00  0.00     0.141 C 
HETATM   27  C1  UNL     1      -7.298   6.117  14.601  1.00  0.00     0.021 C 
ENDBRANCH  23  26
ENDBRANCH  20  23
ENDBRANCH   1  11
BRANCH   5  28
HETATM   28  C15 UNL     1      -0.110   6.297  14.497  1.00  0.00     0.043 C 
BRANCH  28  29
HETATM   29  C16 UNL     1      -1.566   6.616  14.855  1.00  0.00     0.035 C 
BRANCH  29  30
HETATM   30  C17 UNL     1      -1.691   7.772  15.857  1.00  0.00     0.273 C 
BRANCH  30  31
HETATM   31  N2  UNL     1      -1.366   9.081  15.254  1.00  0.00     0.091 N 
HETATM   32  C18 UNL     1      -1.282  10.129  16.297  1.00  0.00     0.302 C 
HETATM   33  C19 UNL     1      -2.648  10.589  16.864  1.00  0.00     0.302 C 
HETATM   34  N3  UNL     1      -3.632  11.023  15.845  1.00  0.00     0.093 N 
HETATM   35  C22 UNL     1      -3.709   9.984  14.792  1.00  0.00     0.302 C 
HETATM   36  C23 UNL     1      -2.345   9.509  14.232  1.00  0.00     0.302 C 
BRANCH  34  37
HETATM   37  C20 UNL     1      -3.273  12.356  15.304  1.00  0.00     0.298 C 
BRANCH  37  38
HETATM   38  C21 UNL     1      -1.757  12.493  15.088  1.00  0.00     0.194 C 
BRANCH  38  39
HETATM   39  O3  UNL     1      -1.494  12.962  13.767  1.00  0.00    -0.399 OA
HETATM   40  H25 UNL     1      -2.240  12.620  13.230  1.00  0.00     0.209 HD
ENDBRANCH  38  39
ENDBRANCH  37  38
ENDBRANCH  34  37
ENDBRANCH  30  31
ENDBRANCH  29  30
ENDBRANCH  28  29
ENDBRANCH   5  28
TORSDOF 10
ENDMDL
MODEL 5
REMARK minimizedAffinity -8.53649235
REMARK CNNscore 0.0856050998
REMARK CNNaffinity 5.78788519
REMARK  10 active torsions:
REMARK  status: ('A' for Active; 'I' for Inactive)
REMARK    1  A    between atoms: C2_2  and  S1_3 
REMARK    2  A    between atoms: S1_3  and  C3_6 
REMARK    3  A    between atoms: C10_13  and  C11_14 
REMARK    4  A    between atoms: C14_18  and  C15_19 
REMARK    5  A    between atoms: C15_19  and  C16_20 
REMARK    6  A    between atoms: C16_20  and  C17_21 
REMARK    7  A    between atoms: C17_21  and  N2_22 
REMARK    8  A    between atoms: N3_25  and  C20_26 
REMARK    9  A    between atoms: C20_26  and  C21_27 
REMARK   10  A    between atoms: C21_27  and  O3_28 
ROOT
HETATM    1  C11 UNL     1      -5.712   7.555  14.086  1.00  0.00     0.040 A 
HETATM    2  N1  UNL     1      -6.272   8.753  14.461  1.00  0.00    -0.359 N 
HETATM    3  C12 UNL     1      -7.541   8.534  14.915  1.00  0.00     0.016 A 
HETATM    4  C13 UNL     1      -7.807   7.183  14.835  1.00  0.00    -0.027 A 
HETATM    5  C14 UNL     1      -6.642   6.547  14.312  1.00  0.00    -0.023 A 
HETATM    6  C24 UNL     1      -9.112   6.603  15.275  1.00  0.00     0.041 C 
HETATM    7  C25 UNL     1     -10.186   7.696  15.420  1.00  0.00     0.005 C 
HETATM    8  C26 UNL     1      -9.651   8.947  16.143  1.00  0.00     0.006 C 
HETATM    9  C27 UNL     1      -8.470   9.592  15.396  1.00  0.00     0.057 C 
HETATM   10  H10 UNL     1      -5.813   9.653  14.418  1.00  0.00     0.166 HD
ENDROOT
BRANCH   1  11
HETATM   11  C10 UNL     1      -4.414   7.582  13.532  1.00  0.00     0.048 C 
HETATM   12  C9  UNL     1      -3.355   6.970  14.080  1.00  0.00     0.047 A 
HETATM   13  C7  UNL     1      -2.019   6.920  13.468  1.00  0.00     0.008 A 
HETATM   14  C28 UNL     1      -3.263   6.220  15.389  1.00  0.00     0.257 A 
HETATM   15  C6  UNL     1      -1.211   6.195  14.349  1.00  0.00     0.046 A 
HETATM   16  C8  UNL     1      -1.503   7.406  12.280  1.00  0.00     0.038 A 
HETATM   17  C5  UNL     1       0.123   5.939  14.101  1.00  0.00     0.032 A 
HETATM   18  N4  UNL     1      -1.943   5.794  15.461  1.00  0.00    -0.322 N 
HETATM   19  C4  UNL     1       0.659   6.422  12.905  1.00  0.00     0.026 A 
HETATM   20  C3  UNL     1      -0.157   7.135  12.001  1.00  0.00     0.060 A 
HETATM   21  H38 UNL     1      -1.593   5.266  16.246  1.00  0.00     0.169 HD
HETATM   22  O4  UNL     1      -4.119   6.020  16.227  1.00  0.00    -0.267 OA
BRANCH  20  23
HETATM   23  S1  UNL     1       0.542   7.737  10.476  1.00  0.00     0.175 S 
HETATM   24  O1  UNL     1      -0.303   8.823  10.016  1.00  0.00    -0.223 OA
HETATM   25  O2  UNL     1       0.791   6.577   9.643  1.00  0.00    -0.223 OA
BRANCH  23  26
HETATM   26  C2  UNL     1       2.107   8.416  10.997  1.00  0.00     0.141 C 
HETATM   27  C1  UNL     1       3.237   7.426  10.805  1.00  0.00     0.021 C 
ENDBRANCH  23  26
ENDBRANCH  20  23
ENDBRANCH   1  11
BRANCH   5  28
HETATM   28  C15 UNL     1      -6.467   5.080  14.060  1.00  0.00     0.043 C 
BRANCH  28  29
HETATM   29  C16 UNL     1      -7.278   4.542  12.876  1.00  0.00     0.035 C 
BRANCH  29  30
HETATM   30  C17 UNL     1      -6.688   3.251  12.291  1.00  0.00     0.273 C 
BRANCH  30  31
HETATM   31  N2  UNL     1      -5.683   3.514  11.240  1.00  0.00     0.091 N 
HETATM   32  C18 UNL     1      -5.210   2.245  10.642  1.00  0.00     0.302 C 
HETATM   33  C19 UNL     1      -4.245   1.428  11.535  1.00  0.00     0.302 C 
HETATM   34  N3  UNL     1      -3.067   2.178  12.029  1.00  0.00     0.093 N 
HETATM   35  C22 UNL     1      -3.534   3.456  12.616  1.00  0.00     0.302 C 
HETATM   36  C23 UNL     1      -4.512   4.269  11.733  1.00  0.00     0.302 C 
BRANCH  34  37
HETATM   37  C20 UNL     1      -2.080   2.380  10.941  1.00  0.00     0.298 C 
BRANCH  37  38
HETATM   38  C21 UNL     1      -1.098   1.200  10.838  1.00  0.00     0.194 C 
BRANCH  38  39
HETATM   39  O3  UNL     1      -0.924   0.831   9.471  1.00  0.00    -0.399 OA
HETATM   40  H25 UNL     1      -1.776   1.061   9.043  1.00  0.00     0.209 HD
ENDBRANCH  38  39
ENDBRANCH  37  38
ENDBRANCH  34  37
ENDBRANCH  30  31
ENDBRANCH  29  30
ENDBRANCH  28  29
ENDBRANCH   5  28
TORSDOF 10
ENDMDL
MODEL 6
REMARK minimizedAffinity -6.74581814
REMARK CNNscore 0.0723081157
REMARK CNNaffinity 4.77232981
REMARK  10 active torsions:
REMARK  status: ('A' for Active; 'I' for Inactive)
REMARK    1  A    between atoms: C2_2  and  S1_3 
REMARK    2  A    between atoms: S1_3  and  C3_6 
REMARK    3  A    between atoms: C10_13  and  C11_14 
REMARK    4  A    between atoms: C14_18  and  C15_19 
REMARK    5  A    between atoms: C15_19  and  C16_20 
REMARK    6  A    between atoms: C16_20  and  C17_21 
REMARK    7  A    between atoms: C17_21  and  N2_22 
REMARK    8  A    between atoms: N3_25  and  C20_26 
REMARK    9  A    between atoms: C20_26  and  C21_27 
REMARK   10  A    between atoms: C21_27  and  O3_28 
ROOT
HETATM    1  C11 UNL     1       1.928  10.994  18.515  1.00  0.00     0.040 A 
HETATM    2  N1  UNL     1       0.716  11.305  19.084  1.00  0.00    -0.359 N 
HETATM    3  C12 UNL     1      -0.287  10.773  18.326  1.00  0.00     0.016 A 
HETATM    4  C13 UNL     1       0.278  10.110  17.256  1.00  0.00    -0.027 A 
HETATM    5  C14 UNL     1       1.694  10.239  17.371  1.00  0.00    -0.023 A 
HETATM    6  C24 UNL     1      -0.549   9.395  16.238  1.00  0.00     0.041 C 
HETATM    7  C25 UNL     1      -2.024   9.830  16.313  1.00  0.00     0.005 C 
HETATM    8  C26 UNL     1      -2.537   9.904  17.764  1.00  0.00     0.006 C 
HETATM    9  C27 UNL     1      -1.740  10.910  18.614  1.00  0.00     0.057 C 
HETATM   10  H10 UNL     1       0.588  11.835  19.936  1.00  0.00     0.166 HD
ENDROOT
BRANCH   1  11
HETATM   11  C10 UNL     1       3.091  11.509  19.126  1.00  0.00     0.048 C 
HETATM   12  C9  UNL     1       3.514  11.152  20.347  1.00  0.00     0.047 A 
HETATM   13  C7  UNL     1       4.768  11.616  20.958  1.00  0.00     0.008 A 
HETATM   14  C28 UNL     1       2.852  10.237  21.352  1.00  0.00     0.257 A 
HETATM   15  C6  UNL     1       4.835  11.018  22.220  1.00  0.00     0.046 A 
HETATM   16  C8  UNL     1       5.786  12.444  20.518  1.00  0.00     0.038 A 
HETATM   17  C5  UNL     1       5.889  11.222  23.089  1.00  0.00     0.032 A 
HETATM   18  N4  UNL     1       3.718  10.220  22.438  1.00  0.00    -0.322 N 
HETATM   19  C4  UNL     1       6.925  12.054  22.659  1.00  0.00     0.026 A 
HETATM   20  C3  UNL     1       6.874  12.643  21.378  1.00  0.00     0.060 A 
HETATM   21  H38 UNL     1       3.521   9.686  23.271  1.00  0.00     0.169 HD
HETATM   22  O4  UNL     1       1.798   9.640  21.277  1.00  0.00    -0.267 OA
BRANCH  20  23
HETATM   23  S1  UNL     1       8.209  13.696  20.843  1.00  0.00     0.175 S 
HETATM   24  O1  UNL     1       7.920  15.034  21.323  1.00  0.00    -0.223 OA
HETATM   25  O2  UNL     1       8.409  13.433  19.431  1.00  0.00    -0.223 OA
BRANCH  23  26
HETATM   26  C2  UNL     1       9.607  13.057  21.749  1.00  0.00     0.141 C 
HETATM   27  C1  UNL     1      10.637  12.441  20.826  1.00  0.00     0.021 C 
ENDBRANCH  23  26
ENDBRANCH  20  23
ENDBRANCH   1  11
BRANCH   5  28
HETATM   28  C15 UNL     1       2.718   9.671  16.437  1.00  0.00     0.043 C 
BRANCH  28  29
HETATM   29  C16 UNL     1       3.166  10.633  15.330  1.00  0.00     0.035 C 
BRANCH  29  30
HETATM   30  C17 UNL     1       4.373  10.108  14.540  1.00  0.00     0.273 C 
BRANCH  30  31
HETATM   31  N2  UNL     1       5.114   9.059  15.272  1.00  0.00     0.091 N 
HETATM   32  C18 UNL     1       6.385   9.597  15.808  1.00  0.00     0.302 C 
HETATM   33  C19 UNL     1       7.494   9.818  14.750  1.00  0.00     0.302 C 
HETATM   34  N3  UNL     1       7.804   8.633  13.917  1.00  0.00     0.093 N 
HETATM   35  C22 UNL     1       6.534   8.083  13.388  1.00  0.00     0.302 C 
HETATM   36  C23 UNL     1       5.416   7.875  14.440  1.00  0.00     0.302 C 
BRANCH  34  37
HETATM   37  C20 UNL     1       8.577   7.634  14.692  1.00  0.00     0.298 C 
BRANCH  37  38
HETATM   38  C21 UNL     1       9.255   8.267  15.919  1.00  0.00     0.194 C 
BRANCH  38  39
HETATM   39  O3  UNL     1       9.053   7.443  17.066  1.00  0.00    -0.399 OA
HETATM   40  H25 UNL     1       8.194   6.999  16.903  1.00  0.00     0.209 HD
ENDBRANCH  38  39
ENDBRANCH  37  38
ENDBRANCH  34  37
ENDBRANCH  30  31
ENDBRANCH  29  30
ENDBRANCH  28  29
ENDBRANCH   5  28
TORSDOF 10
ENDMDL
MODEL 7
REMARK minimizedAffinity -7.4447093
REMARK CNNscore 0.0708631575
REMARK CNNaffinity 5.36081076
REMARK  10 active torsions:
REMARK  status: ('A' for Active; 'I' for Inactive)
REMARK    1  A    between atoms: C2_2  and  S1_3 
REMARK    2  A    between atoms: S1_3  and  C3_6 
REMARK    3  A    between atoms: C10_13  and  C11_14 
REMARK    4  A    between atoms: C14_18  and  C15_19 
REMARK    5  A    between atoms: C15_19  and  C16_20 
REMARK    6  A    between atoms: C16_20  and  C17_21 
REMARK    7  A    between atoms: C17_21  and  N2_22 
REMARK    8  A    between atoms: N3_25  and  C20_26 
REMARK    9  A    between atoms: C20_26  and  C21_27 
REMARK   10  A    between atoms: C21_27  and  O3_28 
ROOT
HETATM    1  C11 UNL     1      -8.444   5.861  13.380  1.00  0.00     0.040 A 
HETATM    2  N1  UNL     1      -8.859   4.580  13.106  1.00  0.00    -0.359 N 
HETATM    3  C12 UNL     1      -7.773   3.813  12.794  1.00  0.00     0.016 A 
HETATM    4  C13 UNL     1      -6.644   4.602  12.867  1.00  0.00    -0.027 A 
HETATM    5  C14 UNL     1      -7.061   5.912  13.247  1.00  0.00    -0.023 A 
HETATM    6  C24 UNL     1      -5.278   4.060  12.601  1.00  0.00     0.041 C 
HETATM    7  C25 UNL     1      -5.349   2.704  11.874  1.00  0.00     0.005 C 
HETATM    8  C26 UNL     1      -6.409   1.769  12.486  1.00  0.00     0.006 C 
HETATM    9  C27 UNL     1      -7.824   2.373  12.425  1.00  0.00     0.057 C 
HETATM   10  H10 UNL     1      -9.815   4.254  13.141  1.00  0.00     0.166 HD
ENDROOT
BRANCH   1  11
HETATM   11  C10 UNL     1      -9.435   6.824  13.670  1.00  0.00     0.048 C 
HETATM   12  C9  UNL     1      -9.603   7.383  14.877  1.00  0.00     0.047 A 
HETATM   13  C7  UNL     1     -10.574   8.448  15.168  1.00  0.00     0.008 A 
HETATM   14  C28 UNL     1      -8.884   7.083  16.171  1.00  0.00     0.257 A 
HETATM   15  C6  UNL     1     -10.432   8.747  16.526  1.00  0.00     0.046 A 
HETATM   16  C8  UNL     1     -11.488   9.134  14.389  1.00  0.00     0.038 A 
HETATM   17  C5  UNL     1     -11.187   9.714  17.162  1.00  0.00     0.032 A 
HETATM   18  N4  UNL     1      -9.448   7.949  17.099  1.00  0.00    -0.322 N 
HETATM   19  C4  UNL     1     -12.113  10.417  16.388  1.00  0.00     0.026 A 
HETATM   20  C3  UNL     1     -12.246  10.135  15.012  1.00  0.00     0.060 A 
HETATM   21  H38 UNL     1      -9.158   7.962  18.065  1.00  0.00     0.169 HD
HETATM   22  O4  UNL     1      -8.013   6.269  16.401  1.00  0.00    -0.267 OA
BRANCH  20  23
HETATM   23  S1  UNL     1     -13.428  11.048  14.040  1.00  0.00     0.175 S 
HETATM   24  O1  UNL     1     -13.138  10.775  12.644  1.00  0.00    -0.223 OA
HETATM   25  O2  UNL     1     -13.435  12.404  14.553  1.00  0.00    -0.223 OA
BRANCH  23  26
HETATM   26  C2  UNL     1     -14.976  10.268  14.461  1.00  0.00     0.141 C 
HETATM   27  C1  UNL     1     -15.281   9.100  13.547  1.00  0.00     0.021 C 
ENDBRANCH  23  26
ENDBRANCH  20  23
ENDBRANCH   1  11
BRANCH   5  28
HETATM   28  C15 UNL     1      -6.175   7.102  13.458  1.00  0.00     0.043 C 
BRANCH  28  29
HETATM   29  C16 UNL     1      -5.284   7.013  14.703  1.00  0.00     0.035 C 
BRANCH  29  30
HETATM   30  C17 UNL     1      -3.886   7.606  14.476  1.00  0.00     0.273 C 
BRANCH  30  31
HETATM   31  N2  UNL     1      -3.930   9.051  14.166  1.00  0.00     0.091 N 
HETATM   32  C18 UNL     1      -2.580   9.548  13.815  1.00  0.00     0.302 C 
HETATM   33  C19 UNL     1      -1.615   9.707  15.016  1.00  0.00     0.302 C 
HETATM   34  N3  UNL     1      -2.140  10.529  16.132  1.00  0.00     0.093 N 
HETATM   35  C22 UNL     1      -3.496  10.043  16.478  1.00  0.00     0.302 C 
HETATM   36  C23 UNL     1      -4.460   9.867  15.278  1.00  0.00     0.302 C 
BRANCH  34  37
HETATM   37  C20 UNL     1      -2.125  11.968  15.777  1.00  0.00     0.298 C 
BRANCH  37  38
HETATM   38  C21 UNL     1      -0.851  12.350  15.005  1.00  0.00     0.194 C 
BRANCH  38  39
HETATM   39  O3  UNL     1      -1.198  13.010  13.789  1.00  0.00    -0.399 OA
HETATM   40  H25 UNL     1      -2.068  12.632  13.542  1.00  0.00     0.209 HD
ENDBRANCH  38  39
ENDBRANCH  37  38
ENDBRANCH  34  37
ENDBRANCH  30  31
ENDBRANCH  29  30
ENDBRANCH  28  29
ENDBRANCH   5  28
TORSDOF 10
ENDMDL
MODEL 8
REMARK minimizedAffinity -8.24954987
REMARK CNNscore 0.0681652054
REMARK CNNaffinity 5.54604959
REMARK  10 active torsions:
REMARK  status: ('A' for Active; 'I' for Inactive)
REMARK    1  A    between atoms: C2_2  and  S1_3 
REMARK    2  A    between atoms: S1_3  and  C3_6 
REMARK    3  A    between atoms: C10_13  and  C11_14 
REMARK    4  A    between atoms: C14_18  and  C15_19 
REMARK    5  A    between atoms: C15_19  and  C16_20 
REMARK    6  A    between atoms: C16_20  and  C17_21 
REMARK    7  A    between atoms: C17_21  and  N2_22 
REMARK    8  A    between atoms: N3_25  and  C20_26 
REMARK    9  A    between atoms: C20_26  and  C21_27 
REMARK   10  A    between atoms: C21_27  and  O3_28 
ROOT
HETATM    1  C11 UNL     1      -5.818   6.463  14.194  1.00  0.00     0.040 A 
HETATM    2  N1  UNL     1      -5.016   5.816  13.283  1.00  0.00    -0.359 N 
HETATM    3  C12 UNL     1      -5.629   4.663  12.883  1.00  0.00     0.016 A 
HETATM    4  C13 UNL     1      -6.838   4.560  13.538  1.00  0.00    -0.027 A 
HETATM    5  C14 UNL     1      -6.973   5.709  14.374  1.00  0.00    -0.023 A 
HETATM    6  C24 UNL     1      -7.771   3.416  13.309  1.00  0.00     0.041 C 
HETATM    7  C25 UNL     1      -7.055   2.245  12.613  1.00  0.00     0.005 C 
HETATM    8  C26 UNL     1      -6.162   2.716  11.449  1.00  0.00     0.006 C 
HETATM    9  C27 UNL     1      -5.062   3.687  11.915  1.00  0.00     0.057 C 
HETATM   10  H10 UNL     1      -4.120   6.147  12.954  1.00  0.00     0.166 HD
ENDROOT
BRANCH   1  11
HETATM   11  C10 UNL     1      -5.328   7.654  14.771  1.00  0.00     0.048 C 
HETATM   12  C9  UNL     1      -4.120   7.765  15.342  1.00  0.00     0.047 A 
HETATM   13  C7  UNL     1      -3.566   9.021  15.868  1.00  0.00     0.008 A 
HETATM   14  C28 UNL     1      -3.080   6.695  15.580  1.00  0.00     0.257 A 
HETATM   15  C6  UNL     1      -2.300   8.709  16.373  1.00  0.00     0.046 A 
HETATM   16  C8  UNL     1      -4.042  10.319  15.917  1.00  0.00     0.038 A 
HETATM   17  C5  UNL     1      -1.472   9.653  16.950  1.00  0.00     0.032 A 
HETATM   18  N4  UNL     1      -2.028   7.357  16.201  1.00  0.00    -0.322 N 
HETATM   19  C4  UNL     1      -1.938  10.968  17.005  1.00  0.00     0.026 A 
HETATM   20  C3  UNL     1      -3.206  11.294  16.478  1.00  0.00     0.060 A 
HETATM   21  H38 UNL     1      -1.187   6.878  16.484  1.00  0.00     0.169 HD
HETATM   22  O4  UNL     1      -3.115   5.511  15.318  1.00  0.00    -0.267 OA
BRANCH  20  23
HETATM   23  S1  UNL     1      -3.780  12.979  16.551  1.00  0.00     0.175 S 
HETATM   24  O1  UNL     1      -5.214  12.954  16.330  1.00  0.00    -0.223 OA
HETATM   25  O2  UNL     1      -2.904  13.757  15.697  1.00  0.00    -0.223 OA
BRANCH  23  26
HETATM   26  C2  UNL     1      -3.474  13.430  18.249  1.00  0.00     0.141 C 
HETATM   27  C1  UNL     1      -4.380  12.676  19.200  1.00  0.00     0.021 C 
ENDBRANCH  23  26
ENDBRANCH  20  23
ENDBRANCH   1  11
BRANCH   5  28
HETATM   28  C15 UNL     1      -8.133   6.030  15.266  1.00  0.00     0.043 C 
BRANCH  28  29
HETATM   29  C16 UNL     1      -8.919   7.281  14.855  1.00  0.00     0.035 C 
BRANCH  29  30
HETATM   30  C17 UNL     1     -10.225   6.946  14.121  1.00  0.00     0.273 C 
BRANCH  30  31
HETATM   31  N2  UNL     1     -11.405   7.570  14.755  1.00  0.00     0.091 N 
HETATM   32  C18 UNL     1     -12.630   6.798  14.449  1.00  0.00     0.302 C 
HETATM   33  C19 UNL     1     -13.160   6.968  13.004  1.00  0.00     0.302 C 
HETATM   34  N3  UNL     1     -13.376   8.371  12.581  1.00  0.00     0.093 N 
HETATM   35  C22 UNL     1     -12.157   9.152  12.897  1.00  0.00     0.302 C 
HETATM   36  C23 UNL     1     -11.614   8.972  14.337  1.00  0.00     0.302 C 
BRANCH  34  37
HETATM   37  C20 UNL     1     -14.592   8.930  13.220  1.00  0.00     0.298 C 
BRANCH  37  38
HETATM   38  C21 UNL     1     -15.564   9.513  12.180  1.00  0.00     0.194 C 
BRANCH  38  39
HETATM   39  O3  UNL     1     -15.735   8.591  11.105  1.00  0.00    -0.399 OA
HETATM   40  H25 UNL     1     -14.886   8.103  11.060  1.00  0.00     0.209 HD
ENDBRANCH  38  39
ENDBRANCH  37  38
ENDBRANCH  34  37
ENDBRANCH  30  31
ENDBRANCH  29  30
ENDBRANCH  28  29
ENDBRANCH   5  28
TORSDOF 10
ENDMDL
MODEL 9
REMARK minimizedAffinity -7.45059013
REMARK CNNscore 0.0523717925
REMARK CNNaffinity 5.12709188
REMARK  10 active torsions:
REMARK  status: ('A' for Active; 'I' for Inactive)
REMARK    1  A    between atoms: C2_2  and  S1_3 
REMARK    2  A    between atoms: S1_3  and  C3_6 
REMARK    3  A    between atoms: C10_13  and  C11_14 
REMARK    4  A    between atoms: C14_18  and  C15_19 
REMARK    5  A    between atoms: C15_19  and  C16_20 
REMARK    6  A    between atoms: C16_20  and  C17_21 
REMARK    7  A    between atoms: C17_21  and  N2_22 
REMARK    8  A    between atoms: N3_25  and  C20_26 
REMARK    9  A    between atoms: C20_26  and  C21_27 
REMARK   10  A    between atoms: C21_27  and  O3_28 
ROOT
HETATM    1  C11 UNL     1      -4.295   5.985  14.044  1.00  0.00     0.040 A 
HETATM    2  N1  UNL     1      -3.519   4.912  13.675  1.00  0.00    -0.359 N 
HETATM    3  C12 UNL     1      -4.279   4.032  12.960  1.00  0.00     0.016 A 
HETATM    4  C13 UNL     1      -5.559   4.538  12.863  1.00  0.00    -0.027 A 
HETATM    5  C14 UNL     1      -5.578   5.790  13.546  1.00  0.00    -0.023 A 
HETATM    6  C24 UNL     1      -6.641   3.824  12.121  1.00  0.00     0.041 C 
HETATM    7  C25 UNL     1      -6.264   2.353  11.864  1.00  0.00     0.005 C 
HETATM    8  C26 UNL     1      -4.809   2.201  11.379  1.00  0.00     0.006 C 
HETATM    9  C27 UNL     1      -3.794   2.742  12.402  1.00  0.00     0.057 C 
HETATM   10  H10 UNL     1      -2.538   4.798  13.891  1.00  0.00     0.166 HD
ENDROOT
BRANCH   1  11
HETATM   11  C10 UNL     1      -3.698   6.982  14.846  1.00  0.00     0.048 C 
HETATM   12  C9  UNL     1      -2.628   7.699  14.473  1.00  0.00     0.047 A 
HETATM   13  C7  UNL     1      -2.052   8.797  15.262  1.00  0.00     0.008 A 
HETATM   14  C28 UNL     1      -1.789   7.573  13.223  1.00  0.00     0.257 A 
HETATM   15  C6  UNL     1      -0.961   9.276  14.529  1.00  0.00     0.046 A 
HETATM   16  C8  UNL     1      -2.394   9.376  16.471  1.00  0.00     0.038 A 
HETATM   17  C5  UNL     1      -0.170  10.322  14.962  1.00  0.00     0.032 A 
HETATM   18  N4  UNL     1      -0.818   8.558  13.347  1.00  0.00    -0.322 N 
HETATM   19  C4  UNL     1      -0.505  10.918  16.180  1.00  0.00     0.026 A 
HETATM   20  C3  UNL     1      -1.617  10.454  16.914  1.00  0.00     0.060 A 
HETATM   21  H38 UNL     1      -0.106   8.700  12.646  1.00  0.00     0.169 HD
HETATM   22  O4  UNL     1      -1.892   6.794  12.297  1.00  0.00    -0.267 OA
BRANCH  20  23
HETATM   23  S1  UNL     1      -2.033  11.233  18.463  1.00  0.00     0.175 S 
HETATM   24  O1  UNL     1      -2.408  10.178  19.387  1.00  0.00    -0.223 OA
HETATM   25  O2  UNL     1      -2.944  12.317  18.155  1.00  0.00    -0.223 OA
BRANCH  23  26
HETATM   26  C2  UNL     1      -0.476  11.924  18.991  1.00  0.00     0.141 C 
HETATM   27  C1  UNL     1       0.276  10.977  19.902  1.00  0.00     0.021 C 
ENDBRANCH  23  26
ENDBRANCH  20  23
ENDBRANCH   1  11
BRANCH   5  28
HETATM   28  C15 UNL     1      -6.755   6.705  13.695  1.00  0.00     0.043 C 
BRANCH  28  29
HETATM   29  C16 UNL     1      -7.985   6.054  14.339  1.00  0.00     0.035 C 
BRANCH  29  30
HETATM   30  C17 UNL     1      -9.306   6.583  13.764  1.00  0.00     0.273 C 
BRANCH  30  31
HETATM   31  N2  UNL     1     -10.267   6.969  14.817  1.00  0.00     0.091 N 
HETATM   32  C18 UNL     1     -11.658   6.776  14.349  1.00  0.00     0.302 C 
HETATM   33  C19 UNL     1     -12.154   7.835  13.334  1.00  0.00     0.302 C 
HETATM   34  N3  UNL     1     -12.001   9.241  13.776  1.00  0.00     0.093 N 
HETATM   35  C22 UNL     1     -10.614   9.436  14.258  1.00  0.00     0.302 C 
HETATM   36  C23 UNL     1     -10.108   8.370  15.262  1.00  0.00     0.302 C 
BRANCH  34  37
HETATM   37  C20 UNL     1     -13.013   9.580  14.805  1.00  0.00     0.298 C 
BRANCH  37  38
HETATM   38  C21 UNL     1     -14.445   9.362  14.287  1.00  0.00     0.194 C 
BRANCH  38  39
HETATM   39  O3  UNL     1     -14.746  10.317  13.271  1.00  0.00    -0.399 OA
HETATM   40  H25 UNL     1     -14.208  11.103  13.504  1.00  0.00     0.209 HD
ENDBRANCH  38  39
ENDBRANCH  37  38
ENDBRANCH  34  37
ENDBRANCH  30  31
ENDBRANCH  29  30
ENDBRANCH  28  29
ENDBRANCH   5  28
TORSDOF 10
ENDMDL
