MODEL 1
REMARK minimizedAffinity -10.0487585
REMARK CNNscore 0.755094409
REMARK CNNaffinity 8.21821499
REMARK  7 active torsions:
REMARK  status: ('A' for Active; 'I' for Inactive)
REMARK    1  A    between atoms: C8_8  and  N1_9 
REMARK    2  A    between atoms: C12_16  and  N3_17 
REMARK    3  A    between atoms: N3_17  and  C13_18 
REMARK    4  A    between atoms: C16_21  and  O2_22 
REMARK    5  A    between atoms: O2_22  and  C17_23 
REMARK    6  A    between atoms: C17_23  and  C18_24 
REMARK    7  A    between atoms: C18_24  and  N4_25 
ROOT
HETATM    1  N1  UNL     1      -0.127  52.028 -24.030  1.00  0.00    -0.108 N 
HETATM    2  C9  UNL     1       0.490  53.101 -23.391  1.00  0.00     0.282 A 
HETATM    3  O1  UNL     1       1.045  54.044 -23.947  1.00  0.00    -0.266 OA
HETATM    4  C10 UNL     1       0.498  53.081 -21.919  1.00  0.00     0.095 A 
HETATM    5  C11 UNL     1       1.097  54.071 -21.181  1.00  0.00     0.127 A 
HETATM    6  N2  UNL     1       1.134  54.068 -19.830  1.00  0.00    -0.201 N 
ATOM      7  H2  UNL     1       1.586  54.824 -19.315  1.00  0.00     0.183 HD
HETATM    8  C12 UNL     1       0.557  53.041 -19.187  1.00  0.00     0.684 A 
HETATM    9  N6  UNL     1      -0.059  52.034 -19.828  1.00  0.00    -0.174 N 
ATOM     10  H6  UNL     1      -0.495  51.268 -19.315  1.00  0.00     0.186 HD
HETATM   11  C26 UNL     1      -0.079  52.076 -21.183  1.00  0.00     0.162 A 
HETATM   12  N7  UNL     1      -0.715  51.050 -21.906  1.00  0.00    -0.128 N 
HETATM   13  C27 UNL     1      -1.400  49.941 -21.448  1.00  0.00     0.086 A 
HETATM   14  C28 UNL     1      -1.699  49.438 -20.173  1.00  0.00     0.033 A 
HETATM   15  C29 UNL     1      -2.445  48.255 -20.107  1.00  0.00     0.002 A 
HETATM   16  C30 UNL     1      -2.876  47.604 -21.262  1.00  0.00     0.002 A 
HETATM   17  C31 UNL     1      -2.571  48.121 -22.526  1.00  0.00     0.032 A 
HETATM   18  C32 UNL     1      -1.823  49.305 -22.613  1.00  0.00     0.077 A 
HETATM   19  N8  UNL     1      -1.417  49.986 -23.729  1.00  0.00    -0.188 N 
ATOM     20  H8  UNL     1      -1.599  49.739 -24.702  1.00  0.00     0.184 HD
HETATM   21  C33 UNL     1      -0.743  51.027 -23.287  1.00  0.00     0.701 A 
ENDROOT
BRANCH   8  22
HETATM   22  N3  UNL     1       0.593  52.925 -17.801  1.00  0.00    -0.192 N 
HETATM   23  H11 UNL     1      -0.214  53.382 -17.403  1.00  0.00     0.184 HD
BRANCH  22  24
HETATM   24  C13 UNL     1       1.487  52.331 -16.906  1.00  0.00     0.052 A 
HETATM   25  C14 UNL     1       1.108  51.419 -15.915  1.00  0.00     0.033 A 
HETATM   26  C15 UNL     1       2.042  50.875 -15.018  1.00  0.00     0.042 A 
HETATM   27  C16 UNL     1       3.383  51.245 -15.089  1.00  0.00     0.107 A 
HETATM   28  C24 UNL     1       3.763  52.166 -16.064  1.00  0.00     0.151 A 
HETATM   29  F1  UNL     1       5.044  52.556 -16.160  1.00  0.00    -0.203 F 
HETATM   30  C25 UNL     1       2.838  52.699 -16.962  1.00  0.00     0.075 A 
BRANCH  27  31
HETATM   31  O2  UNL     1       4.374  50.806 -14.258  1.00  0.00    -0.346 OA
BRANCH  31  32
HETATM   32  C17 UNL     1       4.049  49.732 -13.372  1.00  0.00     0.206 C 
BRANCH  32  33
HETATM   33  C18 UNL     1       3.765  50.296 -11.967  1.00  0.00     0.299 C 
BRANCH  33  34
HETATM   34  N4  UNL     1       4.446  49.592 -10.858  1.00  0.00     0.093 N 
HETATM   35  C19 UNL     1       5.846  50.034 -10.688  1.00  0.00     0.302 C 
HETATM   36  C20 UNL     1       6.527  49.413  -9.443  1.00  0.00     0.302 C 
HETATM   37  N5  UNL     1       5.797  49.590  -8.171  1.00  0.00     0.087 N 
HETATM   38  C21 UNL     1       5.889  50.966  -7.687  1.00  0.00     0.310 C 
HETATM   39  C22 UNL     1       4.398  49.172  -8.368  1.00  0.00     0.302 C 
HETATM   40  C23 UNL     1       3.697  49.795  -9.599  1.00  0.00     0.302 C 
ENDBRANCH  33  34
ENDBRANCH  32  33
ENDBRANCH  31  32
ENDBRANCH  27  31
ENDBRANCH  22  24
ENDBRANCH   8  22
BRANCH   1  41
HETATM   41  C8  UNL     1      -0.206  51.938 -25.447  1.00  0.00     0.072 A 
HETATM   42  C2  UNL     1       0.914  51.499 -26.194  1.00  0.00    -0.034 A 
HETATM   43  C1  UNL     1       2.230  51.136 -25.561  1.00  0.00     0.050 C 
HETATM   44  C3  UNL     1       0.808  51.384 -27.590  1.00  0.00     0.009 A 
HETATM   45  C4  UNL     1      -0.370  51.725 -28.246  1.00  0.00     0.001 A 
HETATM   46  C5  UNL     1      -1.469  52.167 -27.516  1.00  0.00     0.009 A 
HETATM   47  C6  UNL     1      -1.414  52.258 -26.116  1.00  0.00    -0.034 A 
HETATM   48  C7  UNL     1      -2.658  52.699 -25.392  1.00  0.00     0.050 C 
ENDBRANCH   1  41
TORSDOF 7
ENDMDL
MODEL 2
REMARK minimizedAffinity -9.92074299
REMARK CNNscore 0.645759404
REMARK CNNaffinity 8.29940033
REMARK  7 active torsions:
REMARK  status: ('A' for Active; 'I' for Inactive)
REMARK    1  A    between atoms: C8_8  and  N1_9 
REMARK    2  A    between atoms: C12_16  and  N3_17 
REMARK    3  A    between atoms: N3_17  and  C13_18 
REMARK    4  A    between atoms: C16_21  and  O2_22 
REMARK    5  A    between atoms: O2_22  and  C17_23 
REMARK    6  A    between atoms: C17_23  and  C18_24 
REMARK    7  A    between atoms: C18_24  and  N4_25 
ROOT
HETATM    1  N1  UNL     1       0.009  52.121 -24.210  1.00  0.00    -0.108 N 
HETATM    2  C9  UNL     1       0.660  53.159 -23.547  1.00  0.00     0.282 A 
HETATM    3  O1  UNL     1       1.310  54.054 -24.080  1.00  0.00    -0.266 OA
HETATM    4  C10 UNL     1       0.583  53.161 -22.077  1.00  0.00     0.095 A 
HETATM    5  C11 UNL     1       1.205  54.118 -21.317  1.00  0.00     0.127 A 
HETATM    6  N2  UNL     1       1.164  54.132 -19.965  1.00  0.00    -0.201 N 
ATOM      7  H2  UNL     1       1.637  54.863 -19.433  1.00  0.00     0.183 HD
HETATM    8  C12 UNL     1       0.482  53.157 -19.346  1.00  0.00     0.684 A 
HETATM    9  N6  UNL     1      -0.164  52.185 -20.010  1.00  0.00    -0.174 N 
ATOM     10  H6  UNL     1      -0.680  51.458 -19.516  1.00  0.00     0.186 HD
HETATM   11  C26 UNL     1      -0.103  52.208 -21.365  1.00  0.00     0.162 A 
HETATM   12  N7  UNL     1      -0.765  51.217 -22.113  1.00  0.00    -0.128 N 
HETATM   13  C27 UNL     1      -1.550  50.164 -21.683  1.00  0.00     0.086 A 
HETATM   14  C28 UNL     1      -1.955  49.700 -20.423  1.00  0.00     0.033 A 
HETATM   15  C29 UNL     1      -2.783  48.572 -20.387  1.00  0.00     0.002 A 
HETATM   16  C30 UNL     1      -3.191  47.935 -21.558  1.00  0.00     0.002 A 
HETATM   17  C31 UNL     1      -2.779  48.411 -22.808  1.00  0.00     0.032 A 
HETATM   18  C32 UNL     1      -1.948  49.541 -22.864  1.00  0.00     0.077 A 
HETATM   19  N8  UNL     1      -1.433  50.176 -23.962  1.00  0.00    -0.188 N 
ATOM     20  H8  UNL     1      -1.576  49.928 -24.941  1.00  0.00     0.184 HD
HETATM   21  C33 UNL     1      -0.716  51.175 -23.493  1.00  0.00     0.701 A 
ENDROOT
BRANCH   8  22
HETATM   22  N3  UNL     1       0.430  53.059 -17.959  1.00  0.00    -0.192 N 
HETATM   23  H11 UNL     1      -0.276  53.686 -17.602  1.00  0.00     0.184 HD
BRANCH  22  24
HETATM   24  C13 UNL     1       1.135  52.301 -17.019  1.00  0.00     0.052 A 
HETATM   25  C14 UNL     1       0.598  51.197 -16.348  1.00  0.00     0.033 A 
HETATM   26  C15 UNL     1       1.338  50.488 -15.386  1.00  0.00     0.042 A 
HETATM   27  C16 UNL     1       2.635  50.882 -15.068  1.00  0.00     0.107 A 
HETATM   28  C24 UNL     1       3.168  51.991 -15.722  1.00  0.00     0.151 A 
HETATM   29  F1  UNL     1       4.412  52.408 -15.437  1.00  0.00    -0.203 F 
HETATM   30  C25 UNL     1       2.439  52.689 -16.684  1.00  0.00     0.075 A 
BRANCH  27  31
HETATM   31  O2  UNL     1       3.438  50.290 -14.135  1.00  0.00    -0.346 OA
BRANCH  31  32
HETATM   32  C17 UNL     1       3.426  50.850 -12.819  1.00  0.00     0.206 C 
BRANCH  32  33
HETATM   33  C18 UNL     1       2.046  50.613 -12.176  1.00  0.00     0.299 C 
BRANCH  33  34
HETATM   34  N4  UNL     1       1.515  51.750 -11.393  1.00  0.00     0.093 N 
HETATM   35  C19 UNL     1       0.558  52.568 -12.167  1.00  0.00     0.302 C 
HETATM   36  C20 UNL     1      -0.115  53.674 -11.318  1.00  0.00     0.302 C 
HETATM   37  N5  UNL     1      -0.761  53.210 -10.073  1.00  0.00     0.087 N 
HETATM   38  C21 UNL     1      -2.005  52.495 -10.350  1.00  0.00     0.310 C 
HETATM   39  C22 UNL     1       0.198  52.373  -9.329  1.00  0.00     0.302 C 
HETATM   40  C23 UNL     1       0.868  51.252 -10.159  1.00  0.00     0.302 C 
ENDBRANCH  33  34
ENDBRANCH  32  33
ENDBRANCH  31  32
ENDBRANCH  27  31
ENDBRANCH  22  24
ENDBRANCH   8  22
BRANCH   1  41
HETATM   41  C8  UNL     1       0.005  52.016 -25.628  1.00  0.00     0.072 A 
HETATM   42  C2  UNL     1       1.136  51.497 -26.303  1.00  0.00    -0.034 A 
HETATM   43  C1  UNL     1       2.389  51.061 -25.592  1.00  0.00     0.050 C 
HETATM   44  C3  UNL     1       1.103  51.369 -27.702  1.00  0.00     0.009 A 
HETATM   45  C4  UNL     1      -0.012  51.773 -28.429  1.00  0.00     0.001 A 
HETATM   46  C5  UNL     1      -1.121  52.293 -27.768  1.00  0.00     0.009 A 
HETATM   47  C6  UNL     1      -1.140  52.401 -26.369  1.00  0.00    -0.034 A 
HETATM   48  C7  UNL     1      -2.393  52.930 -25.723  1.00  0.00     0.050 C 
ENDBRANCH   1  41
TORSDOF 7
ENDMDL
MODEL 3
REMARK minimizedAffinity -10.1611195
REMARK CNNscore 0.554112017
REMARK CNNaffinity 7.94339371
REMARK  7 active torsions:
REMARK  status: ('A' for Active; 'I' for Inactive)
REMARK    1  A    between atoms: C8_8  and  N1_9 
REMARK    2  A    between atoms: C12_16  and  N3_17 
REMARK    3  A    between atoms: N3_17  and  C13_18 
REMARK    4  A    between atoms: C16_21  and  O2_22 
REMARK    5  A    between atoms: O2_22  and  C17_23 
REMARK    6  A    between atoms: C17_23  and  C18_24 
REMARK    7  A    between atoms: C18_24  and  N4_25 
ROOT
HETATM    1  N1  UNL     1      -0.402  51.904 -23.800  1.00  0.00    -0.108 N 
HETATM    2  C9  UNL     1       0.239  53.021 -23.271  1.00  0.00     0.282 A 
HETATM    3  O1  UNL     1       0.637  53.990 -23.911  1.00  0.00    -0.266 OA
HETATM    4  C10 UNL     1       0.485  53.021 -21.820  1.00  0.00     0.095 A 
HETATM    5  C11 UNL     1       1.130  54.056 -21.190  1.00  0.00     0.127 A 
HETATM    6  N2  UNL     1       1.383  54.072 -19.862  1.00  0.00    -0.201 N 
ATOM      7  H2  UNL     1       1.863  54.861 -19.429  1.00  0.00     0.183 HD
HETATM    8  C12 UNL     1       0.984  53.019 -19.133  1.00  0.00     0.684 A 
HETATM    9  N6  UNL     1       0.339  51.968 -19.663  1.00  0.00    -0.174 N 
ATOM     10  H6  UNL     1       0.041  51.182 -19.086  1.00  0.00     0.186 HD
HETATM   11  C26 UNL     1       0.100  51.991 -20.998  1.00  0.00     0.162 A 
HETATM   12  N7  UNL     1      -0.577  50.918 -21.607  1.00  0.00    -0.128 N 
HETATM   13  C27 UNL     1      -1.108  49.774 -21.042  1.00  0.00     0.086 A 
HETATM   14  C28 UNL     1      -1.165  49.269 -19.735  1.00  0.00     0.033 A 
HETATM   15  C29 UNL     1      -1.814  48.042 -19.546  1.00  0.00     0.002 A 
HETATM   16  C30 UNL     1      -2.382  47.352 -20.615  1.00  0.00     0.002 A 
HETATM   17  C31 UNL     1      -2.317  47.870 -21.913  1.00  0.00     0.032 A 
HETATM   18  C32 UNL     1      -1.671  49.098 -22.122  1.00  0.00     0.077 A 
HETATM   19  N8  UNL     1      -1.493  49.789 -23.291  1.00  0.00    -0.188 N 
ATOM     20  H8  UNL     1      -1.813  49.519 -24.221  1.00  0.00     0.184 HD
HETATM   21  C33 UNL     1      -0.825  50.876 -22.965  1.00  0.00     0.701 A 
ENDROOT
BRANCH   8  22
HETATM   22  N3  UNL     1       1.249  52.923 -17.770  1.00  0.00    -0.192 N 
HETATM   23  H11 UNL     1       1.491  53.834 -17.408  1.00  0.00     0.184 HD
BRANCH  22  24
HETATM   24  C13 UNL     1       1.246  51.862 -16.860  1.00  0.00     0.052 A 
HETATM   25  C14 UNL     1       0.347  50.791 -16.914  1.00  0.00     0.033 A 
HETATM   26  C15 UNL     1       0.364  49.765 -15.954  1.00  0.00     0.042 A 
HETATM   27  C16 UNL     1       1.281  49.799 -14.907  1.00  0.00     0.107 A 
HETATM   28  C24 UNL     1       2.168  50.872 -14.840  1.00  0.00     0.151 A 
HETATM   29  F1  UNL     1       3.062  50.946 -13.841  1.00  0.00    -0.203 F 
HETATM   30  C25 UNL     1       2.159  51.885 -15.797  1.00  0.00     0.075 A 
BRANCH  27  31
HETATM   31  O2  UNL     1       1.375  48.876 -13.904  1.00  0.00    -0.346 OA
BRANCH  31  32
HETATM   32  C17 UNL     1       2.217  47.745 -14.140  1.00  0.00     0.206 C 
BRANCH  32  33
HETATM   33  C18 UNL     1       1.347  46.524 -14.492  1.00  0.00     0.299 C 
BRANCH  33  34
HETATM   34  N4  UNL     1       1.697  45.276 -13.778  1.00  0.00     0.093 N 
HETATM   35  C19 UNL     1       1.854  44.129 -14.697  1.00  0.00     0.302 C 
HETATM   36  C20 UNL     1       2.361  42.851 -13.983  1.00  0.00     0.302 C 
HETATM   37  N5  UNL     1       3.595  43.018 -13.190  1.00  0.00     0.087 N 
HETATM   38  C21 UNL     1       4.770  43.152 -14.050  1.00  0.00     0.310 C 
HETATM   39  C22 UNL     1       3.431  44.184 -12.303  1.00  0.00     0.302 C 
HETATM   40  C23 UNL     1       2.940  45.474 -13.002  1.00  0.00     0.302 C 
ENDBRANCH  33  34
ENDBRANCH  32  33
ENDBRANCH  31  32
ENDBRANCH  27  31
ENDBRANCH  22  24
ENDBRANCH   8  22
BRANCH   1  41
HETATM   41  C8  UNL     1      -0.702  51.791 -25.186  1.00  0.00     0.072 A 
HETATM   42  C2  UNL     1      -2.007  52.076 -25.655  1.00  0.00    -0.034 A 
HETATM   43  C1  UNL     1      -3.137  52.476 -24.745  1.00  0.00     0.050 C 
HETATM   44  C3  UNL     1      -2.276  51.991 -27.032  1.00  0.00     0.009 A 
HETATM   45  C4  UNL     1      -1.287  51.604 -27.930  1.00  0.00     0.001 A 
HETATM   46  C5  UNL     1      -0.006  51.314 -27.470  1.00  0.00     0.009 A 
HETATM   47  C6  UNL     1       0.311  51.424 -26.107  1.00  0.00    -0.034 A 
HETATM   48  C7  UNL     1       1.730  51.140 -25.692  1.00  0.00     0.050 C 
ENDBRANCH   1  41
TORSDOF 7
ENDMDL
MODEL 4
REMARK minimizedAffinity -9.10489941
REMARK CNNscore 0.514601052
REMARK CNNaffinity 8.08358669
REMARK  7 active torsions:
REMARK  status: ('A' for Active; 'I' for Inactive)
REMARK    1  A    between atoms: C8_8  and  N1_9 
REMARK    2  A    between atoms: C12_16  and  N3_17 
REMARK    3  A    between atoms: N3_17  and  C13_18 
REMARK    4  A    between atoms: C16_21  and  O2_22 
REMARK    5  A    between atoms: O2_22  and  C17_23 
REMARK    6  A    between atoms: C17_23  and  C18_24 
REMARK    7  A    between atoms: C18_24  and  N4_25 
ROOT
HETATM    1  N1  UNL     1       0.118  52.186 -24.663  1.00  0.00    -0.108 N 
HETATM    2  C9  UNL     1       0.756  53.111 -23.840  1.00  0.00     0.282 A 
HETATM    3  O1  UNL     1       1.526  53.991 -24.212  1.00  0.00    -0.266 OA
HETATM    4  C10 UNL     1       0.502  52.999 -22.394  1.00  0.00     0.095 A 
HETATM    5  C11 UNL     1       1.094  53.839 -21.484  1.00  0.00     0.127 A 
HETATM    6  N2  UNL     1       0.891  53.746 -20.150  1.00  0.00    -0.201 N 
ATOM      7  H2  UNL     1       1.346  54.391 -19.504  1.00  0.00     0.183 HD
HETATM    8  C12 UNL     1       0.074  52.781 -19.703  1.00  0.00     0.684 A 
HETATM    9  N6  UNL     1      -0.554  51.921 -20.522  1.00  0.00    -0.174 N 
ATOM     10  H6  UNL     1      -1.175  51.199 -20.157  1.00  0.00     0.186 HD
HETATM   11  C26 UNL     1      -0.329  52.048 -21.853  1.00  0.00     0.162 A 
HETATM   12  N7  UNL     1      -0.963  51.178 -22.758  1.00  0.00    -0.128 N 
HETATM   13  C27 UNL     1      -1.866  50.159 -22.518  1.00  0.00     0.086 A 
HETATM   14  C28 UNL     1      -2.451  49.629 -21.359  1.00  0.00     0.033 A 
HETATM   15  C29 UNL     1      -3.354  48.571 -21.519  1.00  0.00     0.002 A 
HETATM   16  C30 UNL     1      -3.660  48.066 -22.782  1.00  0.00     0.002 A 
HETATM   17  C31 UNL     1      -3.069  48.608 -23.929  1.00  0.00     0.032 A 
HETATM   18  C32 UNL     1      -2.161  49.668 -23.787  1.00  0.00     0.077 A 
HETATM   19  N8  UNL     1      -1.474  50.348 -24.758  1.00  0.00    -0.188 N 
ATOM     20  H8  UNL     1      -1.515  50.192 -25.765  1.00  0.00     0.184 HD
HETATM   21  C33 UNL     1      -0.751  51.245 -24.121  1.00  0.00     0.701 A 
ENDROOT
BRANCH   8  22
HETATM   22  N3  UNL     1      -0.152  52.575 -18.346  1.00  0.00    -0.192 N 
HETATM   23  H11 UNL     1      -1.083  52.883 -18.107  1.00  0.00     0.184 HD
BRANCH  22  24
HETATM   24  C13 UNL     1       0.626  52.053 -17.308  1.00  0.00     0.052 A 
HETATM   25  C14 UNL     1       0.230  50.982 -16.499  1.00  0.00     0.033 A 
HETATM   26  C15 UNL     1       1.035  50.516 -15.447  1.00  0.00     0.042 A 
HETATM   27  C16 UNL     1       2.256  51.126 -15.174  1.00  0.00     0.107 A 
HETATM   28  C24 UNL     1       2.648  52.204 -15.966  1.00  0.00     0.151 A 
HETATM   29  F1  UNL     1       3.814  52.826 -15.729  1.00  0.00    -0.203 F 
HETATM   30  C25 UNL     1       1.854  52.661 -17.017  1.00  0.00     0.075 A 
BRANCH  27  31
HETATM   31  O2  UNL     1       3.109  50.780 -14.164  1.00  0.00    -0.346 OA
BRANCH  31  32
HETATM   32  C17 UNL     1       2.966  51.481 -12.926  1.00  0.00     0.206 C 
BRANCH  32  33
HETATM   33  C18 UNL     1       2.373  50.532 -11.867  1.00  0.00     0.299 C 
BRANCH  33  34
HETATM   34  N4  UNL     1       2.151  49.142 -12.322  1.00  0.00     0.093 N 
HETATM   35  C19 UNL     1       2.996  48.171 -11.596  1.00  0.00     0.302 C 
HETATM   36  C20 UNL     1       2.672  46.701 -11.959  1.00  0.00     0.302 C 
HETATM   37  N5  UNL     1       1.253  46.315 -11.823  1.00  0.00     0.087 N 
HETATM   38  C21 UNL     1       0.866  46.183 -10.420  1.00  0.00     0.310 C 
HETATM   39  C22 UNL     1       0.424  47.310 -12.527  1.00  0.00     0.302 C 
HETATM   40  C23 UNL     1       0.725  48.784 -12.165  1.00  0.00     0.302 C 
ENDBRANCH  33  34
ENDBRANCH  32  33
ENDBRANCH  31  32
ENDBRANCH  27  31
ENDBRANCH  22  24
ENDBRANCH   8  22
BRANCH   1  41
HETATM   41  C8  UNL     1       0.278  52.197 -26.076  1.00  0.00     0.072 A 
HETATM   42  C2  UNL     1       1.420  51.601 -26.665  1.00  0.00    -0.034 A 
HETATM   43  C1  UNL     1       2.519  50.960 -25.861  1.00  0.00     0.050 C 
HETATM   44  C3  UNL     1       1.545  51.592 -28.065  1.00  0.00     0.009 A 
HETATM   45  C4  UNL     1       0.581  52.186 -28.871  1.00  0.00     0.001 A 
HETATM   46  C5  UNL     1      -0.537  52.781 -28.294  1.00  0.00     0.009 A 
HETATM   47  C6  UNL     1      -0.717  52.777 -26.902  1.00  0.00    -0.034 A 
HETATM   48  C7  UNL     1      -1.974  53.399 -26.354  1.00  0.00     0.050 C 
ENDBRANCH   1  41
TORSDOF 7
ENDMDL
MODEL 5
REMARK minimizedAffinity -9.38669682
REMARK CNNscore 0.507237971
REMARK CNNaffinity 7.90370178
REMARK  7 active torsions:
REMARK  status: ('A' for Active; 'I' for Inactive)
REMARK    1  A    between atoms: C8_8  and  N1_9 
REMARK    2  A    between atoms: C12_16  and  N3_17 
REMARK    3  A    between atoms: N3_17  and  C13_18 
REMARK    4  A    between atoms: C16_21  and  O2_22 
REMARK    5  A    between atoms: O2_22  and  C17_23 
REMARK    6  A    between atoms: C17_23  and  C18_24 
REMARK    7  A    between atoms: C18_24  and  N4_25 
ROOT
HETATM    1  N1  UNL     1      -0.331  51.945 -23.883  1.00  0.00    -0.108 N 
HETATM    2  C9  UNL     1       0.304  53.050 -23.323  1.00  0.00     0.282 A 
HETATM    3  O1  UNL     1       0.727  54.023 -23.939  1.00  0.00    -0.266 OA
HETATM    4  C10 UNL     1       0.510  53.030 -21.865  1.00  0.00     0.095 A 
HETATM    5  C11 UNL     1       1.146  54.051 -21.205  1.00  0.00     0.127 A 
HETATM    6  N2  UNL     1       1.363  54.049 -19.871  1.00  0.00    -0.201 N 
ATOM      7  H2  UNL     1       1.837  54.828 -19.414  1.00  0.00     0.183 HD
HETATM    8  C12 UNL     1       0.936  52.991 -19.165  1.00  0.00     0.684 A 
HETATM    9  N6  UNL     1       0.297  51.951 -19.727  1.00  0.00    -0.174 N 
ATOM     10  H6  UNL     1      -0.024  51.161 -19.167  1.00  0.00     0.186 HD
HETATM   11  C26 UNL     1       0.094  51.993 -21.067  1.00  0.00     0.162 A 
HETATM   12  N7  UNL     1      -0.575  50.933 -21.708  1.00  0.00    -0.128 N 
HETATM   13  C27 UNL     1      -1.130  49.787 -21.171  1.00  0.00     0.086 A 
HETATM   14  C28 UNL     1      -1.228  49.266 -19.873  1.00  0.00     0.033 A 
HETATM   15  C29 UNL     1      -1.891  48.043 -19.717  1.00  0.00     0.002 A 
HETATM   16  C30 UNL     1      -2.435  47.371 -20.810  1.00  0.00     0.002 A 
HETATM   17  C31 UNL     1      -2.331  47.904 -22.099  1.00  0.00     0.032 A 
HETATM   18  C32 UNL     1      -1.669  49.129 -22.275  1.00  0.00     0.077 A 
HETATM   19  N8  UNL     1      -1.454  49.833 -23.430  1.00  0.00    -0.188 N 
ATOM     20  H8  UNL     1      -1.750  49.577 -24.371  1.00  0.00     0.184 HD
HETATM   21  C33 UNL     1      -0.786  50.910 -23.072  1.00  0.00     0.701 A 
ENDROOT
BRANCH   8  22
HETATM   22  N3  UNL     1       1.162  52.876 -17.798  1.00  0.00    -0.192 N 
HETATM   23  H11 UNL     1       1.396  53.780 -17.416  1.00  0.00     0.184 HD
BRANCH  22  24
HETATM   24  C13 UNL     1       1.131  51.803 -16.902  1.00  0.00     0.052 A 
HETATM   25  C14 UNL     1       1.934  51.716 -15.760  1.00  0.00     0.033 A 
HETATM   26  C15 UNL     1       1.888  50.599 -14.909  1.00  0.00     0.042 A 
HETATM   27  C16 UNL     1       1.038  49.534 -15.194  1.00  0.00     0.107 A 
HETATM   28  C24 UNL     1       0.247  49.608 -16.339  1.00  0.00     0.151 A 
HETATM   29  F1  UNL     1      -0.579  48.598 -16.655  1.00  0.00    -0.203 F 
HETATM   30  C25 UNL     1       0.284  50.721 -17.179  1.00  0.00     0.075 A 
BRANCH  27  31
HETATM   31  O2  UNL     1       0.926  48.388 -14.459  1.00  0.00    -0.346 OA
BRANCH  31  32
HETATM   32  C17 UNL     1       0.681  48.538 -13.058  1.00  0.00     0.206 C 
BRANCH  32  33
HETATM   33  C18 UNL     1       1.844  47.912 -12.265  1.00  0.00     0.299 C 
BRANCH  33  34
HETATM   34  N4  UNL     1       1.840  48.196 -10.814  1.00  0.00     0.093 N 
HETATM   35  C19 UNL     1       1.067  47.195 -10.048  1.00  0.00     0.302 C 
HETATM   36  C20 UNL     1       1.173  47.396  -8.516  1.00  0.00     0.302 C 
HETATM   37  N5  UNL     1       2.548  47.469  -7.982  1.00  0.00     0.087 N 
HETATM   38  C21 UNL     1       3.191  46.156  -7.978  1.00  0.00     0.310 C 
HETATM   39  C22 UNL     1       3.311  48.448  -8.776  1.00  0.00     0.302 C 
HETATM   40  C23 UNL     1       3.229  48.253 -10.309  1.00  0.00     0.302 C 
ENDBRANCH  33  34
ENDBRANCH  32  33
ENDBRANCH  31  32
ENDBRANCH  27  31
ENDBRANCH  22  24
ENDBRANCH   8  22
BRANCH   1  41
HETATM   41  C8  UNL     1      -0.594  51.851 -25.277  1.00  0.00     0.072 A 
HETATM   42  C2  UNL     1       0.435  51.459 -26.168  1.00  0.00    -0.034 A 
HETATM   43  C1  UNL     1       1.838  51.152 -25.717  1.00  0.00     0.050 C 
HETATM   44  C3  UNL     1       0.150  51.341 -27.539  1.00  0.00     0.009 A 
HETATM   45  C4  UNL     1      -1.118  51.632 -28.031  1.00  0.00     0.001 A 
HETATM   46  C5  UNL     1      -2.128  52.027 -27.159  1.00  0.00     0.009 A 
HETATM   47  C6  UNL     1      -1.892  52.121 -25.779  1.00  0.00    -0.034 A 
HETATM   48  C7  UNL     1      -3.046  52.509 -24.894  1.00  0.00     0.050 C 
ENDBRANCH   1  41
TORSDOF 7
ENDMDL
MODEL 6
REMARK minimizedAffinity -10.1831446
REMARK CNNscore 0.387605667
REMARK CNNaffinity 8.09168911
REMARK  7 active torsions:
REMARK  status: ('A' for Active; 'I' for Inactive)
REMARK    1  A    between atoms: C8_8  and  N1_9 
REMARK    2  A    between atoms: C12_16  and  N3_17 
REMARK    3  A    between atoms: N3_17  and  C13_18 
REMARK    4  A    between atoms: C16_21  and  O2_22 
REMARK    5  A    between atoms: O2_22  and  C17_23 
REMARK    6  A    between atoms: C17_23  and  C18_24 
REMARK    7  A    between atoms: C18_24  and  N4_25 
ROOT
HETATM    1  N1  UNL     1      -0.174  52.042 -23.972  1.00  0.00    -0.108 N 
HETATM    2  C9  UNL     1       0.481  53.123 -23.388  1.00  0.00     0.282 A 
HETATM    3  O1  UNL     1       0.968  54.077 -23.988  1.00  0.00    -0.266 OA
HETATM    4  C10 UNL     1       0.626  53.100 -21.923  1.00  0.00     0.095 A 
HETATM    5  C11 UNL     1       1.274  54.097 -21.239  1.00  0.00     0.127 A 
HETATM    6  N2  UNL     1       1.435  54.091 -19.896  1.00  0.00    -0.201 N 
ATOM      7  H2  UNL     1       1.920  54.853 -19.422  1.00  0.00     0.183 HD
HETATM    8  C12 UNL     1       0.937  53.053 -19.208  1.00  0.00     0.684 A 
HETATM    9  N6  UNL     1       0.281  52.037 -19.793  1.00  0.00    -0.174 N 
ATOM     10  H6  UNL     1      -0.093  51.262 -19.246  1.00  0.00     0.186 HD
HETATM   11  C26 UNL     1       0.136  52.082 -21.140  1.00  0.00     0.162 A 
HETATM   12  N7  UNL     1      -0.547  51.048 -21.807  1.00  0.00    -0.128 N 
HETATM   13  C27 UNL     1      -1.168  49.926 -21.292  1.00  0.00     0.086 A 
HETATM   14  C28 UNL     1      -1.340  49.414 -19.998  1.00  0.00     0.033 A 
HETATM   15  C29 UNL     1      -2.057  48.219 -19.868  1.00  0.00     0.002 A 
HETATM   16  C30 UNL     1      -2.582  47.565 -20.982  1.00  0.00     0.002 A 
HETATM   17  C31 UNL     1      -2.404  48.090 -22.266  1.00  0.00     0.032 A 
HETATM   18  C32 UNL     1      -1.687  49.287 -22.416  1.00  0.00     0.077 A 
HETATM   19  N8  UNL     1      -1.396  49.978 -23.562  1.00  0.00    -0.188 N 
ATOM     20  H8  UNL     1      -1.663  49.731 -24.515  1.00  0.00     0.184 HD
HETATM   21  C33 UNL     1      -0.702  51.029 -23.179  1.00  0.00     0.701 A 
ENDROOT
BRANCH   8  22
HETATM   22  N3  UNL     1       1.102  52.933 -17.831  1.00  0.00    -0.192 N 
HETATM   23  H11 UNL     1       1.263  53.845 -17.430  1.00  0.00     0.184 HD
BRANCH  22  24
HETATM   24  C13 UNL     1       1.090  51.849 -16.949  1.00  0.00     0.052 A 
HETATM   25  C14 UNL     1       1.877  51.773 -15.795  1.00  0.00     0.033 A 
HETATM   26  C15 UNL     1       1.852  50.644 -14.959  1.00  0.00     0.042 A 
HETATM   27  C16 UNL     1       1.040  49.557 -15.271  1.00  0.00     0.107 A 
HETATM   28  C24 UNL     1       0.266  49.621 -16.428  1.00  0.00     0.151 A 
HETATM   29  F1  UNL     1      -0.523  48.590 -16.769  1.00  0.00    -0.203 F 
HETATM   30  C25 UNL     1       0.282  50.745 -17.254  1.00  0.00     0.075 A 
BRANCH  27  31
HETATM   31  O2  UNL     1       0.952  48.399 -14.551  1.00  0.00    -0.346 OA
BRANCH  31  32
HETATM   32  C17 UNL     1      -0.228  47.613 -14.730  1.00  0.00     0.206 C 
BRANCH  32  33
HETATM   33  C18 UNL     1      -0.849  47.302 -13.354  1.00  0.00     0.299 C 
BRANCH  33  34
HETATM   34  N4  UNL     1      -1.637  48.402 -12.757  1.00  0.00     0.093 N 
HETATM   35  C19 UNL     1      -0.798  49.332 -11.972  1.00  0.00     0.302 C 
HETATM   36  C20 UNL     1      -1.582  50.567 -11.462  1.00  0.00     0.302 C 
HETATM   37  N5  UNL     1      -2.315  51.321 -12.499  1.00  0.00     0.087 N 
HETATM   38  C21 UNL     1      -1.405  52.095 -13.342  1.00  0.00     0.310 C 
HETATM   39  C22 UNL     1      -3.122  50.374 -13.289  1.00  0.00     0.302 C 
HETATM   40  C23 UNL     1      -2.350  49.143 -13.820  1.00  0.00     0.302 C 
ENDBRANCH  33  34
ENDBRANCH  32  33
ENDBRANCH  31  32
ENDBRANCH  27  31
ENDBRANCH  22  24
ENDBRANCH   8  22
BRANCH   1  41
HETATM   41  C8  UNL     1      -0.382  51.955 -25.376  1.00  0.00     0.072 A 
HETATM   42  C2  UNL     1       0.681  51.567 -26.227  1.00  0.00    -0.034 A 
HETATM   43  C1  UNL     1       2.065  51.258 -25.723  1.00  0.00     0.050 C 
HETATM   44  C3  UNL     1       0.449  51.454 -27.609  1.00  0.00     0.009 A 
HETATM   45  C4  UNL     1      -0.798  51.747 -28.149  1.00  0.00     0.001 A 
HETATM   46  C5  UNL     1      -1.842  52.138 -27.315  1.00  0.00     0.009 A 
HETATM   47  C6  UNL     1      -1.659  52.226 -25.926  1.00  0.00    -0.034 A 
HETATM   48  C7  UNL     1      -2.848  52.610 -25.085  1.00  0.00     0.050 C 
ENDBRANCH   1  41
TORSDOF 7
ENDMDL
MODEL 7
REMARK minimizedAffinity -10.9023695
REMARK CNNscore 0.321172059
REMARK CNNaffinity 7.94362879
REMARK  7 active torsions:
REMARK  status: ('A' for Active; 'I' for Inactive)
REMARK    1  A    between atoms: C8_8  and  N1_9 
REMARK    2  A    between atoms: C12_16  and  N3_17 
REMARK    3  A    between atoms: N3_17  and  C13_18 
REMARK    4  A    between atoms: C16_21  and  O2_22 
REMARK    5  A    between atoms: O2_22  and  C17_23 
REMARK    6  A    between atoms: C17_23  and  C18_24 
REMARK    7  A    between atoms: C18_24  and  N4_25 
ROOT
HETATM    1  N1  UNL     1      -0.369  51.930 -23.920  1.00  0.00    -0.108 N 
HETATM    2  C9  UNL     1       0.294  53.043 -23.410  1.00  0.00     0.282 A 
HETATM    3  O1  UNL     1       0.689  54.005 -24.063  1.00  0.00    -0.266 OA
HETATM    4  C10 UNL     1       0.568  53.048 -21.964  1.00  0.00     0.095 A 
HETATM    5  C11 UNL     1       1.236  54.079 -21.353  1.00  0.00     0.127 A 
HETATM    6  N2  UNL     1       1.515  54.100 -20.030  1.00  0.00    -0.201 N 
ATOM      7  H2  UNL     1       2.012  54.887 -19.610  1.00  0.00     0.183 HD
HETATM    8  C12 UNL     1       1.120  53.056 -19.287  1.00  0.00     0.684 A 
HETATM    9  N6  UNL     1       0.454  52.008 -19.799  1.00  0.00    -0.174 N 
ATOM     10  H6  UNL     1       0.160  51.228 -19.211  1.00  0.00     0.186 HD
HETATM   11  C26 UNL     1       0.189  52.026 -21.129  1.00  0.00     0.162 A 
HETATM   12  N7  UNL     1      -0.510  50.957 -21.719  1.00  0.00    -0.128 N 
HETATM   13  C27 UNL     1      -1.041  49.822 -21.137  1.00  0.00     0.086 A 
HETATM   14  C28 UNL     1      -1.078  49.324 -19.826  1.00  0.00     0.033 A 
HETATM   15  C29 UNL     1      -1.735  48.105 -19.618  1.00  0.00     0.002 A 
HETATM   16  C30 UNL     1      -2.331  47.414 -20.673  1.00  0.00     0.002 A 
HETATM   17  C31 UNL     1      -2.287  47.925 -21.974  1.00  0.00     0.032 A 
HETATM   18  C32 UNL     1      -1.632  49.146 -22.202  1.00  0.00     0.077 A 
HETATM   19  N8  UNL     1      -1.471  49.829 -23.378  1.00  0.00    -0.188 N 
ATOM     20  H8  UNL     1      -1.812  49.557 -24.300  1.00  0.00     0.184 HD
HETATM   21  C33 UNL     1      -0.786  50.910 -23.071  1.00  0.00     0.701 A 
ENDROOT
BRANCH   8  22
HETATM   22  N3  UNL     1       1.411  52.964 -17.929  1.00  0.00    -0.192 N 
HETATM   23  H11 UNL     1       1.856  53.815 -17.621  1.00  0.00     0.184 HD
BRANCH  22  24
HETATM   24  C13 UNL     1       1.215  51.969 -16.967  1.00  0.00     0.052 A 
HETATM   25  C14 UNL     1       0.376  50.864 -17.146  1.00  0.00     0.033 A 
HETATM   26  C15 UNL     1       0.188  49.909 -16.134  1.00  0.00     0.042 A 
HETATM   27  C16 UNL     1       0.833  50.049 -14.907  1.00  0.00     0.107 A 
HETATM   28  C24 UNL     1       1.657  51.157 -14.718  1.00  0.00     0.151 A 
HETATM   29  F1  UNL     1       2.289  51.334 -13.547  1.00  0.00    -0.203 F 
HETATM   30  C25 UNL     1       1.852  52.100 -15.726  1.00  0.00     0.075 A 
BRANCH  27  31
HETATM   31  O2  UNL     1       0.707  49.203 -13.843  1.00  0.00    -0.346 OA
BRANCH  31  32
HETATM   32  C17 UNL     1      -0.588  49.099 -13.246  1.00  0.00     0.206 C 
BRANCH  32  33
HETATM   33  C18 UNL     1      -0.799  50.276 -12.274  1.00  0.00     0.299 C 
BRANCH  33  34
HETATM   34  N4  UNL     1      -2.194  50.756 -12.162  1.00  0.00     0.093 N 
HETATM   35  C19 UNL     1      -2.655  50.821 -10.759  1.00  0.00     0.302 C 
HETATM   36  C20 UNL     1      -4.060  51.457 -10.616  1.00  0.00     0.302 C 
HETATM   37  N5  UNL     1      -4.220  52.783 -11.247  1.00  0.00     0.087 N 
HETATM   38  C21 UNL     1      -3.535  53.825 -10.486  1.00  0.00     0.310 C 
HETATM   39  C22 UNL     1      -3.728  52.706 -12.635  1.00  0.00     0.302 C 
HETATM   40  C23 UNL     1      -2.319  52.086 -12.795  1.00  0.00     0.302 C 
ENDBRANCH  33  34
ENDBRANCH  32  33
ENDBRANCH  31  32
ENDBRANCH  27  31
ENDBRANCH  22  24
ENDBRANCH   8  22
BRANCH   1  41
HETATM   41  C8  UNL     1      -0.697  51.813 -25.299  1.00  0.00     0.072 A 
HETATM   42  C2  UNL     1      -2.006  52.114 -25.745  1.00  0.00    -0.034 A 
HETATM   43  C1  UNL     1      -3.112  52.537 -24.816  1.00  0.00     0.050 C 
HETATM   44  C3  UNL     1      -2.304  52.024 -27.116  1.00  0.00     0.009 A 
HETATM   45  C4  UNL     1      -1.338  51.617 -28.030  1.00  0.00     0.001 A 
HETATM   46  C5  UNL     1      -0.053  51.311 -27.593  1.00  0.00     0.009 A 
HETATM   47  C6  UNL     1       0.293  51.425 -26.237  1.00  0.00    -0.034 A 
HETATM   48  C7  UNL     1       1.715  51.121 -25.847  1.00  0.00     0.050 C 
ENDBRANCH   1  41
TORSDOF 7
ENDMDL
MODEL 8
REMARK minimizedAffinity -8.92659187
REMARK CNNscore 0.213875622
REMARK CNNaffinity 7.53153276
REMARK  7 active torsions:
REMARK  status: ('A' for Active; 'I' for Inactive)
REMARK    1  A    between atoms: C8_8  and  N1_9 
REMARK    2  A    between atoms: C12_16  and  N3_17 
REMARK    3  A    between atoms: N3_17  and  C13_18 
REMARK    4  A    between atoms: C16_21  and  O2_22 
REMARK    5  A    between atoms: O2_22  and  C17_23 
REMARK    6  A    between atoms: C17_23  and  C18_24 
REMARK    7  A    between atoms: C18_24  and  N4_25 
ROOT
HETATM    1  N1  UNL     1      -2.375  50.734 -21.532  1.00  0.00    -0.108 N 
HETATM    2  C9  UNL     1      -1.384  51.655 -21.866  1.00  0.00     0.282 A 
HETATM    3  O1  UNL     1      -1.186  52.122 -22.984  1.00  0.00    -0.266 OA
HETATM    4  C10 UNL     1      -0.480  52.079 -20.785  1.00  0.00     0.095 A 
HETATM    5  C11 UNL     1       0.549  52.962 -21.000  1.00  0.00     0.127 A 
HETATM    6  N2  UNL     1       1.403  53.354 -20.029  1.00  0.00    -0.201 N 
ATOM      7  H2  UNL     1       2.155  54.016 -20.226  1.00  0.00     0.183 HD
HETATM    8  C12 UNL     1       1.233  52.847 -18.798  1.00  0.00     0.684 A 
HETATM    9  N6  UNL     1       0.250  51.984 -18.496  1.00  0.00    -0.174 N 
ATOM     10  H6  UNL     1       0.138  51.617 -17.551  1.00  0.00     0.186 HD
HETATM   11  C26 UNL     1      -0.590  51.618 -19.496  1.00  0.00     0.162 A 
HETATM   12  N7  UNL     1      -1.642  50.721 -19.235  1.00  0.00    -0.128 N 
HETATM   13  C27 UNL     1      -2.019  50.124 -18.047  1.00  0.00     0.086 A 
HETATM   14  C28 UNL     1      -1.528  50.171 -16.734  1.00  0.00     0.033 A 
HETATM   15  C29 UNL     1      -2.200  49.412 -15.768  1.00  0.00     0.002 A 
HETATM   16  C30 UNL     1      -3.315  48.643 -16.098  1.00  0.00     0.002 A 
HETATM   17  C31 UNL     1      -3.793  48.608 -17.413  1.00  0.00     0.032 A 
HETATM   18  C32 UNL     1      -3.132  49.362 -18.395  1.00  0.00     0.077 A 
HETATM   19  N8  UNL     1      -3.422  49.482 -19.728  1.00  0.00    -0.188 N 
ATOM     20  H8  UNL     1      -4.186  49.035 -20.234  1.00  0.00     0.184 HD
HETATM   21  C33 UNL     1      -2.511  50.294 -20.220  1.00  0.00     0.701 A 
ENDROOT
BRANCH   8  22
HETATM   22  N3  UNL     1       2.096  53.150 -17.750  1.00  0.00    -0.192 N 
HETATM   23  H11 UNL     1       2.672  53.939 -18.003  1.00  0.00     0.184 HD
BRANCH  22  24
HETATM   24  C13 UNL     1       2.306  52.596 -16.483  1.00  0.00     0.052 A 
HETATM   25  C14 UNL     1       3.562  52.219 -15.995  1.00  0.00     0.033 A 
HETATM   26  C15 UNL     1       3.715  51.636 -14.726  1.00  0.00     0.042 A 
HETATM   27  C16 UNL     1       2.603  51.407 -13.920  1.00  0.00     0.107 A 
HETATM   28  C24 UNL     1       1.347  51.766 -14.409  1.00  0.00     0.151 A 
HETATM   29  F1  UNL     1       0.249  51.552 -13.667  1.00  0.00    -0.203 F 
HETATM   30  C25 UNL     1       1.195  52.354 -15.664  1.00  0.00     0.075 A 
BRANCH  27  31
HETATM   31  O2  UNL     1       2.624  50.824 -12.685  1.00  0.00    -0.346 OA
BRANCH  31  32
HETATM   32  C17 UNL     1       3.301  51.534 -11.645  1.00  0.00     0.206 C 
BRANCH  32  33
HETATM   33  C18 UNL     1       2.280  52.362 -10.841  1.00  0.00     0.299 C 
BRANCH  33  34
HETATM   34  N4  UNL     1       2.859  53.444 -10.016  1.00  0.00     0.093 N 
HETATM   35  C19 UNL     1       3.668  52.924  -8.894  1.00  0.00     0.302 C 
HETATM   36  C20 UNL     1       4.398  54.041  -8.109  1.00  0.00     0.302 C 
HETATM   37  N5  UNL     1       5.222  54.954  -8.927  1.00  0.00     0.087 N 
HETATM   38  C21 UNL     1       6.449  54.303  -9.383  1.00  0.00     0.310 C 
HETATM   39  C22 UNL     1       4.408  55.438 -10.056  1.00  0.00     0.302 C 
HETATM   40  C23 UNL     1       3.684  54.333 -10.862  1.00  0.00     0.302 C 
ENDBRANCH  33  34
ENDBRANCH  32  33
ENDBRANCH  31  32
ENDBRANCH  27  31
ENDBRANCH  22  24
ENDBRANCH   8  22
BRANCH   1  41
HETATM   41  C8  UNL     1      -3.313  50.255 -22.488  1.00  0.00     0.072 A 
HETATM   42  C2  UNL     1      -3.192  48.942 -23.003  1.00  0.00    -0.034 A 
HETATM   43  C1  UNL     1      -2.083  48.004 -22.609  1.00  0.00     0.050 C 
HETATM   44  C3  UNL     1      -4.147  48.474 -23.922  1.00  0.00     0.009 A 
HETATM   45  C4  UNL     1      -5.186  49.293 -24.351  1.00  0.00     0.001 A 
HETATM   46  C5  UNL     1      -5.301  50.587 -23.853  1.00  0.00     0.009 A 
HETATM   47  C6  UNL     1      -4.388  51.078 -22.905  1.00  0.00    -0.034 A 
HETATM   48  C7  UNL     1      -4.605  52.472 -22.379  1.00  0.00     0.050 C 
ENDBRANCH   1  41
TORSDOF 7
ENDMDL
MODEL 9
REMARK minimizedAffinity -8.78135109
REMARK CNNscore 0.190603197
REMARK CNNaffinity 7.59025812
REMARK  7 active torsions:
REMARK  status: ('A' for Active; 'I' for Inactive)
REMARK    1  A    between atoms: C8_8  and  N1_9 
REMARK    2  A    between atoms: C12_16  and  N3_17 
REMARK    3  A    between atoms: N3_17  and  C13_18 
REMARK    4  A    between atoms: C16_21  and  O2_22 
REMARK    5  A    between atoms: O2_22  and  C17_23 
REMARK    6  A    between atoms: C17_23  and  C18_24 
REMARK    7  A    between atoms: C18_24  and  N4_25 
ROOT
HETATM    1  N1  UNL     1      -2.341  50.746 -21.584  1.00  0.00    -0.108 N 
HETATM    2  C9  UNL     1      -1.342  51.678 -21.855  1.00  0.00     0.282 A 
HETATM    3  O1  UNL     1      -1.093  52.164 -22.954  1.00  0.00    -0.266 OA
HETATM    4  C10 UNL     1      -0.495  52.091 -20.724  1.00  0.00     0.095 A 
HETATM    5  C11 UNL     1       0.536  52.984 -20.875  1.00  0.00     0.127 A 
HETATM    6  N2  UNL     1       1.339  53.366 -19.856  1.00  0.00    -0.201 N 
ATOM      7  H2  UNL     1       2.094  54.035 -20.006  1.00  0.00     0.183 HD
HETATM    8  C12 UNL     1       1.112  52.839 -18.644  1.00  0.00     0.684 A 
HETATM    9  N6  UNL     1       0.121  51.965 -18.403  1.00  0.00    -0.174 N 
ATOM     10  H6  UNL     1      -0.034  51.582 -17.471  1.00  0.00     0.186 HD
HETATM   11  C26 UNL     1      -0.666  51.610 -19.449  1.00  0.00     0.162 A 
HETATM   12  N7  UNL     1      -1.723  50.701 -19.255  1.00  0.00    -0.128 N 
HETATM   13  C27 UNL     1      -2.153  50.084 -18.096  1.00  0.00     0.086 A 
HETATM   14  C28 UNL     1      -1.729  50.113 -16.760  1.00  0.00     0.033 A 
HETATM   15  C29 UNL     1      -2.442  49.335 -15.840  1.00  0.00     0.002 A 
HETATM   16  C30 UNL     1      -3.533  48.564 -16.236  1.00  0.00     0.002 A 
HETATM   17  C31 UNL     1      -3.946  48.547 -17.573  1.00  0.00     0.032 A 
HETATM   18  C32 UNL     1      -3.243  49.320 -18.510  1.00  0.00     0.077 A 
HETATM   19  N8  UNL     1      -3.468  49.459 -19.853  1.00  0.00    -0.188 N 
ATOM     20  H8  UNL     1      -4.203  49.015 -20.404  1.00  0.00     0.184 HD
HETATM   21  C33 UNL     1      -2.539  50.285 -20.288  1.00  0.00     0.701 A 
ENDROOT
BRANCH   8  22
HETATM   22  N3  UNL     1       1.920  53.131 -17.549  1.00  0.00    -0.192 N 
HETATM   23  H11 UNL     1       2.398  54.006 -17.706  1.00  0.00     0.184 HD
BRANCH  22  24
HETATM   24  C13 UNL     1       2.181  52.476 -16.342  1.00  0.00     0.052 A 
HETATM   25  C14 UNL     1       3.468  52.187 -15.874  1.00  0.00     0.033 A 
HETATM   26  C15 UNL     1       3.676  51.497 -14.668  1.00  0.00     0.042 A 
HETATM   27  C16 UNL     1       2.591  51.069 -13.908  1.00  0.00     0.107 A 
HETATM   28  C24 UNL     1       1.307  51.341 -14.378  1.00  0.00     0.151 A 
HETATM   29  F1  UNL     1       0.234  50.937 -13.679  1.00  0.00    -0.203 F 
HETATM   30  C25 UNL     1       1.099  52.034 -15.569  1.00  0.00     0.075 A 
BRANCH  27  31
HETATM   31  O2  UNL     1       2.668  50.369 -12.737  1.00  0.00    -0.346 OA
BRANCH  31  32
HETATM   32  C17 UNL     1       2.143  51.002 -11.567  1.00  0.00     0.206 C 
BRANCH  32  33
HETATM   33  C18 UNL     1       2.563  52.484 -11.555  1.00  0.00     0.299 C 
BRANCH  33  34
HETATM   34  N4  UNL     1       1.741  53.363 -10.695  1.00  0.00     0.093 N 
HETATM   35  C19 UNL     1       0.536  53.862 -11.390  1.00  0.00     0.302 C 
HETATM   36  C20 UNL     1      -0.407  54.664 -10.459  1.00  0.00     0.302 C 
HETATM   37  N5  UNL     1      -0.807  53.972  -9.217  1.00  0.00     0.087 N 
HETATM   38  C21 UNL     1      -1.774  52.909  -9.483  1.00  0.00     0.310 C 
HETATM   39  C22 UNL     1       0.404  53.457  -8.554  1.00  0.00     0.302 C 
HETATM   40  C23 UNL     1       1.351  52.639  -9.466  1.00  0.00     0.302 C 
ENDBRANCH  33  34
ENDBRANCH  32  33
ENDBRANCH  31  32
ENDBRANCH  27  31
ENDBRANCH  22  24
ENDBRANCH   8  22
BRANCH   1  41
HETATM   41  C8  UNL     1      -3.228  50.276 -22.592  1.00  0.00     0.072 A 
HETATM   42  C2  UNL     1      -3.080  48.968 -23.113  1.00  0.00    -0.034 A 
HETATM   43  C1  UNL     1      -1.993  48.026 -22.669  1.00  0.00     0.050 C 
HETATM   44  C3  UNL     1      -3.985  48.508 -24.085  1.00  0.00     0.009 A 
HETATM   45  C4  UNL     1      -5.001  49.331 -24.560  1.00  0.00     0.001 A 
HETATM   46  C5  UNL     1      -5.142  50.621 -24.057  1.00  0.00     0.009 A 
HETATM   47  C6  UNL     1      -4.280  51.103 -23.058  1.00  0.00    -0.034 A 
HETATM   48  C7  UNL     1      -4.525  52.492 -22.531  1.00  0.00     0.050 C 
ENDBRANCH   1  41
TORSDOF 7
ENDMDL
