MODEL 1
REMARK minimizedAffinity -8.5812006
REMARK  8 active torsions:
REMARK  status: ('A' for Active; 'I' for Inactive)
REMARK    1  A    between atoms: O1_2  and  C2_3 
REMARK    2  A    between atoms: C5_6  and  N1_7 
REMARK    3  A    between atoms: N1_7  and  C6_8 
REMARK    4  A    between atoms: C17_25  and  O4_26 
REMARK    5  A    between atoms: O4_26  and  C18_27 
REMARK    6  A    between atoms: C18_27  and  C19_28 
REMARK    7  A    between atoms: C19_28  and  C20_29 
REMARK    8  A    between atoms: C20_29  and  N4_30 
ROOT
HETATM    1  C2  UNL     1      -1.298  50.119 -21.080  1.00  0.00     0.102 A 
HETATM    2  C3  UNL     1      -0.722  50.799 -20.005  1.00  0.00     0.057 A 
HETATM    3  C4  UNL     1       0.038  51.979 -20.209  1.00  0.00     0.038 A 
HETATM    4  C5  UNL     1       0.652  52.735 -19.188  1.00  0.00     0.119 A 
HETATM    5  N2  UNL     1       1.395  53.824 -19.458  1.00  0.00    -0.338 N 
ATOM      6  H2  UNL     1       1.852  54.356 -18.718  1.00  0.00     0.168 HD
HETATM    7  C14 UNL     1       1.507  54.175 -20.741  1.00  0.00     0.182 A 
HETATM    8  N3  UNL     1       0.950  53.546 -21.782  1.00  0.00    -0.351 N 
ATOM      9  H3  UNL     1       1.072  53.883 -22.737  1.00  0.00     0.166 HD
HETATM   10  C15 UNL     1       0.229  52.456 -21.511  1.00  0.00     0.050 A 
HETATM   11  C16 UNL     1      -0.354  51.772 -22.571  1.00  0.00     0.070 A 
HETATM   12  C17 UNL     1      -1.122  50.618 -22.380  1.00  0.00     0.104 A 
ENDROOT
BRANCH   4  13
HETATM   13  N1  UNL     1       0.472  52.335 -17.839  1.00  0.00    -0.339 N 
HETATM   14  H5  UNL     1      -0.323  52.827 -17.435  1.00  0.00     0.167 HD
BRANCH  13  15
HETATM   15  C6  UNL     1       1.456  52.164 -16.832  1.00  0.00     0.070 A 
HETATM   16  C7  UNL     1       2.748  52.693 -16.943  1.00  0.00     0.032 A 
HETATM   17  C8  UNL     1       3.713  52.443 -15.962  1.00  0.00     0.005 A 
HETATM   18  C9  UNL     1       3.401  51.650 -14.859  1.00  0.00     0.040 A 
HETATM   19  C10 UNL     1       2.128  51.102 -14.739  1.00  0.00     0.104 A 
HETATM   20  C11 UNL     1       1.168  51.330 -15.734  1.00  0.00     0.128 A 
HETATM   21  O3  UNL     1       1.893  50.339 -13.623  1.00  0.00    -0.346 OA
HETATM   22  O2  UNL     1      -0.098  50.781 -15.687  1.00  0.00    -0.344 OA
HETATM   23  C12 UNL     1      -0.165  49.712 -14.737  1.00  0.00     0.202 C 
HETATM   24  C13 UNL     1       0.493  50.116 -13.429  1.00  0.00     0.202 C 
ENDBRANCH  13  15
ENDBRANCH   4  13
BRANCH   1  25
HETATM   25  O1  UNL     1      -2.049  48.977 -20.965  1.00  0.00    -0.353 OA
HETATM   26  C1  UNL     1      -1.378  47.775 -20.614  1.00  0.00     0.210 C 
ENDBRANCH   1  25
BRANCH  12  27
HETATM   27  O4  UNL     1      -1.715  49.898 -23.384  1.00  0.00    -0.348 OA
BRANCH  27  28
HETATM   28  C18 UNL     1      -2.943  50.353 -23.951  1.00  0.00     0.177 C 
BRANCH  28  29
HETATM   29  C19 UNL     1      -2.684  51.117 -25.248  1.00  0.00     0.057 C 
BRANCH  29  30
HETATM   30  C20 UNL     1      -1.887  50.263 -26.238  1.00  0.00     0.274 C 
BRANCH  30  31
HETATM   31  N4  UNL     1      -1.049  51.064 -27.142  1.00  0.00     0.092 N 
HETATM   32  C21 UNL     1      -1.498  52.473 -27.227  1.00  0.00     0.298 C 
HETATM   33  C22 UNL     1      -0.361  53.417 -27.645  1.00  0.00     0.198 C 
HETATM   34  O5  UNL     1       0.706  53.455 -26.688  1.00  0.00    -0.388 OA
HETATM   35  C23 UNL     1       0.865  52.220 -25.975  1.00  0.00     0.198 C 
HETATM   36  C24 UNL     1       0.381  50.997 -26.769  1.00  0.00     0.298 C 
ENDBRANCH  30  31
ENDBRANCH  29  30
ENDBRANCH  28  29
ENDBRANCH  27  28
ENDBRANCH  12  27
TORSDOF 8
ENDMDL
MODEL 2
REMARK minimizedAffinity -8.55574036
REMARK  8 active torsions:
REMARK  status: ('A' for Active; 'I' for Inactive)
REMARK    1  A    between atoms: O1_2  and  C2_3 
REMARK    2  A    between atoms: C5_6  and  N1_7 
REMARK    3  A    between atoms: N1_7  and  C6_8 
REMARK    4  A    between atoms: C17_25  and  O4_26 
REMARK    5  A    between atoms: O4_26  and  C18_27 
REMARK    6  A    between atoms: C18_27  and  C19_28 
REMARK    7  A    between atoms: C19_28  and  C20_29 
REMARK    8  A    between atoms: C20_29  and  N4_30 
ROOT
HETATM    1  C2  UNL     1      -2.230  49.943 -26.324  1.00  0.00     0.102 A 
HETATM    2  C3  UNL     1      -1.270  50.609 -25.560  1.00  0.00     0.057 A 
HETATM    3  C4  UNL     1      -0.794  51.891 -25.939  1.00  0.00     0.038 A 
HETATM    4  C5  UNL     1       0.169  52.641 -25.231  1.00  0.00     0.119 A 
HETATM    5  N2  UNL     1       0.605  53.834 -25.671  1.00  0.00    -0.338 N 
ATOM      6  H2  UNL     1       1.315  54.364 -25.165  1.00  0.00     0.168 HD
HETATM    7  C14 UNL     1       0.066  54.293 -26.803  1.00  0.00     0.182 A 
HETATM    8  N3  UNL     1      -0.865  53.678 -27.539  1.00  0.00    -0.351 N 
ATOM      9  H3  UNL     1      -1.239  54.101 -28.389  1.00  0.00     0.166 HD
HETATM   10  C15 UNL     1      -1.282  52.486 -27.108  1.00  0.00     0.050 A 
HETATM   11  C16 UNL     1      -2.242  51.815 -27.855  1.00  0.00     0.070 A 
HETATM   12  C17 UNL     1      -2.732  50.559 -27.481  1.00  0.00     0.104 A 
ENDROOT
BRANCH   4  13
HETATM   13  N1  UNL     1       0.683  52.119 -24.016  1.00  0.00    -0.339 N 
HETATM   14  H5  UNL     1       0.545  51.110 -23.986  1.00  0.00     0.167 HD
BRANCH  13  15
HETATM   15  C6  UNL     1       0.533  52.633 -22.703  1.00  0.00     0.070 A 
HETATM   16  C7  UNL     1       1.226  53.764 -22.253  1.00  0.00     0.032 A 
HETATM   17  C8  UNL     1       1.106  54.199 -20.929  1.00  0.00     0.005 A 
HETATM   18  C9  UNL     1       0.299  53.502 -20.032  1.00  0.00     0.040 A 
HETATM   19  C10 UNL     1      -0.385  52.366 -20.457  1.00  0.00     0.104 A 
HETATM   20  C11 UNL     1      -0.246  51.914 -21.775  1.00  0.00     0.128 A 
HETATM   21  O3  UNL     1      -1.166  51.738 -19.520  1.00  0.00    -0.346 OA
HETATM   22  O2  UNL     1      -0.870  50.773 -22.241  1.00  0.00    -0.344 OA
HETATM   23  C12 UNL     1      -1.342  49.962 -21.159  1.00  0.00     0.202 C 
HETATM   24  C13 UNL     1      -2.069  50.811 -20.132  1.00  0.00     0.202 C 
ENDBRANCH  13  15
ENDBRANCH   4  13
BRANCH   1  25
HETATM   25  O1  UNL     1      -2.743  48.707 -26.022  1.00  0.00    -0.353 OA
HETATM   26  C1  UNL     1      -3.088  48.447 -24.668  1.00  0.00     0.210 C 
ENDBRANCH   1  25
BRANCH  12  27
HETATM   27  O4  UNL     1      -3.672  49.845 -28.179  1.00  0.00    -0.348 OA
BRANCH  27  28
HETATM   28  C18 UNL     1      -4.111  48.581 -27.684  1.00  0.00     0.177 C 
BRANCH  28  29
HETATM   29  C19 UNL     1      -5.446  48.191 -28.315  1.00  0.00     0.057 C 
BRANCH  29  30
HETATM   30  C20 UNL     1      -5.280  47.888 -29.807  1.00  0.00     0.274 C 
BRANCH  30  31
HETATM   31  N4  UNL     1      -6.523  47.422 -30.440  1.00  0.00     0.092 N 
HETATM   32  C21 UNL     1      -7.488  48.522 -30.663  1.00  0.00     0.298 C 
HETATM   33  C22 UNL     1      -8.471  48.207 -31.802  1.00  0.00     0.198 C 
HETATM   34  O5  UNL     1      -7.818  48.062 -33.070  1.00  0.00    -0.388 OA
HETATM   35  C23 UNL     1      -6.479  47.560 -32.958  1.00  0.00     0.198 C 
HETATM   36  C24 UNL     1      -6.258  46.699 -31.704  1.00  0.00     0.298 C 
ENDBRANCH  30  31
ENDBRANCH  29  30
ENDBRANCH  28  29
ENDBRANCH  27  28
ENDBRANCH  12  27
TORSDOF 8
ENDMDL
MODEL 3
REMARK minimizedAffinity -8.27724648
REMARK  8 active torsions:
REMARK  status: ('A' for Active; 'I' for Inactive)
REMARK    1  A    between atoms: O1_2  and  C2_3 
REMARK    2  A    between atoms: C5_6  and  N1_7 
REMARK    3  A    between atoms: N1_7  and  C6_8 
REMARK    4  A    between atoms: C17_25  and  O4_26 
REMARK    5  A    between atoms: O4_26  and  C18_27 
REMARK    6  A    between atoms: C18_27  and  C19_28 
REMARK    7  A    between atoms: C19_28  and  C20_29 
REMARK    8  A    between atoms: C20_29  and  N4_30 
ROOT
HETATM    1  C2  UNL     1      -2.795  49.302 -26.372  1.00  0.00     0.102 A 
HETATM    2  C3  UNL     1      -3.637  48.850 -27.391  1.00  0.00     0.057 A 
HETATM    3  C4  UNL     1      -4.913  48.306 -27.097  1.00  0.00     0.038 A 
HETATM    4  C5  UNL     1      -5.832  47.829 -28.057  1.00  0.00     0.119 A 
HETATM    5  N2  UNL     1      -7.011  47.286 -27.704  1.00  0.00    -0.338 N 
ATOM      6  H2  UNL     1      -7.663  46.926 -28.400  1.00  0.00     0.168 HD
HETATM    7  C14 UNL     1      -7.287  47.240 -26.399  1.00  0.00     0.182 A 
HETATM    8  N3  UNL     1      -6.502  47.681 -25.410  1.00  0.00    -0.351 N 
ATOM      9  H3  UNL     1      -6.789  47.623 -24.433  1.00  0.00     0.166 HD
HETATM   10  C15 UNL     1      -5.325  48.203 -25.764  1.00  0.00     0.050 A 
HETATM   11  C16 UNL     1      -4.480  48.662 -24.761  1.00  0.00     0.070 A 
HETATM   12  C17 UNL     1      -3.227  49.218 -25.040  1.00  0.00     0.104 A 
ENDROOT
BRANCH   4  13
HETATM   13  N1  UNL     1      -5.500  47.934 -29.432  1.00  0.00    -0.339 N 
HETATM   14  H5  UNL     1      -4.754  48.617 -29.557  1.00  0.00     0.167 HD
BRANCH  13  15
HETATM   15  C6  UNL     1      -6.375  48.011 -30.545  1.00  0.00     0.070 A 
HETATM   16  C7  UNL     1      -7.764  48.112 -30.406  1.00  0.00     0.032 A 
HETATM   17  C8  UNL     1      -8.599  48.114 -31.529  1.00  0.00     0.005 A 
HETATM   18  C9  UNL     1      -8.055  48.006 -32.808  1.00  0.00     0.040 A 
HETATM   19  C10 UNL     1      -6.677  47.889 -32.965  1.00  0.00     0.104 A 
HETATM   20  C11 UNL     1      -5.842  47.860 -31.841  1.00  0.00     0.128 A 
HETATM   21  O3  UNL     1      -6.215  47.795 -34.253  1.00  0.00    -0.346 OA
HETATM   22  O2  UNL     1      -4.472  47.708 -31.935  1.00  0.00    -0.344 OA
HETATM   23  C12 UNL     1      -4.091  47.235 -33.232  1.00  0.00     0.202 C 
HETATM   24  C13 UNL     1      -4.804  48.020 -34.318  1.00  0.00     0.202 C 
ENDBRANCH  13  15
ENDBRANCH   4  13
BRANCH   1  25
HETATM   25  O1  UNL     1      -1.551  49.845 -26.575  1.00  0.00    -0.353 OA
HETATM   26  C1  UNL     1      -1.474  51.081 -27.270  1.00  0.00     0.210 C 
ENDBRANCH   1  25
BRANCH  12  27
HETATM   27  O4  UNL     1      -2.348  49.680 -24.095  1.00  0.00    -0.348 OA
BRANCH  27  28
HETATM   28  C18 UNL     1      -2.764  50.688 -23.175  1.00  0.00     0.177 C 
BRANCH  28  29
HETATM   29  C19 UNL     1      -1.575  51.542 -22.740  1.00  0.00     0.057 C 
BRANCH  29  30
HETATM   30  C20 UNL     1      -0.980  51.027 -21.426  1.00  0.00     0.274 C 
BRANCH  30  31
HETATM   31  N4  UNL     1       0.310  51.651 -21.096  1.00  0.00     0.092 N 
HETATM   32  C21 UNL     1       0.689  52.707 -22.063  1.00  0.00     0.298 C 
HETATM   33  C22 UNL     1       1.655  53.732 -21.450  1.00  0.00     0.198 C 
HETATM   34  O5  UNL     1       1.069  54.460 -20.362  1.00  0.00    -0.388 OA
HETATM   35  C23 UNL     1       0.089  53.700 -19.641  1.00  0.00     0.198 C 
HETATM   36  C24 UNL     1       0.325  52.183 -19.715  1.00  0.00     0.298 C 
ENDBRANCH  30  31
ENDBRANCH  29  30
ENDBRANCH  28  29
ENDBRANCH  27  28
ENDBRANCH  12  27
TORSDOF 8
ENDMDL
MODEL 4
REMARK minimizedAffinity -8.23835659
REMARK  8 active torsions:
REMARK  status: ('A' for Active; 'I' for Inactive)
REMARK    1  A    between atoms: O1_2  and  C2_3 
REMARK    2  A    between atoms: C5_6  and  N1_7 
REMARK    3  A    between atoms: N1_7  and  C6_8 
REMARK    4  A    between atoms: C17_25  and  O4_26 
REMARK    5  A    between atoms: O4_26  and  C18_27 
REMARK    6  A    between atoms: C18_27  and  C19_28 
REMARK    7  A    between atoms: C19_28  and  C20_29 
REMARK    8  A    between atoms: C20_29  and  N4_30 
ROOT
HETATM    1  C2  UNL     1      -3.979  48.940 -24.921  1.00  0.00     0.102 A 
HETATM    2  C3  UNL     1      -2.991  49.620 -24.207  1.00  0.00     0.057 A 
HETATM    3  C4  UNL     1      -1.935  50.290 -24.877  1.00  0.00     0.038 A 
HETATM    4  C5  UNL     1      -0.896  51.005 -24.243  1.00  0.00     0.119 A 
HETATM    5  N2  UNL     1       0.098  51.582 -24.940  1.00  0.00    -0.338 N 
ATOM      6  H2  UNL     1       0.856  52.082 -24.476  1.00  0.00     0.168 HD
HETATM    7  C14 UNL     1       0.046  51.471 -26.269  1.00  0.00     0.182 A 
HETATM    8  N3  UNL     1      -0.900  50.838 -26.971  1.00  0.00    -0.351 N 
ATOM      9  H3  UNL     1      -0.877  50.806 -27.991  1.00  0.00     0.166 HD
HETATM   10  C15 UNL     1      -1.875  50.251 -26.275  1.00  0.00     0.050 A 
HETATM   11  C16 UNL     1      -2.868  49.575 -26.973  1.00  0.00     0.070 A 
HETATM   12  C17 UNL     1      -3.925  48.927 -26.324  1.00  0.00     0.104 A 
ENDROOT
BRANCH   4  13
HETATM   13  N1  UNL     1      -0.911  51.120 -22.829  1.00  0.00    -0.339 N 
HETATM   14  H5  UNL     1      -1.868  51.056 -22.485  1.00  0.00     0.167 HD
BRANCH  13  15
HETATM   15  C6  UNL     1      -0.199  52.035 -22.013  1.00  0.00     0.070 A 
HETATM   16  C7  UNL     1       0.537  53.102 -22.542  1.00  0.00     0.032 A 
HETATM   17  C8  UNL     1       1.284  53.942 -21.710  1.00  0.00     0.005 A 
HETATM   18  C9  UNL     1       1.313  53.719 -20.334  1.00  0.00     0.040 A 
HETATM   19  C10 UNL     1       0.602  52.654 -19.791  1.00  0.00     0.104 A 
HETATM   20  C11 UNL     1      -0.126  51.797 -20.626  1.00  0.00     0.128 A 
HETATM   21  O3  UNL     1       0.672  52.503 -18.429  1.00  0.00    -0.346 OA
HETATM   22  O2  UNL     1      -0.820  50.702 -20.148  1.00  0.00    -0.344 OA
HETATM   23  C12 UNL     1      -0.409  50.369 -18.817  1.00  0.00     0.202 C 
HETATM   24  C13 UNL     1      -0.342  51.614 -17.950  1.00  0.00     0.202 C 
ENDBRANCH  13  15
ENDBRANCH   4  13
BRANCH   1  25
HETATM   25  O1  UNL     1      -5.033  48.274 -24.348  1.00  0.00    -0.353 OA
HETATM   26  C1  UNL     1      -5.129  48.282 -22.931  1.00  0.00     0.210 C 
ENDBRANCH   1  25
BRANCH  12  27
HETATM   27  O4  UNL     1      -4.928  48.240 -26.956  1.00  0.00    -0.348 OA
BRANCH  27  28
HETATM   28  C18 UNL     1      -4.875  48.051 -28.369  1.00  0.00     0.177 C 
BRANCH  28  29
HETATM   29  C19 UNL     1      -6.280  47.876 -28.941  1.00  0.00     0.057 C 
BRANCH  29  30
HETATM   30  C20 UNL     1      -6.418  46.529 -29.656  1.00  0.00     0.274 C 
BRANCH  30  31
HETATM   31  N4  UNL     1      -6.507  46.661 -31.118  1.00  0.00     0.092 N 
HETATM   32  C21 UNL     1      -5.827  47.878 -31.616  1.00  0.00     0.298 C 
HETATM   33  C22 UNL     1      -5.393  47.738 -33.083  1.00  0.00     0.198 C 
HETATM   34  O5  UNL     1      -4.422  46.701 -33.276  1.00  0.00    -0.388 OA
HETATM   35  C23 UNL     1      -4.558  45.624 -32.338  1.00  0.00     0.198 C 
HETATM   36  C24 UNL     1      -5.991  45.458 -31.810  1.00  0.00     0.298 C 
ENDBRANCH  30  31
ENDBRANCH  29  30
ENDBRANCH  28  29
ENDBRANCH  27  28
ENDBRANCH  12  27
TORSDOF 8
ENDMDL
MODEL 5
REMARK minimizedAffinity -8.17500496
REMARK  8 active torsions:
REMARK  status: ('A' for Active; 'I' for Inactive)
REMARK    1  A    between atoms: O1_2  and  C2_3 
REMARK    2  A    between atoms: C5_6  and  N1_7 
REMARK    3  A    between atoms: N1_7  and  C6_8 
REMARK    4  A    between atoms: C17_25  and  O4_26 
REMARK    5  A    between atoms: O4_26  and  C18_27 
REMARK    6  A    between atoms: C18_27  and  C19_28 
REMARK    7  A    between atoms: C19_28  and  C20_29 
REMARK    8  A    between atoms: C20_29  and  N4_30 
ROOT
HETATM    1  C2  UNL     1      -0.830  49.450 -19.582  1.00  0.00     0.102 A 
HETATM    2  C3  UNL     1      -0.322  50.557 -18.899  1.00  0.00     0.057 A 
HETATM    3  C4  UNL     1       0.213  51.667 -19.601  1.00  0.00     0.038 A 
HETATM    4  C5  UNL     1       0.744  52.828 -19.000  1.00  0.00     0.119 A 
HETATM    5  N2  UNL     1       1.274  53.827 -19.728  1.00  0.00    -0.338 N 
ATOM      6  H2  UNL     1       1.673  54.656 -19.287  1.00  0.00     0.168 HD
HETATM    7  C14 UNL     1       1.253  53.683 -21.054  1.00  0.00     0.182 A 
HETATM    8  N3  UNL     1       0.757  52.639 -21.727  1.00  0.00    -0.351 N 
ATOM      9  H3  UNL     1       0.766  52.607 -22.746  1.00  0.00     0.166 HD
HETATM   10  C15 UNL     1       0.248  51.642 -21.000  1.00  0.00     0.050 A 
HETATM   11  C16 UNL     1      -0.266  50.537 -21.667  1.00  0.00     0.070 A 
HETATM   12  C17 UNL     1      -0.814  49.445 -20.985  1.00  0.00     0.104 A 
ENDROOT
BRANCH   4  13
HETATM   13  N1  UNL     1       0.708  52.942 -17.586  1.00  0.00    -0.339 N 
HETATM   14  H5  UNL     1       0.382  53.871 -17.321  1.00  0.00     0.167 HD
BRANCH  13  15
HETATM   15  C6  UNL     1       1.681  52.521 -16.644  1.00  0.00     0.070 A 
HETATM   16  C7  UNL     1       3.042  52.817 -16.782  1.00  0.00     0.032 A 
HETATM   17  C8  UNL     1       3.981  52.323 -15.870  1.00  0.00     0.005 A 
HETATM   18  C9  UNL     1       3.570  51.516 -14.811  1.00  0.00     0.040 A 
HETATM   19  C10 UNL     1       2.223  51.196 -14.666  1.00  0.00     0.104 A 
HETATM   20  C11 UNL     1       1.286  51.669 -15.594  1.00  0.00     0.128 A 
HETATM   21  O3  UNL     1       1.895  50.404 -13.595  1.00  0.00    -0.346 OA
HETATM   22  O2  UNL     1      -0.057  51.354 -15.521  1.00  0.00    -0.344 OA
HETATM   23  C12 UNL     1      -0.283  50.243 -14.646  1.00  0.00     0.202 C 
HETATM   24  C13 UNL     1       0.485  50.420 -13.348  1.00  0.00     0.202 C 
ENDBRANCH  13  15
ENDBRANCH   4  13
BRANCH   1  25
HETATM   25  O1  UNL     1      -1.368  48.343 -18.976  1.00  0.00    -0.353 OA
HETATM   26  C1  UNL     1      -1.898  48.496 -17.667  1.00  0.00     0.210 C 
ENDBRANCH   1  25
BRANCH  12  27
HETATM   27  O4  UNL     1      -1.329  48.325 -21.586  1.00  0.00    -0.348 OA
BRANCH  27  28
HETATM   28  C18 UNL     1      -2.464  48.441 -22.443  1.00  0.00     0.177 C 
BRANCH  28  29
HETATM   29  C19 UNL     1      -2.769  49.909 -22.734  1.00  0.00     0.057 C 
BRANCH  29  30
HETATM   30  C20 UNL     1      -3.607  50.053 -24.008  1.00  0.00     0.274 C 
BRANCH  30  31
HETATM   31  N4  UNL     1      -3.024  49.352 -25.161  1.00  0.00     0.092 N 
HETATM   32  C21 UNL     1      -4.044  48.640 -25.963  1.00  0.00     0.298 C 
HETATM   33  C22 UNL     1      -3.592  48.427 -27.416  1.00  0.00     0.198 C 
HETATM   34  O5  UNL     1      -3.403  49.661 -28.121  1.00  0.00    -0.388 OA
HETATM   35  C23 UNL     1      -2.993  50.739 -27.268  1.00  0.00     0.198 C 
HETATM   36  C24 UNL     1      -2.235  50.266 -26.017  1.00  0.00     0.298 C 
ENDBRANCH  30  31
ENDBRANCH  29  30
ENDBRANCH  28  29
ENDBRANCH  27  28
ENDBRANCH  12  27
TORSDOF 8
ENDMDL
MODEL 6
REMARK minimizedAffinity -8.14248085
REMARK  8 active torsions:
REMARK  status: ('A' for Active; 'I' for Inactive)
REMARK    1  A    between atoms: O1_2  and  C2_3 
REMARK    2  A    between atoms: C5_6  and  N1_7 
REMARK    3  A    between atoms: N1_7  and  C6_8 
REMARK    4  A    between atoms: C17_25  and  O4_26 
REMARK    5  A    between atoms: O4_26  and  C18_27 
REMARK    6  A    between atoms: C18_27  and  C19_28 
REMARK    7  A    between atoms: C19_28  and  C20_29 
REMARK    8  A    between atoms: C20_29  and  N4_30 
ROOT
HETATM    1  C2  UNL     1      -0.487  50.159 -18.250  1.00  0.00     0.102 A 
HETATM    2  C3  UNL     1      -0.498  50.532 -19.595  1.00  0.00     0.057 A 
HETATM    3  C4  UNL     1       0.081  51.756 -20.019  1.00  0.00     0.038 A 
HETATM    4  C5  UNL     1       0.121  52.216 -21.353  1.00  0.00     0.119 A 
HETATM    5  N2  UNL     1       0.650  53.408 -21.678  1.00  0.00    -0.338 N 
ATOM      6  H2  UNL     1       0.660  53.744 -22.641  1.00  0.00     0.168 HD
HETATM    7  C14 UNL     1       1.162  54.133 -20.681  1.00  0.00     0.182 A 
HETATM    8  N3  UNL     1       1.197  53.786 -19.391  1.00  0.00    -0.351 N 
ATOM      9  H3  UNL     1       1.618  54.391 -18.685  1.00  0.00     0.166 HD
HETATM   10  C15 UNL     1       0.654  52.609 -19.069  1.00  0.00     0.050 A 
HETATM   11  C16 UNL     1       0.664  52.222 -17.735  1.00  0.00     0.070 A 
HETATM   12  C17 UNL     1       0.113  51.009 -17.308  1.00  0.00     0.104 A 
ENDROOT
BRANCH   4  13
HETATM   13  N1  UNL     1      -0.408  51.388 -22.376  1.00  0.00    -0.339 N 
HETATM   14  H5  UNL     1       0.332  50.808 -22.770  1.00  0.00     0.167 HD
BRANCH  13  15
HETATM   15  C6  UNL     1      -1.307  51.738 -23.415  1.00  0.00     0.070 A 
HETATM   16  C7  UNL     1      -2.697  51.658 -23.267  1.00  0.00     0.032 A 
HETATM   17  C8  UNL     1      -3.551  51.943 -24.338  1.00  0.00     0.005 A 
HETATM   18  C9  UNL     1      -3.024  52.304 -25.577  1.00  0.00     0.040 A 
HETATM   19  C10 UNL     1      -1.645  52.374 -25.748  1.00  0.00     0.104 A 
HETATM   20  C11 UNL     1      -0.789  52.063 -24.684  1.00  0.00     0.128 A 
HETATM   21  O3  UNL     1      -1.202  52.744 -26.993  1.00  0.00    -0.346 OA
HETATM   22  O2  UNL     1       0.587  52.079 -24.807  1.00  0.00    -0.344 OA
HETATM   23  C12 UNL     1       0.986  52.088 -26.182  1.00  0.00     0.202 C 
HETATM   24  C13 UNL     1       0.182  53.110 -26.965  1.00  0.00     0.202 C 
ENDBRANCH  13  15
ENDBRANCH   4  13
BRANCH   1  25
HETATM   25  O1  UNL     1      -1.019  48.992 -17.762  1.00  0.00    -0.353 OA
HETATM   26  C1  UNL     1      -2.059  48.376 -18.509  1.00  0.00     0.210 C 
ENDBRANCH   1  25
BRANCH  12  27
HETATM   27  O4  UNL     1       0.086  50.576 -16.007  1.00  0.00    -0.348 OA
BRANCH  27  28
HETATM   28  C18 UNL     1      -1.050  50.857 -15.192  1.00  0.00     0.177 C 
BRANCH  28  29
HETATM   29  C19 UNL     1      -0.663  50.863 -13.714  1.00  0.00     0.057 C 
BRANCH  29  30
HETATM   30  C20 UNL     1      -0.921  52.235 -13.085  1.00  0.00     0.274 C 
BRANCH  30  31
HETATM   31  N4  UNL     1      -1.647  52.153 -11.809  1.00  0.00     0.092 N 
HETATM   32  C21 UNL     1      -1.440  53.352 -10.965  1.00  0.00     0.298 C 
HETATM   33  C22 UNL     1      -2.592  53.564  -9.970  1.00  0.00     0.198 C 
HETATM   34  O5  UNL     1      -3.844  53.816 -10.621  1.00  0.00    -0.388 OA
HETATM   35  C23 UNL     1      -3.952  53.174 -11.899  1.00  0.00     0.198 C 
HETATM   36  C24 UNL     1      -3.092  51.906 -12.014  1.00  0.00     0.298 C 
ENDBRANCH  30  31
ENDBRANCH  29  30
ENDBRANCH  28  29
ENDBRANCH  27  28
ENDBRANCH  12  27
TORSDOF 8
ENDMDL
MODEL 7
REMARK minimizedAffinity -8.09013939
REMARK  8 active torsions:
REMARK  status: ('A' for Active; 'I' for Inactive)
REMARK    1  A    between atoms: O1_2  and  C2_3 
REMARK    2  A    between atoms: C5_6  and  N1_7 
REMARK    3  A    between atoms: N1_7  and  C6_8 
REMARK    4  A    between atoms: C17_25  and  O4_26 
REMARK    5  A    between atoms: O4_26  and  C18_27 
REMARK    6  A    between atoms: C18_27  and  C19_28 
REMARK    7  A    between atoms: C19_28  and  C20_29 
REMARK    8  A    between atoms: C20_29  and  N4_30 
ROOT
HETATM    1  C2  UNL     1      -1.450  50.766 -23.079  1.00  0.00     0.102 A 
HETATM    2  C3  UNL     1      -1.969  50.209 -24.250  1.00  0.00     0.057 A 
HETATM    3  C4  UNL     1      -2.014  50.954 -25.456  1.00  0.00     0.038 A 
HETATM    4  C5  UNL     1      -2.515  50.477 -26.686  1.00  0.00     0.119 A 
HETATM    5  N2  UNL     1      -2.565  51.254 -27.783  1.00  0.00    -0.338 N 
ATOM      6  H2  UNL     1      -2.946  50.910 -28.664  1.00  0.00     0.168 HD
HETATM    7  C14 UNL     1      -2.094  52.497 -27.663  1.00  0.00     0.182 A 
HETATM    8  N3  UNL     1      -1.579  53.042 -26.557  1.00  0.00    -0.351 N 
ATOM      9  H3  UNL     1      -1.226  53.999 -26.547  1.00  0.00     0.166 HD
HETATM   10  C15 UNL     1      -1.548  52.273 -25.466  1.00  0.00     0.050 A 
HETATM   11  C16 UNL     1      -1.028  52.813 -24.295  1.00  0.00     0.070 A 
HETATM   12  C17 UNL     1      -0.961  52.081 -23.104  1.00  0.00     0.104 A 
ENDROOT
BRANCH   4  13
HETATM   13  N1  UNL     1      -2.971  49.136 -26.764  1.00  0.00    -0.339 N 
HETATM   14  H5  UNL     1      -2.562  48.677 -27.577  1.00  0.00     0.167 HD
BRANCH  13  15
HETATM   15  C6  UNL     1      -4.288  48.642 -26.582  1.00  0.00     0.070 A 
HETATM   16  C7  UNL     1      -4.836  48.407 -25.315  1.00  0.00     0.032 A 
HETATM   17  C8  UNL     1      -6.113  47.851 -25.177  1.00  0.00     0.005 A 
HETATM   18  C9  UNL     1      -6.856  47.514 -26.307  1.00  0.00     0.040 A 
HETATM   19  C10 UNL     1      -6.321  47.725 -27.575  1.00  0.00     0.104 A 
HETATM   20  C11 UNL     1      -5.033  48.257 -27.714  1.00  0.00     0.128 A 
HETATM   21  O3  UNL     1      -7.115  47.376 -28.639  1.00  0.00    -0.346 OA
HETATM   22  O2  UNL     1      -4.438  48.453 -28.945  1.00  0.00    -0.344 OA
HETATM   23  C12 UNL     1      -5.125  47.733 -29.975  1.00  0.00     0.202 C 
HETATM   24  C13 UNL     1      -6.625  47.938 -29.860  1.00  0.00     0.202 C 
ENDBRANCH  13  15
ENDBRANCH   4  13
BRANCH   1  25
HETATM   25  O1  UNL     1      -1.367  50.110 -21.877  1.00  0.00    -0.353 OA
HETATM   26  C1  UNL     1      -2.579  49.680 -21.272  1.00  0.00     0.210 C 
ENDBRANCH   1  25
BRANCH  12  27
HETATM   27  O4  UNL     1      -0.467  52.559 -21.918  1.00  0.00    -0.348 OA
BRANCH  27  28
HETATM   28  C18 UNL     1       0.891  52.986 -21.839  1.00  0.00     0.177 C 
BRANCH  28  29
HETATM   29  C19 UNL     1       1.152  53.706 -20.517  1.00  0.00     0.057 C 
BRANCH  29  30
HETATM   30  C20 UNL     1       0.169  53.244 -19.438  1.00  0.00     0.274 C 
BRANCH  30  31
HETATM   31  N4  UNL     1       0.655  52.082 -18.679  1.00  0.00     0.092 N 
HETATM   32  C21 UNL     1       1.093  52.444 -17.312  1.00  0.00     0.298 C 
HETATM   33  C22 UNL     1       1.028  51.249 -16.349  1.00  0.00     0.198 C 
HETATM   34  O5  UNL     1      -0.307  50.762 -16.162  1.00  0.00    -0.388 OA
HETATM   35  C23 UNL     1      -1.141  50.953 -17.314  1.00  0.00     0.198 C 
HETATM   36  C24 UNL     1      -0.351  50.997 -18.632  1.00  0.00     0.298 C 
ENDBRANCH  30  31
ENDBRANCH  29  30
ENDBRANCH  28  29
ENDBRANCH  27  28
ENDBRANCH  12  27
TORSDOF 8
ENDMDL
MODEL 8
REMARK minimizedAffinity -8.06529808
REMARK  8 active torsions:
REMARK  status: ('A' for Active; 'I' for Inactive)
REMARK    1  A    between atoms: O1_2  and  C2_3 
REMARK    2  A    between atoms: C5_6  and  N1_7 
REMARK    3  A    between atoms: N1_7  and  C6_8 
REMARK    4  A    between atoms: C17_25  and  O4_26 
REMARK    5  A    between atoms: O4_26  and  C18_27 
REMARK    6  A    between atoms: C18_27  and  C19_28 
REMARK    7  A    between atoms: C19_28  and  C20_29 
REMARK    8  A    between atoms: C20_29  and  N4_30 
ROOT
HETATM    1  C2  UNL     1      -0.408  50.853 -19.469  1.00  0.00     0.102 A 
HETATM    2  C3  UNL     1      -0.338  51.057 -20.849  1.00  0.00     0.057 A 
HETATM    3  C4  UNL     1       0.268  52.221 -21.387  1.00  0.00     0.038 A 
HETATM    4  C5  UNL     1       0.389  52.512 -22.763  1.00  0.00     0.119 A 
HETATM    5  N2  UNL     1       0.941  53.657 -23.201  1.00  0.00    -0.338 N 
ATOM      6  H2  UNL     1       1.009  53.870 -24.197  1.00  0.00     0.168 HD
HETATM    7  C14 UNL     1       1.394  54.503 -22.274  1.00  0.00     0.182 A 
HETATM    8  N3  UNL     1       1.351  54.318 -20.950  1.00  0.00    -0.351 N 
ATOM      9  H3  UNL     1       1.731  55.008 -20.302  1.00  0.00     0.166 HD
HETATM   10  C15 UNL     1       0.787  53.188 -20.518  1.00  0.00     0.050 A 
HETATM   11  C16 UNL     1       0.716  52.970 -19.147  1.00  0.00     0.070 A 
HETATM   12  C17 UNL     1       0.137  51.817 -18.607  1.00  0.00     0.104 A 
ENDROOT
BRANCH   4  13
HETATM   13  N1  UNL     1      -0.080  51.561 -23.705  1.00  0.00    -0.339 N 
HETATM   14  H5  UNL     1       0.089  50.617 -23.359  1.00  0.00     0.167 HD
BRANCH  13  15
HETATM   15  C6  UNL     1       0.086  51.561 -25.113  1.00  0.00     0.070 A 
HETATM   16  C7  UNL     1       1.305  51.874 -25.728  1.00  0.00     0.032 A 
HETATM   17  C8  UNL     1       1.411  51.933 -27.122  1.00  0.00     0.005 A 
HETATM   18  C9  UNL     1       0.295  51.690 -27.921  1.00  0.00     0.040 A 
HETATM   19  C10 UNL     1      -0.929  51.394 -27.328  1.00  0.00     0.104 A 
HETATM   20  C11 UNL     1      -1.043  51.360 -25.932  1.00  0.00     0.128 A 
HETATM   21  O3  UNL     1      -1.979  51.159 -28.178  1.00  0.00    -0.346 OA
HETATM   22  O2  UNL     1      -2.239  51.108 -25.288  1.00  0.00    -0.344 OA
HETATM   23  C12 UNL     1      -3.349  51.253 -26.181  1.00  0.00     0.202 C 
HETATM   24  C13 UNL     1      -3.075  50.542 -27.495  1.00  0.00     0.202 C 
ENDBRANCH  13  15
ENDBRANCH   4  13
BRANCH   1  25
HETATM   25  O1  UNL     1      -0.972  49.754 -18.874  1.00  0.00    -0.353 OA
HETATM   26  C1  UNL     1      -2.370  49.556 -19.037  1.00  0.00     0.210 C 
ENDBRANCH   1  25
BRANCH  12  27
HETATM   27  O4  UNL     1       0.031  51.549 -17.267  1.00  0.00    -0.348 OA
BRANCH  27  28
HETATM   28  C18 UNL     1       1.184  51.134 -16.535  1.00  0.00     0.177 C 
BRANCH  28  29
HETATM   29  C19 UNL     1       0.813  50.805 -15.090  1.00  0.00     0.057 C 
BRANCH  29  30
HETATM   30  C20 UNL     1       0.531  52.081 -14.292  1.00  0.00     0.274 C 
BRANCH  30  31
HETATM   31  N4  UNL     1      -0.057  51.813 -12.971  1.00  0.00     0.092 N 
HETATM   32  C21 UNL     1      -0.107  53.023 -12.120  1.00  0.00     0.298 C 
HETATM   33  C22 UNL     1      -1.200  52.929 -11.044  1.00  0.00     0.198 C 
HETATM   34  O5  UNL     1      -2.518  52.849 -11.603  1.00  0.00    -0.388 OA
HETATM   35  C23 UNL     1      -2.547  52.204 -12.883  1.00  0.00     0.198 C 
HETATM   36  C24 UNL     1      -1.400  51.201 -13.082  1.00  0.00     0.298 C 
ENDBRANCH  30  31
ENDBRANCH  29  30
ENDBRANCH  28  29
ENDBRANCH  27  28
ENDBRANCH  12  27
TORSDOF 8
ENDMDL
MODEL 9
REMARK minimizedAffinity -7.9514904
REMARK  8 active torsions:
REMARK  status: ('A' for Active; 'I' for Inactive)
REMARK    1  A    between atoms: O1_2  and  C2_3 
REMARK    2  A    between atoms: C5_6  and  N1_7 
REMARK    3  A    between atoms: N1_7  and  C6_8 
REMARK    4  A    between atoms: C17_25  and  O4_26 
REMARK    5  A    between atoms: O4_26  and  C18_27 
REMARK    6  A    between atoms: C18_27  and  C19_28 
REMARK    7  A    between atoms: C19_28  and  C20_29 
REMARK    8  A    between atoms: C20_29  and  N4_30 
ROOT
HETATM    1  C2  UNL     1      -5.026  48.004 -28.437  1.00  0.00     0.102 A 
HETATM    2  C3  UNL     1      -4.072  48.609 -27.617  1.00  0.00     0.057 A 
HETATM    3  C4  UNL     1      -4.272  48.713 -26.216  1.00  0.00     0.038 A 
HETATM    4  C5  UNL     1      -3.366  49.302 -25.308  1.00  0.00     0.119 A 
HETATM    5  N2  UNL     1      -3.639  49.403 -23.996  1.00  0.00    -0.338 N 
ATOM      6  H2  UNL     1      -2.989  49.847 -23.347  1.00  0.00     0.168 HD
HETATM    7  C14 UNL     1      -4.803  48.897 -23.581  1.00  0.00     0.182 A 
HETATM    8  N3  UNL     1      -5.721  48.301 -24.348  1.00  0.00    -0.351 N 
ATOM      9  H3  UNL     1      -6.585  47.926 -23.954  1.00  0.00     0.166 HD
HETATM   10  C15 UNL     1      -5.454  48.218 -25.653  1.00  0.00     0.050 A 
HETATM   11  C16 UNL     1      -6.392  47.613 -26.480  1.00  0.00     0.070 A 
HETATM   12  C17 UNL     1      -6.197  47.488 -27.860  1.00  0.00     0.104 A 
ENDROOT
BRANCH   4  13
HETATM   13  N1  UNL     1      -2.129  49.793 -25.800  1.00  0.00    -0.339 N 
HETATM   14  H5  UNL     1      -1.602  49.035 -26.231  1.00  0.00     0.167 HD
BRANCH  13  15
HETATM   15  C6  UNL     1      -1.216  50.673 -25.166  1.00  0.00     0.070 A 
HETATM   16  C7  UNL     1      -1.402  51.137 -23.858  1.00  0.00     0.032 A 
HETATM   17  C8  UNL     1      -0.518  52.061 -23.291  1.00  0.00     0.005 A 
HETATM   18  C9  UNL     1       0.562  52.542 -24.030  1.00  0.00     0.040 A 
HETATM   19  C10 UNL     1       0.754  52.105 -25.337  1.00  0.00     0.104 A 
HETATM   20  C11 UNL     1      -0.146  51.200 -25.915  1.00  0.00     0.128 A 
HETATM   21  O3  UNL     1       1.842  52.616 -25.999  1.00  0.00    -0.346 OA
HETATM   22  O2  UNL     1      -0.026  50.761 -27.219  1.00  0.00    -0.344 OA
HETATM   23  C12 UNL     1       0.866  51.595 -27.967  1.00  0.00     0.202 C 
HETATM   24  C13 UNL     1       2.136  51.862 -27.179  1.00  0.00     0.202 C 
ENDBRANCH  13  15
ENDBRANCH   4  13
BRANCH   1  25
HETATM   25  O1  UNL     1      -4.904  47.861 -29.796  1.00  0.00    -0.353 OA
HETATM   26  C1  UNL     1      -5.162  48.998 -30.608  1.00  0.00     0.210 C 
ENDBRANCH   1  25
BRANCH  12  27
HETATM   27  O4  UNL     1      -7.087  46.909 -28.727  1.00  0.00    -0.348 OA
BRANCH  27  28
HETATM   28  C18 UNL     1      -7.602  45.608 -28.449  1.00  0.00     0.177 C 
BRANCH  28  29
HETATM   29  C19 UNL     1      -8.927  45.388 -29.175  1.00  0.00     0.057 C 
BRANCH  29  30
HETATM   30  C20 UNL     1     -10.089  45.294 -28.182  1.00  0.00     0.274 C 
BRANCH  30  31
HETATM   31  N4  UNL     1     -11.168  46.250 -28.469  1.00  0.00     0.092 N 
HETATM   32  C21 UNL     1     -12.422  45.916 -27.755  1.00  0.00     0.298 C 
HETATM   33  C22 UNL     1     -13.319  47.147 -27.555  1.00  0.00     0.198 C 
HETATM   34  O5  UNL     1     -12.710  48.145 -26.725  1.00  0.00    -0.388 OA
HETATM   35  C23 UNL     1     -11.279  48.160 -26.825  1.00  0.00     0.198 C 
HETATM   36  C24 UNL     1     -10.760  47.642 -28.176  1.00  0.00     0.298 C 
ENDBRANCH  30  31
ENDBRANCH  29  30
ENDBRANCH  28  29
ENDBRANCH  27  28
ENDBRANCH  12  27
TORSDOF 8
ENDMDL
