MODEL 1
REMARK minimizedAffinity -9.63610363
REMARK CNNscore 0.635436118
REMARK CNNaffinity 7.65800333
REMARK  6 active torsions:
REMARK  status: ('A' for Active; 'I' for Inactive)
REMARK    1  A    between atoms: N1_2  and  S1_3 
REMARK    2  A    between atoms: S1_3  and  C2_6 
REMARK    3  A    between atoms: C9_13  and  C10_14 
REMARK    4  A    between atoms: C13_18  and  C14_19 
REMARK    5  A    between atoms: C14_19  and  C15_20 
REMARK    6  A    between atoms: C15_20  and  C16_21 
REMARK       I    between atoms: C16_21  and  N3_23 
ROOT
HETATM    1  C10 UNL     1      -7.198   6.299  13.821  1.00  0.00     0.040 A 
HETATM    2  N2  UNL     1      -8.433   6.039  13.273  1.00  0.00    -0.359 N 
HETATM    3  C11 UNL     1      -9.370   6.860  13.828  1.00  0.00     0.016 A 
HETATM    4  C12 UNL     1      -8.751   7.669  14.754  1.00  0.00    -0.027 A 
HETATM    5  C13 UNL     1      -7.370   7.318  14.765  1.00  0.00    -0.023 A 
HETATM    6  C22 UNL     1      -9.499   8.710  15.521  1.00  0.00     0.041 C 
HETATM    7  C23 UNL     1     -11.019   8.454  15.466  1.00  0.00     0.005 C 
HETATM    8  C24 UNL     1     -11.494   8.114  14.041  1.00  0.00     0.006 C 
HETATM    9  C25 UNL     1     -10.819   6.845  13.491  1.00  0.00     0.057 C 
HETATM   10  H9  UNL     1      -8.627   5.354  12.548  1.00  0.00     0.166 HD
ENDROOT
BRANCH   1  11
HETATM   11  C9  UNL     1      -6.027   5.592  13.423  1.00  0.00     0.048 C 
HETATM   12  C8  UNL     1      -5.903   4.352  12.920  1.00  0.00     0.047 A 
HETATM   13  C6  UNL     1      -4.607   3.789  12.488  1.00  0.00     0.008 A 
HETATM   14  C26 UNL     1      -6.935   3.284  12.641  1.00  0.00     0.257 A 
HETATM   15  C5  UNL     1      -4.876   2.511  11.988  1.00  0.00     0.046 A 
HETATM   16  C7  UNL     1      -3.313   4.281  12.481  1.00  0.00     0.040 A 
HETATM   17  C4  UNL     1      -3.895   1.680  11.480  1.00  0.00     0.032 A 
HETATM   18  N5  UNL     1      -6.232   2.228  12.082  1.00  0.00    -0.322 N 
HETATM   19  C3  UNL     1      -2.585   2.165  11.466  1.00  0.00     0.027 A 
HETATM   20  C2  UNL     1      -2.305   3.458  11.951  1.00  0.00     0.080 A 
HETATM   21  H33 UNL     1      -6.681   1.371  11.793  1.00  0.00     0.169 HD
HETATM   22  O4  UNL     1      -8.131   3.308  12.856  1.00  0.00    -0.267 OA
BRANCH  20  23
HETATM   23  S1  UNL     1      -0.640   4.070  11.913  1.00  0.00     0.258 S 
HETATM   24  O1  UNL     1       0.171   3.179  11.116  1.00  0.00    -0.201 OA
HETATM   25  O2  UNL     1      -0.281   4.433  13.266  1.00  0.00    -0.201 OA
BRANCH  23  26
HETATM   26  N1  UNL     1      -0.822   5.512  11.072  1.00  0.00    -0.320 N 
HETATM   27  C1  UNL     1       0.373   6.279  10.741  1.00  0.00     0.159 C 
HETATM   28  H4  UNL     1      -1.655   6.023  11.364  1.00  0.00     0.171 HD
ENDBRANCH  23  26
ENDBRANCH  20  23
ENDBRANCH   1  11
BRANCH   5  29
HETATM   29  C14 UNL     1      -6.303   7.942  15.625  1.00  0.00     0.051 C 
BRANCH  29  30
HETATM   30  C15 UNL     1      -5.319   8.793  14.820  1.00  0.00     0.107 C 
BRANCH  30  31
HETATM   31  C16 UNL     1      -4.276   9.483  15.685  1.00  0.00     0.220 C 
HETATM   32  O3  UNL     1      -4.531  10.518  16.302  1.00  0.00    -0.273 OA
HETATM   33  N3  UNL     1      -3.030   8.867  15.771  1.00  0.00    -0.349 N 
HETATM   34  C17 UNL     1      -2.029   9.479  16.650  1.00  0.00     0.156 C 
HETATM   35  C21 UNL     1      -2.792   7.449  15.486  1.00  0.00     0.156 C 
HETATM   36  C18 UNL     1      -0.590   9.165  16.202  1.00  0.00     0.291 C 
HETATM   37  N4  UNL     1      -0.362   7.714  16.029  1.00  0.00     0.087 N 
HETATM   38  C19 UNL     1       1.007   7.464  15.577  1.00  0.00     0.310 C 
HETATM   39  C20 UNL     1      -1.336   7.178  15.059  1.00  0.00     0.291 C 
ENDBRANCH  30  31
ENDBRANCH  29  30
ENDBRANCH   5  29
TORSDOF 6
ENDMDL
MODEL 2
REMARK minimizedAffinity -9.94885635
REMARK CNNscore 0.467581779
REMARK CNNaffinity 7.51088572
REMARK  6 active torsions:
REMARK  status: ('A' for Active; 'I' for Inactive)
REMARK    1  A    between atoms: N1_2  and  S1_3 
REMARK    2  A    between atoms: S1_3  and  C2_6 
REMARK    3  A    between atoms: C9_13  and  C10_14 
REMARK    4  A    between atoms: C13_18  and  C14_19 
REMARK    5  A    between atoms: C14_19  and  C15_20 
REMARK    6  A    between atoms: C15_20  and  C16_21 
REMARK       I    between atoms: C16_21  and  N3_23 
ROOT
HETATM    1  C10 UNL     1      -0.881   5.536  12.170  1.00  0.00     0.040 A 
HETATM    2  N2  UNL     1       0.003   5.317  11.138  1.00  0.00    -0.359 N 
HETATM    3  C11 UNL     1       1.186   5.943  11.398  1.00  0.00     0.016 A 
HETATM    4  C12 UNL     1       1.085   6.586  12.611  1.00  0.00    -0.027 A 
HETATM    5  C13 UNL     1      -0.228   6.341  13.110  1.00  0.00    -0.023 A 
HETATM    6  C22 UNL     1       2.228   7.344  13.203  1.00  0.00     0.041 C 
HETATM    7  C23 UNL     1       3.294   7.663  12.135  1.00  0.00     0.005 C 
HETATM    8  C24 UNL     1       3.607   6.440  11.252  1.00  0.00     0.006 C 
HETATM    9  C25 UNL     1       2.366   5.941  10.491  1.00  0.00     0.057 C 
HETATM   10  H9  UNL     1      -0.181   4.757  10.310  1.00  0.00     0.166 HD
ENDROOT
BRANCH   1  11
HETATM   11  C9  UNL     1      -2.198   4.993  12.169  1.00  0.00     0.048 C 
HETATM   12  C8  UNL     1      -2.621   3.768  11.814  1.00  0.00     0.047 A 
HETATM   13  C6  UNL     1      -4.029   3.339  11.942  1.00  0.00     0.008 A 
HETATM   14  C26 UNL     1      -1.870   2.576  11.269  1.00  0.00     0.257 A 
HETATM   15  C5  UNL     1      -4.078   2.006  11.520  1.00  0.00     0.046 A 
HETATM   16  C7  UNL     1      -5.178   3.970  12.385  1.00  0.00     0.040 A 
HETATM   17  C4  UNL     1      -5.242   1.262  11.510  1.00  0.00     0.032 A 
HETATM   18  N5  UNL     1      -2.817   1.573  11.131  1.00  0.00    -0.322 N 
HETATM   19  C3  UNL     1      -6.409   1.888  11.955  1.00  0.00     0.027 A 
HETATM   20  C2  UNL     1      -6.368   3.225  12.399  1.00  0.00     0.080 A 
HETATM   21  H33 UNL     1      -2.585   0.654  10.783  1.00  0.00     0.169 HD
HETATM   22  O4  UNL     1      -0.690   2.483  10.990  1.00  0.00    -0.267 OA
BRANCH  20  23
HETATM   23  S1  UNL     1      -7.854   4.004  12.979  1.00  0.00     0.258 S 
HETATM   24  O1  UNL     1      -8.981   3.154  12.675  1.00  0.00    -0.201 OA
HETATM   25  O2  UNL     1      -7.802   5.390  12.572  1.00  0.00    -0.201 OA
BRANCH  23  26
HETATM   26  N1  UNL     1      -7.620   3.994  14.643  1.00  0.00    -0.320 N 
HETATM   27  C1  UNL     1      -7.451   5.270  15.327  1.00  0.00     0.159 C 
HETATM   28  H4  UNL     1      -7.045   3.207  14.945  1.00  0.00     0.171 HD
ENDBRANCH  23  26
ENDBRANCH  20  23
ENDBRANCH   1  11
BRANCH   5  29
HETATM   29  C14 UNL     1      -0.790   6.846  14.411  1.00  0.00     0.051 C 
BRANCH  29  30
HETATM   30  C15 UNL     1      -2.117   6.181  14.779  1.00  0.00     0.107 C 
BRANCH  30  31
HETATM   31  C16 UNL     1      -3.297   7.141  14.756  1.00  0.00     0.220 C 
HETATM   32  O3  UNL     1      -4.296   6.921  14.071  1.00  0.00    -0.273 OA
HETATM   33  N3  UNL     1      -3.204   8.264  15.575  1.00  0.00    -0.349 N 
HETATM   34  C17 UNL     1      -4.355   9.171  15.619  1.00  0.00     0.156 C 
HETATM   35  C21 UNL     1      -2.318   8.362  16.739  1.00  0.00     0.156 C 
HETATM   36  C18 UNL     1      -3.948  10.612  15.975  1.00  0.00     0.291 C 
HETATM   37  N4  UNL     1      -3.145  10.677  17.216  1.00  0.00     0.087 N 
HETATM   38  C19 UNL     1      -2.758  12.059  17.500  1.00  0.00     0.310 C 
HETATM   39  C20 UNL     1      -1.951   9.822  17.070  1.00  0.00     0.291 C 
ENDBRANCH  30  31
ENDBRANCH  29  30
ENDBRANCH   5  29
TORSDOF 6
ENDMDL
MODEL 3
REMARK minimizedAffinity -9.49701309
REMARK CNNscore 0.412532032
REMARK CNNaffinity 7.47066641
REMARK  6 active torsions:
REMARK  status: ('A' for Active; 'I' for Inactive)
REMARK    1  A    between atoms: N1_2  and  S1_3 
REMARK    2  A    between atoms: S1_3  and  C2_6 
REMARK    3  A    between atoms: C9_13  and  C10_14 
REMARK    4  A    between atoms: C13_18  and  C14_19 
REMARK    5  A    between atoms: C14_19  and  C15_20 
REMARK    6  A    between atoms: C15_20  and  C16_21 
REMARK       I    between atoms: C16_21  and  N3_23 
ROOT
HETATM    1  C10 UNL     1      -0.769   5.515  11.981  1.00  0.00     0.040 A 
HETATM    2  N2  UNL     1      -0.070   5.596  10.798  1.00  0.00    -0.359 N 
HETATM    3  C11 UNL     1       1.149   6.165  11.017  1.00  0.00     0.016 A 
HETATM    4  C12 UNL     1       1.259   6.467  12.356  1.00  0.00    -0.027 A 
HETATM    5  C13 UNL     1       0.042   6.065  12.980  1.00  0.00    -0.023 A 
HETATM    6  C22 UNL     1       2.496   7.076  12.931  1.00  0.00     0.041 C 
HETATM    7  C23 UNL     1       3.378   7.690  11.825  1.00  0.00     0.005 C 
HETATM    8  C24 UNL     1       3.522   6.749  10.615  1.00  0.00     0.006 C 
HETATM    9  C25 UNL     1       2.165   6.430   9.962  1.00  0.00     0.057 C 
HETATM   10  H9  UNL     1      -0.396   5.266   9.895  1.00  0.00     0.166 HD
ENDROOT
BRANCH   1  11
HETATM   11  C9  UNL     1      -2.077   4.955  12.053  1.00  0.00     0.048 C 
HETATM   12  C8  UNL     1      -2.507   3.730  11.706  1.00  0.00     0.047 A 
HETATM   13  C6  UNL     1      -3.899   3.281  11.913  1.00  0.00     0.008 A 
HETATM   14  C26 UNL     1      -1.776   2.555  11.098  1.00  0.00     0.257 A 
HETATM   15  C5  UNL     1      -3.957   1.954  11.474  1.00  0.00     0.046 A 
HETATM   16  C7  UNL     1      -5.026   3.891  12.435  1.00  0.00     0.040 A 
HETATM   17  C4  UNL     1      -5.111   1.195  11.525  1.00  0.00     0.032 A 
HETATM   18  N5  UNL     1      -2.718   1.543  11.002  1.00  0.00    -0.322 N 
HETATM   19  C3  UNL     1      -6.256   1.800  12.050  1.00  0.00     0.027 A 
HETATM   20  C2  UNL     1      -6.204   3.130  12.511  1.00  0.00     0.080 A 
HETATM   21  H33 UNL     1      -2.497   0.632  10.628  1.00  0.00     0.169 HD
HETATM   22  O4  UNL     1      -0.614   2.482  10.746  1.00  0.00    -0.267 OA
BRANCH  20  23
HETATM   23  S1  UNL     1      -7.660   3.882  13.192  1.00  0.00     0.258 S 
HETATM   24  O1  UNL     1      -7.454   4.115  14.602  1.00  0.00    -0.201 OA
HETATM   25  O2  UNL     1      -8.800   3.148  12.692  1.00  0.00    -0.201 OA
BRANCH  23  26
HETATM   26  N1  UNL     1      -7.678   5.368  12.409  1.00  0.00    -0.320 N 
HETATM   27  C1  UNL     1      -8.951   5.875  11.911  1.00  0.00     0.159 C 
HETATM   28  H4  UNL     1      -6.847   5.509  11.834  1.00  0.00     0.171 HD
ENDBRANCH  23  26
ENDBRANCH  20  23
ENDBRANCH   1  11
BRANCH   5  29
HETATM   29  C14 UNL     1      -0.291   6.199  14.442  1.00  0.00     0.051 C 
BRANCH  29  30
HETATM   30  C15 UNL     1      -0.712   7.620  14.823  1.00  0.00     0.107 C 
BRANCH  30  31
HETATM   31  C16 UNL     1      -1.775   8.198  13.901  1.00  0.00     0.220 C 
HETATM   32  O3  UNL     1      -1.479   8.905  12.938  1.00  0.00    -0.273 OA
HETATM   33  N3  UNL     1      -3.096   7.858  14.182  1.00  0.00    -0.349 N 
HETATM   34  C17 UNL     1      -4.133   8.351  13.270  1.00  0.00     0.156 C 
HETATM   35  C21 UNL     1      -3.495   6.687  14.968  1.00  0.00     0.156 C 
HETATM   36  C18 UNL     1      -5.498   8.501  13.965  1.00  0.00     0.291 C 
HETATM   37  N4  UNL     1      -5.913   7.261  14.658  1.00  0.00     0.087 N 
HETATM   38  C19 UNL     1      -7.199   7.458  15.327  1.00  0.00     0.310 C 
HETATM   39  C20 UNL     1      -4.873   6.874  15.632  1.00  0.00     0.291 C 
ENDBRANCH  30  31
ENDBRANCH  29  30
ENDBRANCH   5  29
TORSDOF 6
ENDMDL
MODEL 4
REMARK minimizedAffinity -7.87846279
REMARK CNNscore 0.171076342
REMARK CNNaffinity 6.70224237
REMARK  6 active torsions:
REMARK  status: ('A' for Active; 'I' for Inactive)
REMARK    1  A    between atoms: N1_2  and  S1_3 
REMARK    2  A    between atoms: S1_3  and  C2_6 
REMARK    3  A    between atoms: C9_13  and  C10_14 
REMARK    4  A    between atoms: C13_18  and  C14_19 
REMARK    5  A    between atoms: C14_19  and  C15_20 
REMARK    6  A    between atoms: C15_20  and  C16_21 
REMARK       I    between atoms: C16_21  and  N3_23 
ROOT
HETATM    1  C10 UNL     1      -9.191   7.310  14.594  1.00  0.00     0.040 A 
HETATM    2  N2  UNL     1     -10.145   6.368  14.281  1.00  0.00    -0.359 N 
HETATM    3  C11 UNL     1     -11.391   6.884  14.482  1.00  0.00     0.016 A 
HETATM    4  C12 UNL     1     -11.263   8.177  14.935  1.00  0.00    -0.027 A 
HETATM    5  C13 UNL     1      -9.868   8.459  15.018  1.00  0.00    -0.023 A 
HETATM    6  C22 UNL     1     -12.451   9.037  15.223  1.00  0.00     0.041 C 
HETATM    7  C23 UNL     1     -13.728   8.185  15.368  1.00  0.00     0.005 C 
HETATM    8  C24 UNL     1     -13.844   7.127  14.255  1.00  0.00     0.006 C 
HETATM    9  C25 UNL     1     -12.662   6.141  14.266  1.00  0.00     0.057 C 
HETATM   10  H9  UNL     1      -9.959   5.432  13.931  1.00  0.00     0.166 HD
ENDROOT
BRANCH   1  11
HETATM   11  C9  UNL     1      -7.796   7.047  14.473  1.00  0.00     0.048 C 
HETATM   12  C8  UNL     1      -7.163   6.060  13.816  1.00  0.00     0.047 A 
HETATM   13  C6  UNL     1      -5.691   5.972  13.730  1.00  0.00     0.008 A 
HETATM   14  C26 UNL     1      -7.697   4.889  13.025  1.00  0.00     0.257 A 
HETATM   15  C5  UNL     1      -5.405   4.851  12.942  1.00  0.00     0.046 A 
HETATM   16  C7  UNL     1      -4.661   6.748  14.233  1.00  0.00     0.040 A 
HETATM   17  C4  UNL     1      -4.117   4.457  12.634  1.00  0.00     0.032 A 
HETATM   18  N5  UNL     1      -6.579   4.230  12.538  1.00  0.00    -0.322 N 
HETATM   19  C3  UNL     1      -3.069   5.233  13.135  1.00  0.00     0.027 A 
HETATM   20  C2  UNL     1      -3.345   6.374  13.915  1.00  0.00     0.080 A 
HETATM   21  H33 UNL     1      -6.646   3.401  11.966  1.00  0.00     0.169 HD
HETATM   22  O4  UNL     1      -8.853   4.559  12.842  1.00  0.00    -0.267 OA
BRANCH  20  23
HETATM   23  S1  UNL     1      -2.007   7.362  14.532  1.00  0.00     0.258 S 
HETATM   24  O1  UNL     1      -0.766   6.872  13.979  1.00  0.00    -0.201 OA
HETATM   25  O2  UNL     1      -2.206   7.520  15.955  1.00  0.00    -0.201 OA
BRANCH  23  26
HETATM   26  N1  UNL     1      -2.337   8.858  13.843  1.00  0.00    -0.320 N 
HETATM   27  C1  UNL     1      -1.299   9.880  13.872  1.00  0.00     0.159 C 
HETATM   28  H4  UNL     1      -3.302   9.148  14.002  1.00  0.00     0.171 HD
ENDBRANCH  23  26
ENDBRANCH  20  23
ENDBRANCH   1  11
BRANCH   5  29
HETATM   29  C14 UNL     1      -9.251   9.756  15.466  1.00  0.00     0.051 C 
BRANCH  29  30
HETATM   30  C15 UNL     1      -9.953  10.979  14.873  1.00  0.00     0.107 C 
BRANCH  30  31
HETATM   31  C16 UNL     1     -10.199  12.082  15.891  1.00  0.00     0.220 C 
HETATM   32  O3  UNL     1     -10.382  11.832  17.083  1.00  0.00    -0.273 OA
HETATM   33  N3  UNL     1     -10.173  13.390  15.413  1.00  0.00    -0.349 N 
HETATM   34  C17 UNL     1     -10.344  14.473  16.386  1.00  0.00     0.156 C 
HETATM   35  C21 UNL     1      -9.512  13.799  14.170  1.00  0.00     0.156 C 
HETATM   36  C18 UNL     1     -10.940  15.741  15.750  1.00  0.00     0.291 C 
HETATM   37  N4  UNL     1     -10.179  16.181  14.560  1.00  0.00     0.087 N 
HETATM   38  C19 UNL     1     -10.797  17.370  13.972  1.00  0.00     0.310 C 
HETATM   39  C20 UNL     1     -10.129  15.081  13.578  1.00  0.00     0.291 C 
ENDBRANCH  30  31
ENDBRANCH  29  30
ENDBRANCH   5  29
TORSDOF 6
ENDMDL
MODEL 5
REMARK minimizedAffinity -9.56094074
REMARK CNNscore 0.159286618
REMARK CNNaffinity 7.18342733
REMARK  6 active torsions:
REMARK  status: ('A' for Active; 'I' for Inactive)
REMARK    1  A    between atoms: N1_2  and  S1_3 
REMARK    2  A    between atoms: S1_3  and  C2_6 
REMARK    3  A    between atoms: C9_13  and  C10_14 
REMARK    4  A    between atoms: C13_18  and  C14_19 
REMARK    5  A    between atoms: C14_19  and  C15_20 
REMARK    6  A    between atoms: C15_20  and  C16_21 
REMARK       I    between atoms: C16_21  and  N3_23 
ROOT
HETATM    1  C10 UNL     1      -0.590   5.919  12.079  1.00  0.00     0.040 A 
HETATM    2  N2  UNL     1       0.034   5.573  10.902  1.00  0.00    -0.359 N 
HETATM    3  C11 UNL     1       1.341   5.960  10.937  1.00  0.00     0.016 A 
HETATM    4  C12 UNL     1       1.586   6.569  12.147  1.00  0.00    -0.027 A 
HETATM    5  C13 UNL     1       0.364   6.557  12.880  1.00  0.00    -0.023 A 
HETATM    6  C22 UNL     1       2.940   7.082  12.515  1.00  0.00     0.041 C 
HETATM    7  C23 UNL     1       3.834   7.232  11.267  1.00  0.00     0.005 C 
HETATM    8  C24 UNL     1       3.744   6.002  10.344  1.00  0.00     0.006 C 
HETATM    9  C25 UNL     1       2.314   5.767   9.827  1.00  0.00     0.057 C 
HETATM   10  H9  UNL     1      -0.400   5.085  10.124  1.00  0.00     0.166 HD
ENDROOT
BRANCH   1  11
HETATM   11  C9  UNL     1      -1.964   5.631  12.323  1.00  0.00     0.048 C 
HETATM   12  C8  UNL     1      -2.702   4.577  11.934  1.00  0.00     0.047 A 
HETATM   13  C6  UNL     1      -4.111   4.395  12.338  1.00  0.00     0.008 A 
HETATM   14  C26 UNL     1      -2.351   3.375  11.090  1.00  0.00     0.257 A 
HETATM   15  C5  UNL     1      -4.529   3.181  11.783  1.00  0.00     0.046 A 
HETATM   16  C7  UNL     1      -4.983   5.143  13.111  1.00  0.00     0.040 A 
HETATM   17  C4  UNL     1      -5.802   2.672  11.959  1.00  0.00     0.032 A 
HETATM   18  N5  UNL     1      -3.498   2.596  11.060  1.00  0.00    -0.322 N 
HETATM   19  C3  UNL     1      -6.691   3.417  12.737  1.00  0.00     0.027 A 
HETATM   20  C2  UNL     1      -6.275   4.633  13.315  1.00  0.00     0.080 A 
HETATM   21  H33 UNL     1      -3.544   1.720  10.561  1.00  0.00     0.169 HD
HETATM   22  O4  UNL     1      -1.302   3.117  10.532  1.00  0.00    -0.267 OA
BRANCH  20  23
HETATM   23  S1  UNL     1      -7.408   5.563  14.317  1.00  0.00     0.258 S 
HETATM   24  O1  UNL     1      -7.038   6.958  14.274  1.00  0.00    -0.201 OA
HETATM   25  O2  UNL     1      -7.571   4.847  15.562  1.00  0.00    -0.201 OA
BRANCH  23  26
HETATM   26  N1  UNL     1      -8.848   5.373  13.473  1.00  0.00    -0.320 N 
HETATM   27  C1  UNL     1      -9.794   6.482  13.457  1.00  0.00     0.159 C 
HETATM   28  H4  UNL     1      -9.219   4.426  13.556  1.00  0.00     0.171 HD
ENDBRANCH  23  26
ENDBRANCH  20  23
ENDBRANCH   1  11
BRANCH   5  29
HETATM   29  C14 UNL     1       0.154   7.116  14.262  1.00  0.00     0.051 C 
BRANCH  29  30
HETATM   30  C15 UNL     1       0.041   8.641  14.271  1.00  0.00     0.107 C 
BRANCH  30  31
HETATM   31  C16 UNL     1      -1.392   9.137  14.159  1.00  0.00     0.220 C 
HETATM   32  O3  UNL     1      -2.000   9.120  13.088  1.00  0.00    -0.273 OA
HETATM   33  N3  UNL     1      -1.994   9.579  15.335  1.00  0.00    -0.349 N 
HETATM   34  C17 UNL     1      -3.396  10.001  15.264  1.00  0.00     0.156 C 
HETATM   35  C21 UNL     1      -1.549   9.200  16.679  1.00  0.00     0.156 C 
HETATM   36  C18 UNL     1      -3.751  11.029  16.352  1.00  0.00     0.291 C 
HETATM   37  N4  UNL     1      -3.381  10.563  17.706  1.00  0.00     0.087 N 
HETATM   38  C19 UNL     1      -3.710  11.581  18.703  1.00  0.00     0.310 C 
HETATM   39  C20 UNL     1      -1.939  10.249  17.738  1.00  0.00     0.291 C 
ENDBRANCH  30  31
ENDBRANCH  29  30
ENDBRANCH   5  29
TORSDOF 6
ENDMDL
MODEL 6
REMARK minimizedAffinity -8.62605286
REMARK CNNscore 0.155421749
REMARK CNNaffinity 6.97569799
REMARK  6 active torsions:
REMARK  status: ('A' for Active; 'I' for Inactive)
REMARK    1  A    between atoms: N1_2  and  S1_3 
REMARK    2  A    between atoms: S1_3  and  C2_6 
REMARK    3  A    between atoms: C9_13  and  C10_14 
REMARK    4  A    between atoms: C13_18  and  C14_19 
REMARK    5  A    between atoms: C14_19  and  C15_20 
REMARK    6  A    between atoms: C15_20  and  C16_21 
REMARK       I    between atoms: C16_21  and  N3_23 
ROOT
HETATM    1  C10 UNL     1      -1.300   6.897  13.212  1.00  0.00     0.040 A 
HETATM    2  N2  UNL     1      -0.036   6.356  13.263  1.00  0.00    -0.359 N 
HETATM    3  C11 UNL     1       0.880   7.337  13.502  1.00  0.00     0.016 A 
HETATM    4  C12 UNL     1       0.218   8.539  13.608  1.00  0.00    -0.027 A 
HETATM    5  C13 UNL     1      -1.169   8.274  13.419  1.00  0.00    -0.023 A 
HETATM    6  C22 UNL     1       0.938   9.815  13.902  1.00  0.00     0.041 C 
HETATM    7  C23 UNL     1       2.449   9.674  13.633  1.00  0.00     0.005 C 
HETATM    8  C24 UNL     1       3.018   8.365  14.212  1.00  0.00     0.006 C 
HETATM    9  C25 UNL     1       2.349   7.121  13.600  1.00  0.00     0.057 C 
HETATM   10  H9  UNL     1       0.191   5.370  13.159  1.00  0.00     0.166 HD
ENDROOT
BRANCH   1  11
HETATM   11  C9  UNL     1      -2.459   6.100  12.981  1.00  0.00     0.048 C 
HETATM   12  C8  UNL     1      -2.613   5.017  12.200  1.00  0.00     0.047 A 
HETATM   13  C6  UNL     1      -3.878   4.257  12.128  1.00  0.00     0.008 A 
HETATM   14  C26 UNL     1      -1.645   4.303  11.286  1.00  0.00     0.257 A 
HETATM   15  C5  UNL     1      -3.649   3.187  11.256  1.00  0.00     0.046 A 
HETATM   16  C7  UNL     1      -5.113   4.406  12.735  1.00  0.00     0.040 A 
HETATM   17  C4  UNL     1      -4.613   2.246  10.949  1.00  0.00     0.032 A 
HETATM   18  N5  UNL     1      -2.347   3.224  10.773  1.00  0.00    -0.322 N 
HETATM   19  C3  UNL     1      -5.864   2.386  11.556  1.00  0.00     0.027 A 
HETATM   20  C2  UNL     1      -6.101   3.450  12.449  1.00  0.00     0.080 A 
HETATM   21  H33 UNL     1      -1.934   2.568  10.127  1.00  0.00     0.169 HD
HETATM   22  O4  UNL     1      -0.493   4.592  11.025  1.00  0.00    -0.267 OA
BRANCH  20  23
HETATM   23  S1  UNL     1      -7.688   3.607  13.228  1.00  0.00     0.258 S 
HETATM   24  O1  UNL     1      -7.499   3.807  14.646  1.00  0.00    -0.201 OA
HETATM   25  O2  UNL     1      -8.532   2.557  12.704  1.00  0.00    -0.201 OA
BRANCH  23  26
HETATM   26  N1  UNL     1      -8.256   5.042  12.564  1.00  0.00    -0.320 N 
HETATM   27  C1  UNL     1      -8.763   6.070  13.465  1.00  0.00     0.159 C 
HETATM   28  H4  UNL     1      -8.748   4.889  11.684  1.00  0.00     0.171 HD
ENDBRANCH  23  26
ENDBRANCH  20  23
ENDBRANCH   1  11
BRANCH   5  29
HETATM   29  C14 UNL     1      -2.278   9.292  13.450  1.00  0.00     0.051 C 
BRANCH  29  30
HETATM   30  C15 UNL     1      -3.361   8.953  14.476  1.00  0.00     0.107 C 
BRANCH  30  31
HETATM   31  C16 UNL     1      -2.888   9.089  15.915  1.00  0.00     0.220 C 
HETATM   32  O3  UNL     1      -2.217   8.212  16.460  1.00  0.00    -0.273 OA
HETATM   33  N3  UNL     1      -3.223  10.270  16.574  1.00  0.00    -0.349 N 
HETATM   34  C17 UNL     1      -2.723  10.451  17.940  1.00  0.00     0.156 C 
HETATM   35  C21 UNL     1      -3.577  11.519  15.893  1.00  0.00     0.156 C 
HETATM   36  C18 UNL     1      -3.624  11.381  18.771  1.00  0.00     0.291 C 
HETATM   37  N4  UNL     1      -3.871  12.674  18.096  1.00  0.00     0.087 N 
HETATM   38  C19 UNL     1      -4.753  13.513  18.907  1.00  0.00     0.310 C 
HETATM   39  C20 UNL     1      -4.465  12.426  16.768  1.00  0.00     0.291 C 
ENDBRANCH  30  31
ENDBRANCH  29  30
ENDBRANCH   5  29
TORSDOF 6
ENDMDL
MODEL 7
REMARK minimizedAffinity -8.3426733
REMARK CNNscore 0.100655064
REMARK CNNaffinity 6.46320724
REMARK  6 active torsions:
REMARK  status: ('A' for Active; 'I' for Inactive)
REMARK    1  A    between atoms: N1_2  and  S1_3 
REMARK    2  A    between atoms: S1_3  and  C2_6 
REMARK    3  A    between atoms: C9_13  and  C10_14 
REMARK    4  A    between atoms: C13_18  and  C14_19 
REMARK    5  A    between atoms: C14_19  and  C15_20 
REMARK    6  A    between atoms: C15_20  and  C16_21 
REMARK       I    between atoms: C16_21  and  N3_23 
ROOT
HETATM    1  C10 UNL     1      -7.127   5.476  13.625  1.00  0.00     0.040 A 
HETATM    2  N2  UNL     1      -7.103   4.712  12.482  1.00  0.00    -0.359 N 
HETATM    3  C11 UNL     1      -5.856   4.195  12.295  1.00  0.00     0.016 A 
HETATM    4  C12 UNL     1      -5.045   4.622  13.322  1.00  0.00    -0.027 A 
HETATM    5  C13 UNL     1      -5.840   5.444  14.172  1.00  0.00    -0.023 A 
HETATM    6  C22 UNL     1      -3.615   4.202  13.428  1.00  0.00     0.041 C 
HETATM    7  C23 UNL     1      -3.099   3.645  12.085  1.00  0.00     0.005 C 
HETATM    8  C24 UNL     1      -4.102   2.667  11.445  1.00  0.00     0.006 C 
HETATM    9  C25 UNL     1      -5.456   3.336  11.147  1.00  0.00     0.057 C 
HETATM   10  H9  UNL     1      -7.896   4.536  11.871  1.00  0.00     0.166 HD
ENDROOT
BRANCH   1  11
HETATM   11  C9  UNL     1      -8.308   6.137  14.073  1.00  0.00     0.048 C 
HETATM   12  C8  UNL     1      -8.475   7.400  14.500  1.00  0.00     0.047 A 
HETATM   13  C6  UNL     1      -9.795   7.954  14.864  1.00  0.00     0.008 A 
HETATM   14  C26 UNL     1      -7.485   8.526  14.686  1.00  0.00     0.257 A 
HETATM   15  C5  UNL     1      -9.582   9.291  15.216  1.00  0.00     0.046 A 
HETATM   16  C7  UNL     1     -11.074   7.424  14.891  1.00  0.00     0.040 A 
HETATM   17  C4  UNL     1     -10.601  10.138  15.608  1.00  0.00     0.032 A 
HETATM   18  N5  UNL     1      -8.235   9.613  15.108  1.00  0.00    -0.322 N 
HETATM   19  C3  UNL     1     -11.896   9.615  15.638  1.00  0.00     0.027 A 
HETATM   20  C2  UNL     1     -12.125   8.274  15.270  1.00  0.00     0.080 A 
HETATM   21  H33 UNL     1      -7.821  10.511  15.308  1.00  0.00     0.169 HD
HETATM   22  O4  UNL     1      -6.280   8.514  14.520  1.00  0.00    -0.267 OA
BRANCH  20  23
HETATM   23  S1  UNL     1     -13.777   7.626  15.295  1.00  0.00     0.258 S 
HETATM   24  O1  UNL     1     -13.753   6.258  14.833  1.00  0.00    -0.201 OA
HETATM   25  O2  UNL     1     -14.642   8.622  14.705  1.00  0.00    -0.201 OA
BRANCH  23  26
HETATM   26  N1  UNL     1     -14.119   7.621  16.940  1.00  0.00    -0.320 N 
HETATM   27  C1  UNL     1     -14.970   8.676  17.475  1.00  0.00     0.159 C 
HETATM   28  H4  UNL     1     -13.319   7.320  17.497  1.00  0.00     0.171 HD
ENDBRANCH  23  26
ENDBRANCH  20  23
ENDBRANCH   1  11
BRANCH   5  29
HETATM   29  C14 UNL     1      -5.374   6.132  15.427  1.00  0.00     0.051 C 
BRANCH  29  30
HETATM   30  C15 UNL     1      -3.872   5.970  15.666  1.00  0.00     0.107 C 
BRANCH  30  31
HETATM   31  C16 UNL     1      -3.087   7.255  15.451  1.00  0.00     0.220 C 
HETATM   32  O3  UNL     1      -3.532   8.349  15.801  1.00  0.00    -0.273 OA
HETATM   33  N3  UNL     1      -1.828   7.128  14.870  1.00  0.00    -0.349 N 
HETATM   34  C17 UNL     1      -1.027   8.345  14.711  1.00  0.00     0.156 C 
HETATM   35  C21 UNL     1      -1.044   5.889  14.867  1.00  0.00     0.156 C 
HETATM   36  C18 UNL     1      -0.030   8.240  13.543  1.00  0.00     0.291 C 
HETATM   37  N4  UNL     1       0.815   7.029  13.636  1.00  0.00     0.087 N 
HETATM   38  C19 UNL     1       1.725   6.955  12.494  1.00  0.00     0.310 C 
HETATM   39  C20 UNL     1      -0.049   5.834  13.692  1.00  0.00     0.291 C 
ENDBRANCH  30  31
ENDBRANCH  29  30
ENDBRANCH   5  29
TORSDOF 6
ENDMDL
MODEL 8
REMARK minimizedAffinity -7.7300663
REMARK CNNscore 0.096352689
REMARK CNNaffinity 5.73860025
REMARK  6 active torsions:
REMARK  status: ('A' for Active; 'I' for Inactive)
REMARK    1  A    between atoms: N1_2  and  S1_3 
REMARK    2  A    between atoms: S1_3  and  C2_6 
REMARK    3  A    between atoms: C9_13  and  C10_14 
REMARK    4  A    between atoms: C13_18  and  C14_19 
REMARK    5  A    between atoms: C14_19  and  C15_20 
REMARK    6  A    between atoms: C15_20  and  C16_21 
REMARK       I    between atoms: C16_21  and  N3_23 
ROOT
HETATM    1  C10 UNL     1     -10.074   6.836  14.407  1.00  0.00     0.040 A 
HETATM    2  N2  UNL     1      -9.155   6.076  13.721  1.00  0.00    -0.359 N 
HETATM    3  C11 UNL     1      -7.899   6.567  13.927  1.00  0.00     0.016 A 
HETATM    4  C12 UNL     1      -7.987   7.663  14.755  1.00  0.00    -0.027 A 
HETATM    5  C13 UNL     1      -9.367   7.850  15.062  1.00  0.00    -0.023 A 
HETATM    6  C22 UNL     1      -6.777   8.416  15.202  1.00  0.00     0.041 C 
HETATM    7  C23 UNL     1      -5.563   8.096  14.307  1.00  0.00     0.005 C 
HETATM    8  C24 UNL     1      -5.426   6.585  14.041  1.00  0.00     0.006 C 
HETATM    9  C25 UNL     1      -6.659   6.008  13.323  1.00  0.00     0.057 C 
HETATM   10  H9  UNL     1      -9.366   5.257  13.157  1.00  0.00     0.166 HD
ENDROOT
BRANCH   1  11
HETATM   11  C9  UNL     1     -11.470   6.548  14.378  1.00  0.00     0.048 C 
HETATM   12  C8  UNL     1     -12.461   7.172  13.719  1.00  0.00     0.047 A 
HETATM   13  C6  UNL     1     -13.859   6.698  13.742  1.00  0.00     0.008 A 
HETATM   14  C26 UNL     1     -12.449   8.392  12.827  1.00  0.00     0.257 A 
HETATM   15  C5  UNL     1     -14.586   7.564  12.918  1.00  0.00     0.046 A 
HETATM   16  C7  UNL     1     -14.493   5.635  14.363  1.00  0.00     0.040 A 
HETATM   17  C4  UNL     1     -15.941   7.423  12.688  1.00  0.00     0.032 A 
HETATM   18  N5  UNL     1     -13.756   8.545  12.392  1.00  0.00    -0.322 N 
HETATM   19  C3  UNL     1     -16.592   6.355  13.309  1.00  0.00     0.027 A 
HETATM   20  C2  UNL     1     -15.867   5.465  14.127  1.00  0.00     0.080 A 
HETATM   21  H33 UNL     1     -14.036   9.291  11.773  1.00  0.00     0.169 HD
HETATM   22  O4  UNL     1     -11.514   9.113  12.539  1.00  0.00    -0.267 OA
BRANCH  20  23
HETATM   23  S1  UNL     1     -16.700   4.101  14.897  1.00  0.00     0.258 S 
HETATM   24  O1  UNL     1     -17.681   3.570  13.980  1.00  0.00    -0.201 OA
HETATM   25  O2  UNL     1     -17.043   4.507  16.242  1.00  0.00    -0.201 OA
BRANCH  23  26
HETATM   26  N1  UNL     1     -15.458   2.980  15.048  1.00  0.00    -0.320 N 
HETATM   27  C1  UNL     1     -15.551   1.736  14.293  1.00  0.00     0.159 C 
HETATM   28  H4  UNL     1     -15.092   2.938  15.999  1.00  0.00     0.171 HD
ENDBRANCH  23  26
ENDBRANCH  20  23
ENDBRANCH   1  11
BRANCH   5  29
HETATM   29  C14 UNL     1      -9.941   8.930  15.939  1.00  0.00     0.051 C 
BRANCH  29  30
HETATM   30  C15 UNL     1      -9.730  10.332  15.362  1.00  0.00     0.107 C 
BRANCH  30  31
HETATM   31  C16 UNL     1     -11.018  11.134  15.252  1.00  0.00     0.220 C 
HETATM   32  O3  UNL     1     -12.105  10.659  15.580  1.00  0.00    -0.273 OA
HETATM   33  N3  UNL     1     -10.900  12.444  14.794  1.00  0.00    -0.349 N 
HETATM   34  C17 UNL     1     -12.118  13.258  14.740  1.00  0.00     0.156 C 
HETATM   35  C21 UNL     1      -9.659  13.223  14.842  1.00  0.00     0.156 C 
HETATM   36  C18 UNL     1     -12.033  14.364  13.673  1.00  0.00     0.291 C 
HETATM   37  N4  UNL     1     -10.819  15.195  13.822  1.00  0.00     0.087 N 
HETATM   38  C19 UNL     1     -10.766  16.212  12.773  1.00  0.00     0.310 C 
HETATM   39  C20 UNL     1      -9.625  14.329  13.769  1.00  0.00     0.291 C 
ENDBRANCH  30  31
ENDBRANCH  29  30
ENDBRANCH   5  29
TORSDOF 6
ENDMDL
MODEL 9
REMARK minimizedAffinity -8.58071613
REMARK CNNscore 0.0857517719
REMARK CNNaffinity 6.15896368
REMARK  6 active torsions:
REMARK  status: ('A' for Active; 'I' for Inactive)
REMARK    1  A    between atoms: N1_2  and  S1_3 
REMARK    2  A    between atoms: S1_3  and  C2_6 
REMARK    3  A    between atoms: C9_13  and  C10_14 
REMARK    4  A    between atoms: C13_18  and  C14_19 
REMARK    5  A    between atoms: C14_19  and  C15_20 
REMARK    6  A    between atoms: C15_20  and  C16_21 
REMARK       I    between atoms: C16_21  and  N3_23 
ROOT
HETATM    1  C10 UNL     1      -7.986   5.553  13.919  1.00  0.00     0.040 A 
HETATM    2  N2  UNL     1      -8.509   4.354  13.491  1.00  0.00    -0.359 N 
HETATM    3  C11 UNL     1      -7.531   3.598  12.917  1.00  0.00     0.016 A 
HETATM    4  C12 UNL     1      -6.348   4.302  12.963  1.00  0.00    -0.027 A 
HETATM    5  C13 UNL     1      -6.625   5.551  13.591  1.00  0.00    -0.023 A 
HETATM    6  C22 UNL     1      -5.069   3.735  12.441  1.00  0.00     0.041 C 
HETATM    7  C23 UNL     1      -5.334   2.537  11.505  1.00  0.00     0.005 C 
HETATM    8  C24 UNL     1      -6.377   1.568  12.093  1.00  0.00     0.006 C 
HETATM    9  C25 UNL     1      -7.738   2.250  12.323  1.00  0.00     0.057 C 
HETATM   10  H9  UNL     1      -9.475   4.058  13.599  1.00  0.00     0.166 HD
ENDROOT
BRANCH   1  11
HETATM   11  C9  UNL     1      -8.783   6.542  14.564  1.00  0.00     0.048 C 
HETATM   12  C8  UNL     1      -9.835   7.236  14.097  1.00  0.00     0.047 A 
HETATM   13  C6  UNL     1     -10.602   8.185  14.929  1.00  0.00     0.008 A 
HETATM   14  C26 UNL     1     -10.503   7.236  12.741  1.00  0.00     0.257 A 
HETATM   15  C5  UNL     1     -11.634   8.676  14.123  1.00  0.00     0.046 A 
HETATM   16  C7  UNL     1     -10.487   8.603  16.244  1.00  0.00     0.040 A 
HETATM   17  C4  UNL     1     -12.569   9.589  14.572  1.00  0.00     0.032 A 
HETATM   18  N5  UNL     1     -11.566   8.118  12.853  1.00  0.00    -0.322 N 
HETATM   19  C3  UNL     1     -12.465  10.019  15.897  1.00  0.00     0.027 A 
HETATM   20  C2  UNL     1     -11.439   9.518  16.723  1.00  0.00     0.080 A 
HETATM   21  H33 UNL     1     -12.193   8.310  12.086  1.00  0.00     0.169 HD
HETATM   22  O4  UNL     1     -10.195   6.616  11.742  1.00  0.00    -0.267 OA
BRANCH  20  23
HETATM   23  S1  UNL     1     -11.327  10.058  18.410  1.00  0.00     0.258 S 
HETATM   24  O1  UNL     1     -10.596  11.303  18.458  1.00  0.00    -0.201 OA
HETATM   25  O2  UNL     1     -10.949   8.912  19.206  1.00  0.00    -0.201 OA
BRANCH  23  26
HETATM   26  N1  UNL     1     -12.935  10.376  18.777  1.00  0.00    -0.320 N 
HETATM   27  C1  UNL     1     -13.703   9.352  19.473  1.00  0.00     0.159 C 
HETATM   28  H4  UNL     1     -13.399  10.907  18.039  1.00  0.00     0.171 HD
ENDBRANCH  23  26
ENDBRANCH  20  23
ENDBRANCH   1  11
BRANCH   5  29
HETATM   29  C14 UNL     1      -5.630   6.648  13.859  1.00  0.00     0.051 C 
BRANCH  29  30
HETATM   30  C15 UNL     1      -4.883   6.457  15.181  1.00  0.00     0.107 C 
BRANCH  30  31
HETATM   31  C16 UNL     1      -3.390   6.233  14.998  1.00  0.00     0.220 C 
HETATM   32  O3  UNL     1      -2.948   5.190  14.514  1.00  0.00    -0.273 OA
HETATM   33  N3  UNL     1      -2.550   7.279  15.374  1.00  0.00    -0.349 N 
HETATM   34  C17 UNL     1      -1.112   7.110  15.148  1.00  0.00     0.156 C 
HETATM   35  C21 UNL     1      -2.980   8.675  15.495  1.00  0.00     0.156 C 
HETATM   36  C18 UNL     1      -0.266   7.941  16.130  1.00  0.00     0.291 C 
HETATM   37  N4  UNL     1      -0.662   9.367  16.143  1.00  0.00     0.087 N 
HETATM   38  C19 UNL     1       0.147  10.110  17.108  1.00  0.00     0.310 C 
HETATM   39  C20 UNL     1      -2.096   9.472  16.474  1.00  0.00     0.291 C 
ENDBRANCH  30  31
ENDBRANCH  29  30
ENDBRANCH   5  29
TORSDOF 6
ENDMDL
