MODEL 1
REMARK minimizedAffinity -6.41622734
REMARK CNNscore 0.78815496
REMARK CNNaffinity 7.18370819
REMARK  9 active torsions:
REMARK  status: ('A' for Active; 'I' for Inactive)
REMARK    1  A    between atoms: C2_2  and  C3_3 
REMARK       I    between atoms: C3_3  and  N1_5 
REMARK    2  A    between atoms: C7_9  and  C8_10 
REMARK       I    between atoms: C8_10  and  N2_12 
REMARK    3  A    between atoms: N2_12  and  C9_13 
REMARK    4  A    between atoms: C12_16  and  N3_17 
REMARK    5  A    between atoms: N3_17  and  C13_18 
REMARK    6  A    between atoms: C22_33  and  O3_34 
REMARK    7  A    between atoms: O3_34  and  C23_35 
REMARK    8  A    between atoms: C23_35  and  C24_36 
REMARK    9  A    between atoms: C24_36  and  O4_37 
ROOT
HETATM    1  C9  UNL     1      13.125  59.173   4.638  1.00  0.00     0.069 A 
HETATM    2  C10 UNL     1      12.972  60.364   3.928  1.00  0.00     0.050 A 
HETATM    3  C11 UNL     1      13.368  60.464   2.569  1.00  0.00     0.037 A 
HETATM    4  C12 UNL     1      13.261  61.624   1.774  1.00  0.00     0.119 A 
HETATM    5  N4  UNL     1      13.622  61.632   0.477  1.00  0.00    -0.338 N 
ATOM      6  H4  UNL     1      13.526  62.468  -0.099  1.00  0.00     0.168 HD
HETATM    7  C19 UNL     1      14.113  60.494  -0.020  1.00  0.00     0.182 A 
HETATM    8  N5  UNL     1      14.276  59.346   0.646  1.00  0.00    -0.351 N 
ATOM      9  H5  UNL     1      14.667  58.517   0.197  1.00  0.00     0.166 HD
HETATM   10  C20 UNL     1      13.902  59.339   1.927  1.00  0.00     0.049 A 
HETATM   11  C21 UNL     1      14.049  58.159   2.643  1.00  0.00     0.069 A 
HETATM   12  C22 UNL     1      13.680  58.059   3.986  1.00  0.00     0.097 A 
ENDROOT
BRANCH   1  13
HETATM   13  N2  UNL     1      12.747  59.012   5.988  1.00  0.00    -0.323 N 
HETATM   14  C8  UNL     1      12.951  59.875   7.051  1.00  0.00     0.245 C 
HETATM   15  O2  UNL     1      13.541  60.952   6.988  1.00  0.00    -0.271 OA
HETATM   16  H11 UNL     1      12.303  58.111   6.201  1.00  0.00     0.169 HD
BRANCH  14  17
HETATM   17  C7  UNL     1      12.325  59.357   8.370  1.00  0.00     0.180 C 
HETATM   18  N1  UNL     1      12.740  60.183   9.511  1.00  0.00    -0.335 N 
HETATM   19  C3  UNL     1      13.933  59.945  10.146  1.00  0.00     0.243 C 
HETATM   20  C4  UNL     1      11.625  60.974  10.016  1.00  0.00     0.127 C 
HETATM   21  O1  UNL     1      14.735  59.100   9.752  1.00  0.00    -0.268 OA
HETATM   22  C5  UNL     1      10.539  60.839   8.960  1.00  0.00     0.022 C 
HETATM   23  C6  UNL     1      10.797  59.453   8.381  1.00  0.00     0.037 C 
BRANCH  19  24
HETATM   24  C2  UNL     1      14.244  60.724  11.365  1.00  0.00     0.064 C 
HETATM   25  C1  UNL     1      15.057  60.249  12.318  1.00  0.00     0.017 C 
ENDBRANCH  19  24
ENDBRANCH  14  17
ENDBRANCH   1  13
BRANCH  12  26
HETATM   26  O3  UNL     1      13.786  56.924   4.749  1.00  0.00    -0.347 OA
BRANCH  26  27
HETATM   27  C23 UNL     1      13.797  55.654   4.100  1.00  0.00     0.201 C 
BRANCH  27  28
HETATM   28  C24 UNL     1      14.361  54.574   5.022  1.00  0.00     0.193 C 
BRANCH  28  29
HETATM   29  O4  UNL     1      15.461  55.053   5.795  1.00  0.00    -0.394 OA
HETATM   30  C25 UNL     1      16.706  54.504   5.385  1.00  0.00     0.201 C 
ENDBRANCH  28  29
ENDBRANCH  27  28
ENDBRANCH  26  27
ENDBRANCH  12  26
BRANCH   4  31
HETATM   31  N3  UNL     1      12.754  62.815   2.354  1.00  0.00    -0.339 N 
HETATM   32  H13 UNL     1      12.032  62.591   3.039  1.00  0.00     0.167 HD
BRANCH  31  33
HETATM   33  C13 UNL     1      13.469  63.972   2.750  1.00  0.00     0.074 A 
HETATM   34  C14 UNL     1      14.565  64.466   2.034  1.00  0.00     0.033 A 
HETATM   35  C15 UNL     1      15.214  65.640   2.431  1.00  0.00     0.004 A 
HETATM   36  C16 UNL     1      14.764  66.348   3.545  1.00  0.00     0.027 A 
HETATM   37  C17 UNL     1      13.658  65.884   4.254  1.00  0.00     0.074 A 
HETATM   38 CL1  UNL     1      13.102  66.767   5.624  1.00  0.00    -0.081 Cl
HETATM   39  C18 UNL     1      13.014  64.715   3.851  1.00  0.00     0.164 A 
HETATM   40  F1  UNL     1      11.943  64.266   4.529  1.00  0.00    -0.202 F 
ENDBRANCH  31  33
ENDBRANCH   4  31
TORSDOF 9
ENDMDL
MODEL 2
REMARK minimizedAffinity -6.11978245
REMARK CNNscore 0.545580685
REMARK CNNaffinity 6.33132029
REMARK  9 active torsions:
REMARK  status: ('A' for Active; 'I' for Inactive)
REMARK    1  A    between atoms: C2_2  and  C3_3 
REMARK       I    between atoms: C3_3  and  N1_5 
REMARK    2  A    between atoms: C7_9  and  C8_10 
REMARK       I    between atoms: C8_10  and  N2_12 
REMARK    3  A    between atoms: N2_12  and  C9_13 
REMARK    4  A    between atoms: C12_16  and  N3_17 
REMARK    5  A    between atoms: N3_17  and  C13_18 
REMARK    6  A    between atoms: C22_33  and  O3_34 
REMARK    7  A    between atoms: O3_34  and  C23_35 
REMARK    8  A    between atoms: C23_35  and  C24_36 
REMARK    9  A    between atoms: C24_36  and  O4_37 
ROOT
HETATM    1  C9  UNL     1      12.963  58.326   1.374  1.00  0.00     0.069 A 
HETATM    2  C10 UNL     1      12.746  59.673   1.087  1.00  0.00     0.050 A 
HETATM    3  C11 UNL     1      13.118  60.688   2.007  1.00  0.00     0.037 A 
HETATM    4  C12 UNL     1      12.932  62.072   1.811  1.00  0.00     0.119 A 
HETATM    5  N4  UNL     1      13.347  62.980   2.714  1.00  0.00    -0.338 N 
ATOM      6  H4  UNL     1      13.226  63.981   2.559  1.00  0.00     0.168 HD
HETATM    7  C19 UNL     1      13.923  62.509   3.822  1.00  0.00     0.182 A 
HETATM    8  N5  UNL     1      14.131  61.222   4.119  1.00  0.00    -0.351 N 
ATOM      9  H5  UNL     1      14.573  60.939   4.994  1.00  0.00     0.166 HD
HETATM   10  C20 UNL     1      13.732  60.327   3.214  1.00  0.00     0.049 A 
HETATM   11  C21 UNL     1      13.944  58.982   3.488  1.00  0.00     0.069 A 
HETATM   12  C22 UNL     1      13.562  57.977   2.596  1.00  0.00     0.097 A 
ENDROOT
BRANCH   1  13
HETATM   13  N2  UNL     1      12.619  57.273   0.498  1.00  0.00    -0.323 N 
HETATM   14  C8  UNL     1      13.300  56.821  -0.618  1.00  0.00     0.245 C 
HETATM   15  O2  UNL     1      14.344  57.302  -1.056  1.00  0.00    -0.271 OA
HETATM   16  H11 UNL     1      11.719  56.825   0.706  1.00  0.00     0.169 HD
BRANCH  14  17
HETATM   17  C7  UNL     1      12.621  55.595  -1.278  1.00  0.00     0.180 C 
HETATM   18  N1  UNL     1      11.846  55.994  -2.460  1.00  0.00    -0.335 N 
HETATM   19  C3  UNL     1      10.561  56.458  -2.326  1.00  0.00     0.243 C 
HETATM   20  C4  UNL     1      12.480  55.522  -3.684  1.00  0.00     0.127 C 
HETATM   21  O1  UNL     1      10.033  56.638  -1.229  1.00  0.00    -0.268 OA
HETATM   22  C5  UNL     1      13.859  55.050  -3.253  1.00  0.00     0.022 C 
HETATM   23  C6  UNL     1      13.628  54.579  -1.823  1.00  0.00     0.037 C 
BRANCH  19  24
HETATM   24  C2  UNL     1       9.783  56.727  -3.555  1.00  0.00     0.064 C 
HETATM   25  C1  UNL     1       9.621  57.969  -4.031  1.00  0.00     0.017 C 
ENDBRANCH  19  24
ENDBRANCH  14  17
ENDBRANCH   1  13
BRANCH  12  26
HETATM   26  O3  UNL     1      13.751  56.635   2.797  1.00  0.00    -0.347 OA
BRANCH  26  27
HETATM   27  C23 UNL     1      13.694  56.119   4.127  1.00  0.00     0.201 C 
BRANCH  27  28
HETATM   28  C24 UNL     1      15.053  55.574   4.561  1.00  0.00     0.193 C 
BRANCH  28  29
HETATM   29  O4  UNL     1      14.930  54.594   5.591  1.00  0.00    -0.394 OA
HETATM   30  C25 UNL     1      15.402  53.313   5.197  1.00  0.00     0.201 C 
ENDBRANCH  28  29
ENDBRANCH  27  28
ENDBRANCH  26  27
ENDBRANCH  12  26
BRANCH   4  31
HETATM   31  N3  UNL     1      12.294  62.522   0.626  1.00  0.00    -0.339 N 
HETATM   32  H13 UNL     1      11.481  63.090   0.860  1.00  0.00     0.167 HD
BRANCH  31  33
HETATM   33  C13 UNL     1      12.894  62.985  -0.571  1.00  0.00     0.074 A 
HETATM   34  C14 UNL     1      13.734  64.104  -0.613  1.00  0.00     0.033 A 
HETATM   35  C15 UNL     1      14.346  64.500  -1.808  1.00  0.00     0.004 A 
HETATM   36  C16 UNL     1      14.137  63.771  -2.978  1.00  0.00     0.027 A 
HETATM   37  C17 UNL     1      13.325  62.640  -2.948  1.00  0.00     0.074 A 
HETATM   38 CL1  UNL     1      13.078  61.739  -4.395  1.00  0.00    -0.081 Cl
HETATM   39  C18 UNL     1      12.721  62.249  -1.754  1.00  0.00     0.164 A 
HETATM   40  F1  UNL     1      11.939  61.155  -1.719  1.00  0.00    -0.202 F 
ENDBRANCH  31  33
ENDBRANCH   4  31
TORSDOF 9
ENDMDL
MODEL 3
REMARK minimizedAffinity -6.78764868
REMARK CNNscore 0.485145926
REMARK CNNaffinity 6.5832324
REMARK  9 active torsions:
REMARK  status: ('A' for Active; 'I' for Inactive)
REMARK    1  A    between atoms: C2_2  and  C3_3 
REMARK       I    between atoms: C3_3  and  N1_5 
REMARK    2  A    between atoms: C7_9  and  C8_10 
REMARK       I    between atoms: C8_10  and  N2_12 
REMARK    3  A    between atoms: N2_12  and  C9_13 
REMARK    4  A    between atoms: C12_16  and  N3_17 
REMARK    5  A    between atoms: N3_17  and  C13_18 
REMARK    6  A    between atoms: C22_33  and  O3_34 
REMARK    7  A    between atoms: O3_34  and  C23_35 
REMARK    8  A    between atoms: C23_35  and  C24_36 
REMARK    9  A    between atoms: C24_36  and  O4_37 
ROOT
HETATM    1  C9  UNL     1      13.206  59.762   4.162  1.00  0.00     0.069 A 
HETATM    2  C10 UNL     1      12.647  60.060   5.404  1.00  0.00     0.050 A 
HETATM    3  C11 UNL     1      12.227  61.378   5.722  1.00  0.00     0.037 A 
HETATM    4  C12 UNL     1      11.661  61.777   6.951  1.00  0.00     0.119 A 
HETATM    5  N4  UNL     1      11.250  63.041   7.167  1.00  0.00    -0.338 N 
ATOM      6  H4  UNL     1      10.824  63.320   8.050  1.00  0.00     0.168 HD
HETATM    7  C19 UNL     1      11.427  63.911   6.171  1.00  0.00     0.182 A 
HETATM    8  N5  UNL     1      11.969  63.647   4.977  1.00  0.00    -0.351 N 
ATOM      9  H5  UNL     1      12.078  64.371   4.266  1.00  0.00     0.166 HD
HETATM   10  C20 UNL     1      12.360  62.390   4.763  1.00  0.00     0.049 A 
HETATM   11  C21 UNL     1      12.918  62.081   3.529  1.00  0.00     0.069 A 
HETATM   12  C22 UNL     1      13.351  60.791   3.216  1.00  0.00     0.097 A 
ENDROOT
BRANCH   1  13
HETATM   13  N2  UNL     1      13.638  58.471   3.787  1.00  0.00    -0.323 N 
HETATM   14  C8  UNL     1      13.995  57.410   4.600  1.00  0.00     0.245 C 
HETATM   15  O2  UNL     1      14.019  57.434   5.829  1.00  0.00    -0.271 OA
HETATM   16  H11 UNL     1      13.736  58.334   2.774  1.00  0.00     0.169 HD
BRANCH  14  17
HETATM   17  C7  UNL     1      14.352  56.135   3.796  1.00  0.00     0.180 C 
HETATM   18  N1  UNL     1      15.784  55.829   3.902  1.00  0.00    -0.335 N 
HETATM   19  C3  UNL     1      16.690  56.438   3.069  1.00  0.00     0.243 C 
HETATM   20  C4  UNL     1      16.005  54.634   4.707  1.00  0.00     0.127 C 
HETATM   21  O1  UNL     1      16.367  57.312   2.267  1.00  0.00    -0.268 OA
HETATM   22  C5  UNL     1      14.663  54.350   5.362  1.00  0.00     0.022 C 
HETATM   23  C6  UNL     1      13.666  54.878   4.338  1.00  0.00     0.037 C 
BRANCH  19  24
HETATM   24  C2  UNL     1      18.102  56.002   3.133  1.00  0.00     0.064 C 
HETATM   25  C1  UNL     1      19.073  56.651   2.475  1.00  0.00     0.017 C 
ENDBRANCH  19  24
ENDBRANCH  14  17
ENDBRANCH   1  13
BRANCH  12  26
HETATM   26  O3  UNL     1      13.899  60.414   2.017  1.00  0.00    -0.347 OA
BRANCH  26  27
HETATM   27  C23 UNL     1      13.063  60.359   0.862  1.00  0.00     0.201 C 
BRANCH  27  28
HETATM   28  C24 UNL     1      13.168  58.998   0.175  1.00  0.00     0.193 C 
BRANCH  28  29
HETATM   29  O4  UNL     1      12.107  58.786  -0.755  1.00  0.00    -0.394 OA
HETATM   30  C25 UNL     1      12.116  59.717  -1.828  1.00  0.00     0.201 C 
ENDBRANCH  28  29
ENDBRANCH  27  28
ENDBRANCH  26  27
ENDBRANCH  12  26
BRANCH   4  31
HETATM   31  N3  UNL     1      11.514  60.819   7.987  1.00  0.00    -0.339 N 
HETATM   32  H13 UNL     1      10.957  60.031   7.659  1.00  0.00     0.167 HD
BRANCH  31  33
HETATM   33  C13 UNL     1      12.483  60.384   8.924  1.00  0.00     0.074 A 
HETATM   34  C14 UNL     1      13.443  61.242   9.475  1.00  0.00     0.033 A 
HETATM   35  C15 UNL     1      14.352  60.783  10.434  1.00  0.00     0.004 A 
HETATM   36  C16 UNL     1      14.305  59.459  10.869  1.00  0.00     0.027 A 
HETATM   37  C17 UNL     1      13.339  58.599  10.351  1.00  0.00     0.074 A 
HETATM   38 CL1  UNL     1      13.281  56.968  10.898  1.00  0.00    -0.081 Cl
HETATM   39  C18 UNL     1      12.434  59.063   9.397  1.00  0.00     0.164 A 
HETATM   40  F1  UNL     1      11.498  58.238   8.897  1.00  0.00    -0.202 F 
ENDBRANCH  31  33
ENDBRANCH   4  31
TORSDOF 9
ENDMDL
MODEL 4
REMARK minimizedAffinity -6.36016321
REMARK CNNscore 0.391445041
REMARK CNNaffinity 6.17690086
REMARK  9 active torsions:
REMARK  status: ('A' for Active; 'I' for Inactive)
REMARK    1  A    between atoms: C2_2  and  C3_3 
REMARK       I    between atoms: C3_3  and  N1_5 
REMARK    2  A    between atoms: C7_9  and  C8_10 
REMARK       I    between atoms: C8_10  and  N2_12 
REMARK    3  A    between atoms: N2_12  and  C9_13 
REMARK    4  A    between atoms: C12_16  and  N3_17 
REMARK    5  A    between atoms: N3_17  and  C13_18 
REMARK    6  A    between atoms: C22_33  and  O3_34 
REMARK    7  A    between atoms: O3_34  and  C23_35 
REMARK    8  A    between atoms: C23_35  and  C24_36 
REMARK    9  A    between atoms: C24_36  and  O4_37 
ROOT
HETATM    1  C9  UNL     1      13.244  59.079   5.971  1.00  0.00     0.069 A 
HETATM    2  C10 UNL     1      13.164  59.081   7.363  1.00  0.00     0.050 A 
HETATM    3  C11 UNL     1      12.595  60.177   8.063  1.00  0.00     0.037 A 
HETATM    4  C12 UNL     1      12.479  60.274   9.466  1.00  0.00     0.119 A 
HETATM    5  N4  UNL     1      11.890  61.331  10.058  1.00  0.00    -0.338 N 
ATOM      6  H4  UNL     1      11.792  61.388  11.071  1.00  0.00     0.168 HD
HETATM    7  C19 UNL     1      11.441  62.299   9.257  1.00  0.00     0.182 A 
HETATM    8  N5  UNL     1      11.517  62.319   7.921  1.00  0.00    -0.351 N 
ATOM      9  H5  UNL     1      11.156  63.102   7.376  1.00  0.00     0.166 HD
HETATM   10  C20 UNL     1      12.087  61.263   7.339  1.00  0.00     0.049 A 
HETATM   11  C21 UNL     1      12.171  61.249   5.952  1.00  0.00     0.069 A 
HETATM   12  C22 UNL     1      12.748  60.183   5.258  1.00  0.00     0.097 A 
ENDROOT
BRANCH   1  13
HETATM   13  N2  UNL     1      13.795  58.018   5.220  1.00  0.00    -0.323 N 
HETATM   14  C8  UNL     1      14.721  57.069   5.617  1.00  0.00     0.245 C 
HETATM   15  O2  UNL     1      15.251  57.014   6.725  1.00  0.00    -0.271 OA
HETATM   16  H11 UNL     1      13.491  57.988   4.240  1.00  0.00     0.169 HD
BRANCH  14  17
HETATM   17  C7  UNL     1      15.023  56.029   4.509  1.00  0.00     0.180 C 
HETATM   18  N1  UNL     1      16.258  55.291   4.802  1.00  0.00    -0.335 N 
HETATM   19  C3  UNL     1      17.480  55.811   4.452  1.00  0.00     0.243 C 
HETATM   20  C4  UNL     1      15.969  53.908   5.159  1.00  0.00     0.127 C 
HETATM   21  O1  UNL     1      17.606  56.932   3.962  1.00  0.00    -0.268 OA
HETATM   22  C5  UNL     1      14.464  53.865   5.368  1.00  0.00     0.022 C 
HETATM   23  C6  UNL     1      13.955  54.936   4.412  1.00  0.00     0.037 C 
BRANCH  19  24
HETATM   24  C2  UNL     1      18.681  54.972   4.656  1.00  0.00     0.064 C 
HETATM   25  C1  UNL     1      19.387  55.014   5.795  1.00  0.00     0.017 C 
ENDBRANCH  19  24
ENDBRANCH  14  17
ENDBRANCH   1  13
BRANCH  12  26
HETATM   26  O3  UNL     1      12.853  60.099   3.894  1.00  0.00    -0.347 OA
BRANCH  26  27
HETATM   27  C23 UNL     1      12.838  61.299   3.123  1.00  0.00     0.201 C 
BRANCH  27  28
HETATM   28  C24 UNL     1      12.735  60.990   1.630  1.00  0.00     0.193 C 
BRANCH  28  29
HETATM   29  O4  UNL     1      12.614  59.589   1.383  1.00  0.00    -0.394 OA
HETATM   30  C25 UNL     1      13.785  59.024   0.809  1.00  0.00     0.201 C 
ENDBRANCH  28  29
ENDBRANCH  27  28
ENDBRANCH  26  27
ENDBRANCH  12  26
BRANCH   4  31
HETATM   31  N3  UNL     1      12.991  59.228  10.275  1.00  0.00    -0.339 N 
HETATM   32  H13 UNL     1      12.572  58.339  10.005  1.00  0.00     0.167 HD
BRANCH  31  33
HETATM   33  C13 UNL     1      14.323  59.033  10.717  1.00  0.00     0.074 A 
HETATM   34  C14 UNL     1      15.290  60.045  10.679  1.00  0.00     0.033 A 
HETATM   35  C15 UNL     1      16.581  59.825  11.171  1.00  0.00     0.004 A 
HETATM   36  C16 UNL     1      16.920  58.591  11.724  1.00  0.00     0.027 A 
HETATM   37  C17 UNL     1      15.963  57.582  11.794  1.00  0.00     0.074 A 
HETATM   38 CL1  UNL     1      16.386  56.063  12.486  1.00  0.00    -0.081 Cl
HETATM   39  C18 UNL     1      14.677  57.808  11.305  1.00  0.00     0.164 A 
HETATM   40  F1  UNL     1      13.747  56.838  11.374  1.00  0.00    -0.202 F 
ENDBRANCH  31  33
ENDBRANCH   4  31
TORSDOF 9
ENDMDL
MODEL 5
REMARK minimizedAffinity -6.33921719
REMARK CNNscore 0.38641718
REMARK CNNaffinity 6.32326889
REMARK  9 active torsions:
REMARK  status: ('A' for Active; 'I' for Inactive)
REMARK    1  A    between atoms: C2_2  and  C3_3 
REMARK       I    between atoms: C3_3  and  N1_5 
REMARK    2  A    between atoms: C7_9  and  C8_10 
REMARK       I    between atoms: C8_10  and  N2_12 
REMARK    3  A    between atoms: N2_12  and  C9_13 
REMARK    4  A    between atoms: C12_16  and  N3_17 
REMARK    5  A    between atoms: N3_17  and  C13_18 
REMARK    6  A    between atoms: C22_33  and  O3_34 
REMARK    7  A    between atoms: O3_34  and  C23_35 
REMARK    8  A    between atoms: C23_35  and  C24_36 
REMARK    9  A    between atoms: C24_36  and  O4_37 
ROOT
HETATM    1  C9  UNL     1      13.528  57.981   3.221  1.00  0.00     0.069 A 
HETATM    2  C10 UNL     1      13.022  58.110   1.928  1.00  0.00     0.050 A 
HETATM    3  C11 UNL     1      13.598  57.403   0.841  1.00  0.00     0.037 A 
HETATM    4  C12 UNL     1      13.163  57.476  -0.499  1.00  0.00     0.119 A 
HETATM    5  N4  UNL     1      13.736  56.743  -1.473  1.00  0.00    -0.338 N 
ATOM      6  H4  UNL     1      13.405  56.786  -2.437  1.00  0.00     0.168 HD
HETATM    7  C19 UNL     1      14.755  55.959  -1.118  1.00  0.00     0.182 A 
HETATM    8  N5  UNL     1      15.260  55.828   0.114  1.00  0.00    -0.351 N 
ATOM      9  H5  UNL     1      16.050  55.212   0.306  1.00  0.00     0.166 HD
HETATM   10  C20 UNL     1      14.679  56.545   1.078  1.00  0.00     0.049 A 
HETATM   11  C21 UNL     1      15.174  56.423   2.370  1.00  0.00     0.069 A 
HETATM   12  C22 UNL     1      14.625  57.132   3.441  1.00  0.00     0.097 A 
ENDROOT
BRANCH   1  13
HETATM   13  N2  UNL     1      12.995  58.655   4.341  1.00  0.00    -0.323 N 
HETATM   14  C8  UNL     1      13.064  60.002   4.652  1.00  0.00     0.245 C 
HETATM   15  O2  UNL     1      13.645  60.856   3.985  1.00  0.00    -0.271 OA
HETATM   16  H11 UNL     1      12.540  58.043   5.028  1.00  0.00     0.169 HD
BRANCH  14  17
HETATM   17  C7  UNL     1      12.293  60.356   5.948  1.00  0.00     0.180 C 
HETATM   18  N1  UNL     1      13.214  60.528   7.079  1.00  0.00    -0.335 N 
HETATM   19  C3  UNL     1      13.643  59.440   7.798  1.00  0.00     0.243 C 
HETATM   20  C4  UNL     1      13.294  61.927   7.480  1.00  0.00     0.127 C 
HETATM   21  O1  UNL     1      13.352  58.286   7.490  1.00  0.00    -0.268 OA
HETATM   22  C5  UNL     1      12.604  62.694   6.364  1.00  0.00     0.022 C 
HETATM   23  C6  UNL     1      11.566  61.701   5.858  1.00  0.00     0.037 C 
BRANCH  19  24
HETATM   24  C2  UNL     1      14.469  59.680   9.002  1.00  0.00     0.064 C 
HETATM   25  C1  UNL     1      14.076  59.283  10.219  1.00  0.00     0.017 C 
ENDBRANCH  19  24
ENDBRANCH  14  17
ENDBRANCH   1  13
BRANCH  12  26
HETATM   26  O3  UNL     1      15.055  57.050   4.740  1.00  0.00    -0.347 OA
BRANCH  26  27
HETATM   27  C23 UNL     1      14.993  55.793   5.412  1.00  0.00     0.201 C 
BRANCH  27  28
HETATM   28  C24 UNL     1      16.362  55.115   5.432  1.00  0.00     0.193 C 
BRANCH  28  29
HETATM   29  O4  UNL     1      16.405  53.976   4.574  1.00  0.00    -0.394 OA
HETATM   30  C25 UNL     1      16.813  52.791   5.245  1.00  0.00     0.201 C 
ENDBRANCH  28  29
ENDBRANCH  27  28
ENDBRANCH  26  27
ENDBRANCH  12  26
BRANCH   4  31
HETATM   31  N3  UNL     1      12.088  58.341  -0.830  1.00  0.00    -0.339 N 
HETATM   32  H13 UNL     1      12.017  59.089  -0.142  1.00  0.00     0.167 HD
BRANCH  31  33
HETATM   33  C13 UNL     1      11.700  58.807  -2.110  1.00  0.00     0.074 A 
HETATM   34  C14 UNL     1      12.369  59.842  -2.775  1.00  0.00     0.033 A 
HETATM   35  C15 UNL     1      11.984  60.239  -4.060  1.00  0.00     0.004 A 
HETATM   36  C16 UNL     1      10.929  59.596  -4.706  1.00  0.00     0.027 A 
HETATM   37  C17 UNL     1      10.269  58.547  -4.070  1.00  0.00     0.074 A 
HETATM   38 CL1  UNL     1       8.974  57.751  -4.878  1.00  0.00    -0.081 Cl
HETATM   39  C18 UNL     1      10.660  58.153  -2.791  1.00  0.00     0.164 A 
HETATM   40  F1  UNL     1      10.029  57.139  -2.174  1.00  0.00    -0.202 F 
ENDBRANCH  31  33
ENDBRANCH   4  31
TORSDOF 9
ENDMDL
MODEL 6
REMARK minimizedAffinity -6.84988451
REMARK CNNscore 0.368115008
REMARK CNNaffinity 5.96129608
REMARK  9 active torsions:
REMARK  status: ('A' for Active; 'I' for Inactive)
REMARK    1  A    between atoms: C2_2  and  C3_3 
REMARK       I    between atoms: C3_3  and  N1_5 
REMARK    2  A    between atoms: C7_9  and  C8_10 
REMARK       I    between atoms: C8_10  and  N2_12 
REMARK    3  A    between atoms: N2_12  and  C9_13 
REMARK    4  A    between atoms: C12_16  and  N3_17 
REMARK    5  A    between atoms: N3_17  and  C13_18 
REMARK    6  A    between atoms: C22_33  and  O3_34 
REMARK    7  A    between atoms: O3_34  and  C23_35 
REMARK    8  A    between atoms: C23_35  and  C24_36 
REMARK    9  A    between atoms: C24_36  and  O4_37 
ROOT
HETATM    1  C9  UNL     1      13.839  59.659   7.449  1.00  0.00     0.069 A 
HETATM    2  C10 UNL     1      12.995  60.753   7.258  1.00  0.00     0.050 A 
HETATM    3  C11 UNL     1      12.501  61.499   8.360  1.00  0.00     0.037 A 
HETATM    4  C12 UNL     1      11.639  62.612   8.268  1.00  0.00     0.119 A 
HETATM    5  N4  UNL     1      11.242  63.295   9.358  1.00  0.00    -0.338 N 
ATOM      6  H4  UNL     1      10.633  64.110   9.284  1.00  0.00     0.168 HD
HETATM    7  C19 UNL     1      11.682  62.856  10.539  1.00  0.00     0.182 A 
HETATM    8  N5  UNL     1      12.483  61.804  10.743  1.00  0.00    -0.351 N 
ATOM      9  H5  UNL     1      12.771  61.524  11.681  1.00  0.00     0.166 HD
HETATM   10  C20 UNL     1      12.886  61.140   9.658  1.00  0.00     0.049 A 
HETATM   11  C21 UNL     1      13.727  60.049   9.836  1.00  0.00     0.069 A 
HETATM   12  C22 UNL     1      14.201  59.298   8.758  1.00  0.00     0.097 A 
ENDROOT
BRANCH   1  13
HETATM   13  N2  UNL     1      14.365  58.882   6.394  1.00  0.00    -0.323 N 
HETATM   14  C8  UNL     1      13.800  58.605   5.161  1.00  0.00     0.245 C 
HETATM   15  O2  UNL     1      12.694  58.987   4.784  1.00  0.00    -0.271 OA
HETATM   16  H11 UNL     1      15.265  58.435   6.603  1.00  0.00     0.169 HD
BRANCH  14  17
HETATM   17  C7  UNL     1      14.730  57.761   4.254  1.00  0.00     0.180 C 
HETATM   18  N1  UNL     1      14.367  56.339   4.305  1.00  0.00    -0.335 N 
HETATM   19  C3  UNL     1      14.845  55.533   5.307  1.00  0.00     0.243 C 
HETATM   20  C4  UNL     1      13.773  55.907   3.046  1.00  0.00     0.127 C 
HETATM   21  O1  UNL     1      15.520  55.967   6.240  1.00  0.00    -0.268 OA
HETATM   22  C5  UNL     1      13.501  57.191   2.280  1.00  0.00     0.022 C 
HETATM   23  C6  UNL     1      14.602  58.122   2.772  1.00  0.00     0.037 C 
BRANCH  19  24
HETATM   24  C2  UNL     1      14.551  54.085   5.242  1.00  0.00     0.064 C 
HETATM   25  C1  UNL     1      15.525  53.169   5.155  1.00  0.00     0.017 C 
ENDBRANCH  19  24
ENDBRANCH  14  17
ENDBRANCH   1  13
BRANCH  12  26
HETATM   26  O3  UNL     1      15.041  58.220   8.860  1.00  0.00    -0.347 OA
BRANCH  26  27
HETATM   27  C23 UNL     1      16.400  58.434   9.237  1.00  0.00     0.201 C 
BRANCH  27  28
HETATM   28  C24 UNL     1      16.636  58.020  10.689  1.00  0.00     0.193 C 
BRANCH  28  29
HETATM   29  O4  UNL     1      15.974  56.797  11.010  1.00  0.00    -0.394 OA
HETATM   30  C25 UNL     1      16.401  56.244  12.247  1.00  0.00     0.201 C 
ENDBRANCH  28  29
ENDBRANCH  27  28
ENDBRANCH  26  27
ENDBRANCH  12  26
BRANCH   4  31
HETATM   31  N3  UNL     1      11.181  63.026   6.991  1.00  0.00    -0.339 N 
HETATM   32  H13 UNL     1      10.162  63.025   6.967  1.00  0.00     0.167 HD
BRANCH  31  33
HETATM   33  C13 UNL     1      11.694  64.059   6.168  1.00  0.00     0.074 A 
HETATM   34  C14 UNL     1      11.833  65.381   6.609  1.00  0.00     0.033 A 
HETATM   35  C15 UNL     1      12.390  66.361   5.780  1.00  0.00     0.004 A 
HETATM   36  C16 UNL     1      12.832  66.029   4.500  1.00  0.00     0.027 A 
HETATM   37  C17 UNL     1      12.726  64.713   4.055  1.00  0.00     0.074 A 
HETATM   38 CL1  UNL     1      13.282  64.308   2.477  1.00  0.00    -0.081 Cl
HETATM   39  C18 UNL     1      12.173  63.740   4.887  1.00  0.00     0.164 A 
HETATM   40  F1  UNL     1      12.072  62.468   4.463  1.00  0.00    -0.202 F 
ENDBRANCH  31  33
ENDBRANCH   4  31
TORSDOF 9
ENDMDL
MODEL 7
REMARK minimizedAffinity -6.91641712
REMARK CNNscore 0.311235577
REMARK CNNaffinity 6.08647203
REMARK  9 active torsions:
REMARK  status: ('A' for Active; 'I' for Inactive)
REMARK    1  A    between atoms: C2_2  and  C3_3 
REMARK       I    between atoms: C3_3  and  N1_5 
REMARK    2  A    between atoms: C7_9  and  C8_10 
REMARK       I    between atoms: C8_10  and  N2_12 
REMARK    3  A    between atoms: N2_12  and  C9_13 
REMARK    4  A    between atoms: C12_16  and  N3_17 
REMARK    5  A    between atoms: N3_17  and  C13_18 
REMARK    6  A    between atoms: C22_33  and  O3_34 
REMARK    7  A    between atoms: O3_34  and  C23_35 
REMARK    8  A    between atoms: C23_35  and  C24_36 
REMARK    9  A    between atoms: C24_36  and  O4_37 
ROOT
HETATM    1  C9  UNL     1      13.283  58.385   0.862  1.00  0.00     0.069 A 
HETATM    2  C10 UNL     1      13.475  57.676   2.048  1.00  0.00     0.050 A 
HETATM    3  C11 UNL     1      13.444  58.332   3.307  1.00  0.00     0.037 A 
HETATM    4  C12 UNL     1      13.636  57.704   4.555  1.00  0.00     0.119 A 
HETATM    5  N4  UNL     1      13.553  58.386   5.713  1.00  0.00    -0.338 N 
ATOM      6  H4  UNL     1      13.674  57.924   6.614  1.00  0.00     0.168 HD
HETATM    7  C19 UNL     1      13.305  59.695   5.627  1.00  0.00     0.182 A 
HETATM    8  N5  UNL     1      13.128  60.393   4.500  1.00  0.00    -0.351 N 
ATOM      9  H5  UNL     1      12.949  61.397   4.514  1.00  0.00     0.166 HD
HETATM   10  C20 UNL     1      13.195  59.709   3.356  1.00  0.00     0.049 A 
HETATM   11  C21 UNL     1      13.004  60.404   2.168  1.00  0.00     0.069 A 
HETATM   12  C22 UNL     1      13.053  59.769   0.925  1.00  0.00     0.097 A 
ENDROOT
BRANCH   1  13
HETATM   13  N2  UNL     1      13.298  57.788  -0.417  1.00  0.00    -0.323 N 
HETATM   14  C8  UNL     1      12.280  57.116  -1.069  1.00  0.00     0.245 C 
HETATM   15  O2  UNL     1      11.161  56.900  -0.606  1.00  0.00    -0.271 OA
HETATM   16  H11 UNL     1      14.206  57.830  -0.895  1.00  0.00     0.169 HD
BRANCH  14  17
HETATM   17  C7  UNL     1      12.679  56.662  -2.496  1.00  0.00     0.180 C 
HETATM   18  N1  UNL     1      12.184  55.310  -2.778  1.00  0.00    -0.335 N 
HETATM   19  C3  UNL     1      12.900  54.208  -2.379  1.00  0.00     0.243 C 
HETATM   20  C4  UNL     1      11.106  55.341  -3.759  1.00  0.00     0.127 C 
HETATM   21  O1  UNL     1      13.927  54.295  -1.708  1.00  0.00    -0.268 OA
HETATM   22  C5  UNL     1      10.731  56.809  -3.880  1.00  0.00     0.022 C 
HETATM   23  C6  UNL     1      12.045  57.523  -3.592  1.00  0.00     0.037 C 
BRANCH  19  24
HETATM   24  C2  UNL     1      12.420  52.873  -2.796  1.00  0.00     0.064 C 
HETATM   25  C1  UNL     1      12.870  51.749  -2.222  1.00  0.00     0.017 C 
ENDBRANCH  19  24
ENDBRANCH  14  17
ENDBRANCH   1  13
BRANCH  12  26
HETATM   26  O3  UNL     1      12.863  60.390  -0.282  1.00  0.00    -0.347 OA
BRANCH  26  27
HETATM   27  C23 UNL     1      12.100  61.595  -0.328  1.00  0.00     0.201 C 
BRANCH  27  28
HETATM   28  C24 UNL     1      12.690  62.578  -1.338  1.00  0.00     0.193 C 
BRANCH  28  29
HETATM   29  O4  UNL     1      12.567  63.930  -0.901  1.00  0.00    -0.394 OA
HETATM   30  C25 UNL     1      12.845  64.093   0.483  1.00  0.00     0.201 C 
ENDBRANCH  28  29
ENDBRANCH  27  28
ENDBRANCH  26  27
ENDBRANCH  12  26
BRANCH   4  31
HETATM   31  N3  UNL     1      13.918  56.314   4.594  1.00  0.00    -0.339 N 
HETATM   32  H13 UNL     1      13.220  55.801   4.056  1.00  0.00     0.167 HD
BRANCH  31  33
HETATM   33  C13 UNL     1      15.178  55.673   4.510  1.00  0.00     0.074 A 
HETATM   34  C14 UNL     1      16.345  56.342   4.123  1.00  0.00     0.033 A 
HETATM   35  C15 UNL     1      17.579  55.682   4.101  1.00  0.00     0.004 A 
HETATM   36  C16 UNL     1      17.666  54.344   4.482  1.00  0.00     0.027 A 
HETATM   37  C17 UNL     1      16.519  53.671   4.897  1.00  0.00     0.074 A 
HETATM   38 CL1  UNL     1      16.636  52.021   5.376  1.00  0.00    -0.081 Cl
HETATM   39  C18 UNL     1      15.293  54.334   4.919  1.00  0.00     0.164 A 
HETATM   40  F1  UNL     1      14.184  53.689   5.322  1.00  0.00    -0.202 F 
ENDBRANCH  31  33
ENDBRANCH   4  31
TORSDOF 9
ENDMDL
MODEL 8
REMARK minimizedAffinity -6.43421555
REMARK CNNscore 0.295613259
REMARK CNNaffinity 6.20528936
REMARK  9 active torsions:
REMARK  status: ('A' for Active; 'I' for Inactive)
REMARK    1  A    between atoms: C2_2  and  C3_3 
REMARK       I    between atoms: C3_3  and  N1_5 
REMARK    2  A    between atoms: C7_9  and  C8_10 
REMARK       I    between atoms: C8_10  and  N2_12 
REMARK    3  A    between atoms: N2_12  and  C9_13 
REMARK    4  A    between atoms: C12_16  and  N3_17 
REMARK    5  A    between atoms: N3_17  and  C13_18 
REMARK    6  A    between atoms: C22_33  and  O3_34 
REMARK    7  A    between atoms: O3_34  and  C23_35 
REMARK    8  A    between atoms: C23_35  and  C24_36 
REMARK    9  A    between atoms: C24_36  and  O4_37 
ROOT
HETATM    1  C9  UNL     1      11.280  50.511  -2.832  1.00  0.00     0.069 A 
HETATM    2  C10 UNL     1      11.259  51.905  -2.851  1.00  0.00     0.050 A 
HETATM    3  C11 UNL     1      12.445  52.658  -2.646  1.00  0.00     0.037 A 
HETATM    4  C12 UNL     1      12.523  54.067  -2.638  1.00  0.00     0.119 A 
HETATM    5  N4  UNL     1      13.693  54.713  -2.476  1.00  0.00    -0.338 N 
ATOM      6  H4  UNL     1      13.747  55.731  -2.490  1.00  0.00     0.168 HD
HETATM    7  C19 UNL     1      14.779  53.958  -2.296  1.00  0.00     0.182 A 
HETATM    8  N5  UNL     1      14.817  52.622  -2.266  1.00  0.00    -0.351 N 
ATOM      9  H5  UNL     1      15.689  52.114  -2.115  1.00  0.00     0.166 HD
HETATM   10  C20 UNL     1      13.657  51.986  -2.443  1.00  0.00     0.049 A 
HETATM   11  C21 UNL     1      13.665  50.597  -2.427  1.00  0.00     0.069 A 
HETATM   12  C22 UNL     1      12.499  49.850  -2.608  1.00  0.00     0.097 A 
ENDROOT
BRANCH   1  13
HETATM   13  N2  UNL     1      10.135  49.709  -3.033  1.00  0.00    -0.323 N 
HETATM   14  C8  UNL     1       9.563  49.304  -4.226  1.00  0.00     0.245 C 
HETATM   15  O2  UNL     1       9.964  49.613  -5.347  1.00  0.00    -0.271 OA
HETATM   16  H11 UNL     1       9.651  49.436  -2.170  1.00  0.00     0.169 HD
BRANCH  14  17
HETATM   17  C7  UNL     1       8.343  48.372  -4.019  1.00  0.00     0.180 C 
HETATM   18  N1  UNL     1       7.504  48.325  -5.222  1.00  0.00    -0.335 N 
HETATM   19  C3  UNL     1       6.553  49.289  -5.445  1.00  0.00     0.243 C 
HETATM   20  C4  UNL     1       7.602  47.027  -5.878  1.00  0.00     0.127 C 
HETATM   21  O1  UNL     1       6.413  50.264  -4.708  1.00  0.00    -0.268 OA
HETATM   22  C5  UNL     1       8.773  46.334  -5.201  1.00  0.00     0.022 C 
HETATM   23  C6  UNL     1       8.743  46.911  -3.792  1.00  0.00     0.037 C 
BRANCH  19  24
HETATM   24  C2  UNL     1       5.652  49.127  -6.607  1.00  0.00     0.064 C 
HETATM   25  C1  UNL     1       4.356  49.464  -6.550  1.00  0.00     0.017 C 
ENDBRANCH  19  24
ENDBRANCH  14  17
ENDBRANCH   1  13
BRANCH  12  26
HETATM   26  O3  UNL     1      12.436  48.481  -2.616  1.00  0.00    -0.347 OA
BRANCH  26  27
HETATM   27  C23 UNL     1      12.728  47.768  -1.415  1.00  0.00     0.201 C 
BRANCH  27  28
HETATM   28  C24 UNL     1      11.533  46.923  -0.976  1.00  0.00     0.193 C 
BRANCH  28  29
HETATM   29  O4  UNL     1      10.371  47.720  -0.752  1.00  0.00    -0.394 OA
HETATM   30  C25 UNL     1       9.350  47.027  -0.046  1.00  0.00     0.201 C 
ENDBRANCH  28  29
ENDBRANCH  27  28
ENDBRANCH  26  27
ENDBRANCH  12  26
BRANCH   4  31
HETATM   31  N3  UNL     1      11.336  54.825  -2.812  1.00  0.00    -0.339 N 
HETATM   32  H13 UNL     1      11.169  55.407  -1.992  1.00  0.00     0.167 HD
BRANCH  31  33
HETATM   33  C13 UNL     1      10.875  55.475  -3.982  1.00  0.00     0.074 A 
HETATM   34  C14 UNL     1      11.132  54.991  -5.270  1.00  0.00     0.033 A 
HETATM   35  C15 UNL     1      10.616  55.637  -6.399  1.00  0.00     0.004 A 
HETATM   36  C16 UNL     1       9.820  56.772  -6.255  1.00  0.00     0.027 A 
HETATM   37  C17 UNL     1       9.531  57.252  -4.979  1.00  0.00     0.074 A 
HETATM   38 CL1  UNL     1       8.539  58.649  -4.807  1.00  0.00    -0.081 Cl
HETATM   39  C18 UNL     1      10.046  56.602  -3.858  1.00  0.00     0.164 A 
HETATM   40  F1  UNL     1       9.767  57.060  -2.625  1.00  0.00    -0.202 F 
ENDBRANCH  31  33
ENDBRANCH   4  31
TORSDOF 9
ENDMDL
MODEL 9
REMARK minimizedAffinity -6.33590603
REMARK CNNscore 0.295608997
REMARK CNNaffinity 6.17828941
REMARK  9 active torsions:
REMARK  status: ('A' for Active; 'I' for Inactive)
REMARK    1  A    between atoms: C2_2  and  C3_3 
REMARK       I    between atoms: C3_3  and  N1_5 
REMARK    2  A    between atoms: C7_9  and  C8_10 
REMARK       I    between atoms: C8_10  and  N2_12 
REMARK    3  A    between atoms: N2_12  and  C9_13 
REMARK    4  A    between atoms: C12_16  and  N3_17 
REMARK    5  A    between atoms: N3_17  and  C13_18 
REMARK    6  A    between atoms: C22_33  and  O3_34 
REMARK    7  A    between atoms: O3_34  and  C23_35 
REMARK    8  A    between atoms: C23_35  and  C24_36 
REMARK    9  A    between atoms: C24_36  and  O4_37 
ROOT
HETATM    1  C9  UNL     1      12.988  58.957   1.499  1.00  0.00     0.069 A 
HETATM    2  C10 UNL     1      13.400  59.096   2.824  1.00  0.00     0.050 A 
HETATM    3  C11 UNL     1      13.774  57.966   3.598  1.00  0.00     0.037 A 
HETATM    4  C12 UNL     1      14.194  58.006   4.944  1.00  0.00     0.119 A 
HETATM    5  N4  UNL     1      14.571  56.894   5.603  1.00  0.00    -0.338 N 
ATOM      6  H4  UNL     1      14.892  56.930   6.570  1.00  0.00     0.168 HD
HETATM    7  C19 UNL     1      14.506  55.743   4.931  1.00  0.00     0.182 A 
HETATM    8  N5  UNL     1      14.105  55.588   3.665  1.00  0.00    -0.351 N 
ATOM      9  H5  UNL     1      14.075  54.670   3.221  1.00  0.00     0.166 HD
HETATM   10  C20 UNL     1      13.747  56.695   3.011  1.00  0.00     0.049 A 
HETATM   11  C21 UNL     1      13.336  56.569   1.691  1.00  0.00     0.069 A 
HETATM   12  C22 UNL     1      12.948  57.673   0.929  1.00  0.00     0.097 A 
ENDROOT
BRANCH   1  13
HETATM   13  N2  UNL     1      12.608  60.041   0.679  1.00  0.00    -0.323 N 
HETATM   14  C8  UNL     1      13.399  61.055   0.167  1.00  0.00     0.245 C 
HETATM   15  O2  UNL     1      14.603  61.190   0.375  1.00  0.00    -0.271 OA
HETATM   16  H11 UNL     1      11.601  60.095   0.484  1.00  0.00     0.169 HD
BRANCH  14  17
HETATM   17  C7  UNL     1      12.609  62.026  -0.746  1.00  0.00     0.180 C 
HETATM   18  N1  UNL     1      13.356  63.272  -0.962  1.00  0.00    -0.335 N 
HETATM   19  C3  UNL     1      13.284  64.294  -0.048  1.00  0.00     0.243 C 
HETATM   20  C4  UNL     1      13.840  63.359  -2.333  1.00  0.00     0.127 C 
HETATM   21  O1  UNL     1      12.672  64.191   1.013  1.00  0.00    -0.268 OA
HETATM   22  C5  UNL     1      13.621  61.972  -2.916  1.00  0.00     0.022 C 
HETATM   23  C6  UNL     1      12.396  61.475  -2.158  1.00  0.00     0.037 C 
BRANCH  19  24
HETATM   24  C2  UNL     1      13.955  65.572  -0.375  1.00  0.00     0.064 C 
HETATM   25  C1  UNL     1      14.934  66.072   0.392  1.00  0.00     0.017 C 
ENDBRANCH  19  24
ENDBRANCH  14  17
ENDBRANCH   1  13
BRANCH  12  26
HETATM   26  O3  UNL     1      12.543  57.622  -0.379  1.00  0.00    -0.347 OA
BRANCH  26  27
HETATM   27  C23 UNL     1      11.956  56.420  -0.876  1.00  0.00     0.201 C 
BRANCH  27  28
HETATM   28  C24 UNL     1      11.288  56.657  -2.230  1.00  0.00     0.193 C 
BRANCH  28  29
HETATM   29  O4  UNL     1      12.034  56.081  -3.301  1.00  0.00    -0.394 OA
HETATM   30  C25 UNL     1      12.035  54.660  -3.274  1.00  0.00     0.201 C 
ENDBRANCH  28  29
ENDBRANCH  27  28
ENDBRANCH  26  27
ENDBRANCH  12  26
BRANCH   4  31
HETATM   31  N3  UNL     1      14.225  59.252   5.621  1.00  0.00    -0.339 N 
HETATM   32  H13 UNL     1      14.801  59.916   5.106  1.00  0.00     0.167 HD
BRANCH  31  33
HETATM   33  C13 UNL     1      13.162  59.922   6.275  1.00  0.00     0.074 A 
HETATM   34  C14 UNL     1      12.457  60.979   5.686  1.00  0.00     0.033 A 
HETATM   35  C15 UNL     1      11.381  61.581   6.347  1.00  0.00     0.004 A 
HETATM   36  C16 UNL     1      10.983  61.125   7.602  1.00  0.00     0.027 A 
HETATM   37  C17 UNL     1      11.657  60.057   8.191  1.00  0.00     0.074 A 
HETATM   38 CL1  UNL     1      11.155  59.492   9.738  1.00  0.00    -0.081 Cl
HETATM   39  C18 UNL     1      12.727  59.458   7.527  1.00  0.00     0.164 A 
HETATM   40  F1  UNL     1      13.377  58.424   8.089  1.00  0.00    -0.202 F 
ENDBRANCH  31  33
ENDBRANCH   4  31
TORSDOF 9
ENDMDL
