MODEL 1
REMARK minimizedAffinity -9.94478226
REMARK CNNscore 0.358210564
REMARK CNNaffinity 8.02788067
REMARK  7 active torsions:
REMARK  status: ('A' for Active; 'I' for Inactive)
REMARK    1  A    between atoms: O1_2  and  C2_3 
REMARK    2  A    between atoms: C2_3  and  C3_4 
REMARK       I    between atoms: C3_4  and  N1_6 
REMARK    3  A    between atoms: C7_10  and  C8_11 
REMARK    4  A    between atoms: C13_18  and  C14_19 
REMARK       I    between atoms: C14_19  and  N3_21 
REMARK    5  A    between atoms: N3_21  and  C15_22 
REMARK    6  A    between atoms: C17_24  and  C18_25 
REMARK    7  A    between atoms: C24_37  and  N5_38 
ROOT
HETATM    1  C8  UNL     1      -3.929   4.857  13.235  1.00  0.00     0.094 A 
HETATM    2  N2  UNL     1      -4.902   5.611  13.718  1.00  0.00    -0.342 N 
ATOM      3  H2  UNL     1      -4.807   6.505  14.199  1.00  0.00     0.167 HD
HETATM    4  C9  UNL     1      -6.069   4.941  13.438  1.00  0.00     0.077 A 
HETATM    5  C10 UNL     1      -7.363   5.476  13.785  1.00  0.00     0.032 A 
HETATM    6  C11 UNL     1      -7.733   5.575  15.131  1.00  0.00     0.018 A 
HETATM    7  C12 UNL     1      -8.981   6.103  15.480  1.00  0.00     0.018 A 
HETATM    8  C13 UNL     1      -9.859   6.563  14.485  1.00  0.00     0.035 A 
HETATM    9  C21 UNL     1      -9.486   6.457  13.139  1.00  0.00     0.060 A 
HETATM   10  C22 UNL     1      -8.246   5.922  12.800  1.00  0.00     0.130 A 
HETATM   11  F4  UNL     1      -7.909   5.856  11.501  1.00  0.00    -0.205 F 
HETATM   12  C23 UNL     1      -5.807   3.733  12.832  1.00  0.00     0.106 A 
HETATM   13  C24 UNL     1      -6.589   2.616  12.356  1.00  0.00     0.107 A 
HETATM   14  N6  UNL     1      -5.994   1.601  11.772  1.00  0.00    -0.354 N 
ATOM     15  H6  UNL     1      -6.539   0.806  11.437  1.00  0.00     0.166 HD
HETATM   16  C25 UNL     1      -4.623   1.624  11.618  1.00  0.00     0.107 A 
HETATM   17  C26 UNL     1      -3.838   2.622  12.054  1.00  0.00     0.116 A 
HETATM   18  N7  UNL     1      -4.438   3.698  12.681  1.00  0.00    -0.305 N 
ENDROOT
BRANCH   1  19
HETATM   19  C7  UNL     1      -2.465   5.212  13.225  1.00  0.00     0.072 C 
HETATM   20  C6  UNL     1      -2.219   6.657  13.720  1.00  0.00     0.015 C 
HETATM   21  C5  UNL     1      -1.911   7.611  12.567  1.00  0.00     0.021 C 
HETATM   22  C4  UNL     1      -0.671   7.144  11.804  1.00  0.00     0.126 C 
HETATM   23  N1  UNL     1      -0.643   5.695  11.601  1.00  0.00    -0.350 N 
HETATM   24  C3  UNL     1       0.468   4.993  11.135  1.00  0.00     0.243 C 
HETATM   25  C27 UNL     1      -1.901   4.984  11.809  1.00  0.00     0.138 C 
HETATM   26  O2  UNL     1       0.458   3.767  11.022  1.00  0.00    -0.271 OA
BRANCH  24  27
HETATM   27  C2  UNL     1       1.713   5.832  10.766  1.00  0.00     0.269 C 
BRANCH  27  28
HETATM   28  O1  UNL     1       2.413   5.477   9.583  1.00  0.00    -0.387 OA
HETATM   29  C1  UNL     1       2.359   6.489   8.587  1.00  0.00     0.202 C 
ENDBRANCH  27  28
ENDBRANCH  24  27
ENDBRANCH   1  19
BRANCH  13  30
HETATM   30  N5  UNL     1      -7.944   2.519  12.489  1.00  0.00    -0.287 NA
HETATM   31  H20 UNL     1      -8.269   1.575  12.309  1.00  0.00     0.125 HD
HETATM   32  H21 UNL     1      -8.342   2.930  13.324  1.00  0.00     0.125 HD
ENDBRANCH  13  30
BRANCH   8  33
HETATM   33  C14 UNL     1     -11.194   7.158  14.797  1.00  0.00     0.257 C 
HETATM   34  O3  UNL     1     -11.231   8.274  15.308  1.00  0.00    -0.267 OA
HETATM   35  N3  UNL     1     -12.282   6.366  14.520  1.00  0.00    -0.309 N 
HETATM   36  H15 UNL     1     -12.159   5.405  14.234  1.00  0.00     0.170 HD
BRANCH  35  37
HETATM   37  C15 UNL     1     -13.635   6.668  14.684  1.00  0.00     0.108 A 
HETATM   38  C16 UNL     1     -14.593   6.561  13.686  1.00  0.00     0.064 A 
HETATM   39  C17 UNL     1     -15.924   6.888  13.981  1.00  0.00     0.052 A 
HETATM   40  C19 UNL     1     -16.237   7.319  15.271  1.00  0.00     0.033 A 
HETATM   41  C20 UNL     1     -15.218   7.398  16.204  1.00  0.00     0.090 A 
HETATM   42  N4  UNL     1     -13.935   7.076  15.936  1.00  0.00    -0.352 N 
ATOM     43  H4  UNL     1     -13.215   7.138  16.656  1.00  0.00     0.166 HD
BRANCH  39  44
HETATM   44  C18 UNL     1     -16.994   6.821  12.924  1.00  0.00     0.417 C 
HETATM   45  F1  UNL     1     -18.230   7.088  13.430  1.00  0.00    -0.166 F 
HETATM   46  F2  UNL     1     -17.084   5.586  12.354  1.00  0.00    -0.166 F 
HETATM   47  F3  UNL     1     -16.810   7.693  11.896  1.00  0.00    -0.166 F 
ENDBRANCH  39  44
ENDBRANCH  35  37
ENDBRANCH   8  33
TORSDOF 7
ENDMDL
MODEL 2
REMARK minimizedAffinity -9.05128384
REMARK CNNscore 0.16016522
REMARK CNNaffinity 5.97626066
REMARK  7 active torsions:
REMARK  status: ('A' for Active; 'I' for Inactive)
REMARK    1  A    between atoms: O1_2  and  C2_3 
REMARK    2  A    between atoms: C2_3  and  C3_4 
REMARK       I    between atoms: C3_4  and  N1_6 
REMARK    3  A    between atoms: C7_10  and  C8_11 
REMARK    4  A    between atoms: C13_18  and  C14_19 
REMARK       I    between atoms: C14_19  and  N3_21 
REMARK    5  A    between atoms: N3_21  and  C15_22 
REMARK    6  A    between atoms: C17_24  and  C18_25 
REMARK    7  A    between atoms: C24_37  and  N5_38 
ROOT
HETATM    1  C8  UNL     1     -11.111  -8.639  15.837  1.00  0.00     0.094 A 
HETATM    2  N2  UNL     1     -11.854  -7.598  16.172  1.00  0.00    -0.342 N 
ATOM      3  H2  UNL     1     -12.078  -7.280  17.115  1.00  0.00     0.167 HD
HETATM    4  C9  UNL     1     -12.263  -7.032  14.988  1.00  0.00     0.077 A 
HETATM    5  C10 UNL     1     -13.072  -5.838  14.948  1.00  0.00     0.032 A 
HETATM    6  C11 UNL     1     -14.399  -5.886  15.393  1.00  0.00     0.018 A 
HETATM    7  C12 UNL     1     -15.190  -4.732  15.369  1.00  0.00     0.018 A 
HETATM    8  C13 UNL     1     -14.651  -3.513  14.925  1.00  0.00     0.035 A 
HETATM    9  C21 UNL     1     -13.325  -3.472  14.476  1.00  0.00     0.060 A 
HETATM   10  C22 UNL     1     -12.547  -4.627  14.494  1.00  0.00     0.130 A 
HETATM   11  F4  UNL     1     -11.273  -4.548  14.079  1.00  0.00    -0.205 F 
HETATM   12  C23 UNL     1     -11.819  -7.769  13.914  1.00  0.00     0.106 A 
HETATM   13  C24 UNL     1     -11.954  -7.701  12.478  1.00  0.00     0.107 A 
HETATM   14  N6  UNL     1     -11.343  -8.582  11.719  1.00  0.00    -0.354 N 
ATOM     15  H6  UNL     1     -11.437  -8.545  10.704  1.00  0.00     0.166 HD
HETATM   16  C25 UNL     1     -10.571  -9.560  12.314  1.00  0.00     0.107 A 
HETATM   17  C26 UNL     1     -10.419  -9.688  13.641  1.00  0.00     0.116 A 
HETATM   18  N7  UNL     1     -11.060  -8.780  14.463  1.00  0.00    -0.305 N 
ENDROOT
BRANCH   1  19
HETATM   19  C7  UNL     1     -10.366  -9.532  16.794  1.00  0.00     0.072 C 
HETATM   20  C6  UNL     1     -10.991 -10.945  16.868  1.00  0.00     0.015 C 
HETATM   21  C5  UNL     1     -11.802 -11.146  18.148  1.00  0.00     0.021 C 
HETATM   22  C4  UNL     1     -10.915 -10.944  19.378  1.00  0.00     0.126 C 
HETATM   23  N1  UNL     1     -10.006  -9.806  19.240  1.00  0.00    -0.350 N 
HETATM   24  C3  UNL     1      -8.952  -9.539  20.113  1.00  0.00     0.243 C 
HETATM   25  C27 UNL     1     -10.310  -8.854  18.177  1.00  0.00     0.138 C 
HETATM   26  O2  UNL     1      -8.185  -8.592  19.931  1.00  0.00    -0.271 OA
BRANCH  24  27
HETATM   27  C2  UNL     1      -8.794 -10.491  21.321  1.00  0.00     0.269 C 
BRANCH  27  28
HETATM   28  O1  UNL     1      -7.477 -10.734  21.794  1.00  0.00    -0.387 OA
HETATM   29  C1  UNL     1      -7.446 -11.128  23.159  1.00  0.00     0.202 C 
ENDBRANCH  27  28
ENDBRANCH  24  27
ENDBRANCH   1  19
BRANCH  13  30
HETATM   30  N5  UNL     1     -12.713  -6.774  11.824  1.00  0.00    -0.287 NA
HETATM   31  H20 UNL     1     -12.866  -7.034  10.856  1.00  0.00     0.125 HD
HETATM   32  H21 UNL     1     -13.554  -6.470  12.298  1.00  0.00     0.125 HD
ENDBRANCH  13  30
BRANCH   8  33
HETATM   33  C14 UNL     1     -15.439  -2.243  14.898  1.00  0.00     0.257 C 
HETATM   34  O3  UNL     1     -16.223  -2.023  15.817  1.00  0.00    -0.267 OA
HETATM   35  N3  UNL     1     -15.246  -1.441  13.800  1.00  0.00    -0.309 N 
HETATM   36  H15 UNL     1     -14.691  -1.764  13.019  1.00  0.00     0.170 HD
BRANCH  35  37
HETATM   37  C15 UNL     1     -15.822  -0.200  13.523  1.00  0.00     0.108 A 
HETATM   38  C16 UNL     1     -15.597   0.955  14.259  1.00  0.00     0.064 A 
HETATM   39  C17 UNL     1     -16.232   2.144  13.872  1.00  0.00     0.052 A 
HETATM   40  C19 UNL     1     -17.078   2.120  12.762  1.00  0.00     0.033 A 
HETATM   41  C20 UNL     1     -17.246   0.922  12.088  1.00  0.00     0.090 A 
HETATM   42  N4  UNL     1     -16.632  -0.226  12.443  1.00  0.00    -0.352 N 
ATOM     43  H4  UNL     1     -16.776  -1.085  11.913  1.00  0.00     0.166 HD
BRANCH  39  44
HETATM   44  C18 UNL     1     -16.047   3.415  14.657  1.00  0.00     0.417 C 
HETATM   45  F1  UNL     1     -16.345   3.249  15.976  1.00  0.00    -0.166 F 
HETATM   46  F2  UNL     1     -16.856   4.419  14.216  1.00  0.00    -0.166 F 
HETATM   47  F3  UNL     1     -14.781   3.910  14.614  1.00  0.00    -0.166 F 
ENDBRANCH  39  44
ENDBRANCH  35  37
ENDBRANCH   8  33
TORSDOF 7
ENDMDL
MODEL 3
REMARK minimizedAffinity -9.28380108
REMARK CNNscore 0.104221173
REMARK CNNaffinity 6.67133474
REMARK  7 active torsions:
REMARK  status: ('A' for Active; 'I' for Inactive)
REMARK    1  A    between atoms: O1_2  and  C2_3 
REMARK    2  A    between atoms: C2_3  and  C3_4 
REMARK       I    between atoms: C3_4  and  N1_6 
REMARK    3  A    between atoms: C7_10  and  C8_11 
REMARK    4  A    between atoms: C13_18  and  C14_19 
REMARK       I    between atoms: C14_19  and  N3_21 
REMARK    5  A    between atoms: N3_21  and  C15_22 
REMARK    6  A    between atoms: C17_24  and  C18_25 
REMARK    7  A    between atoms: C24_37  and  N5_38 
ROOT
HETATM    1  C8  UNL     1     -11.690   9.987  18.740  1.00  0.00     0.094 A 
HETATM    2  N2  UNL     1     -11.008   8.998  18.188  1.00  0.00    -0.342 N 
ATOM      3  H2  UNL     1     -10.652   8.163  18.652  1.00  0.00     0.167 HD
HETATM    4  C9  UNL     1     -10.878   9.327  16.859  1.00  0.00     0.077 A 
HETATM    5  C10 UNL     1     -10.215   8.461  15.916  1.00  0.00     0.032 A 
HETATM    6  C11 UNL     1      -8.832   8.264  16.010  1.00  0.00     0.018 A 
HETATM    7  C12 UNL     1      -8.179   7.417  15.107  1.00  0.00     0.018 A 
HETATM    8  C13 UNL     1      -8.910   6.738  14.119  1.00  0.00     0.035 A 
HETATM    9  C21 UNL     1     -10.293   6.943  14.025  1.00  0.00     0.060 A 
HETATM   10  C22 UNL     1     -10.933   7.794  14.921  1.00  0.00     0.130 A 
HETATM   11  F4  UNL     1     -12.263   7.950  14.819  1.00  0.00    -0.205 F 
HETATM   12  C23 UNL     1     -11.432  10.562  16.605  1.00  0.00     0.106 A 
HETATM   13  C24 UNL     1     -11.565  11.425  15.455  1.00  0.00     0.107 A 
HETATM   14  N6  UNL     1     -12.210  12.565  15.562  1.00  0.00    -0.354 N 
ATOM     15  H6  UNL     1     -12.304  13.183  14.756  1.00  0.00     0.166 HD
HETATM   16  C25 UNL     1     -12.759  12.913  16.780  1.00  0.00     0.107 A 
HETATM   17  C26 UNL     1     -12.656  12.165  17.888  1.00  0.00     0.116 A 
HETATM   18  N7  UNL     1     -11.973  10.966  17.806  1.00  0.00    -0.305 N 
ENDROOT
BRANCH   1  19
HETATM   19  C7  UNL     1     -12.156  10.042  20.171  1.00  0.00     0.072 C 
HETATM   20  C6  UNL     1     -12.754  11.423  20.529  1.00  0.00     0.015 C 
HETATM   21  C5  UNL     1     -11.792  12.262  21.369  1.00  0.00     0.021 C 
HETATM   22  C4  UNL     1     -11.444  11.534  22.669  1.00  0.00     0.126 C 
HETATM   23  N1  UNL     1     -11.210  10.103  22.471  1.00  0.00    -0.350 N 
HETATM   24  C3  UNL     1     -11.095   9.181  23.510  1.00  0.00     0.243 C 
HETATM   25  C27 UNL     1     -10.984   9.664  21.097  1.00  0.00     0.138 C 
HETATM   26  O2  UNL     1     -10.942   7.978  23.293  1.00  0.00    -0.271 OA
BRANCH  24  27
HETATM   27  C2  UNL     1     -11.169   9.743  24.948  1.00  0.00     0.269 C 
BRANCH  27  28
HETATM   28  O1  UNL     1     -12.450   9.816  25.556  1.00  0.00    -0.387 OA
HETATM   29  C1  UNL     1     -13.368   8.871  25.022  1.00  0.00     0.202 C 
ENDBRANCH  27  28
ENDBRANCH  24  27
ENDBRANCH   1  19
BRANCH  13  30
HETATM   30  N5  UNL     1     -11.034  11.152  14.228  1.00  0.00    -0.287 NA
HETATM   31  H20 UNL     1     -11.032  11.973  13.632  1.00  0.00     0.125 HD
HETATM   32  H21 UNL     1     -10.156  10.647  14.222  1.00  0.00     0.125 HD
ENDBRANCH  13  30
BRANCH   8  33
HETATM   33  C14 UNL     1      -8.272   5.804  13.142  1.00  0.00     0.257 C 
HETATM   34  O3  UNL     1      -8.731   5.746  12.005  1.00  0.00    -0.267 OA
HETATM   35  N3  UNL     1      -7.237   5.042  13.629  1.00  0.00    -0.309 N 
HETATM   36  H15 UNL     1      -7.016   5.046  14.615  1.00  0.00     0.170 HD
BRANCH  35  37
HETATM   37  C15 UNL     1      -6.451   4.114  12.945  1.00  0.00     0.108 A 
HETATM   38  C16 UNL     1      -5.092   4.258  12.704  1.00  0.00     0.064 A 
HETATM   39  C17 UNL     1      -4.412   3.247  12.010  1.00  0.00     0.052 A 
HETATM   40  C19 UNL     1      -5.132   2.132  11.577  1.00  0.00     0.033 A 
HETATM   41  C20 UNL     1      -6.485   2.073  11.860  1.00  0.00     0.090 A 
HETATM   42  N4  UNL     1      -7.150   3.033  12.536  1.00  0.00    -0.352 N 
ATOM     43  H4  UNL     1      -8.147   2.945  12.732  1.00  0.00     0.166 HD
BRANCH  39  44
HETATM   44  C18 UNL     1      -2.945   3.372  11.694  1.00  0.00     0.417 C 
HETATM   45  F1  UNL     1      -2.329   2.158  11.641  1.00  0.00    -0.166 F 
HETATM   46  F2  UNL     1      -2.271   4.091  12.636  1.00  0.00    -0.166 F 
HETATM   47  F3  UNL     1      -2.686   3.980  10.505  1.00  0.00    -0.166 F 
ENDBRANCH  39  44
ENDBRANCH  35  37
ENDBRANCH   8  33
TORSDOF 7
ENDMDL
MODEL 4
REMARK minimizedAffinity -8.23554134
REMARK CNNscore 0.0694913417
REMARK CNNaffinity 5.48785067
REMARK  7 active torsions:
REMARK  status: ('A' for Active; 'I' for Inactive)
REMARK    1  A    between atoms: O1_2  and  C2_3 
REMARK    2  A    between atoms: C2_3  and  C3_4 
REMARK       I    between atoms: C3_4  and  N1_6 
REMARK    3  A    between atoms: C7_10  and  C8_11 
REMARK    4  A    between atoms: C13_18  and  C14_19 
REMARK       I    between atoms: C14_19  and  N3_21 
REMARK    5  A    between atoms: N3_21  and  C15_22 
REMARK    6  A    between atoms: C17_24  and  C18_25 
REMARK    7  A    between atoms: C24_37  and  N5_38 
ROOT
HETATM    1  C8  UNL     1      -6.628  -9.878   1.550  1.00  0.00     0.094 A 
HETATM    2  N2  UNL     1      -6.963  -8.824   0.825  1.00  0.00    -0.342 N 
ATOM      3  H2  UNL     1      -6.787  -7.845   1.046  1.00  0.00     0.167 HD
HETATM    4  C9  UNL     1      -7.598  -9.322  -0.289  1.00  0.00     0.077 A 
HETATM    5  C10 UNL     1      -8.082  -8.464  -1.342  1.00  0.00     0.032 A 
HETATM    6  C11 UNL     1      -9.163  -7.609  -1.098  1.00  0.00     0.018 A 
HETATM    7  C12 UNL     1      -9.635  -6.764  -2.109  1.00  0.00     0.018 A 
HETATM    8  C13 UNL     1      -9.010  -6.748  -3.366  1.00  0.00     0.035 A 
HETATM    9  C21 UNL     1      -7.932  -7.610  -3.608  1.00  0.00     0.060 A 
HETATM   10  C22 UNL     1      -7.475  -8.454  -2.599  1.00  0.00     0.130 A 
HETATM   11  F4  UNL     1      -6.424  -9.250  -2.856  1.00  0.00    -0.205 F 
HETATM   12  C23 UNL     1      -7.710 -10.691  -0.216  1.00  0.00     0.106 A 
HETATM   13  C24 UNL     1      -8.290 -11.732  -1.033  1.00  0.00     0.107 A 
HETATM   14  N6  UNL     1      -8.179 -12.990  -0.669  1.00  0.00    -0.354 N 
ATOM     15  H6  UNL     1      -8.590 -13.731  -1.238  1.00  0.00     0.166 HD
HETATM   16  C25 UNL     1      -7.498 -13.295   0.492  1.00  0.00     0.107 A 
HETATM   17  C26 UNL     1      -6.952 -12.375   1.302  1.00  0.00     0.116 A 
HETATM   18  N7  UNL     1      -7.065 -11.043   0.948  1.00  0.00    -0.305 N 
ENDROOT
BRANCH   1  19
HETATM   19  C7  UNL     1      -5.834  -9.848   2.829  1.00  0.00     0.072 C 
HETATM   20  C6  UNL     1      -4.316  -9.716   2.562  1.00  0.00     0.015 C 
HETATM   21  C5  UNL     1      -3.583 -11.042   2.763  1.00  0.00     0.021 C 
HETATM   22  C4  UNL     1      -3.779 -11.549   4.192  1.00  0.00     0.126 C 
HETATM   23  N1  UNL     1      -5.151 -11.374   4.672  1.00  0.00    -0.350 N 
HETATM   24  C3  UNL     1      -5.542 -11.548   5.999  1.00  0.00     0.243 C 
HETATM   25  C27 UNL     1      -6.166 -11.105   3.658  1.00  0.00     0.138 C 
HETATM   26  O2  UNL     1      -6.701 -11.346   6.363  1.00  0.00    -0.271 OA
BRANCH  24  27
HETATM   27  C2  UNL     1      -4.447 -12.006   6.990  1.00  0.00     0.269 C 
BRANCH  27  28
HETATM   28  O1  UNL     1      -4.092 -11.108   8.031  1.00  0.00    -0.387 OA
HETATM   29  C1  UNL     1      -3.703  -9.829   7.548  1.00  0.00     0.202 C 
ENDBRANCH  27  28
ENDBRANCH  24  27
ENDBRANCH   1  19
BRANCH  13  30
HETATM   30  N5  UNL     1      -8.990 -11.502  -2.182  1.00  0.00    -0.287 NA
HETATM   31  H20 UNL     1      -9.507 -12.325  -2.474  1.00  0.00     0.125 HD
HETATM   32  H21 UNL     1      -9.537 -10.651  -2.211  1.00  0.00     0.125 HD
ENDBRANCH  13  30
BRANCH   8  33
HETATM   33  C14 UNL     1      -9.453  -5.852  -4.478  1.00  0.00     0.257 C 
HETATM   34  O3  UNL     1      -9.651  -6.347  -5.583  1.00  0.00    -0.267 OA
HETATM   35  N3  UNL     1      -9.555  -4.517  -4.166  1.00  0.00    -0.309 N 
HETATM   36  H15 UNL     1      -9.235  -4.172  -3.272  1.00  0.00     0.170 HD
BRANCH  35  37
HETATM   37  C15 UNL     1      -9.964  -3.467  -4.990  1.00  0.00     0.108 A 
HETATM   38  C16 UNL     1      -9.250  -2.293  -5.182  1.00  0.00     0.064 A 
HETATM   39  C17 UNL     1      -9.766  -1.314  -6.044  1.00  0.00     0.052 A 
HETATM   40  C19 UNL     1     -10.989  -1.555  -6.672  1.00  0.00     0.033 A 
HETATM   41  C20 UNL     1     -11.633  -2.753  -6.421  1.00  0.00     0.090 A 
HETATM   42  N4  UNL     1     -11.143  -3.708  -5.603  1.00  0.00    -0.352 N 
ATOM     43  H4  UNL     1     -11.645  -4.582  -5.453  1.00  0.00     0.166 HD
BRANCH  39  44
HETATM   44  C18 UNL     1      -9.046  -0.010  -6.259  1.00  0.00     0.417 C 
HETATM   45  F1  UNL     1      -9.504   0.970  -5.430  1.00  0.00    -0.166 F 
HETATM   46  F2  UNL     1      -9.207   0.468  -7.526  1.00  0.00    -0.166 F 
HETATM   47  F3  UNL     1      -7.703  -0.080  -6.056  1.00  0.00    -0.166 F 
ENDBRANCH  39  44
ENDBRANCH  35  37
ENDBRANCH   8  33
TORSDOF 7
ENDMDL
MODEL 5
REMARK minimizedAffinity -9.93196201
REMARK CNNscore 0.0540780649
REMARK CNNaffinity 6.63053465
REMARK  7 active torsions:
REMARK  status: ('A' for Active; 'I' for Inactive)
REMARK    1  A    between atoms: O1_2  and  C2_3 
REMARK    2  A    between atoms: C2_3  and  C3_4 
REMARK       I    between atoms: C3_4  and  N1_6 
REMARK    3  A    between atoms: C7_10  and  C8_11 
REMARK    4  A    between atoms: C13_18  and  C14_19 
REMARK       I    between atoms: C14_19  and  N3_21 
REMARK    5  A    between atoms: N3_21  and  C15_22 
REMARK    6  A    between atoms: C17_24  and  C18_25 
REMARK    7  A    between atoms: C24_37  and  N5_38 
ROOT
HETATM    1  C8  UNL     1      -4.792   5.018  13.288  1.00  0.00     0.094 A 
HETATM    2  N2  UNL     1      -3.851   5.932  13.448  1.00  0.00    -0.342 N 
ATOM      3  H2  UNL     1      -3.936   6.825  13.934  1.00  0.00     0.167 HD
HETATM    4  C9  UNL     1      -2.732   5.432  12.825  1.00  0.00     0.077 A 
HETATM    5  C10 UNL     1      -1.476   6.140  12.819  1.00  0.00     0.032 A 
HETATM    6  C11 UNL     1      -1.356   7.332  12.094  1.00  0.00     0.018 A 
HETATM    7  C12 UNL     1      -0.146   8.034  12.090  1.00  0.00     0.018 A 
HETATM    8  C13 UNL     1       0.948   7.563  12.834  1.00  0.00     0.035 A 
HETATM    9  C21 UNL     1       0.825   6.367  13.554  1.00  0.00     0.060 A 
HETATM   10  C22 UNL     1      -0.380   5.670  13.545  1.00  0.00     0.130 A 
HETATM   11  F4  UNL     1      -0.472   4.540  14.265  1.00  0.00    -0.205 F 
HETATM   12  C23 UNL     1      -3.007   4.226  12.222  1.00  0.00     0.106 A 
HETATM   13  C24 UNL     1      -2.277   3.274  11.417  1.00  0.00     0.107 A 
HETATM   14  N6  UNL     1      -2.859   2.164  11.023  1.00  0.00    -0.354 N 
ATOM     15  H6  UNL     1      -2.352   1.489  10.450  1.00  0.00     0.166 HD
HETATM   16  C25 UNL     1      -4.166   1.924  11.396  1.00  0.00     0.107 A 
HETATM   17  C26 UNL     1      -4.905   2.773  12.126  1.00  0.00     0.116 A 
HETATM   18  N7  UNL     1      -4.318   3.954  12.544  1.00  0.00    -0.305 N 
ENDROOT
BRANCH   1  19
HETATM   19  C7  UNL     1      -6.181   5.075  13.870  1.00  0.00     0.072 C 
HETATM   20  C6  UNL     1      -7.161   4.149  13.112  1.00  0.00     0.015 C 
HETATM   21  C5  UNL     1      -8.092   4.934  12.190  1.00  0.00     0.021 C 
HETATM   22  C4  UNL     1      -8.908   5.948  12.993  1.00  0.00     0.126 C 
HETATM   23  N1  UNL     1      -8.114   6.635  14.013  1.00  0.00    -0.350 N 
HETATM   24  C3  UNL     1      -8.656   7.437  15.016  1.00  0.00     0.243 C 
HETATM   25  C27 UNL     1      -6.663   6.539  13.882  1.00  0.00     0.138 C 
HETATM   26  O2  UNL     1      -7.949   7.959  15.879  1.00  0.00    -0.271 OA
BRANCH  24  27
HETATM   27  C2  UNL     1     -10.188   7.638  14.990  1.00  0.00     0.269 C 
BRANCH  27  28
HETATM   28  O1  UNL     1     -10.920   6.957  13.981  1.00  0.00    -0.387 OA
HETATM   29  C1  UNL     1     -12.258   6.671  14.369  1.00  0.00     0.202 C 
ENDBRANCH  27  28
ENDBRANCH  24  27
ENDBRANCH   1  19
BRANCH  13  30
HETATM   30  N5  UNL     1      -0.990   3.455  10.999  1.00  0.00    -0.287 NA
HETATM   31  H20 UNL     1      -0.743   2.802  10.263  1.00  0.00     0.125 HD
HETATM   32  H21 UNL     1      -0.713   4.408  10.801  1.00  0.00     0.125 HD
ENDBRANCH  13  30
BRANCH   8  33
HETATM   33  C14 UNL     1       2.258   8.281  12.887  1.00  0.00     0.257 C 
HETATM   34  O3  UNL     1       2.252   9.494  13.078  1.00  0.00    -0.267 OA
HETATM   35  N3  UNL     1       3.373   7.509  12.668  1.00  0.00    -0.309 N 
HETATM   36  H15 UNL     1       3.282   6.546  12.376  1.00  0.00     0.170 HD
BRANCH  35  37
HETATM   37  C15 UNL     1       4.713   7.902  12.682  1.00  0.00     0.108 A 
HETATM   38  C16 UNL     1       5.226   8.975  11.967  1.00  0.00     0.064 A 
HETATM   39  C17 UNL     1       6.593   9.273  12.072  1.00  0.00     0.052 A 
HETATM   40  C19 UNL     1       7.391   8.470  12.889  1.00  0.00     0.033 A 
HETATM   41  C20 UNL     1       6.794   7.419  13.564  1.00  0.00     0.090 A 
HETATM   42  N4  UNL     1       5.479   7.128  13.480  1.00  0.00    -0.352 N 
ATOM     43  H4  UNL     1       5.077   6.350  14.002  1.00  0.00     0.166 HD
BRANCH  39  44
HETATM   44  C18 UNL     1       7.204  10.405  11.291  1.00  0.00     0.417 C 
HETATM   45  F1  UNL     1       7.367  10.089   9.976  1.00  0.00    -0.166 F 
HETATM   46  F2  UNL     1       8.443  10.742  11.751  1.00  0.00    -0.166 F 
HETATM   47  F3  UNL     1       6.473  11.552  11.317  1.00  0.00    -0.166 F 
ENDBRANCH  39  44
ENDBRANCH  35  37
ENDBRANCH   8  33
TORSDOF 7
ENDMDL
MODEL 6
REMARK minimizedAffinity -10.022892
REMARK CNNscore 0.0495521352
REMARK CNNaffinity 6.95968056
REMARK  7 active torsions:
REMARK  status: ('A' for Active; 'I' for Inactive)
REMARK    1  A    between atoms: O1_2  and  C2_3 
REMARK    2  A    between atoms: C2_3  and  C3_4 
REMARK       I    between atoms: C3_4  and  N1_6 
REMARK    3  A    between atoms: C7_10  and  C8_11 
REMARK    4  A    between atoms: C13_18  and  C14_19 
REMARK       I    between atoms: C14_19  and  N3_21 
REMARK    5  A    between atoms: N3_21  and  C15_22 
REMARK    6  A    between atoms: C17_24  and  C18_25 
REMARK    7  A    between atoms: C24_37  and  N5_38 
ROOT
HETATM    1  C8  UNL     1      -5.593   6.694  13.581  1.00  0.00     0.094 A 
HETATM    2  N2  UNL     1      -4.405   7.272  13.625  1.00  0.00    -0.342 N 
ATOM      3  H2  UNL     1      -4.198   8.231  13.905  1.00  0.00     0.167 HD
HETATM    4  C9  UNL     1      -3.507   6.316  13.217  1.00  0.00     0.077 A 
HETATM    5  C10 UNL     1      -2.087   6.567  13.169  1.00  0.00     0.032 A 
HETATM    6  C11 UNL     1      -1.574   7.463  12.224  1.00  0.00     0.018 A 
HETATM    7  C12 UNL     1      -0.200   7.724  12.175  1.00  0.00     0.018 A 
HETATM    8  C13 UNL     1       0.670   7.111  13.091  1.00  0.00     0.035 A 
HETATM    9  C21 UNL     1       0.152   6.210  14.032  1.00  0.00     0.060 A 
HETATM   10  C22 UNL     1      -1.215   5.950  14.068  1.00  0.00     0.130 A 
HETATM   11  F4  UNL     1      -1.681   5.100  14.997  1.00  0.00    -0.205 F 
HETATM   12  C23 UNL     1      -4.156   5.156  12.858  1.00  0.00     0.106 A 
HETATM   13  C24 UNL     1      -3.770   3.867  12.335  1.00  0.00     0.107 A 
HETATM   14  N6  UNL     1      -4.680   2.941  12.134  1.00  0.00    -0.354 N 
ATOM     15  H6  UNL     1      -4.417   2.029  11.760  1.00  0.00     0.166 HD
HETATM   16  C25 UNL     1      -5.998   3.219  12.437  1.00  0.00     0.107 A 
HETATM   17  C26 UNL     1      -6.424   4.401  12.909  1.00  0.00     0.116 A 
HETATM   18  N7  UNL     1      -5.487   5.396  13.119  1.00  0.00    -0.305 N 
ENDROOT
BRANCH   1  19
HETATM   19  C7  UNL     1      -6.892   7.319  14.019  1.00  0.00     0.072 C 
HETATM   20  C6  UNL     1      -6.889   7.654  15.529  1.00  0.00     0.015 C 
HETATM   21  C5  UNL     1      -7.714   6.653  16.338  1.00  0.00     0.021 C 
HETATM   22  C4  UNL     1      -9.163   6.637  15.849  1.00  0.00     0.126 C 
HETATM   23  N1  UNL     1      -9.269   6.686  14.390  1.00  0.00    -0.350 N 
HETATM   24  C3  UNL     1     -10.462   6.902  13.701  1.00  0.00     0.243 C 
HETATM   25  C27 UNL     1      -8.055   6.382  13.638  1.00  0.00     0.138 C 
HETATM   26  O2  UNL     1     -10.494   6.978  12.472  1.00  0.00    -0.271 OA
BRANCH  24  27
HETATM   27  C2  UNL     1     -11.742   7.040  14.557  1.00  0.00     0.269 C 
BRANCH  27  28
HETATM   28  O1  UNL     1     -12.754   6.060  14.382  1.00  0.00    -0.387 OA
HETATM   29  C1  UNL     1     -13.889   6.559  13.687  1.00  0.00     0.202 C 
ENDBRANCH  27  28
ENDBRANCH  24  27
ENDBRANCH   1  19
BRANCH  13  30
HETATM   30  N5  UNL     1      -2.490   3.530  11.998  1.00  0.00    -0.287 NA
HETATM   31  H20 UNL     1      -2.464   2.684  11.439  1.00  0.00     0.125 HD
HETATM   32  H21 UNL     1      -1.913   4.275  11.630  1.00  0.00     0.125 HD
ENDBRANCH  13  30
BRANCH   8  33
HETATM   33  C14 UNL     1       2.142   7.367  13.103  1.00  0.00     0.257 C 
HETATM   34  O3  UNL     1       2.667   7.703  14.161  1.00  0.00    -0.267 OA
HETATM   35  N3  UNL     1       2.781   7.247  11.893  1.00  0.00    -0.309 N 
HETATM   36  H15 UNL     1       2.252   7.107  11.044  1.00  0.00     0.170 HD
BRANCH  35  37
HETATM   37  C15 UNL     1       4.140   7.403  11.614  1.00  0.00     0.108 A 
HETATM   38  C16 UNL     1       4.785   8.626  11.497  1.00  0.00     0.064 A 
HETATM   39  C17 UNL     1       6.160   8.648  11.221  1.00  0.00     0.052 A 
HETATM   40  C19 UNL     1       6.830   7.434  11.065  1.00  0.00     0.033 A 
HETATM   41  C20 UNL     1       6.107   6.261  11.198  1.00  0.00     0.090 A 
HETATM   42  N4  UNL     1       4.786   6.225  11.473  1.00  0.00    -0.352 N 
ATOM     43  H4  UNL     1       4.293   5.338  11.573  1.00  0.00     0.166 HD
BRANCH  39  44
HETATM   44  C18 UNL     1       6.898   9.949  11.050  1.00  0.00     0.417 C 
HETATM   45  F1  UNL     1       7.921  10.076  11.940  1.00  0.00    -0.166 F 
HETATM   46  F2  UNL     1       6.094  11.032  11.249  1.00  0.00    -0.166 F 
HETATM   47  F3  UNL     1       7.446  10.115   9.816  1.00  0.00    -0.166 F 
ENDBRANCH  39  44
ENDBRANCH  35  37
ENDBRANCH   8  33
TORSDOF 7
ENDMDL
MODEL 7
REMARK minimizedAffinity -9.22027969
REMARK CNNscore 0.0461588651
REMARK CNNaffinity 6.82932234
REMARK  7 active torsions:
REMARK  status: ('A' for Active; 'I' for Inactive)
REMARK    1  A    between atoms: O1_2  and  C2_3 
REMARK    2  A    between atoms: C2_3  and  C3_4 
REMARK       I    between atoms: C3_4  and  N1_6 
REMARK    3  A    between atoms: C7_10  and  C8_11 
REMARK    4  A    between atoms: C13_18  and  C14_19 
REMARK       I    between atoms: C14_19  and  N3_21 
REMARK    5  A    between atoms: N3_21  and  C15_22 
REMARK    6  A    between atoms: C17_24  and  C18_25 
REMARK    7  A    between atoms: C24_37  and  N5_38 
ROOT
HETATM    1  C8  UNL     1      -8.000   6.607  14.235  1.00  0.00     0.094 A 
HETATM    2  N2  UNL     1      -6.951   7.408  14.314  1.00  0.00    -0.342 N 
ATOM      3  H2  UNL     1      -6.935   8.368  14.658  1.00  0.00     0.167 HD
HETATM    4  C9  UNL     1      -5.887   6.680  13.837  1.00  0.00     0.077 A 
HETATM    5  C10 UNL     1      -4.547   7.215  13.800  1.00  0.00     0.032 A 
HETATM    6  C11 UNL     1      -4.242   8.257  12.917  1.00  0.00     0.018 A 
HETATM    7  C12 UNL     1      -2.949   8.791  12.879  1.00  0.00     0.018 A 
HETATM    8  C13 UNL     1      -1.957   8.305  13.747  1.00  0.00     0.035 A 
HETATM    9  C21 UNL     1      -2.267   7.258  14.625  1.00  0.00     0.060 A 
HETATM   10  C22 UNL     1      -3.553   6.726  14.649  1.00  0.00     0.130 A 
HETATM   11  F4  UNL     1      -3.823   5.740  15.520  1.00  0.00    -0.205 F 
HETATM   12  C23 UNL     1      -6.298   5.441  13.402  1.00  0.00     0.106 A 
HETATM   13  C24 UNL     1      -5.671   4.293  12.789  1.00  0.00     0.107 A 
HETATM   14  N6  UNL     1      -6.381   3.219  12.529  1.00  0.00    -0.354 N 
ATOM     15  H6  UNL     1      -5.947   2.406  12.091  1.00  0.00     0.166 HD
HETATM   16  C25 UNL     1      -7.722   3.206  12.856  1.00  0.00     0.107 A 
HETATM   17  C26 UNL     1      -8.367   4.243  13.410  1.00  0.00     0.116 A 
HETATM   18  N7  UNL     1      -7.645   5.390  13.684  1.00  0.00    -0.305 N 
ENDROOT
BRANCH   1  19
HETATM   19  C7  UNL     1      -9.389   6.927  14.721  1.00  0.00     0.072 C 
HETATM   20  C6  UNL     1     -10.460   6.614  13.650  1.00  0.00     0.015 C 
HETATM   21  C5  UNL     1     -10.981   7.882  12.974  1.00  0.00     0.021 C 
HETATM   22  C4  UNL     1     -11.594   8.826  14.010  1.00  0.00     0.126 C 
HETATM   23  N1  UNL     1     -10.807   8.905  15.241  1.00  0.00    -0.350 N 
HETATM   24  C3  UNL     1     -11.251   9.514  16.413  1.00  0.00     0.243 C 
HETATM   25  C27 UNL     1      -9.438   8.400  15.172  1.00  0.00     0.138 C 
HETATM   26  O2  UNL     1     -10.568   9.517  17.439  1.00  0.00    -0.271 OA
BRANCH  24  27
HETATM   27  C2  UNL     1     -12.642  10.184  16.362  1.00  0.00     0.269 C 
BRANCH  27  28
HETATM   28  O1  UNL     1     -12.933  11.163  17.350  1.00  0.00    -0.387 OA
HETATM   29  C1  UNL     1     -12.930  12.486  16.832  1.00  0.00     0.202 C 
ENDBRANCH  27  28
ENDBRANCH  24  27
ENDBRANCH   1  19
BRANCH  13  30
HETATM   30  N5  UNL     1      -4.356   4.243  12.423  1.00  0.00    -0.287 NA
HETATM   31  H20 UNL     1      -4.171   3.460  11.807  1.00  0.00     0.125 HD
HETATM   32  H21 UNL     1      -3.947   5.112  12.105  1.00  0.00     0.125 HD
ENDBRANCH  13  30
BRANCH   8  33
HETATM   33  C14 UNL     1      -0.566   8.851  13.770  1.00  0.00     0.257 C 
HETATM   34  O3  UNL     1      -0.251   9.608  14.684  1.00  0.00    -0.267 OA
HETATM   35  N3  UNL     1       0.239   8.485  12.718  1.00  0.00    -0.309 N 
HETATM   36  H15 UNL     1      -0.142   7.975  11.933  1.00  0.00     0.170 HD
BRANCH  35  37
HETATM   37  C15 UNL     1       1.575   8.821  12.495  1.00  0.00     0.108 A 
HETATM   38  C16 UNL     1       2.402   8.192  11.574  1.00  0.00     0.064 A 
HETATM   39  C17 UNL     1       3.727   8.629  11.438  1.00  0.00     0.052 A 
HETATM   40  C19 UNL     1       4.171   9.680  12.244  1.00  0.00     0.033 A 
HETATM   41  C20 UNL     1       3.277  10.248  13.136  1.00  0.00     0.090 A 
HETATM   42  N4  UNL     1       1.997   9.843  13.269  1.00  0.00    -0.352 N 
ATOM     43  H4  UNL     1       1.368  10.296  13.932  1.00  0.00     0.166 HD
BRANCH  39  44
HETATM   44  C18 UNL     1       4.674   7.958  10.479  1.00  0.00     0.417 C 
HETATM   45  F1  UNL     1       5.878   8.593  10.421  1.00  0.00    -0.166 F 
HETATM   46  F2  UNL     1       4.196   7.947   9.202  1.00  0.00    -0.166 F 
HETATM   47  F3  UNL     1       4.944   6.661  10.787  1.00  0.00    -0.166 F 
ENDBRANCH  39  44
ENDBRANCH  35  37
ENDBRANCH   8  33
TORSDOF 7
ENDMDL
MODEL 8
REMARK minimizedAffinity -9.42228317
REMARK CNNscore 0.0394010767
REMARK CNNaffinity 6.32173347
REMARK  7 active torsions:
REMARK  status: ('A' for Active; 'I' for Inactive)
REMARK    1  A    between atoms: O1_2  and  C2_3 
REMARK    2  A    between atoms: C2_3  and  C3_4 
REMARK       I    between atoms: C3_4  and  N1_6 
REMARK    3  A    between atoms: C7_10  and  C8_11 
REMARK    4  A    between atoms: C13_18  and  C14_19 
REMARK       I    between atoms: C14_19  and  N3_21 
REMARK    5  A    between atoms: N3_21  and  C15_22 
REMARK    6  A    between atoms: C17_24  and  C18_25 
REMARK    7  A    between atoms: C24_37  and  N5_38 
ROOT
HETATM    1  C8  UNL     1       3.837   9.093  13.198  1.00  0.00     0.094 A 
HETATM    2  N2  UNL     1       2.655   8.501  13.229  1.00  0.00    -0.342 N 
ATOM      3  H2  UNL     1       1.853   8.758  13.804  1.00  0.00     0.167 HD
HETATM    4  C9  UNL     1       2.731   7.466  12.326  1.00  0.00     0.077 A 
HETATM    5  C10 UNL     1       1.608   6.603  12.054  1.00  0.00     0.032 A 
HETATM    6  C11 UNL     1       1.159   5.719  13.042  1.00  0.00     0.018 A 
HETATM    7  C12 UNL     1       0.064   4.884  12.793  1.00  0.00     0.018 A 
HETATM    8  C13 UNL     1      -0.609   4.947  11.563  1.00  0.00     0.035 A 
HETATM    9  C21 UNL     1      -0.152   5.829  10.575  1.00  0.00     0.060 A 
HETATM   10  C22 UNL     1       0.944   6.650  10.827  1.00  0.00     0.130 A 
HETATM   11  F4  UNL     1       1.341   7.502   9.868  1.00  0.00    -0.205 F 
HETATM   12  C23 UNL     1       3.992   7.384  11.781  1.00  0.00     0.106 A 
HETATM   13  C24 UNL     1       4.665   6.517  10.843  1.00  0.00     0.107 A 
HETATM   14  N6  UNL     1       5.912   6.758  10.505  1.00  0.00    -0.354 N 
ATOM     15  H6  UNL     1       6.397   6.147   9.847  1.00  0.00     0.166 HD
HETATM   16  C25 UNL     1       6.557   7.848  11.053  1.00  0.00     0.107 A 
HETATM   17  C26 UNL     1       5.994   8.681  11.942  1.00  0.00     0.116 A 
HETATM   18  N7  UNL     1       4.686   8.443  12.322  1.00  0.00    -0.305 N 
ENDROOT
BRANCH   1  19
HETATM   19  C7  UNL     1       4.216  10.338  13.957  1.00  0.00     0.072 C 
HETATM   20  C6  UNL     1       3.666  10.320  15.402  1.00  0.00     0.015 C 
HETATM   21  C5  UNL     1       2.452  11.236  15.563  1.00  0.00     0.021 C 
HETATM   22  C4  UNL     1       2.819  12.676  15.202  1.00  0.00     0.126 C 
HETATM   23  N1  UNL     1       3.669  12.764  14.014  1.00  0.00    -0.350 N 
HETATM   24  C3  UNL     1       4.319  13.927  13.604  1.00  0.00     0.243 C 
HETATM   25  C27 UNL     1       3.735  11.574  13.172  1.00  0.00     0.138 C 
HETATM   26  O2  UNL     1       5.060  13.941  12.620  1.00  0.00    -0.271 OA
BRANCH  24  27
HETATM   27  C2  UNL     1       4.063  15.198  14.445  1.00  0.00     0.269 C 
BRANCH  27  28
HETATM   28  O1  UNL     1       2.996  16.045  14.043  1.00  0.00    -0.387 OA
HETATM   29  C1  UNL     1       2.170  16.443  15.129  1.00  0.00     0.202 C 
ENDBRANCH  27  28
ENDBRANCH  24  27
ENDBRANCH   1  19
BRANCH  13  30
HETATM   30  N5  UNL     1       4.095   5.413  10.277  1.00  0.00    -0.287 NA
HETATM   31  H20 UNL     1       4.791   4.817   9.842  1.00  0.00     0.125 HD
HETATM   32  H21 UNL     1       3.433   4.907  10.850  1.00  0.00     0.125 HD
ENDBRANCH  13  30
BRANCH   8  33
HETATM   33  C14 UNL     1      -1.799   4.098  11.247  1.00  0.00     0.257 C 
HETATM   34  O3  UNL     1      -1.758   3.384  10.250  1.00  0.00    -0.267 OA
HETATM   35  N3  UNL     1      -2.872   4.231  12.096  1.00  0.00    -0.309 N 
HETATM   36  H15 UNL     1      -2.877   4.946  12.809  1.00  0.00     0.170 HD
BRANCH  35  37
HETATM   37  C15 UNL     1      -4.092   3.554  12.059  1.00  0.00     0.108 A 
HETATM   38  C16 UNL     1      -5.275   4.033  12.603  1.00  0.00     0.064 A 
HETATM   39  C17 UNL     1      -6.439   3.258  12.492  1.00  0.00     0.052 A 
HETATM   40  C19 UNL     1      -6.361   2.024  11.843  1.00  0.00     0.033 A 
HETATM   41  C20 UNL     1      -5.139   1.625  11.332  1.00  0.00     0.090 A 
HETATM   42  N4  UNL     1      -4.014   2.365  11.422  1.00  0.00    -0.352 N 
ATOM     43  H4  UNL     1      -3.135   2.039  11.022  1.00  0.00     0.166 HD
BRANCH  39  44
HETATM   44  C18 UNL     1      -7.739   3.717  13.096  1.00  0.00     0.417 C 
HETATM   45  F1  UNL     1      -8.806   3.042  12.584  1.00  0.00    -0.166 F 
HETATM   46  F2  UNL     1      -7.984   5.037  12.858  1.00  0.00    -0.166 F 
HETATM   47  F3  UNL     1      -7.806   3.563  14.445  1.00  0.00    -0.166 F 
ENDBRANCH  39  44
ENDBRANCH  35  37
ENDBRANCH   8  33
TORSDOF 7
ENDMDL
MODEL 9
REMARK minimizedAffinity -8.20381165
REMARK CNNscore 0.0393412486
REMARK CNNaffinity 5.27383852
REMARK  7 active torsions:
REMARK  status: ('A' for Active; 'I' for Inactive)
REMARK    1  A    between atoms: O1_2  and  C2_3 
REMARK    2  A    between atoms: C2_3  and  C3_4 
REMARK       I    between atoms: C3_4  and  N1_6 
REMARK    3  A    between atoms: C7_10  and  C8_11 
REMARK    4  A    between atoms: C13_18  and  C14_19 
REMARK       I    between atoms: C14_19  and  N3_21 
REMARK    5  A    between atoms: N3_21  and  C15_22 
REMARK    6  A    between atoms: C17_24  and  C18_25 
REMARK    7  A    between atoms: C24_37  and  N5_38 
ROOT
HETATM    1  C8  UNL     1      -9.701  -4.008  -5.006  1.00  0.00     0.094 A 
HETATM    2  N2  UNL     1      -8.801  -4.731  -4.362  1.00  0.00    -0.342 N 
ATOM      3  H2  UNL     1      -7.838  -4.469  -4.151  1.00  0.00     0.167 HD
HETATM    4  C9  UNL     1      -9.430  -5.909  -4.034  1.00  0.00     0.077 A 
HETATM    5  C10 UNL     1      -8.768  -6.948  -3.284  1.00  0.00     0.032 A 
HETATM    6  C11 UNL     1      -7.717  -7.663  -3.870  1.00  0.00     0.018 A 
HETATM    7  C12 UNL     1      -7.061  -8.667  -3.149  1.00  0.00     0.018 A 
HETATM    8  C13 UNL     1      -7.433  -8.944  -1.824  1.00  0.00     0.035 A 
HETATM    9  C21 UNL     1      -8.489  -8.229  -1.243  1.00  0.00     0.060 A 
HETATM   10  C22 UNL     1      -9.143  -7.239  -1.971  1.00  0.00     0.130 A 
HETATM   11  F4  UNL     1     -10.135  -6.556  -1.377  1.00  0.00    -0.205 F 
HETATM   12  C23 UNL     1     -10.711  -5.935  -4.537  1.00  0.00     0.106 A 
HETATM   13  C24 UNL     1     -11.803  -6.880  -4.553  1.00  0.00     0.107 A 
HETATM   14  N6  UNL     1     -12.945  -6.553  -5.113  1.00  0.00    -0.354 N 
ATOM     15  H6  UNL     1     -13.720  -7.216  -5.133  1.00  0.00     0.166 HD
HETATM   16  C25 UNL     1     -13.083  -5.299  -5.673  1.00  0.00     0.107 A 
HETATM   17  C26 UNL     1     -12.103  -4.383  -5.707  1.00  0.00     0.116 A 
HETATM   18  N7  UNL     1     -10.887  -4.707  -5.134  1.00  0.00    -0.305 N 
ENDROOT
BRANCH   1  19
HETATM   19  C7  UNL     1      -9.509  -2.597  -5.495  1.00  0.00     0.072 C 
HETATM   20  C6  UNL     1     -10.727  -2.098  -6.308  1.00  0.00     0.015 C 
HETATM   21  C5  UNL     1     -10.448  -2.090  -7.810  1.00  0.00     0.021 C 
HETATM   22  C4  UNL     1      -9.254  -1.188  -8.126  1.00  0.00     0.126 C 
HETATM   23  N1  UNL     1      -8.161  -1.336  -7.164  1.00  0.00    -0.350 N 
HETATM   24  C3  UNL     1      -7.061  -0.483  -7.095  1.00  0.00     0.243 C 
HETATM   25  C27 UNL     1      -8.203  -2.519  -6.309  1.00  0.00     0.138 C 
HETATM   26  O2  UNL     1      -6.187  -0.623  -6.238  1.00  0.00    -0.271 OA
BRANCH  24  27
HETATM   27  C2  UNL     1      -6.993   0.647  -8.147  1.00  0.00     0.269 C 
BRANCH  27  28
HETATM   28  O1  UNL     1      -6.304   0.373  -9.358  1.00  0.00    -0.387 OA
HETATM   29  C1  UNL     1      -7.034   0.771 -10.510  1.00  0.00     0.202 C 
ENDBRANCH  27  28
ENDBRANCH  24  27
ENDBRANCH   1  19
BRANCH  13  30
HETATM   30  N5  UNL     1     -11.731  -8.141  -4.034  1.00  0.00    -0.287 NA
HETATM   31  H20 UNL     1     -12.504  -8.717  -4.348  1.00  0.00     0.125 HD
HETATM   32  H21 UNL     1     -10.832  -8.601  -4.098  1.00  0.00     0.125 HD
ENDBRANCH  13  30
BRANCH   8  33
HETATM   33  C14 UNL     1      -6.754  -9.987  -0.995  1.00  0.00     0.257 C 
HETATM   34  O3  UNL     1      -6.565 -11.094  -1.491  1.00  0.00    -0.267 OA
HETATM   35  N3  UNL     1      -6.437  -9.619   0.290  1.00  0.00    -0.309 N 
HETATM   36  H15 UNL     1      -6.756  -8.736   0.665  1.00  0.00     0.170 HD
BRANCH  35  37
HETATM   37  C15 UNL     1      -5.786 -10.371   1.269  1.00  0.00     0.108 A 
HETATM   38  C16 UNL     1      -4.699  -9.928   2.009  1.00  0.00     0.064 A 
HETATM   39  C17 UNL     1      -4.137 -10.779   2.971  1.00  0.00     0.052 A 
HETATM   40  C19 UNL     1      -4.689 -12.049   3.145  1.00  0.00     0.033 A 
HETATM   41  C20 UNL     1      -5.773 -12.408   2.362  1.00  0.00     0.090 A 
HETATM   42  N4  UNL     1      -6.330 -11.595   1.440  1.00  0.00    -0.352 N 
ATOM     43  H4  UNL     1      -7.135 -11.895   0.890  1.00  0.00     0.166 HD
BRANCH  39  44
HETATM   44  C18 UNL     1      -2.935 -10.359   3.775  1.00  0.00     0.417 C 
HETATM   45  F1  UNL     1      -1.809 -10.287   3.012  1.00  0.00    -0.166 F 
HETATM   46  F2  UNL     1      -2.651 -11.236   4.779  1.00  0.00    -0.166 F 
HETATM   47  F3  UNL     1      -3.068  -9.142   4.370  1.00  0.00    -0.166 F 
ENDBRANCH  39  44
ENDBRANCH  35  37
ENDBRANCH   8  33
TORSDOF 7
ENDMDL
