MODEL 1
REMARK minimizedAffinity -8.745924
REMARK  7 active torsions:
REMARK  status: ('A' for Active; 'I' for Inactive)
REMARK    1  A    between atoms: N1_2  and  C3_4 
REMARK    2  A    between atoms: C3_4  and  C4_5 
REMARK    3  A    between atoms: C4_5  and  C5_6 
REMARK    4  A    between atoms: C5_6  and  C6_7 
REMARK    5  A    between atoms: C7_8  and  C8_9 
REMARK    6  A    between atoms: C14_17  and  S1_18 
REMARK    7  A    between atoms: S1_18  and  N3_21 
ROOT
HETATM    1  C8  UNL     1      -2.064   5.794  12.874  1.00  0.00     0.048 C 
HETATM    2  C9  UNL     1      -2.346   4.625  12.283  1.00  0.00     0.047 A 
HETATM    3  C10 UNL     1      -1.432   3.716  11.494  1.00  0.00     0.257 A 
HETATM    4  O1  UNL     1      -0.261   3.854  11.208  1.00  0.00    -0.267 OA
HETATM    5  N2  UNL     1      -2.233   2.644  11.122  1.00  0.00    -0.322 N 
HETATM    6  C11 UNL     1      -3.537   2.793  11.579  1.00  0.00     0.046 A 
HETATM    7  C12 UNL     1      -4.588   1.921  11.374  1.00  0.00     0.032 A 
HETATM    8  C13 UNL     1      -5.825   2.268  11.925  1.00  0.00     0.027 A 
HETATM    9  C14 UNL     1      -5.965   3.462  12.664  1.00  0.00     0.080 A 
HETATM   10  C17 UNL     1      -4.890   4.346  12.840  1.00  0.00     0.040 A 
HETATM   11  C18 UNL     1      -3.671   3.987  12.294  1.00  0.00     0.008 A 
HETATM   12  H14 UNL     1      -1.879   1.880  10.566  1.00  0.00     0.169 HD
ENDROOT
BRANCH   1  13
HETATM   13  C7  UNL     1      -0.775   6.371  12.898  1.00  0.00     0.040 A 
HETATM   14  C6  UNL     1       0.052   6.936  11.934  1.00  0.00    -0.023 A 
HETATM   15  C20 UNL     1       1.258   7.304  12.602  1.00  0.00    -0.027 A 
HETATM   16  C19 UNL     1       1.126   6.942  13.927  1.00  0.00     0.016 A 
HETATM   17  C21 UNL     1       2.479   7.989  12.082  1.00  0.00     0.041 C 
HETATM   18  N4  UNL     1      -0.105   6.380  14.099  1.00  0.00    -0.359 N 
HETATM   19  C24 UNL     1       2.146   7.116  14.994  1.00  0.00     0.057 C 
HETATM   20  H24 UNL     1      -0.474   6.043  14.978  1.00  0.00     0.166 HD
HETATM   21  C23 UNL     1       3.234   8.099  14.521  1.00  0.00     0.006 C 
HETATM   22  C22 UNL     1       3.657   7.841  13.063  1.00  0.00     0.005 C 
BRANCH  14  23
HETATM   23  C5  UNL     1      -0.255   7.140  10.479  1.00  0.00     0.043 C 
BRANCH  23  24
HETATM   24  C4  UNL     1       0.558   8.263   9.829  1.00  0.00     0.035 C 
BRANCH  24  25
HETATM   25  C3  UNL     1       0.596   8.215   8.294  1.00  0.00     0.271 C 
BRANCH  25  26
HETATM   26  N1  UNL     1       1.897   7.823   7.722  1.00  0.00     0.080 N 
HETATM   27  C1  UNL     1       1.755   7.152   6.430  1.00  0.00     0.309 C 
HETATM   28  C2  UNL     1       2.613   6.953   8.658  1.00  0.00     0.309 C 
ENDBRANCH  25  26
ENDBRANCH  24  25
ENDBRANCH  23  24
ENDBRANCH  14  23
ENDBRANCH   1  13
BRANCH   9  29
HETATM   29  S1  UNL     1      -7.565   3.902  13.321  1.00  0.00     0.260 S 
HETATM   30  O2  UNL     1      -7.455   3.882  14.764  1.00  0.00    -0.200 OA
HETATM   31  O3  UNL     1      -8.546   3.089  12.632  1.00  0.00    -0.200 OA
BRANCH  29  32
HETATM   32  N3  UNL     1      -7.756   5.515  12.818  1.00  0.00    -0.315 N 
HETATM   33  C15 UNL     1      -7.718   6.555  13.860  1.00  0.00     0.162 C 
HETATM   34  C16 UNL     1      -8.754   5.777  11.769  1.00  0.00     0.162 C 
ENDBRANCH  29  32
ENDBRANCH   9  29
TORSDOF 7
ENDMDL
MODEL 2
REMARK minimizedAffinity -8.6919136
REMARK  7 active torsions:
REMARK  status: ('A' for Active; 'I' for Inactive)
REMARK    1  A    between atoms: N1_2  and  C3_4 
REMARK    2  A    between atoms: C3_4  and  C4_5 
REMARK    3  A    between atoms: C4_5  and  C5_6 
REMARK    4  A    between atoms: C5_6  and  C6_7 
REMARK    5  A    between atoms: C7_8  and  C8_9 
REMARK    6  A    between atoms: C14_17  and  S1_18 
REMARK    7  A    between atoms: S1_18  and  N3_21 
ROOT
HETATM    1  C8  UNL     1      -2.161   4.890  11.462  1.00  0.00     0.048 C 
HETATM    2  C9  UNL     1      -1.247   5.305  12.351  1.00  0.00     0.047 A 
HETATM    3  C10 UNL     1      -1.361   5.397  13.856  1.00  0.00     0.257 A 
HETATM    4  O1  UNL     1      -2.300   5.137  14.578  1.00  0.00    -0.267 OA
HETATM    5  N2  UNL     1      -0.127   5.878  14.275  1.00  0.00    -0.322 N 
HETATM    6  C11 UNL     1       0.728   6.105  13.204  1.00  0.00     0.046 A 
HETATM    7  C12 UNL     1       2.018   6.594  13.267  1.00  0.00     0.032 A 
HETATM    8  C13 UNL     1       2.704   6.749  12.059  1.00  0.00     0.027 A 
HETATM    9  C14 UNL     1       2.086   6.402  10.839  1.00  0.00     0.080 A 
HETATM   10  C17 UNL     1       0.765   5.929  10.795  1.00  0.00     0.040 A 
HETATM   11  C18 UNL     1       0.100   5.777  11.998  1.00  0.00     0.008 A 
HETATM   12  H14 UNL     1       0.076   6.051  15.249  1.00  0.00     0.169 HD
ENDROOT
BRANCH   1  13
HETATM   13  C7  UNL     1      -3.433   4.392  11.818  1.00  0.00     0.040 A 
HETATM   14  C6  UNL     1      -4.497   4.893  12.560  1.00  0.00    -0.023 A 
HETATM   15  C20 UNL     1      -5.492   3.871  12.580  1.00  0.00    -0.027 A 
HETATM   16  C19 UNL     1      -4.998   2.796  11.870  1.00  0.00     0.016 A 
HETATM   17  C21 UNL     1      -6.858   3.864  13.185  1.00  0.00     0.041 C 
HETATM   18  N4  UNL     1      -3.754   3.118  11.412  1.00  0.00    -0.359 N 
HETATM   19  C24 UNL     1      -5.685   1.497  11.645  1.00  0.00     0.057 C 
HETATM   20  H24 UNL     1      -3.169   2.520  10.844  1.00  0.00     0.166 HD
HETATM   21  C23 UNL     1      -7.182   1.633  11.983  1.00  0.00     0.006 C 
HETATM   22  C22 UNL     1      -7.416   2.432  13.278  1.00  0.00     0.005 C 
BRANCH  14  23
HETATM   23  C5  UNL     1      -4.599   6.245  13.204  1.00  0.00     0.043 C 
BRANCH  23  24
HETATM   24  C4  UNL     1      -6.039   6.736  13.380  1.00  0.00     0.035 C 
BRANCH  24  25
HETATM   25  C3  UNL     1      -6.530   6.759  14.836  1.00  0.00     0.271 C 
BRANCH  25  26
HETATM   26  N1  UNL     1      -6.599   8.101  15.441  1.00  0.00     0.080 N 
HETATM   27  C1  UNL     1      -7.900   8.738  15.232  1.00  0.00     0.309 C 
HETATM   28  C2  UNL     1      -5.537   8.950  14.896  1.00  0.00     0.309 C 
ENDBRANCH  25  26
ENDBRANCH  24  25
ENDBRANCH  23  24
ENDBRANCH  14  23
ENDBRANCH   1  13
BRANCH   9  29
HETATM   29  S1  UNL     1       2.969   6.647   9.308  1.00  0.00     0.260 S 
HETATM   30  O2  UNL     1       2.556   5.596   8.403  1.00  0.00    -0.200 OA
HETATM   31  O3  UNL     1       4.363   6.839   9.648  1.00  0.00    -0.200 OA
BRANCH  29  32
HETATM   32  N3  UNL     1       2.346   8.123   8.738  1.00  0.00    -0.315 N 
HETATM   33  C15 UNL     1       0.961   8.124   8.240  1.00  0.00     0.162 C 
HETATM   34  C16 UNL     1       3.252   8.971   7.944  1.00  0.00     0.162 C 
ENDBRANCH  29  32
ENDBRANCH   9  29
TORSDOF 7
ENDMDL
MODEL 3
REMARK minimizedAffinity -8.65318298
REMARK  7 active torsions:
REMARK  status: ('A' for Active; 'I' for Inactive)
REMARK    1  A    between atoms: N1_2  and  C3_4 
REMARK    2  A    between atoms: C3_4  and  C4_5 
REMARK    3  A    between atoms: C4_5  and  C5_6 
REMARK    4  A    between atoms: C5_6  and  C6_7 
REMARK    5  A    between atoms: C7_8  and  C8_9 
REMARK    6  A    between atoms: C14_17  and  S1_18 
REMARK    7  A    between atoms: S1_18  and  N3_21 
ROOT
HETATM    1  C8  UNL     1      -2.167   5.278  12.254  1.00  0.00     0.048 C 
HETATM    2  C9  UNL     1      -2.560   4.059  11.859  1.00  0.00     0.047 A 
HETATM    3  C10 UNL     1      -1.760   2.986  11.157  1.00  0.00     0.257 A 
HETATM    4  O1  UNL     1      -0.605   3.001  10.783  1.00  0.00    -0.267 OA
HETATM    5  N2  UNL     1      -2.648   1.931  10.995  1.00  0.00    -0.322 N 
HETATM    6  C11 UNL     1      -3.905   2.233  11.503  1.00  0.00     0.046 A 
HETATM    7  C12 UNL     1      -5.019   1.417  11.492  1.00  0.00     0.032 A 
HETATM    8  C13 UNL     1      -6.191   1.924  12.061  1.00  0.00     0.027 A 
HETATM    9  C14 UNL     1      -6.206   3.217  12.625  1.00  0.00     0.080 A 
HETATM   10  C17 UNL     1      -5.071   4.040  12.605  1.00  0.00     0.040 A 
HETATM   11  C18 UNL     1      -3.917   3.524  12.043  1.00  0.00     0.008 A 
HETATM   12  H14 UNL     1      -2.380   1.073  10.535  1.00  0.00     0.169 HD
ENDROOT
BRANCH   1  13
HETATM   13  C7  UNL     1      -0.847   5.761  12.116  1.00  0.00     0.040 A 
HETATM   14  C6  UNL     1       0.087   6.292  12.998  1.00  0.00    -0.023 A 
HETATM   15  C20 UNL     1       1.234   6.628  12.218  1.00  0.00    -0.027 A 
HETATM   16  C19 UNL     1       0.953   6.304  10.907  1.00  0.00     0.016 A 
HETATM   17  C21 UNL     1       2.554   7.189  12.633  1.00  0.00     0.041 C 
HETATM   18  N4  UNL     1      -0.305   5.780  10.852  1.00  0.00    -0.359 N 
HETATM   19  C24 UNL     1       1.852   6.499   9.738  1.00  0.00     0.057 C 
HETATM   20  H24 UNL     1      -0.759   5.439  10.016  1.00  0.00     0.166 HD
HETATM   21  C23 UNL     1       3.290   6.759  10.224  1.00  0.00     0.006 C 
HETATM   22  C22 UNL     1       3.333   7.729  11.420  1.00  0.00     0.005 C 
BRANCH  14  23
HETATM   23  C5  UNL     1      -0.061   6.470  14.481  1.00  0.00     0.043 C 
BRANCH  23  24
HETATM   24  C4  UNL     1      -0.778   7.765  14.877  1.00  0.00     0.035 C 
BRANCH  24  25
HETATM   25  C3  UNL     1      -1.837   7.595  15.977  1.00  0.00     0.271 C 
BRANCH  25  26
HETATM   26  N1  UNL     1      -3.231   7.635  15.502  1.00  0.00     0.080 N 
HETATM   27  C1  UNL     1      -3.820   6.300  15.396  1.00  0.00     0.309 C 
HETATM   28  C2  UNL     1      -3.297   8.311  14.204  1.00  0.00     0.309 C 
ENDBRANCH  25  26
ENDBRANCH  24  25
ENDBRANCH  23  24
ENDBRANCH  14  23
ENDBRANCH   1  13
BRANCH   9  29
HETATM   29  S1  UNL     1      -7.727   3.857  13.307  1.00  0.00     0.260 S 
HETATM   30  O2  UNL     1      -7.571   3.885  14.746  1.00  0.00    -0.200 OA
HETATM   31  O3  UNL     1      -8.812   3.127  12.685  1.00  0.00    -0.200 OA
BRANCH  29  32
HETATM   32  N3  UNL     1      -7.760   5.458  12.738  1.00  0.00    -0.315 N 
HETATM   33  C15 UNL     1      -7.551   6.530  13.726  1.00  0.00     0.162 C 
HETATM   34  C16 UNL     1      -8.775   5.788  11.724  1.00  0.00     0.162 C 
ENDBRANCH  29  32
ENDBRANCH   9  29
TORSDOF 7
ENDMDL
MODEL 4
REMARK minimizedAffinity -8.62577629
REMARK  7 active torsions:
REMARK  status: ('A' for Active; 'I' for Inactive)
REMARK    1  A    between atoms: N1_2  and  C3_4 
REMARK    2  A    between atoms: C3_4  and  C4_5 
REMARK    3  A    between atoms: C4_5  and  C5_6 
REMARK    4  A    between atoms: C5_6  and  C6_7 
REMARK    5  A    between atoms: C7_8  and  C8_9 
REMARK    6  A    between atoms: C14_17  and  S1_18 
REMARK    7  A    between atoms: S1_18  and  N3_21 
ROOT
HETATM    1  C8  UNL     1      -2.198   6.235  12.367  1.00  0.00     0.048 C 
HETATM    2  C9  UNL     1      -1.150   6.595  13.122  1.00  0.00     0.047 A 
HETATM    3  C10 UNL     1      -1.109   6.901  14.602  1.00  0.00     0.257 A 
HETATM    4  O1  UNL     1      -2.009   6.909  15.417  1.00  0.00    -0.267 OA
HETATM    5  N2  UNL     1       0.220   7.207  14.863  1.00  0.00    -0.322 N 
HETATM    6  C11 UNL     1       1.000   7.137  13.716  1.00  0.00     0.046 A 
HETATM    7  C12 UNL     1       2.353   7.394  13.619  1.00  0.00     0.032 A 
HETATM    8  C13 UNL     1       2.942   7.265  12.358  1.00  0.00     0.027 A 
HETATM    9  C14 UNL     1       2.165   6.876  11.247  1.00  0.00     0.080 A 
HETATM   10  C17 UNL     1       0.787   6.643  11.360  1.00  0.00     0.040 A 
HETATM   11  C18 UNL     1       0.218   6.771  12.615  1.00  0.00     0.008 A 
HETATM   12  H14 UNL     1       0.537   7.468  15.786  1.00  0.00     0.169 HD
ENDROOT
BRANCH   1  13
HETATM   13  C7  UNL     1      -3.497   6.021  12.877  1.00  0.00     0.040 A 
HETATM   14  C6  UNL     1      -4.328   4.910  12.976  1.00  0.00    -0.023 A 
HETATM   15  C20 UNL     1      -5.545   5.368  13.563  1.00  0.00    -0.027 A 
HETATM   16  C19 UNL     1      -5.416   6.724  13.783  1.00  0.00     0.016 A 
HETATM   17  C21 UNL     1      -6.775   4.614  13.947  1.00  0.00     0.041 C 
HETATM   18  N4  UNL     1      -4.176   7.112  13.367  1.00  0.00    -0.359 N 
HETATM   19  C24 UNL     1      -6.447   7.625  14.361  1.00  0.00     0.057 C 
HETATM   20  H24 UNL     1      -3.807   8.051  13.431  1.00  0.00     0.166 HD
HETATM   21  C23 UNL     1      -7.550   6.790  15.039  1.00  0.00     0.006 C 
HETATM   22  C22 UNL     1      -7.958   5.569  14.194  1.00  0.00     0.005 C 
BRANCH  14  23
HETATM   23  C5  UNL     1      -4.014   3.501  12.567  1.00  0.00     0.043 C 
BRANCH  23  24
HETATM   24  C4  UNL     1      -3.909   3.309  11.050  1.00  0.00     0.035 C 
BRANCH  24  25
HETATM   25  C3  UNL     1      -2.472   3.172  10.524  1.00  0.00     0.271 C 
BRANCH  25  26
HETATM   26  N1  UNL     1      -1.572   2.389  11.390  1.00  0.00     0.080 N 
HETATM   27  C1  UNL     1      -0.363   3.132  11.747  1.00  0.00     0.309 C 
HETATM   28  C2  UNL     1      -1.206   1.136  10.727  1.00  0.00     0.309 C 
ENDBRANCH  25  26
ENDBRANCH  24  25
ENDBRANCH  23  24
ENDBRANCH  14  23
ENDBRANCH   1  13
BRANCH   9  29
HETATM   29  S1  UNL     1       2.933   6.759   9.640  1.00  0.00     0.260 S 
HETATM   30  O2  UNL     1       2.408   5.571   9.001  1.00  0.00    -0.200 OA
HETATM   31  O3  UNL     1       4.357   6.938   9.835  1.00  0.00    -0.200 OA
BRANCH  29  32
HETATM   32  N3  UNL     1       2.327   8.121   8.824  1.00  0.00    -0.315 N 
HETATM   33  C15 UNL     1       0.979   8.015   8.243  1.00  0.00     0.162 C 
HETATM   34  C16 UNL     1       3.270   8.870   7.976  1.00  0.00     0.162 C 
ENDBRANCH  29  32
ENDBRANCH   9  29
TORSDOF 7
ENDMDL
MODEL 5
REMARK minimizedAffinity -8.53280449
REMARK  7 active torsions:
REMARK  status: ('A' for Active; 'I' for Inactive)
REMARK    1  A    between atoms: N1_2  and  C3_4 
REMARK    2  A    between atoms: C3_4  and  C4_5 
REMARK    3  A    between atoms: C4_5  and  C5_6 
REMARK    4  A    between atoms: C5_6  and  C6_7 
REMARK    5  A    between atoms: C7_8  and  C8_9 
REMARK    6  A    between atoms: C14_17  and  S1_18 
REMARK    7  A    between atoms: S1_18  and  N3_21 
ROOT
HETATM    1  C8  UNL     1      -1.871   5.365  12.163  1.00  0.00     0.048 C 
HETATM    2  C9  UNL     1      -1.216   5.755  13.266  1.00  0.00     0.047 A 
HETATM    3  C10 UNL     1      -1.645   5.644  14.711  1.00  0.00     0.257 A 
HETATM    4  O1  UNL     1      -2.671   5.201  15.183  1.00  0.00    -0.267 OA
HETATM    5  N2  UNL     1      -0.593   6.191  15.435  1.00  0.00    -0.322 N 
HETATM    6  C11 UNL     1       0.427   6.637  14.604  1.00  0.00     0.046 A 
HETATM    7  C12 UNL     1       1.605   7.242  14.994  1.00  0.00     0.032 A 
HETATM    8  C13 UNL     1       2.498   7.617  13.986  1.00  0.00     0.027 A 
HETATM    9  C14 UNL     1       2.189   7.365  12.633  1.00  0.00     0.080 A 
HETATM   10  C17 UNL     1       0.976   6.771  12.255  1.00  0.00     0.040 A 
HETATM   11  C18 UNL     1       0.104   6.402  13.264  1.00  0.00     0.008 A 
HETATM   12  H14 UNL     1      -0.616   6.260  16.442  1.00  0.00     0.169 HD
ENDROOT
BRANCH   1  13
HETATM   13  C7  UNL     1      -3.116   4.700  12.182  1.00  0.00     0.040 A 
HETATM   14  C6  UNL     1      -4.406   5.069  12.547  1.00  0.00    -0.023 A 
HETATM   15  C20 UNL     1      -5.223   3.913  12.366  1.00  0.00    -0.027 A 
HETATM   16  C19 UNL     1      -4.408   2.895  11.917  1.00  0.00     0.016 A 
HETATM   17  C21 UNL     1      -6.692   3.730  12.557  1.00  0.00     0.041 C 
HETATM   18  N4  UNL     1      -3.137   3.377  11.807  1.00  0.00    -0.359 N 
HETATM   19  C24 UNL     1      -4.825   1.501  11.612  1.00  0.00     0.057 C 
HETATM   20  H24 UNL     1      -2.339   2.849  11.478  1.00  0.00     0.166 HD
HETATM   21  C23 UNL     1      -6.359   1.428  11.498  1.00  0.00     0.006 C 
HETATM   22  C22 UNL     1      -7.064   2.236  12.603  1.00  0.00     0.005 C 
BRANCH  14  23
HETATM   23  C5  UNL     1      -4.866   6.416  13.023  1.00  0.00     0.043 C 
BRANCH  23  24
HETATM   24  C4  UNL     1      -6.231   6.390  13.717  1.00  0.00     0.035 C 
BRANCH  24  25
HETATM   25  C3  UNL     1      -6.449   7.521  14.734  1.00  0.00     0.271 C 
BRANCH  25  26
HETATM   26  N1  UNL     1      -7.027   7.090  16.019  1.00  0.00     0.080 N 
HETATM   27  C1  UNL     1      -7.121   5.633  16.124  1.00  0.00     0.309 C 
HETATM   28  C2  UNL     1      -8.353   7.686  16.197  1.00  0.00     0.309 C 
ENDBRANCH  25  26
ENDBRANCH  24  25
ENDBRANCH  23  24
ENDBRANCH  14  23
ENDBRANCH   1  13
BRANCH   9  29
HETATM   29  S1  UNL     1       3.328   7.890  11.363  1.00  0.00     0.260 S 
HETATM   30  O2  UNL     1       4.206   8.877  11.957  1.00  0.00    -0.200 OA
HETATM   31  O3  UNL     1       2.541   8.198  10.187  1.00  0.00    -0.200 OA
BRANCH  29  32
HETATM   32  N3  UNL     1       4.232   6.485  11.051  1.00  0.00    -0.315 N 
HETATM   33  C15 UNL     1       5.699   6.603  11.091  1.00  0.00     0.162 C 
HETATM   34  C16 UNL     1       3.746   5.599   9.980  1.00  0.00     0.162 C 
ENDBRANCH  29  32
ENDBRANCH   9  29
TORSDOF 7
ENDMDL
MODEL 6
REMARK minimizedAffinity -8.35903358
REMARK  7 active torsions:
REMARK  status: ('A' for Active; 'I' for Inactive)
REMARK    1  A    between atoms: N1_2  and  C3_4 
REMARK    2  A    between atoms: C3_4  and  C4_5 
REMARK    3  A    between atoms: C4_5  and  C5_6 
REMARK    4  A    between atoms: C5_6  and  C6_7 
REMARK    5  A    between atoms: C7_8  and  C8_9 
REMARK    6  A    between atoms: C14_17  and  S1_18 
REMARK    7  A    between atoms: S1_18  and  N3_21 
ROOT
HETATM    1  C8  UNL     1      -6.536   5.618  13.191  1.00  0.00     0.048 C 
HETATM    2  C9  UNL     1      -6.374   4.350  12.786  1.00  0.00     0.047 A 
HETATM    3  C10 UNL     1      -7.408   3.254  12.666  1.00  0.00     0.257 A 
HETATM    4  O1  UNL     1      -8.593   3.275  12.927  1.00  0.00    -0.267 OA
HETATM    5  N2  UNL     1      -6.704   2.154  12.193  1.00  0.00    -0.322 N 
HETATM    6  C11 UNL     1      -5.357   2.440  12.020  1.00  0.00     0.046 A 
HETATM    7  C12 UNL     1      -4.377   1.572  11.580  1.00  0.00     0.032 A 
HETATM    8  C13 UNL     1      -3.075   2.071  11.479  1.00  0.00     0.027 A 
HETATM    9  C14 UNL     1      -2.801   3.415  11.810  1.00  0.00     0.080 A 
HETATM   10  C17 UNL     1      -3.806   4.275  12.278  1.00  0.00     0.040 A 
HETATM   11  C18 UNL     1      -5.090   3.768  12.369  1.00  0.00     0.008 A 
HETATM   12  H14 UNL     1      -7.152   1.263  12.032  1.00  0.00     0.169 HD
ENDROOT
BRANCH   1  13
HETATM   13  C7  UNL     1      -7.784   6.178  13.541  1.00  0.00     0.040 A 
HETATM   14  C6  UNL     1      -8.304   6.734  14.704  1.00  0.00    -0.023 A 
HETATM   15  C20 UNL     1      -9.656   7.085  14.414  1.00  0.00    -0.027 A 
HETATM   16  C19 UNL     1      -9.908   6.723  13.107  1.00  0.00     0.016 A 
HETATM   17  C21 UNL     1     -10.684   7.755  15.266  1.00  0.00     0.041 C 
HETATM   18  N4  UNL     1      -8.772   6.176  12.585  1.00  0.00    -0.359 N 
HETATM   19  C24 UNL     1     -11.195   6.882  12.380  1.00  0.00     0.057 C 
HETATM   20  H24 UNL     1      -8.668   5.843  11.636  1.00  0.00     0.166 HD
HETATM   21  C23 UNL     1     -12.112   7.852  13.149  1.00  0.00     0.006 C 
HETATM   22  C22 UNL     1     -12.093   7.591  14.667  1.00  0.00     0.005 C 
BRANCH  14  23
HETATM   23  C5  UNL     1      -7.592   6.943  16.009  1.00  0.00     0.043 C 
BRANCH  23  24
HETATM   24  C4  UNL     1      -6.142   7.411  15.851  1.00  0.00     0.035 C 
BRANCH  24  25
HETATM   25  C3  UNL     1      -5.988   8.815  15.247  1.00  0.00     0.271 C 
BRANCH  25  26
HETATM   26  N1  UNL     1      -4.671   9.086  14.644  1.00  0.00     0.080 N 
HETATM   27  C1  UNL     1      -4.547   8.515  13.302  1.00  0.00     0.309 C 
HETATM   28  C2  UNL     1      -3.610   8.562  15.506  1.00  0.00     0.309 C 
ENDBRANCH  25  26
ENDBRANCH  24  25
ENDBRANCH  23  24
ENDBRANCH  14  23
ENDBRANCH   1  13
BRANCH   9  29
HETATM   29  S1  UNL     1      -1.124   4.015  11.713  1.00  0.00     0.260 S 
HETATM   30  O2  UNL     1      -0.968   4.642  10.416  1.00  0.00    -0.200 OA
HETATM   31  O3  UNL     1      -0.259   2.932  12.130  1.00  0.00    -0.200 OA
BRANCH  29  32
HETATM   32  N3  UNL     1      -1.079   5.227  12.904  1.00  0.00    -0.315 N 
HETATM   33  C15 UNL     1      -1.369   6.606  12.475  1.00  0.00     0.162 C 
HETATM   34  C16 UNL     1      -0.006   5.142  13.907  1.00  0.00     0.162 C 
ENDBRANCH  29  32
ENDBRANCH   9  29
TORSDOF 7
ENDMDL
MODEL 7
REMARK minimizedAffinity -8.29514313
REMARK  7 active torsions:
REMARK  status: ('A' for Active; 'I' for Inactive)
REMARK    1  A    between atoms: N1_2  and  C3_4 
REMARK    2  A    between atoms: C3_4  and  C4_5 
REMARK    3  A    between atoms: C4_5  and  C5_6 
REMARK    4  A    between atoms: C5_6  and  C6_7 
REMARK    5  A    between atoms: C7_8  and  C8_9 
REMARK    6  A    between atoms: C14_17  and  S1_18 
REMARK    7  A    between atoms: S1_18  and  N3_21 
ROOT
HETATM    1  C8  UNL     1      -2.019   5.220  13.434  1.00  0.00     0.048 C 
HETATM    2  C9  UNL     1      -0.969   5.438  12.630  1.00  0.00     0.047 A 
HETATM    3  C10 UNL     1      -0.761   4.992  11.200  1.00  0.00     0.257 A 
HETATM    4  O1  UNL     1      -1.481   4.330  10.483  1.00  0.00    -0.267 OA
HETATM    5  N2  UNL     1       0.487   5.495  10.851  1.00  0.00    -0.322 N 
HETATM    6  C11 UNL     1       1.076   6.186  11.902  1.00  0.00     0.046 A 
HETATM    7  C12 UNL     1       2.314   6.797  11.898  1.00  0.00     0.032 A 
HETATM    8  C13 UNL     1       2.716   7.440  13.072  1.00  0.00     0.027 A 
HETATM    9  C14 UNL     1       1.867   7.461  14.198  1.00  0.00     0.080 A 
HETATM   10  C17 UNL     1       0.622   6.814  14.191  1.00  0.00     0.040 A 
HETATM   11  C18 UNL     1       0.236   6.185  13.021  1.00  0.00     0.008 A 
HETATM   12  H14 UNL     1       0.891   5.333   9.941  1.00  0.00     0.169 HD
ENDROOT
BRANCH   1  13
HETATM   13  C7  UNL     1      -3.191   4.545  13.030  1.00  0.00     0.040 A 
HETATM   14  C6  UNL     1      -4.545   4.861  13.043  1.00  0.00    -0.023 A 
HETATM   15  C20 UNL     1      -5.231   3.722  12.524  1.00  0.00    -0.027 A 
HETATM   16  C19 UNL     1      -4.282   2.764  12.231  1.00  0.00     0.016 A 
HETATM   17  C21 UNL     1      -6.685   3.506  12.266  1.00  0.00     0.041 C 
HETATM   18  N4  UNL     1      -3.052   3.268  12.538  1.00  0.00    -0.359 N 
HETATM   19  C24 UNL     1      -4.540   1.406  11.686  1.00  0.00     0.057 C 
HETATM   20  H24 UNL     1      -2.174   2.785  12.403  1.00  0.00     0.166 HD
HETATM   21  C23 UNL     1      -5.975   1.330  11.130  1.00  0.00     0.006 C 
HETATM   22  C22 UNL     1      -6.996   2.012  12.059  1.00  0.00     0.005 C 
BRANCH  14  23
HETATM   23  C5  UNL     1      -5.174   6.146  13.496  1.00  0.00     0.043 C 
BRANCH  23  24
HETATM   24  C4  UNL     1      -5.744   6.086  14.916  1.00  0.00     0.035 C 
BRANCH  24  25
HETATM   25  C3  UNL     1      -7.114   5.400  15.023  1.00  0.00     0.271 C 
BRANCH  25  26
HETATM   26  N1  UNL     1      -8.113   6.139  15.815  1.00  0.00     0.080 N 
HETATM   27  C1  UNL     1      -9.063   6.865  14.972  1.00  0.00     0.309 C 
HETATM   28  C2  UNL     1      -7.441   7.072  16.722  1.00  0.00     0.309 C 
ENDBRANCH  25  26
ENDBRANCH  24  25
ENDBRANCH  23  24
ENDBRANCH  14  23
ENDBRANCH   1  13
BRANCH   9  29
HETATM   29  S1  UNL     1       2.421   8.254  15.698  1.00  0.00     0.260 S 
HETATM   30  O2  UNL     1       3.864   8.137  15.735  1.00  0.00    -0.200 OA
HETATM   31  O3  UNL     1       1.600   7.745  16.776  1.00  0.00    -0.200 OA
BRANCH  29  32
HETATM   32  N3  UNL     1       2.020   9.885  15.441  1.00  0.00    -0.315 N 
HETATM   33  C15 UNL     1       0.598  10.206  15.231  1.00  0.00     0.162 C 
HETATM   34  C16 UNL     1       2.927  10.672  14.588  1.00  0.00     0.162 C 
ENDBRANCH  29  32
ENDBRANCH   9  29
TORSDOF 7
ENDMDL
MODEL 8
REMARK minimizedAffinity -8.28107452
REMARK  7 active torsions:
REMARK  status: ('A' for Active; 'I' for Inactive)
REMARK    1  A    between atoms: N1_2  and  C3_4 
REMARK    2  A    between atoms: C3_4  and  C4_5 
REMARK    3  A    between atoms: C4_5  and  C5_6 
REMARK    4  A    between atoms: C5_6  and  C6_7 
REMARK    5  A    between atoms: C7_8  and  C8_9 
REMARK    6  A    between atoms: C14_17  and  S1_18 
REMARK    7  A    between atoms: S1_18  and  N3_21 
ROOT
HETATM    1  C8  UNL     1      -1.851   6.025  12.333  1.00  0.00     0.048 C 
HETATM    2  C9  UNL     1      -2.556   4.915  12.074  1.00  0.00     0.047 A 
HETATM    3  C10 UNL     1      -2.138   3.686  11.299  1.00  0.00     0.257 A 
HETATM    4  O1  UNL     1      -1.094   3.447  10.731  1.00  0.00    -0.267 OA
HETATM    5  N2  UNL     1      -3.244   2.846  11.346  1.00  0.00    -0.322 N 
HETATM    6  C11 UNL     1      -4.296   3.418  12.049  1.00  0.00     0.046 A 
HETATM    7  C12 UNL     1      -5.540   2.861  12.272  1.00  0.00     0.032 A 
HETATM    8  C13 UNL     1      -6.457   3.616  13.009  1.00  0.00     0.027 A 
HETATM    9  C14 UNL     1      -6.099   4.889  13.502  1.00  0.00     0.080 A 
HETATM   10  C17 UNL     1      -4.838   5.447  13.243  1.00  0.00     0.040 A 
HETATM   11  C18 UNL     1      -3.939   4.687  12.517  1.00  0.00     0.008 A 
HETATM   12  H14 UNL     1      -3.249   1.945  10.891  1.00  0.00     0.169 HD
ENDROOT
BRANCH   1  13
HETATM   13  C7  UNL     1      -0.506   6.210  11.945  1.00  0.00     0.040 A 
HETATM   14  C6  UNL     1       0.689   6.371  12.637  1.00  0.00    -0.023 A 
HETATM   15  C20 UNL     1       1.705   6.553  11.652  1.00  0.00    -0.027 A 
HETATM   16  C19 UNL     1       1.096   6.510  10.415  1.00  0.00     0.016 A 
HETATM   17  C21 UNL     1       3.180   6.728  11.806  1.00  0.00     0.041 C 
HETATM   18  N4  UNL     1      -0.239   6.302  10.599  1.00  0.00    -0.359 N 
HETATM   19  C24 UNL     1       1.764   6.674   9.097  1.00  0.00     0.057 C 
HETATM   20  H24 UNL     1      -0.922   6.207   9.859  1.00  0.00     0.166 HD
HETATM   21  C23 UNL     1       3.288   6.522   9.262  1.00  0.00     0.006 C 
HETATM   22  C22 UNL     1       3.815   7.258  10.508  1.00  0.00     0.005 C 
BRANCH  14  23
HETATM   23  C5  UNL     1       0.889   6.345  14.124  1.00  0.00     0.043 C 
BRANCH  23  24
HETATM   24  C4  UNL     1      -0.147   7.167  14.899  1.00  0.00     0.035 C 
BRANCH  24  25
HETATM   25  C3  UNL     1       0.382   8.499  15.451  1.00  0.00     0.271 C 
BRANCH  25  26
HETATM   26  N1  UNL     1      -0.457   9.110  16.497  1.00  0.00     0.080 N 
HETATM   27  C1  UNL     1      -1.841   8.636  16.443  1.00  0.00     0.309 C 
HETATM   28  C2  UNL     1      -0.427  10.569  16.374  1.00  0.00     0.309 C 
ENDBRANCH  25  26
ENDBRANCH  24  25
ENDBRANCH  23  24
ENDBRANCH  14  23
ENDBRANCH   1  13
BRANCH   9  29
HETATM   29  S1  UNL     1      -7.303   5.849  14.403  1.00  0.00     0.260 S 
HETATM   30  O2  UNL     1      -6.830   7.217  14.424  1.00  0.00    -0.200 OA
HETATM   31  O3  UNL     1      -7.584   5.135  15.631  1.00  0.00    -0.200 OA
BRANCH  29  32
HETATM   32  N3  UNL     1      -8.679   5.771  13.409  1.00  0.00    -0.315 N 
HETATM   33  C15 UNL     1      -8.458   5.688  11.955  1.00  0.00     0.162 C 
HETATM   34  C16 UNL     1      -9.822   6.624  13.777  1.00  0.00     0.162 C 
ENDBRANCH  29  32
ENDBRANCH   9  29
TORSDOF 7
ENDMDL
MODEL 9
REMARK minimizedAffinity -8.04876423
REMARK  7 active torsions:
REMARK  status: ('A' for Active; 'I' for Inactive)
REMARK    1  A    between atoms: N1_2  and  C3_4 
REMARK    2  A    between atoms: C3_4  and  C4_5 
REMARK    3  A    between atoms: C4_5  and  C5_6 
REMARK    4  A    between atoms: C5_6  and  C6_7 
REMARK    5  A    between atoms: C7_8  and  C8_9 
REMARK    6  A    between atoms: C14_17  and  S1_18 
REMARK    7  A    between atoms: S1_18  and  N3_21 
ROOT
HETATM    1  C8  UNL     1      -7.950   5.929  13.066  1.00  0.00     0.048 C 
HETATM    2  C9  UNL     1      -8.315   6.387  14.272  1.00  0.00     0.047 A 
HETATM    3  C10 UNL     1      -7.724   6.068  15.626  1.00  0.00     0.257 A 
HETATM    4  O1  UNL     1      -6.813   5.320  15.916  1.00  0.00    -0.267 OA
HETATM    5  N2  UNL     1      -8.472   6.817  16.524  1.00  0.00    -0.322 N 
HETATM    6  C11 UNL     1      -9.462   7.551  15.884  1.00  0.00     0.046 A 
HETATM    7  C12 UNL     1     -10.387   8.386  16.479  1.00  0.00     0.032 A 
HETATM    8  C13 UNL     1     -11.302   9.030  15.641  1.00  0.00     0.027 A 
HETATM    9  C14 UNL     1     -11.255   8.827  14.245  1.00  0.00     0.080 A 
HETATM   10  C17 UNL     1     -10.323   7.955  13.662  1.00  0.00     0.040 A 
HETATM   11  C18 UNL     1      -9.421   7.328  14.503  1.00  0.00     0.008 A 
HETATM   12  H14 UNL     1      -8.301   6.786  17.519  1.00  0.00     0.169 HD
ENDROOT
BRANCH   1  13
HETATM   13  C7  UNL     1      -6.854   5.065  12.852  1.00  0.00     0.040 A 
HETATM   14  C6  UNL     1      -5.489   5.153  13.099  1.00  0.00    -0.023 A 
HETATM   15  C20 UNL     1      -4.912   3.943  12.611  1.00  0.00    -0.027 A 
HETATM   16  C19 UNL     1      -5.932   3.180  12.080  1.00  0.00     0.016 A 
HETATM   17  C21 UNL     1      -3.497   3.464  12.645  1.00  0.00     0.041 C 
HETATM   18  N4  UNL     1      -7.103   3.864  12.230  1.00  0.00    -0.359 N 
HETATM   19  C24 UNL     1      -5.795   1.846  11.440  1.00  0.00     0.057 C 
HETATM   20  H24 UNL     1      -8.014   3.529  11.948  1.00  0.00     0.166 HD
HETATM   21  C23 UNL     1      -4.418   1.244  11.778  1.00  0.00     0.006 C 
HETATM   22  C22 UNL     1      -3.287   2.285  11.678  1.00  0.00     0.005 C 
BRANCH  14  23
HETATM   23  C5  UNL     1      -4.755   6.282  13.761  1.00  0.00     0.043 C 
BRANCH  23  24
HETATM   24  C4  UNL     1      -5.029   7.650  13.126  1.00  0.00     0.035 C 
BRANCH  24  25
HETATM   25  C3  UNL     1      -4.022   8.744  13.514  1.00  0.00     0.271 C 
BRANCH  25  26
HETATM   26  N1  UNL     1      -4.355   9.477  14.748  1.00  0.00     0.080 N 
HETATM   27  C1  UNL     1      -3.348   9.289  15.793  1.00  0.00     0.309 C 
HETATM   28  C2  UNL     1      -5.667   9.055  15.242  1.00  0.00     0.309 C 
ENDBRANCH  25  26
ENDBRANCH  24  25
ENDBRANCH  23  24
ENDBRANCH  14  23
ENDBRANCH   1  13
BRANCH   9  29
HETATM   29  S1  UNL     1     -12.460   9.628  13.202  1.00  0.00     0.260 S 
HETATM   30  O2  UNL     1     -12.025   9.453  11.832  1.00  0.00    -0.200 OA
HETATM   31  O3  UNL     1     -12.689  10.948  13.753  1.00  0.00    -0.200 OA
BRANCH  29  32
HETATM   32  N3  UNL     1     -13.860   8.695  13.445  1.00  0.00    -0.315 N 
HETATM   33  C15 UNL     1     -14.668   8.988  14.640  1.00  0.00     0.162 C 
HETATM   34  C16 UNL     1     -13.768   7.257  13.142  1.00  0.00     0.162 C 
ENDBRANCH  29  32
ENDBRANCH   9  29
TORSDOF 7
ENDMDL
