MODEL 1
REMARK minimizedAffinity -10.6319265
REMARK  8 active torsions:
REMARK  status: ('A' for Active; 'I' for Inactive)
REMARK    1  A    between atoms: C4_4  and  C5_5 
REMARK    2  A    between atoms: C7_7  and  O1_8 
REMARK    3  A    between atoms: C13_19  and  N3_20 
REMARK    4  A    between atoms: N3_20  and  C14_21 
REMARK    5  A    between atoms: C18_25  and  S1_26 
REMARK    6  A    between atoms: S1_26  and  C19_27 
REMARK    7  A    between atoms: C19_27  and  C20_28 
REMARK    8  A    between atoms: C20_28  and  N4_29 
ROOT
HETATM    1  C1  UNL     1      -1.208  50.003 -21.590  1.00  0.00     0.050 C 
HETATM    2  C2  UNL     1      -0.508  51.176 -22.226  1.00  0.00    -0.032 A 
HETATM    3  C3  UNL     1      -0.475  51.284 -23.627  1.00  0.00     0.021 A 
HETATM    4  C4  UNL     1       0.177  52.352 -24.247  1.00  0.00    -0.021 A 
HETATM    5  C11 UNL     1       0.795  53.308 -23.433  1.00  0.00     0.045 A 
HETATM    6  C12 UNL     1       0.771  53.209 -22.046  1.00  0.00     0.077 A 
HETATM    7  N1  UNL     1       1.370  54.132 -21.290  1.00  0.00    -0.284 N 
ATOM      8  H1  UNL     1       1.851  54.921 -21.724  1.00  0.00     0.187 HD
HETATM    9  N2  UNL     1       1.335  54.012 -19.931  1.00  0.00    -0.131 N 
ATOM     10  H2  UNL     1       1.792  54.713 -19.347  1.00  0.00     0.205 HD
HETATM   11  C13 UNL     1       0.700  52.973 -19.354  1.00  0.00     0.697 A 
HETATM   12  N5  UNL     1       0.084  52.030 -20.079  1.00  0.00    -0.188 N 
ATOM     13  H5  UNL     1      -0.397  51.252 -19.627  1.00  0.00     0.184 HD
HETATM   14  C26 UNL     1       0.116  52.138 -21.420  1.00  0.00     0.083 A 
ENDROOT
BRANCH  11  15
HETATM   15  N3  UNL     1       0.722  52.941 -17.959  1.00  0.00    -0.190 N 
HETATM   16  H10 UNL     1      -0.165  53.267 -17.604  1.00  0.00     0.184 HD
BRANCH  15  17
HETATM   17  C14 UNL     1       1.681  52.570 -17.009  1.00  0.00     0.050 A 
HETATM   18  C15 UNL     1       3.056  52.764 -17.170  1.00  0.00     0.030 A 
HETATM   19  C16 UNL     1       3.964  52.376 -16.180  1.00  0.00     0.004 A 
HETATM   20  C17 UNL     1       3.509  51.774 -15.009  1.00  0.00     0.018 A 
HETATM   21  C18 UNL     1       2.145  51.554 -14.827  1.00  0.00     0.002 A 
HETATM   22  C25 UNL     1       1.244  51.964 -15.818  1.00  0.00     0.048 A 
BRANCH  21  23
HETATM   23  S1  UNL     1       1.522  50.793 -13.339  1.00  0.00    -0.128 SA
BRANCH  23  24
HETATM   24  C19 UNL     1       0.339  52.071 -12.784  1.00  0.00     0.109 C 
BRANCH  24  25
HETATM   25  C20 UNL     1      -1.103  51.594 -12.513  1.00  0.00     0.283 C 
BRANCH  25  26
HETATM   26  N4  UNL     1      -2.115  52.512 -11.992  1.00  0.00     0.089 N 
HETATM   27  C21 UNL     1      -3.406  51.932 -11.651  1.00  0.00     0.272 C 
HETATM   28  C22 UNL     1      -4.131  53.098 -10.989  1.00  0.00     0.032 C 
HETATM   29  C23 UNL     1      -3.027  54.025 -10.489  1.00  0.00     0.032 C 
HETATM   30  C24 UNL     1      -1.724  53.322 -10.847  1.00  0.00     0.272 C 
ENDBRANCH  25  26
ENDBRANCH  24  25
ENDBRANCH  23  24
ENDBRANCH  21  23
ENDBRANCH  15  17
ENDBRANCH  11  15
BRANCH   4  31
HETATM   31  C5  UNL     1       0.208  52.472 -25.711  1.00  0.00    -0.001 A 
HETATM   32  C6  UNL     1      -0.798  53.217 -26.357  1.00  0.00     0.050 A 
HETATM   33  C7  UNL     1      -0.796  53.355 -27.742  1.00  0.00     0.066 A 
HETATM   34  C8  UNL     1       0.192  52.759 -28.516  1.00  0.00     0.038 A 
HETATM   35  C9  UNL     1       1.197  52.016 -27.898  1.00  0.00     0.027 A 
HETATM   36  C10 UNL     1       1.208  51.873 -26.506  1.00  0.00     0.045 A 
HETATM   37 CL1  UNL     1       2.479  50.927 -25.810  1.00  0.00    -0.083 Cl
BRANCH  33  38
HETATM   38  O1  UNL     1      -1.755  54.077 -28.388  1.00  0.00    -0.361 OA
HETATM   39  H6  UNL     1      -2.358  54.465 -27.731  1.00  0.00     0.217 HD
ENDBRANCH  33  38
ENDBRANCH   4  31
TORSDOF 8
ENDMDL
MODEL 2
REMARK minimizedAffinity -10.573514
REMARK  8 active torsions:
REMARK  status: ('A' for Active; 'I' for Inactive)
REMARK    1  A    between atoms: C4_4  and  C5_5 
REMARK    2  A    between atoms: C7_7  and  O1_8 
REMARK    3  A    between atoms: C13_19  and  N3_20 
REMARK    4  A    between atoms: N3_20  and  C14_21 
REMARK    5  A    between atoms: C18_25  and  S1_26 
REMARK    6  A    between atoms: S1_26  and  C19_27 
REMARK    7  A    between atoms: C19_27  and  C20_28 
REMARK    8  A    between atoms: C20_28  and  N4_29 
ROOT
HETATM    1  C1  UNL     1      -1.561  49.995 -21.070  1.00  0.00     0.050 C 
HETATM    2  C2  UNL     1      -0.730  51.036 -21.775  1.00  0.00    -0.032 A 
HETATM    3  C3  UNL     1      -0.675  51.041 -23.179  1.00  0.00     0.021 A 
HETATM    4  C4  UNL     1       0.097  51.984 -23.862  1.00  0.00    -0.021 A 
HETATM    5  C11 UNL     1       0.811  52.921 -23.107  1.00  0.00     0.045 A 
HETATM    6  C12 UNL     1       0.765  52.922 -21.717  1.00  0.00     0.077 A 
HETATM    7  N1  UNL     1       1.458  53.825 -21.018  1.00  0.00    -0.284 N 
ATOM      8  H1  UNL     1       2.026  54.523 -21.498  1.00  0.00     0.187 HD
HETATM    9  N2  UNL     1       1.399  53.806 -19.654  1.00  0.00    -0.131 N 
ATOM     10  H2  UNL     1       1.927  54.491 -19.113  1.00  0.00     0.205 HD
HETATM   11  C13 UNL     1       0.648  52.887 -19.016  1.00  0.00     0.697 A 
HETATM   12  N5  UNL     1      -0.064  51.968 -19.683  1.00  0.00    -0.188 N 
ATOM     13  H5  UNL     1      -0.631  51.282 -19.187  1.00  0.00     0.184 HD
HETATM   14  C26 UNL     1      -0.009  51.978 -21.028  1.00  0.00     0.083 A 
ENDROOT
BRANCH  11  15
HETATM   15  N3  UNL     1       0.656  52.951 -17.622  1.00  0.00    -0.190 N 
HETATM   16  H10 UNL     1      -0.207  53.366 -17.303  1.00  0.00     0.184 HD
BRANCH  15  17
HETATM   17  C14 UNL     1       1.576  52.577 -16.636  1.00  0.00     0.050 A 
HETATM   18  C15 UNL     1       2.962  52.605 -16.810  1.00  0.00     0.030 A 
HETATM   19  C16 UNL     1       3.830  52.223 -15.782  1.00  0.00     0.004 A 
HETATM   20  C17 UNL     1       3.322  51.795 -14.558  1.00  0.00     0.018 A 
HETATM   21  C18 UNL     1       1.943  51.742 -14.360  1.00  0.00     0.002 A 
HETATM   22  C25 UNL     1       1.085  52.145 -15.391  1.00  0.00     0.048 A 
BRANCH  21  23
HETATM   23  S1  UNL     1       1.252  51.207 -12.806  1.00  0.00    -0.128 SA
BRANCH  23  24
HETATM   24  C19 UNL     1       0.276  52.684 -12.351  1.00  0.00     0.109 C 
BRANCH  24  25
HETATM   25  C20 UNL     1      -0.380  52.664 -10.954  1.00  0.00     0.283 C 
BRANCH  25  26
HETATM   26  N4  UNL     1      -1.829  52.789 -10.802  1.00  0.00     0.089 N 
HETATM   27  C21 UNL     1      -2.323  54.066 -10.306  1.00  0.00     0.272 C 
HETATM   28  C22 UNL     1      -3.833  53.914 -10.440  1.00  0.00     0.032 C 
HETATM   29  C23 UNL     1      -4.036  52.848 -11.514  1.00  0.00     0.032 C 
HETATM   30  C24 UNL     1      -2.633  52.477 -11.975  1.00  0.00     0.272 C 
ENDBRANCH  25  26
ENDBRANCH  24  25
ENDBRANCH  23  24
ENDBRANCH  21  23
ENDBRANCH  15  17
ENDBRANCH  11  15
BRANCH   4  31
HETATM   31  C5  UNL     1       0.152  51.995 -25.330  1.00  0.00    -0.001 A 
HETATM   32  C6  UNL     1       1.399  51.840 -25.968  1.00  0.00     0.050 A 
HETATM   33  C7  UNL     1       1.486  51.841 -27.358  1.00  0.00     0.066 A 
HETATM   34  C8  UNL     1       0.352  51.999 -28.143  1.00  0.00     0.038 A 
HETATM   35  C9  UNL     1      -0.892  52.154 -27.532  1.00  0.00     0.027 A 
HETATM   36  C10 UNL     1      -0.994  52.152 -26.137  1.00  0.00     0.045 A 
HETATM   37 CL1  UNL     1      -2.568  52.363 -25.450  1.00  0.00    -0.083 Cl
BRANCH  33  38
HETATM   38  O1  UNL     1       2.680  51.686 -27.996  1.00  0.00    -0.361 OA
HETATM   39  H6  UNL     1       3.381  51.551 -27.335  1.00  0.00     0.217 HD
ENDBRANCH  33  38
ENDBRANCH   4  31
TORSDOF 8
ENDMDL
MODEL 3
REMARK minimizedAffinity -10.1267176
REMARK  8 active torsions:
REMARK  status: ('A' for Active; 'I' for Inactive)
REMARK    1  A    between atoms: C4_4  and  C5_5 
REMARK    2  A    between atoms: C7_7  and  O1_8 
REMARK    3  A    between atoms: C13_19  and  N3_20 
REMARK    4  A    between atoms: N3_20  and  C14_21 
REMARK    5  A    between atoms: C18_25  and  S1_26 
REMARK    6  A    between atoms: S1_26  and  C19_27 
REMARK    7  A    between atoms: C19_27  and  C20_28 
REMARK    8  A    between atoms: C20_28  and  N4_29 
ROOT
HETATM    1  C1  UNL     1      -1.232  49.955 -21.581  1.00  0.00     0.050 C 
HETATM    2  C2  UNL     1      -0.536  51.133 -22.210  1.00  0.00    -0.032 A 
HETATM    3  C3  UNL     1      -0.507  51.251 -23.610  1.00  0.00     0.021 A 
HETATM    4  C4  UNL     1       0.142  52.325 -24.224  1.00  0.00    -0.021 A 
HETATM    5  C11 UNL     1       0.759  53.277 -23.405  1.00  0.00     0.045 A 
HETATM    6  C12 UNL     1       0.738  53.168 -22.018  1.00  0.00     0.077 A 
HETATM    7  N1  UNL     1       1.337  54.087 -21.258  1.00  0.00    -0.284 N 
ATOM      8  H1  UNL     1       1.814  54.880 -21.687  1.00  0.00     0.187 HD
HETATM    9  N2  UNL     1       1.304  53.957 -19.899  1.00  0.00    -0.131 N 
ATOM     10  H2  UNL     1       1.761  54.655 -19.312  1.00  0.00     0.205 HD
HETATM   11  C13 UNL     1       0.672  52.913 -19.328  1.00  0.00     0.697 A 
HETATM   12  N5  UNL     1       0.057  51.973 -20.058  1.00  0.00    -0.188 N 
ATOM     13  H5  UNL     1      -0.420  51.191 -19.612  1.00  0.00     0.184 HD
HETATM   14  C26 UNL     1       0.087  52.091 -21.399  1.00  0.00     0.083 A 
ENDROOT
BRANCH  11  15
HETATM   15  N3  UNL     1       0.698  52.871 -17.934  1.00  0.00    -0.190 N 
HETATM   16  H10 UNL     1      -0.188  53.195 -17.575  1.00  0.00     0.184 HD
BRANCH  15  17
HETATM   17  C14 UNL     1       1.658  52.493 -16.988  1.00  0.00     0.050 A 
HETATM   18  C15 UNL     1       2.998  52.890 -17.033  1.00  0.00     0.030 A 
HETATM   19  C16 UNL     1       3.909  52.482 -16.055  1.00  0.00     0.004 A 
HETATM   20  C17 UNL     1       3.494  51.658 -15.012  1.00  0.00     0.018 A 
HETATM   21  C18 UNL     1       2.168  51.234 -14.948  1.00  0.00     0.002 A 
HETATM   22  C25 UNL     1       1.261  51.664 -15.925  1.00  0.00     0.048 A 
BRANCH  21  23
HETATM   23  S1  UNL     1       1.596  50.183 -13.625  1.00  0.00    -0.128 SA
BRANCH  23  24
HETATM   24  C19 UNL     1       0.845  51.427 -12.515  1.00  0.00     0.109 C 
BRANCH  24  25
HETATM   25  C20 UNL     1       1.710  51.887 -11.323  1.00  0.00     0.283 C 
BRANCH  25  26
HETATM   26  N4  UNL     1       1.378  53.098 -10.575  1.00  0.00     0.089 N 
HETATM   27  C21 UNL     1       2.365  54.169 -10.599  1.00  0.00     0.272 C 
HETATM   28  C22 UNL     1       1.638  55.309  -9.896  1.00  0.00     0.032 C 
HETATM   29  C23 UNL     1       0.152  55.000 -10.060  1.00  0.00     0.032 C 
HETATM   30  C24 UNL     1       0.101  53.724 -10.890  1.00  0.00     0.272 C 
ENDBRANCH  25  26
ENDBRANCH  24  25
ENDBRANCH  23  24
ENDBRANCH  21  23
ENDBRANCH  15  17
ENDBRANCH  11  15
BRANCH   4  31
HETATM   31  C5  UNL     1       0.170  52.455 -25.688  1.00  0.00    -0.001 A 
HETATM   32  C6  UNL     1      -0.837  53.207 -26.326  1.00  0.00     0.050 A 
HETATM   33  C7  UNL     1      -0.837  53.354 -27.710  1.00  0.00     0.066 A 
HETATM   34  C8  UNL     1       0.147  52.762 -28.490  1.00  0.00     0.038 A 
HETATM   35  C9  UNL     1       1.153  52.013 -27.880  1.00  0.00     0.027 A 
HETATM   36  C10 UNL     1       1.166  51.860 -26.489  1.00  0.00     0.045 A 
HETATM   37 CL1  UNL     1       2.437  50.906 -25.803  1.00  0.00    -0.083 Cl
BRANCH  33  38
HETATM   38  O1  UNL     1      -1.796  54.083 -28.348  1.00  0.00    -0.361 OA
HETATM   39  H6  UNL     1      -2.396  54.468 -27.688  1.00  0.00     0.217 HD
ENDBRANCH  33  38
ENDBRANCH   4  31
TORSDOF 8
ENDMDL
MODEL 4
REMARK minimizedAffinity -10.1063099
REMARK  8 active torsions:
REMARK  status: ('A' for Active; 'I' for Inactive)
REMARK    1  A    between atoms: C4_4  and  C5_5 
REMARK    2  A    between atoms: C7_7  and  O1_8 
REMARK    3  A    between atoms: C13_19  and  N3_20 
REMARK    4  A    between atoms: N3_20  and  C14_21 
REMARK    5  A    between atoms: C18_25  and  S1_26 
REMARK    6  A    between atoms: S1_26  and  C19_27 
REMARK    7  A    between atoms: C19_27  and  C20_28 
REMARK    8  A    between atoms: C20_28  and  N4_29 
ROOT
HETATM    1  C1  UNL     1      -1.476  49.923 -20.918  1.00  0.00     0.050 C 
HETATM    2  C2  UNL     1      -0.693  50.978 -21.655  1.00  0.00    -0.032 A 
HETATM    3  C3  UNL     1      -0.686  50.978 -23.060  1.00  0.00     0.021 A 
HETATM    4  C4  UNL     1       0.041  51.935 -23.772  1.00  0.00    -0.021 A 
HETATM    5  C11 UNL     1       0.758  52.892 -23.045  1.00  0.00     0.045 A 
HETATM    6  C12 UNL     1       0.759  52.899 -21.655  1.00  0.00     0.077 A 
HETATM    7  N1  UNL     1       1.454  53.821 -20.983  1.00  0.00    -0.284 N 
ATOM      8  H1  UNL     1       1.990  54.529 -21.485  1.00  0.00     0.187 HD
HETATM    9  N2  UNL     1       1.442  53.807 -19.618  1.00  0.00    -0.131 N 
ATOM     10  H2  UNL     1       1.972  54.507 -19.098  1.00  0.00     0.205 HD
HETATM   11  C13 UNL     1       0.733  52.874 -18.951  1.00  0.00     0.697 A 
HETATM   12  N5  UNL     1       0.021  51.936 -19.591  1.00  0.00    -0.188 N 
ATOM     13  H5  UNL     1      -0.513  51.239 -19.072  1.00  0.00     0.184 HD
HETATM   14  C26 UNL     1       0.031  51.940 -20.937  1.00  0.00     0.083 A 
ENDROOT
BRANCH  11  15
HETATM   15  N3  UNL     1       0.787  52.945 -17.559  1.00  0.00    -0.190 N 
HETATM   16  H10 UNL     1      -0.044  53.405 -17.217  1.00  0.00     0.184 HD
BRANCH  15  17
HETATM   17  C14 UNL     1       1.716  52.531 -16.598  1.00  0.00     0.050 A 
HETATM   18  C15 UNL     1       3.102  52.596 -16.772  1.00  0.00     0.030 A 
HETATM   19  C16 UNL     1       3.980  52.171 -15.771  1.00  0.00     0.004 A 
HETATM   20  C17 UNL     1       3.483  51.661 -14.573  1.00  0.00     0.018 A 
HETATM   21  C18 UNL     1       2.106  51.571 -14.376  1.00  0.00     0.002 A 
HETATM   22  C25 UNL     1       1.237  52.018 -15.380  1.00  0.00     0.048 A 
BRANCH  21  23
HETATM   23  S1  UNL     1       1.430  50.932 -12.855  1.00  0.00    -0.128 SA
BRANCH  23  24
HETATM   24  C19 UNL     1       1.224  52.482 -11.907  1.00  0.00     0.109 C 
BRANCH  24  25
HETATM   25  C20 UNL     1       2.446  52.947 -11.087  1.00  0.00     0.283 C 
BRANCH  25  26
HETATM   26  N4  UNL     1       2.538  54.317 -10.585  1.00  0.00     0.089 N 
HETATM   27  C21 UNL     1       2.239  54.513  -9.173  1.00  0.00     0.272 C 
HETATM   28  C22 UNL     1       2.599  55.977  -8.957  1.00  0.00     0.032 C 
HETATM   29  C23 UNL     1       3.595  56.314 -10.062  1.00  0.00     0.032 C 
HETATM   30  C24 UNL     1       3.793  55.013 -10.829  1.00  0.00     0.272 C 
ENDBRANCH  25  26
ENDBRANCH  24  25
ENDBRANCH  23  24
ENDBRANCH  21  23
ENDBRANCH  15  17
ENDBRANCH  11  15
BRANCH   4  31
HETATM   31  C5  UNL     1       0.047  51.941 -25.242  1.00  0.00    -0.001 A 
HETATM   32  C6  UNL     1       1.275  51.804 -25.920  1.00  0.00     0.050 A 
HETATM   33  C7  UNL     1       1.315  51.800 -27.312  1.00  0.00     0.066 A 
HETATM   34  C8  UNL     1       0.152  51.934 -28.059  1.00  0.00     0.038 A 
HETATM   35  C9  UNL     1      -1.073  52.071 -27.408  1.00  0.00     0.027 A 
HETATM   36  C10 UNL     1      -1.128  52.074 -26.010  1.00  0.00     0.045 A 
HETATM   37 CL1  UNL     1      -2.682  52.260 -25.271  1.00  0.00    -0.083 Cl
BRANCH  33  38
HETATM   38  O1  UNL     1       2.489  51.663 -27.990  1.00  0.00    -0.361 OA
HETATM   39  H6  UNL     1       3.213  51.543 -27.353  1.00  0.00     0.217 HD
ENDBRANCH  33  38
ENDBRANCH   4  31
TORSDOF 8
ENDMDL
MODEL 5
REMARK minimizedAffinity -9.97566891
REMARK  8 active torsions:
REMARK  status: ('A' for Active; 'I' for Inactive)
REMARK    1  A    between atoms: C4_4  and  C5_5 
REMARK    2  A    between atoms: C7_7  and  O1_8 
REMARK    3  A    between atoms: C13_19  and  N3_20 
REMARK    4  A    between atoms: N3_20  and  C14_21 
REMARK    5  A    between atoms: C18_25  and  S1_26 
REMARK    6  A    between atoms: S1_26  and  C19_27 
REMARK    7  A    between atoms: C19_27  and  C20_28 
REMARK    8  A    between atoms: C20_28  and  N4_29 
ROOT
HETATM    1  C1  UNL     1       1.133  53.877 -22.935  1.00  0.00     0.050 C 
HETATM    2  C2  UNL     1       0.226  52.707 -22.654  1.00  0.00    -0.032 A 
HETATM    3  C3  UNL     1      -0.416  52.058 -23.723  1.00  0.00     0.021 A 
HETATM    4  C4  UNL     1      -1.273  50.980 -23.495  1.00  0.00    -0.021 A 
HETATM    5  C11 UNL     1      -1.471  50.565 -22.173  1.00  0.00     0.045 A 
HETATM    6  C12 UNL     1      -0.843  51.202 -21.108  1.00  0.00     0.077 A 
HETATM    7  N1  UNL     1      -1.050  50.789 -19.855  1.00  0.00    -0.284 N 
ATOM      8  H1  UNL     1      -1.671  50.002 -19.668  1.00  0.00     0.187 HD
HETATM    9  N2  UNL     1      -0.423  51.432 -18.826  1.00  0.00    -0.131 N 
ATOM     10  H2  UNL     1      -0.579  51.123 -17.866  1.00  0.00     0.205 HD
HETATM   11  C13 UNL     1       0.399  52.471 -19.070  1.00  0.00     0.697 A 
HETATM   12  N5  UNL     1       0.635  52.910 -20.313  1.00  0.00    -0.188 N 
ATOM     13  H5  UNL     1       1.263  53.695 -20.482  1.00  0.00     0.184 HD
HETATM   14  C26 UNL     1       0.019  52.285 -21.334  1.00  0.00     0.083 A 
ENDROOT
BRANCH  11  15
HETATM   15  N3  UNL     1       0.989  53.059 -17.951  1.00  0.00    -0.190 N 
HETATM   16  H10 UNL     1       0.756  54.041 -17.929  1.00  0.00     0.184 HD
BRANCH  15  17
HETATM   17  C14 UNL     1       1.799  52.582 -16.913  1.00  0.00     0.050 A 
HETATM   18  C15 UNL     1       3.185  52.752 -16.863  1.00  0.00     0.030 A 
HETATM   19  C16 UNL     1       3.939  52.256 -15.796  1.00  0.00     0.004 A 
HETATM   20  C17 UNL     1       3.315  51.570 -14.756  1.00  0.00     0.018 A 
HETATM   21  C18 UNL     1       1.936  51.372 -14.785  1.00  0.00     0.002 A 
HETATM   22  C25 UNL     1       1.190  51.890 -15.852  1.00  0.00     0.048 A 
BRANCH  21  23
HETATM   23  S1  UNL     1       1.099  50.506 -13.471  1.00  0.00    -0.128 SA
BRANCH  23  24
HETATM   24  C19 UNL     1      -0.228  51.701 -13.078  1.00  0.00     0.109 C 
BRANCH  24  25
HETATM   25  C20 UNL     1      -0.612  51.828 -11.589  1.00  0.00     0.283 C 
BRANCH  25  26
HETATM   26  N4  UNL     1      -1.915  52.359 -11.191  1.00  0.00     0.089 N 
HETATM   27  C21 UNL     1      -1.920  53.687 -10.593  1.00  0.00     0.272 C 
HETATM   28  C22 UNL     1      -3.408  53.993 -10.473  1.00  0.00     0.032 C 
HETATM   29  C23 UNL     1      -4.085  53.110 -11.518  1.00  0.00     0.032 C 
HETATM   30  C24 UNL     1      -2.947  52.378 -12.217  1.00  0.00     0.272 C 
ENDBRANCH  25  26
ENDBRANCH  24  25
ENDBRANCH  23  24
ENDBRANCH  21  23
ENDBRANCH  15  17
ENDBRANCH  11  15
BRANCH   4  31
HETATM   31  C5  UNL     1      -1.941  50.296 -24.610  1.00  0.00    -0.001 A 
HETATM   32  C6  UNL     1      -1.870  50.862 -25.899  1.00  0.00     0.050 A 
HETATM   33  C7  UNL     1      -2.488  50.237 -26.979  1.00  0.00     0.066 A 
HETATM   34  C8  UNL     1      -3.188  49.050 -26.811  1.00  0.00     0.038 A 
HETATM   35  C9  UNL     1      -3.272  48.473 -25.545  1.00  0.00     0.027 A 
HETATM   36  C10 UNL     1      -2.653  49.089 -24.451  1.00  0.00     0.045 A 
HETATM   37 CL1  UNL     1      -2.809  48.322 -22.908  1.00  0.00    -0.083 Cl
BRANCH  33  38
HETATM   38  O1  UNL     1      -2.426  50.762 -28.236  1.00  0.00    -0.361 OA
HETATM   39  H6  UNL     1      -1.881  51.567 -28.219  1.00  0.00     0.217 HD
ENDBRANCH  33  38
ENDBRANCH   4  31
TORSDOF 8
ENDMDL
MODEL 6
REMARK minimizedAffinity -9.86993599
REMARK  8 active torsions:
REMARK  status: ('A' for Active; 'I' for Inactive)
REMARK    1  A    between atoms: C4_4  and  C5_5 
REMARK    2  A    between atoms: C7_7  and  O1_8 
REMARK    3  A    between atoms: C13_19  and  N3_20 
REMARK    4  A    between atoms: N3_20  and  C14_21 
REMARK    5  A    between atoms: C18_25  and  S1_26 
REMARK    6  A    between atoms: S1_26  and  C19_27 
REMARK    7  A    between atoms: C19_27  and  C20_28 
REMARK    8  A    between atoms: C20_28  and  N4_29 
ROOT
HETATM    1  C1  UNL     1       1.742  54.669 -21.990  1.00  0.00     0.050 C 
HETATM    2  C2  UNL     1       0.873  53.438 -21.985  1.00  0.00    -0.032 A 
HETATM    3  C3  UNL     1       0.363  52.948 -23.200  1.00  0.00     0.021 A 
HETATM    4  C4  UNL     1      -0.457  51.818 -23.228  1.00  0.00    -0.021 A 
HETATM    5  C11 UNL     1      -0.753  51.190 -22.013  1.00  0.00     0.045 A 
HETATM    6  C12 UNL     1      -0.256  51.668 -20.806  1.00  0.00     0.077 A 
HETATM    7  N1  UNL     1      -0.555  51.053 -19.659  1.00  0.00    -0.284 N 
ATOM      8  H1  UNL     1      -1.151  50.225 -19.659  1.00  0.00     0.187 HD
HETATM    9  N2  UNL     1      -0.057  51.543 -18.486  1.00  0.00    -0.131 N 
ATOM     10  H2  UNL     1      -0.283  51.079 -17.606  1.00  0.00     0.205 HD
HETATM   11  C13 UNL     1       0.732  52.635 -18.482  1.00  0.00     0.697 A 
HETATM   12  N5  UNL     1       1.057  53.276 -19.613  1.00  0.00    -0.188 N 
ATOM     13  H5  UNL     1       1.659  54.099 -19.595  1.00  0.00     0.184 HD
HETATM   14  C26 UNL     1       0.568  52.803 -20.774  1.00  0.00     0.083 A 
ENDROOT
BRANCH  11  15
HETATM   15  N3  UNL     1       1.188  53.056 -17.233  1.00  0.00    -0.190 N 
HETATM   16  H10 UNL     1       0.822  53.976 -17.037  1.00  0.00     0.184 HD
BRANCH  15  17
HETATM   17  C14 UNL     1       2.012  52.487 -16.254  1.00  0.00     0.050 A 
HETATM   18  C15 UNL     1       3.398  52.355 -16.380  1.00  0.00     0.030 A 
HETATM   19  C16 UNL     1       4.167  51.781 -15.364  1.00  0.00     0.004 A 
HETATM   20  C17 UNL     1       3.557  51.317 -14.200  1.00  0.00     0.018 A 
HETATM   21  C18 UNL     1       2.175  51.422 -14.052  1.00  0.00     0.002 A 
HETATM   22  C25 UNL     1       1.418  52.016 -15.070  1.00  0.00     0.048 A 
BRANCH  21  23
HETATM   23  S1  UNL     1       1.358  50.848 -12.575  1.00  0.00    -0.128 SA
BRANCH  23  24
HETATM   24  C19 UNL     1       0.848  52.441 -11.838  1.00  0.00     0.109 C 
BRANCH  24  25
HETATM   25  C20 UNL     1       1.730  52.974 -10.689  1.00  0.00     0.283 C 
BRANCH  25  26
HETATM   26  N4  UNL     1       2.652  54.088 -10.903  1.00  0.00     0.089 N 
HETATM   27  C21 UNL     1       2.156  55.416 -10.567  1.00  0.00     0.272 C 
HETATM   28  C22 UNL     1       3.395  56.286 -10.733  1.00  0.00     0.032 C 
HETATM   29  C23 UNL     1       4.579  55.336 -10.571  1.00  0.00     0.032 C 
HETATM   30  C24 UNL     1       3.959  53.977 -10.272  1.00  0.00     0.272 C 
ENDBRANCH  25  26
ENDBRANCH  24  25
ENDBRANCH  23  24
ENDBRANCH  21  23
ENDBRANCH  15  17
ENDBRANCH  11  15
BRANCH   4  31
HETATM   31  C5  UNL     1      -0.986  51.299 -24.497  1.00  0.00    -0.001 A 
HETATM   32  C6  UNL     1      -2.334  50.893 -24.558  1.00  0.00     0.050 A 
HETATM   33  C7  UNL     1      -2.870  50.402 -25.746  1.00  0.00     0.066 A 
HETATM   34  C8  UNL     1      -2.090  50.298 -26.891  1.00  0.00     0.038 A 
HETATM   35  C9  UNL     1      -0.753  50.695 -26.852  1.00  0.00     0.027 A 
HETATM   36  C10 UNL     1      -0.204  51.192 -25.665  1.00  0.00     0.045 A 
HETATM   37 CL1  UNL     1       1.464  51.653 -25.688  1.00  0.00    -0.083 Cl
BRANCH  33  38
HETATM   38  O1  UNL     1      -4.172  50.010 -25.832  1.00  0.00    -0.361 OA
HETATM   39  H6  UNL     1      -4.609  50.166 -24.978  1.00  0.00     0.217 HD
ENDBRANCH  33  38
ENDBRANCH   4  31
TORSDOF 8
ENDMDL
MODEL 7
REMARK minimizedAffinity -9.67521858
REMARK  8 active torsions:
REMARK  status: ('A' for Active; 'I' for Inactive)
REMARK    1  A    between atoms: C4_4  and  C5_5 
REMARK    2  A    between atoms: C7_7  and  O1_8 
REMARK    3  A    between atoms: C13_19  and  N3_20 
REMARK    4  A    between atoms: N3_20  and  C14_21 
REMARK    5  A    between atoms: C18_25  and  S1_26 
REMARK    6  A    between atoms: S1_26  and  C19_27 
REMARK    7  A    between atoms: C19_27  and  C20_28 
REMARK    8  A    between atoms: C20_28  and  N4_29 
ROOT
HETATM    1  C1  UNL     1       1.336  54.303 -22.499  1.00  0.00     0.050 C 
HETATM    2  C2  UNL     1       0.526  53.050 -22.296  1.00  0.00    -0.032 A 
HETATM    3  C3  UNL     1      -0.084  52.435 -23.403  1.00  0.00     0.021 A 
HETATM    4  C4  UNL     1      -0.853  51.279 -23.246  1.00  0.00    -0.021 A 
HETATM    5  C11 UNL     1      -0.995  50.754 -21.957  1.00  0.00     0.045 A 
HETATM    6  C12 UNL     1      -0.398  51.356 -20.855  1.00  0.00     0.077 A 
HETATM    7  N1  UNL     1      -0.551  50.837 -19.634  1.00  0.00    -0.284 N 
ATOM      8  H1  UNL     1      -1.108  49.993 -19.499  1.00  0.00     0.187 HD
HETATM    9  N2  UNL     1       0.043  51.448 -18.567  1.00  0.00    -0.131 N 
ATOM     10  H2  UNL     1      -0.071  51.058 -17.631  1.00  0.00     0.205 HD
HETATM   11  C13 UNL     1       0.780  52.562 -18.742  1.00  0.00     0.697 A 
HETATM   12  N5  UNL     1       0.960  53.109 -19.951  1.00  0.00    -0.188 N 
ATOM     13  H5  UNL     1       1.524  53.950 -20.068  1.00  0.00     0.184 HD
HETATM   14  C26 UNL     1       0.375  52.516 -21.009  1.00  0.00     0.083 A 
ENDROOT
BRANCH  11  15
HETATM   15  N3  UNL     1       1.344  53.109 -17.589  1.00  0.00    -0.190 N 
HETATM   16  H10 UNL     1       1.121  54.092 -17.543  1.00  0.00     0.184 HD
BRANCH  15  17
HETATM   17  C14 UNL     1       2.118  52.592 -16.543  1.00  0.00     0.050 A 
HETATM   18  C15 UNL     1       3.509  52.464 -16.591  1.00  0.00     0.030 A 
HETATM   19  C16 UNL     1       4.227  51.943 -15.510  1.00  0.00     0.004 A 
HETATM   20  C17 UNL     1       3.560  51.531 -14.359  1.00  0.00     0.018 A 
HETATM   21  C18 UNL     1       2.172  51.633 -14.288  1.00  0.00     0.002 A 
HETATM   22  C25 UNL     1       1.466  52.173 -15.371  1.00  0.00     0.048 A 
BRANCH  21  23
HETATM   23  S1  UNL     1       1.281  51.123 -12.829  1.00  0.00    -0.128 SA
BRANCH  23  24
HETATM   24  C19 UNL     1       0.214  52.584 -12.565  1.00  0.00     0.109 C 
BRANCH  24  25
HETATM   25  C20 UNL     1      -0.586  52.614 -11.247  1.00  0.00     0.283 C 
BRANCH  25  26
HETATM   26  N4  UNL     1      -2.013  52.935 -11.239  1.00  0.00     0.089 N 
HETATM   27  C21 UNL     1      -2.932  51.809 -11.142  1.00  0.00     0.272 C 
HETATM   28  C22 UNL     1      -4.283  52.495 -10.981  1.00  0.00     0.032 C 
HETATM   29  C23 UNL     1      -3.967  53.879 -10.420  1.00  0.00     0.032 C 
HETATM   30  C24 UNL     1      -2.454  53.899 -10.243  1.00  0.00     0.272 C 
ENDBRANCH  25  26
ENDBRANCH  24  25
ENDBRANCH  23  24
ENDBRANCH  21  23
ENDBRANCH  15  17
ENDBRANCH  11  15
BRANCH   4  31
HETATM   31  C5  UNL     1      -1.488  50.631 -24.402  1.00  0.00    -0.001 A 
HETATM   32  C6  UNL     1      -2.668  49.887 -24.204  1.00  0.00     0.050 A 
HETATM   33  C7  UNL     1      -3.297  49.264 -25.279  1.00  0.00     0.066 A 
HETATM   34  C8  UNL     1      -2.777  49.358 -26.562  1.00  0.00     0.038 A 
HETATM   35  C9  UNL     1      -1.609  50.089 -26.780  1.00  0.00     0.027 A 
HETATM   36  C10 UNL     1      -0.968  50.722 -25.710  1.00  0.00     0.045 A 
HETATM   37 CL1  UNL     1       0.482  51.601 -26.053  1.00  0.00    -0.083 Cl
BRANCH  33  38
HETATM   38  O1  UNL     1      -4.443  48.545 -25.113  1.00  0.00    -0.361 OA
HETATM   39  H6  UNL     1      -4.716  48.589 -24.181  1.00  0.00     0.217 HD
ENDBRANCH  33  38
ENDBRANCH   4  31
TORSDOF 8
ENDMDL
MODEL 8
REMARK minimizedAffinity -9.62596416
REMARK  8 active torsions:
REMARK  status: ('A' for Active; 'I' for Inactive)
REMARK    1  A    between atoms: C4_4  and  C5_5 
REMARK    2  A    between atoms: C7_7  and  O1_8 
REMARK    3  A    between atoms: C13_19  and  N3_20 
REMARK    4  A    between atoms: N3_20  and  C14_21 
REMARK    5  A    between atoms: C18_25  and  S1_26 
REMARK    6  A    between atoms: S1_26  and  C19_27 
REMARK    7  A    between atoms: C19_27  and  C20_28 
REMARK    8  A    between atoms: C20_28  and  N4_29 
ROOT
HETATM    1  C1  UNL     1       1.511  54.168 -21.281  1.00  0.00     0.050 C 
HETATM    2  C2  UNL     1       0.807  53.144 -22.132  1.00  0.00    -0.032 A 
HETATM    3  C3  UNL     1       0.811  53.286 -23.530  1.00  0.00     0.021 A 
HETATM    4  C4  UNL     1       0.156  52.360 -24.345  1.00  0.00    -0.021 A 
HETATM    5  C11 UNL     1      -0.501  51.290 -23.729  1.00  0.00     0.045 A 
HETATM    6  C12 UNL     1      -0.513  51.141 -22.346  1.00  0.00     0.077 A 
HETATM    7  N1  UNL     1      -1.151  50.113 -21.781  1.00  0.00    -0.284 N 
ATOM      8  H1  UNL     1      -1.633  49.425 -22.360  1.00  0.00     0.187 HD
HETATM    9  N2  UNL     1      -1.150  49.989 -20.421  1.00  0.00    -0.131 N 
ATOM     10  H2  UNL     1      -1.637  49.207 -19.983  1.00  0.00     0.205 HD
HETATM   11  C13 UNL     1      -0.512  50.895 -19.654  1.00  0.00     0.697 A 
HETATM   12  N5  UNL     1       0.141  51.937 -20.185  1.00  0.00    -0.188 N 
ATOM     13  H5  UNL     1       0.623  52.612 -19.591  1.00  0.00     0.184 HD
HETATM   14  C26 UNL     1       0.144  52.069 -21.525  1.00  0.00     0.083 A 
ENDROOT
BRANCH  11  15
HETATM   15  N3  UNL     1      -0.572  50.680 -18.277  1.00  0.00    -0.190 N 
HETATM   16  H10 UNL     1      -1.360  50.085 -18.067  1.00  0.00     0.184 HD
BRANCH  15  17
HETATM   17  C14 UNL     1       0.199  51.106 -17.190  1.00  0.00     0.050 A 
HETATM   18  C15 UNL     1       1.209  52.070 -17.279  1.00  0.00     0.030 A 
HETATM   19  C16 UNL     1       1.942  52.457 -16.154  1.00  0.00     0.004 A 
HETATM   20  C17 UNL     1       1.683  51.877 -14.914  1.00  0.00     0.018 A 
HETATM   21  C18 UNL     1       0.693  50.904 -14.797  1.00  0.00     0.002 A 
HETATM   22  C25 UNL     1      -0.048  50.537 -15.929  1.00  0.00     0.048 A 
BRANCH  21  23
HETATM   23  S1  UNL     1       0.326  50.142 -13.227  1.00  0.00    -0.128 SA
BRANCH  23  24
HETATM   24  C19 UNL     1       0.427  51.596 -12.123  1.00  0.00     0.109 C 
BRANCH  24  25
HETATM   25  C20 UNL     1      -0.644  51.687 -11.016  1.00  0.00     0.283 C 
BRANCH  25  26
HETATM   26  N4  UNL     1      -1.843  52.503 -11.195  1.00  0.00     0.089 N 
HETATM   27  C21 UNL     1      -3.096  51.785 -11.385  1.00  0.00     0.272 C 
HETATM   28  C22 UNL     1      -4.129  52.905 -11.356  1.00  0.00     0.032 C 
HETATM   29  C23 UNL     1      -3.467  54.043 -10.585  1.00  0.00     0.032 C 
HETATM   30  C24 UNL     1      -2.106  53.502 -10.169  1.00  0.00     0.272 C 
ENDBRANCH  25  26
ENDBRANCH  24  25
ENDBRANCH  23  24
ENDBRANCH  21  23
ENDBRANCH  15  17
ENDBRANCH  11  15
BRANCH   4  31
HETATM   31  C5  UNL     1       0.164  52.503 -25.808  1.00  0.00    -0.001 A 
HETATM   32  C6  UNL     1      -0.857  53.253 -26.426  1.00  0.00     0.050 A 
HETATM   33  C7  UNL     1      -0.876  53.413 -27.809  1.00  0.00     0.066 A 
HETATM   34  C8  UNL     1       0.102  52.834 -28.607  1.00  0.00     0.038 A 
HETATM   35  C9  UNL     1       1.120  52.087 -28.017  1.00  0.00     0.027 A 
HETATM   36  C10 UNL     1       1.153  51.922 -26.627  1.00  0.00     0.045 A 
HETATM   37 CL1  UNL     1       2.439  50.971 -25.967  1.00  0.00    -0.083 Cl
BRANCH  33  38
HETATM   38  O1  UNL     1      -1.848  54.140 -28.428  1.00  0.00    -0.361 OA
HETATM   39  H6  UNL     1      -2.443  54.515 -27.756  1.00  0.00     0.217 HD
ENDBRANCH  33  38
ENDBRANCH   4  31
TORSDOF 8
ENDMDL
MODEL 9
REMARK minimizedAffinity -9.6092453
REMARK  8 active torsions:
REMARK  status: ('A' for Active; 'I' for Inactive)
REMARK    1  A    between atoms: C4_4  and  C5_5 
REMARK    2  A    between atoms: C7_7  and  O1_8 
REMARK    3  A    between atoms: C13_19  and  N3_20 
REMARK    4  A    between atoms: N3_20  and  C14_21 
REMARK    5  A    between atoms: C18_25  and  S1_26 
REMARK    6  A    between atoms: S1_26  and  C19_27 
REMARK    7  A    between atoms: C19_27  and  C20_28 
REMARK    8  A    between atoms: C20_28  and  N4_29 
ROOT
HETATM    1  C1  UNL     1       1.084  53.926 -20.856  1.00  0.00     0.050 C 
HETATM    2  C2  UNL     1       0.383  52.928 -21.740  1.00  0.00    -0.032 A 
HETATM    3  C3  UNL     1       0.681  52.893 -23.114  1.00  0.00     0.021 A 
HETATM    4  C4  UNL     1       0.038  51.988 -23.962  1.00  0.00    -0.021 A 
HETATM    5  C11 UNL     1      -0.907  51.121 -23.405  1.00  0.00     0.045 A 
HETATM    6  C12 UNL     1      -1.212  51.150 -22.048  1.00  0.00     0.077 A 
HETATM    7  N1  UNL     1      -2.121  50.314 -21.540  1.00  0.00    -0.284 N 
ATOM      8  H1  UNL     1      -2.600  49.645 -22.143  1.00  0.00     0.187 HD
HETATM    9  N2  UNL     1      -2.404  50.363 -20.205  1.00  0.00    -0.131 N 
ATOM     10  H2  UNL     1      -3.099  49.729 -19.811  1.00  0.00     0.205 HD
HETATM   11  C13 UNL     1      -1.772  51.244 -19.405  1.00  0.00     0.697 A 
HETATM   12  N5  UNL     1      -0.851  52.095 -19.878  1.00  0.00    -0.188 N 
ATOM     13  H5  UNL     1      -0.378  52.753 -19.259  1.00  0.00     0.184 HD
HETATM   14  C26 UNL     1      -0.568  52.056 -21.193  1.00  0.00     0.083 A 
ENDROOT
BRANCH  11  15
HETATM   15  N3  UNL     1      -2.133  51.214 -18.058  1.00  0.00    -0.190 N 
HETATM   16  H10 UNL     1      -2.981  51.746 -17.929  1.00  0.00     0.184 HD
BRANCH  15  17
HETATM   17  C14 UNL     1      -1.580  50.628 -16.913  1.00  0.00     0.050 A 
HETATM   18  C15 UNL     1      -0.272  50.139 -16.841  1.00  0.00     0.030 A 
HETATM   19  C16 UNL     1       0.224  49.567 -15.666  1.00  0.00     0.004 A 
HETATM   20  C17 UNL     1      -0.587  49.467 -14.538  1.00  0.00     0.018 A 
HETATM   21  C18 UNL     1      -1.900  49.933 -14.584  1.00  0.00     0.002 A 
HETATM   22  C25 UNL     1      -2.379  50.520 -15.763  1.00  0.00     0.048 A 
BRANCH  21  23
HETATM   23  S1  UNL     1      -2.968  49.830 -13.160  1.00  0.00    -0.128 SA
BRANCH  23  24
HETATM   24  C19 UNL     1      -2.672  51.467 -12.404  1.00  0.00     0.109 C 
BRANCH  24  25
HETATM   25  C20 UNL     1      -1.389  51.605 -11.558  1.00  0.00     0.283 C 
BRANCH  25  26
HETATM   26  N4  UNL     1      -1.070  52.857 -10.873  1.00  0.00     0.089 N 
HETATM   27  C21 UNL     1       0.109  53.573 -11.342  1.00  0.00     0.272 C 
HETATM   28  C22 UNL     1       0.040  54.877 -10.558  1.00  0.00     0.032 C 
HETATM   29  C23 UNL     1      -1.429  55.040 -10.176  1.00  0.00     0.032 C 
HETATM   30  C24 UNL     1      -2.136  53.845 -10.801  1.00  0.00     0.272 C 
ENDBRANCH  25  26
ENDBRANCH  24  25
ENDBRANCH  23  24
ENDBRANCH  21  23
ENDBRANCH  15  17
ENDBRANCH  11  15
BRANCH   4  31
HETATM   31  C5  UNL     1       0.352  51.945 -25.397  1.00  0.00    -0.001 A 
HETATM   32  C6  UNL     1       1.689  51.750 -25.798  1.00  0.00     0.050 A 
HETATM   33  C7  UNL     1       2.020  51.699 -27.150  1.00  0.00     0.066 A 
HETATM   34  C8  UNL     1       1.045  51.842 -28.128  1.00  0.00     0.038 A 
HETATM   35  C9  UNL     1      -0.284  52.036 -27.754  1.00  0.00     0.027 A 
HETATM   36  C10 UNL     1      -0.630  52.087 -26.399  1.00  0.00     0.045 A 
HETATM   37 CL1  UNL     1      -2.297  52.343 -26.009  1.00  0.00    -0.083 Cl
BRANCH  33  38
HETATM   38  O1  UNL     1       3.305  51.504 -27.561  1.00  0.00    -0.361 OA
HETATM   39  H6  UNL     1       3.875  51.385 -26.783  1.00  0.00     0.217 HD
ENDBRANCH  33  38
ENDBRANCH   4  31
TORSDOF 8
ENDMDL
