MODEL 1
REMARK minimizedAffinity -7.38600349
REMARK  5 active torsions:
REMARK  status: ('A' for Active; 'I' for Inactive)
REMARK    1  A    between atoms: C2_2  and  N1_5 
REMARK    2  A    between atoms: C5_8  and  C6_9 
REMARK    3  A    between atoms: C10_15  and  O1_16 
REMARK    4  A    between atoms: O1_16  and  C11_17 
REMARK    5  A    between atoms: C18_24  and  C19_25 
REMARK       I    between atoms: C19_25  and  N4_26 
ROOT
HETATM    1  N1  UNL     1      16.715  35.887  13.888  1.00  0.00    -0.267 N 
HETATM    2  N2  UNL     1      15.621  35.344  14.469  1.00  0.00    -0.294 N 
ATOM      3  H2  UNL     1      15.174  34.458  14.235  1.00  0.00     0.187 HD
HETATM    4  C5  UNL     1      15.251  36.213  15.417  1.00  0.00     0.079 A 
HETATM    5  C18 UNL     1      16.152  37.315  15.490  1.00  0.00     0.105 A 
HETATM    6  C20 UNL     1      17.046  37.104  14.452  1.00  0.00     0.134 A 
HETATM    7  N5  UNL     1      18.080  37.886  14.051  1.00  0.00    -0.383 N 
HETATM    8  H22 UNL     1      18.106  38.836  14.436  1.00  0.00     0.157 HD
HETATM    9  H23 UNL     1      18.413  37.878  13.093  1.00  0.00     0.157 HD
ENDROOT
BRANCH   4  10
HETATM   10  C6  UNL     1      14.045  35.950  16.192  1.00  0.00     0.009 A 
HETATM   11  C7  UNL     1      12.807  36.396  15.753  1.00  0.00     0.102 A 
HETATM   12  N3  UNL     1      11.636  36.167  16.400  1.00  0.00    -0.364 N 
HETATM   13  C8  UNL     1      11.680  35.490  17.560  1.00  0.00     0.045 A 
ATOM     14  H3  UNL     1      10.751  36.497  16.017  1.00  0.00     0.165 HD
HETATM   15  C9  UNL     1      10.500  35.247  18.250  1.00  0.00     0.067 A 
HETATM   16  C16 UNL     1      12.892  35.014  18.108  1.00  0.00    -0.008 A 
HETATM   17  C10 UNL     1      10.494  34.557  19.464  1.00  0.00     0.071 A 
HETATM   18  C14 UNL     1      11.691  34.082  19.994  1.00  0.00     0.038 A 
HETATM   19  C15 UNL     1      12.890  34.312  19.322  1.00  0.00     0.016 A 
HETATM   20  C17 UNL     1      14.080  35.259  17.403  1.00  0.00     0.029 A 
BRANCH  17  21
HETATM   21  O1  UNL     1       9.369  34.267  20.196  1.00  0.00    -0.346 OA
BRANCH  21  22
HETATM   22  C11 UNL     1       8.239  35.138  20.002  1.00  0.00     0.129 A 
HETATM   23  C12 UNL     1       7.395  35.353  21.230  1.00  0.00     0.035 A 
HETATM   24  C13 UNL     1       6.877  34.507  20.105  1.00  0.00     0.035 A 
ENDBRANCH  21  22
ENDBRANCH  17  21
ENDBRANCH   4  10
BRANCH   5  25
HETATM   25  C19 UNL     1      16.193  38.459  16.385  1.00  0.00     0.255 C 
HETATM   26  N4  UNL     1      15.083  39.254  16.412  1.00  0.00    -0.366 N 
HETATM   27  H20 UNL     1      15.056  39.954  17.142  1.00  0.00     0.159 HD
HETATM   28  H21 UNL     1      14.202  38.954  16.019  1.00  0.00     0.159 HD
HETATM   29  O2  UNL     1      17.138  38.704  17.130  1.00  0.00    -0.268 OA
ENDBRANCH   5  25
BRANCH   1  30
HETATM   30  C2  UNL     1      17.371  35.153  12.785  1.00  0.00     0.044 C 
HETATM   31  C1  UNL     1      18.719  34.584  13.263  1.00  0.00     0.039 C 
HETATM   32  C3  UNL     1      16.467  34.022  12.253  1.00  0.00     0.039 C 
HETATM   33  C4  UNL     1      17.667  36.085  11.578  1.00  0.00     0.039 C 
ENDBRANCH   1  30
TORSDOF 5
ENDMDL
MODEL 2
REMARK minimizedAffinity -7.15572405
REMARK  5 active torsions:
REMARK  status: ('A' for Active; 'I' for Inactive)
REMARK    1  A    between atoms: C2_2  and  N1_5 
REMARK    2  A    between atoms: C5_8  and  C6_9 
REMARK    3  A    between atoms: C10_15  and  O1_16 
REMARK    4  A    between atoms: O1_16  and  C11_17 
REMARK    5  A    between atoms: C18_24  and  C19_25 
REMARK       I    between atoms: C19_25  and  N4_26 
ROOT
HETATM    1  N1  UNL     1      14.748  37.019  20.797  1.00  0.00    -0.267 N 
HETATM    2  N2  UNL     1      13.501  36.661  21.178  1.00  0.00    -0.294 N 
ATOM      3  H2  UNL     1      13.112  36.687  22.120  1.00  0.00     0.187 HD
HETATM    4  C5  UNL     1      12.885  36.265  20.057  1.00  0.00     0.079 A 
HETATM    5  C18 UNL     1      13.729  36.421  18.919  1.00  0.00     0.105 A 
HETATM    6  C20 UNL     1      14.940  36.850  19.440  1.00  0.00     0.134 A 
HETATM    7  N5  UNL     1      16.101  37.104  18.786  1.00  0.00    -0.383 N 
HETATM    8  H22 UNL     1      16.159  36.772  17.817  1.00  0.00     0.157 HD
HETATM    9  H23 UNL     1      17.001  37.021  19.247  1.00  0.00     0.157 HD
ENDROOT
BRANCH   4  10
HETATM   10  C6  UNL     1      11.526  35.744  20.138  1.00  0.00     0.009 A 
HETATM   11  C7  UNL     1      11.234  34.641  20.928  1.00  0.00     0.102 A 
HETATM   12  N3  UNL     1       9.992  34.115  21.080  1.00  0.00    -0.364 N 
HETATM   13  C8  UNL     1       8.982  34.678  20.396  1.00  0.00     0.045 A 
ATOM     14  H3  UNL     1       9.831  33.318  21.694  1.00  0.00     0.165 HD
HETATM   15  C9  UNL     1       7.701  34.157  20.524  1.00  0.00     0.067 A 
HETATM   16  C16 UNL     1       9.176  35.788  19.545  1.00  0.00    -0.008 A 
HETATM   17  C10 UNL     1       6.620  34.700  19.827  1.00  0.00     0.071 A 
HETATM   18  C14 UNL     1       6.816  35.801  18.997  1.00  0.00     0.038 A 
HETATM   19  C15 UNL     1       8.091  36.344  18.850  1.00  0.00     0.016 A 
HETATM   20  C17 UNL     1      10.472  36.313  19.424  1.00  0.00     0.029 A 
BRANCH  17  21
HETATM   21  O1  UNL     1       5.326  34.249  19.912  1.00  0.00    -0.346 OA
BRANCH  21  22
HETATM   22  C11 UNL     1       5.097  32.886  19.508  1.00  0.00     0.129 A 
HETATM   23  C12 UNL     1       4.290  32.734  18.246  1.00  0.00     0.035 A 
HETATM   24  C13 UNL     1       3.676  32.395  19.571  1.00  0.00     0.035 A 
ENDBRANCH  21  22
ENDBRANCH  17  21
ENDBRANCH   4  10
BRANCH   5  25
HETATM   25  C19 UNL     1      13.483  36.184  17.508  1.00  0.00     0.255 C 
HETATM   26  N4  UNL     1      13.001  34.952  17.169  1.00  0.00    -0.366 N 
HETATM   27  H20 UNL     1      12.689  34.845  16.213  1.00  0.00     0.159 HD
HETATM   28  H21 UNL     1      12.618  34.322  17.859  1.00  0.00     0.159 HD
HETATM   29  O2  UNL     1      13.642  37.037  16.638  1.00  0.00    -0.268 OA
ENDBRANCH   5  25
BRANCH   1  30
HETATM   30  C2  UNL     1      15.690  37.510  21.825  1.00  0.00     0.044 C 
HETATM   31  C1  UNL     1      14.930  37.823  23.127  1.00  0.00     0.039 C 
HETATM   32  C3  UNL     1      16.811  36.484  22.089  1.00  0.00     0.039 C 
HETATM   33  C4  UNL     1      16.390  38.821  21.376  1.00  0.00     0.039 C 
ENDBRANCH   1  30
TORSDOF 5
ENDMDL
MODEL 3
REMARK minimizedAffinity -7.13581514
REMARK  5 active torsions:
REMARK  status: ('A' for Active; 'I' for Inactive)
REMARK    1  A    between atoms: C2_2  and  N1_5 
REMARK    2  A    between atoms: C5_8  and  C6_9 
REMARK    3  A    between atoms: C10_15  and  O1_16 
REMARK    4  A    between atoms: O1_16  and  C11_17 
REMARK    5  A    between atoms: C18_24  and  C19_25 
REMARK       I    between atoms: C19_25  and  N4_26 
ROOT
HETATM    1  N1  UNL     1       9.208  35.309  21.885  1.00  0.00    -0.267 N 
HETATM    2  N2  UNL     1      10.417  35.127  21.309  1.00  0.00    -0.294 N 
ATOM      3  H2  UNL     1      11.282  34.838  21.766  1.00  0.00     0.187 HD
HETATM    4  C5  UNL     1      10.241  35.407  20.011  1.00  0.00     0.079 A 
HETATM    5  C18 UNL     1       8.880  35.723  19.729  1.00  0.00     0.105 A 
HETATM    6  C20 UNL     1       8.256  35.710  20.968  1.00  0.00     0.134 A 
HETATM    7  N5  UNL     1       6.963  35.991  21.268  1.00  0.00    -0.383 N 
HETATM    8  H22 UNL     1       6.413  36.443  20.528  1.00  0.00     0.157 HD
HETATM    9  H23 UNL     1       6.692  36.342  22.180  1.00  0.00     0.157 HD
ENDROOT
BRANCH   4  10
HETATM   10  C6  UNL     1      11.389  35.371  19.114  1.00  0.00     0.009 A 
HETATM   11  C7  UNL     1      11.284  35.829  17.808  1.00  0.00     0.102 A 
HETATM   12  N3  UNL     1      12.311  35.857  16.922  1.00  0.00    -0.364 N 
HETATM   13  C8  UNL     1      13.502  35.379  17.321  1.00  0.00     0.045 A 
ATOM     14  H3  UNL     1      12.183  36.230  15.981  1.00  0.00     0.165 HD
HETATM   15  C9  UNL     1      14.570  35.386  16.434  1.00  0.00     0.067 A 
HETATM   16  C16 UNL     1      13.707  34.865  18.620  1.00  0.00    -0.008 A 
HETATM   17  C10 UNL     1      15.823  34.892  16.798  1.00  0.00     0.071 A 
HETATM   18  C14 UNL     1      16.023  34.395  18.084  1.00  0.00     0.038 A 
HETATM   19  C15 UNL     1      14.968  34.377  18.995  1.00  0.00     0.016 A 
HETATM   20  C17 UNL     1      12.625  34.866  19.514  1.00  0.00     0.029 A 
BRANCH  17  21
HETATM   21  O1  UNL     1      16.928  34.877  15.983  1.00  0.00    -0.346 OA
BRANCH  21  22
HETATM   22  C11 UNL     1      16.949  35.847  14.919  1.00  0.00     0.129 A 
HETATM   23  C12 UNL     1      17.063  35.259  13.537  1.00  0.00     0.035 A 
HETATM   24  C13 UNL     1      18.234  35.970  14.146  1.00  0.00     0.035 A 
ENDBRANCH  21  22
ENDBRANCH  17  21
ENDBRANCH   4  10
BRANCH   5  25
HETATM   25  C19 UNL     1       8.209  36.030  18.478  1.00  0.00     0.255 C 
HETATM   26  N4  UNL     1       7.678  37.283  18.362  1.00  0.00    -0.366 N 
HETATM   27  H20 UNL     1       7.350  37.543  17.441  1.00  0.00     0.159 HD
HETATM   28  H21 UNL     1       7.926  38.029  18.997  1.00  0.00     0.159 HD
HETATM   29  O2  UNL     1       8.144  35.250  17.533  1.00  0.00    -0.268 OA
ENDBRANCH   5  25
BRANCH   1  30
HETATM   30  C2  UNL     1       9.071  35.075  23.338  1.00  0.00     0.044 C 
HETATM   31  C1  UNL     1       8.340  33.743  23.588  1.00  0.00     0.039 C 
HETATM   32  C3  UNL     1      10.448  35.072  24.033  1.00  0.00     0.039 C 
HETATM   33  C4  UNL     1       8.236  36.193  24.019  1.00  0.00     0.039 C 
ENDBRANCH   1  30
TORSDOF 5
ENDMDL
MODEL 4
REMARK minimizedAffinity -6.90685272
REMARK  5 active torsions:
REMARK  status: ('A' for Active; 'I' for Inactive)
REMARK    1  A    between atoms: C2_2  and  N1_5 
REMARK    2  A    between atoms: C5_8  and  C6_9 
REMARK    3  A    between atoms: C10_15  and  O1_16 
REMARK    4  A    between atoms: O1_16  and  C11_17 
REMARK    5  A    between atoms: C18_24  and  C19_25 
REMARK       I    between atoms: C19_25  and  N4_26 
ROOT
HETATM    1  N1  UNL     1       9.082  35.665  20.447  1.00  0.00    -0.267 N 
HETATM    2  N2  UNL     1       9.750  35.605  19.273  1.00  0.00    -0.294 N 
ATOM      3  H2  UNL     1       9.358  35.423  18.349  1.00  0.00     0.187 HD
HETATM    4  C5  UNL     1      11.033  35.835  19.579  1.00  0.00     0.079 A 
HETATM    5  C18 UNL     1      11.194  36.103  20.969  1.00  0.00     0.105 A 
HETATM    6  C20 UNL     1       9.928  35.925  21.507  1.00  0.00     0.134 A 
HETATM    7  N5  UNL     1       9.539  36.014  22.804  1.00  0.00    -0.383 N 
HETATM    8  H22 UNL     1      10.290  36.036  23.503  1.00  0.00     0.157 HD
HETATM    9  H23 UNL     1       8.738  35.500  23.156  1.00  0.00     0.157 HD
ENDROOT
BRANCH   4  10
HETATM   10  C6  UNL     1      12.038  35.770  18.525  1.00  0.00     0.009 A 
HETATM   11  C7  UNL     1      11.712  36.086  17.214  1.00  0.00     0.102 A 
HETATM   12  N3  UNL     1      12.595  36.080  16.183  1.00  0.00    -0.364 N 
HETATM   13  C8  UNL     1      13.862  35.710  16.441  1.00  0.00     0.045 A 
ATOM     14  H3  UNL     1      12.307  36.347  15.242  1.00  0.00     0.165 HD
HETATM   15  C9  UNL     1      14.786  35.685  15.405  1.00  0.00     0.067 A 
HETATM   16  C16 UNL     1      14.289  35.344  17.735  1.00  0.00    -0.008 A 
HETATM   17  C10 UNL     1      16.111  35.300  15.619  1.00  0.00     0.071 A 
HETATM   18  C14 UNL     1      16.529  34.949  16.901  1.00  0.00     0.038 A 
HETATM   19  C15 UNL     1      15.622  34.965  17.958  1.00  0.00     0.016 A 
HETATM   20  C17 UNL     1      13.351  35.377  18.779  1.00  0.00     0.029 A 
BRANCH  17  21
HETATM   21  O1  UNL     1      17.083  35.262  14.651  1.00  0.00    -0.346 OA
BRANCH  21  22
HETATM   22  C11 UNL     1      16.628  35.102  13.294  1.00  0.00     0.129 A 
HETATM   23  C12 UNL     1      17.200  33.908  12.578  1.00  0.00     0.035 A 
HETATM   24  C13 UNL     1      17.657  35.289  12.212  1.00  0.00     0.035 A 
ENDBRANCH  21  22
ENDBRANCH  17  21
ENDBRANCH   4  10
BRANCH   5  25
HETATM   25  C19 UNL     1      12.370  36.459  21.744  1.00  0.00     0.255 C 
HETATM   26  N4  UNL     1      13.117  35.424  22.231  1.00  0.00    -0.366 N 
HETATM   27  H20 UNL     1      14.010  35.673  22.636  1.00  0.00     0.159 HD
HETATM   28  H21 UNL     1      13.004  34.479  21.892  1.00  0.00     0.159 HD
HETATM   29  O2  UNL     1      12.734  37.616  21.933  1.00  0.00    -0.268 OA
ENDBRANCH   5  25
BRANCH   1  30
HETATM   30  C2  UNL     1       7.619  35.450  20.444  1.00  0.00     0.044 C 
HETATM   31  C1  UNL     1       6.971  36.247  21.591  1.00  0.00     0.039 C 
HETATM   32  C3  UNL     1       7.001  35.853  19.090  1.00  0.00     0.039 C 
HETATM   33  C4  UNL     1       7.263  33.955  20.664  1.00  0.00     0.039 C 
ENDBRANCH   1  30
TORSDOF 5
ENDMDL
MODEL 5
REMARK minimizedAffinity -6.87616587
REMARK  5 active torsions:
REMARK  status: ('A' for Active; 'I' for Inactive)
REMARK    1  A    between atoms: C2_2  and  N1_5 
REMARK    2  A    between atoms: C5_8  and  C6_9 
REMARK    3  A    between atoms: C10_15  and  O1_16 
REMARK    4  A    between atoms: O1_16  and  C11_17 
REMARK    5  A    between atoms: C18_24  and  C19_25 
REMARK       I    between atoms: C19_25  and  N4_26 
ROOT
HETATM    1  N1  UNL     1      17.356  48.816   5.544  1.00  0.00    -0.267 N 
HETATM    2  N2  UNL     1      16.818  49.919   4.978  1.00  0.00    -0.294 N 
ATOM      3  H2  UNL     1      16.120  49.954   4.236  1.00  0.00     0.187 HD
HETATM    4  C5  UNL     1      17.393  50.957   5.599  1.00  0.00     0.079 A 
HETATM    5  C18 UNL     1      18.281  50.519   6.624  1.00  0.00     0.105 A 
HETATM    6  C20 UNL     1      18.279  49.136   6.520  1.00  0.00     0.134 A 
HETATM    7  N5  UNL     1      18.995  48.232   7.235  1.00  0.00    -0.383 N 
HETATM    8  H22 UNL     1      19.766  48.606   7.799  1.00  0.00     0.157 HD
HETATM    9  H23 UNL     1      19.239  47.324   6.853  1.00  0.00     0.157 HD
ENDROOT
BRANCH   4  10
HETATM   10  C6  UNL     1      17.073  52.311   5.167  1.00  0.00     0.009 A 
HETATM   11  C7  UNL     1      18.066  53.162   4.706  1.00  0.00     0.102 A 
HETATM   12  N3  UNL     1      17.846  54.424   4.258  1.00  0.00    -0.364 N 
HETATM   13  C8  UNL     1      16.588  54.895   4.293  1.00  0.00     0.045 A 
ATOM     14  H3  UNL     1      18.612  54.998   3.905  1.00  0.00     0.165 HD
HETATM   15  C9  UNL     1      16.332  56.186   3.851  1.00  0.00     0.067 A 
HETATM   16  C16 UNL     1      15.509  54.119   4.769  1.00  0.00    -0.008 A 
HETATM   17  C10 UNL     1      15.044  56.724   3.876  1.00  0.00     0.071 A 
HETATM   18  C14 UNL     1      13.982  55.950   4.338  1.00  0.00     0.038 A 
HETATM   19  C15 UNL     1      14.210  54.651   4.788  1.00  0.00     0.016 A 
HETATM   20  C17 UNL     1      15.773  52.814   5.211  1.00  0.00     0.029 A 
BRANCH  17  21
HETATM   21  O1  UNL     1      14.711  57.984   3.444  1.00  0.00    -0.346 OA
BRANCH  21  22
HETATM   22  C11 UNL     1      13.438  58.118   2.787  1.00  0.00     0.129 A 
HETATM   23  C12 UNL     1      13.509  58.146   1.283  1.00  0.00     0.035 A 
HETATM   24  C13 UNL     1      13.198  59.402   2.040  1.00  0.00     0.035 A 
ENDBRANCH  21  22
ENDBRANCH  17  21
ENDBRANCH   4  10
BRANCH   5  25
HETATM   25  C19 UNL     1      19.073  51.266   7.586  1.00  0.00     0.255 C 
HETATM   26  N4  UNL     1      18.530  52.429   8.052  1.00  0.00    -0.366 N 
HETATM   27  H20 UNL     1      19.010  52.864   8.829  1.00  0.00     0.159 HD
HETATM   28  H21 UNL     1      17.553  52.651   7.924  1.00  0.00     0.159 HD
HETATM   29  O2  UNL     1      20.155  50.881   8.020  1.00  0.00    -0.268 OA
ENDBRANCH   5  25
BRANCH   1  30
HETATM   30  C2  UNL     1      16.917  47.487   5.067  1.00  0.00     0.044 C 
HETATM   31  C1  UNL     1      18.069  46.791   4.320  1.00  0.00     0.039 C 
HETATM   32  C3  UNL     1      16.427  46.610   6.238  1.00  0.00     0.039 C 
HETATM   33  C4  UNL     1      15.728  47.602   4.075  1.00  0.00     0.039 C 
ENDBRANCH   1  30
TORSDOF 5
ENDMDL
MODEL 6
REMARK minimizedAffinity -6.85661507
REMARK  5 active torsions:
REMARK  status: ('A' for Active; 'I' for Inactive)
REMARK    1  A    between atoms: C2_2  and  N1_5 
REMARK    2  A    between atoms: C5_8  and  C6_9 
REMARK    3  A    between atoms: C10_15  and  O1_16 
REMARK    4  A    between atoms: O1_16  and  C11_17 
REMARK    5  A    between atoms: C18_24  and  C19_25 
REMARK       I    between atoms: C19_25  and  N4_26 
ROOT
HETATM    1  N1  UNL     1      18.640  44.400   4.854  1.00  0.00    -0.267 N 
HETATM    2  N2  UNL     1      18.720  45.724   4.592  1.00  0.00    -0.294 N 
ATOM      3  H2  UNL     1      19.369  46.190   3.958  1.00  0.00     0.187 HD
HETATM    4  C5  UNL     1      17.768  46.295   5.340  1.00  0.00     0.079 A 
HETATM    5  C18 UNL     1      17.019  45.318   6.059  1.00  0.00     0.105 A 
HETATM    6  C20 UNL     1      17.647  44.116   5.770  1.00  0.00     0.134 A 
HETATM    7  N5  UNL     1      17.358  42.876   6.238  1.00  0.00    -0.383 N 
HETATM    8  H22 UNL     1      16.719  42.830   7.040  1.00  0.00     0.157 HD
HETATM    9  H23 UNL     1      18.067  42.153   6.304  1.00  0.00     0.157 HD
ENDROOT
BRANCH   4  10
HETATM   10  C6  UNL     1      17.636  47.746   5.338  1.00  0.00     0.009 A 
HETATM   11  C7  UNL     1      16.904  48.391   4.351  1.00  0.00     0.102 A 
HETATM   12  N3  UNL     1      16.709  49.733   4.296  1.00  0.00    -0.364 N 
HETATM   13  C8  UNL     1      17.290  50.493   5.239  1.00  0.00     0.045 A 
ATOM     14  H3  UNL     1      16.139  50.152   3.561  1.00  0.00     0.165 HD
HETATM   15  C9  UNL     1      17.117  51.871   5.204  1.00  0.00     0.067 A 
HETATM   16  C16 UNL     1      18.078  49.939   6.272  1.00  0.00    -0.008 A 
HETATM   17  C10 UNL     1      17.708  52.704   6.156  1.00  0.00     0.071 A 
HETATM   18  C14 UNL     1      18.475  52.150   7.178  1.00  0.00     0.038 A 
HETATM   19  C15 UNL     1      18.665  50.771   7.237  1.00  0.00     0.016 A 
HETATM   20  C17 UNL     1      18.244  48.546   6.305  1.00  0.00     0.029 A 
BRANCH  17  21
HETATM   21  O1  UNL     1      17.572  54.070   6.194  1.00  0.00    -0.346 OA
BRANCH  21  22
HETATM   22  C11 UNL     1      16.793  54.664   5.140  1.00  0.00     0.129 A 
HETATM   23  C12 UNL     1      16.156  55.981   5.497  1.00  0.00     0.035 A 
HETATM   24  C13 UNL     1      15.308  54.751   5.367  1.00  0.00     0.035 A 
ENDBRANCH  21  22
ENDBRANCH  17  21
ENDBRANCH   4  10
BRANCH   5  25
HETATM   25  C19 UNL     1      15.871  45.451   6.939  1.00  0.00     0.255 C 
HETATM   26  N4  UNL     1      16.011  44.959   8.205  1.00  0.00    -0.366 N 
HETATM   27  H20 UNL     1      15.271  45.189   8.856  1.00  0.00     0.159 HD
HETATM   28  H21 UNL     1      16.916  44.727   8.590  1.00  0.00     0.159 HD
HETATM   29  O2  UNL     1      14.828  46.012   6.615  1.00  0.00    -0.268 OA
ENDBRANCH   5  25
BRANCH   1  30
HETATM   30  C2  UNL     1      19.576  43.483   4.168  1.00  0.00     0.044 C 
HETATM   31  C1  UNL     1      18.835  42.203   3.739  1.00  0.00     0.039 C 
HETATM   32  C3  UNL     1      20.228  44.163   2.947  1.00  0.00     0.039 C 
HETATM   33  C4  UNL     1      20.737  43.051   5.104  1.00  0.00     0.039 C 
ENDBRANCH   1  30
TORSDOF 5
ENDMDL
MODEL 7
REMARK minimizedAffinity -6.84744358
REMARK  5 active torsions:
REMARK  status: ('A' for Active; 'I' for Inactive)
REMARK    1  A    between atoms: C2_2  and  N1_5 
REMARK    2  A    between atoms: C5_8  and  C6_9 
REMARK    3  A    between atoms: C10_15  and  O1_16 
REMARK    4  A    between atoms: O1_16  and  C11_17 
REMARK    5  A    between atoms: C18_24  and  C19_25 
REMARK       I    between atoms: C19_25  and  N4_26 
ROOT
HETATM    1  N1  UNL     1      19.207  45.285   6.971  1.00  0.00    -0.267 N 
HETATM    2  N2  UNL     1      19.370  46.591   6.662  1.00  0.00    -0.294 N 
ATOM      3  H2  UNL     1      20.243  47.117   6.649  1.00  0.00     0.187 HD
HETATM    4  C5  UNL     1      18.144  47.047   6.375  1.00  0.00     0.079 A 
HETATM    5  C18 UNL     1      17.174  46.004   6.447  1.00  0.00     0.105 A 
HETATM    6  C20 UNL     1      17.883  44.899   6.892  1.00  0.00     0.134 A 
HETATM    7  N5  UNL     1      17.422  43.654   7.173  1.00  0.00    -0.383 N 
HETATM    8  H22 UNL     1      16.403  43.552   7.243  1.00  0.00     0.157 HD
HETATM    9  H23 UNL     1      17.889  43.052   7.844  1.00  0.00     0.157 HD
ENDROOT
BRANCH   4  10
HETATM   10  C6  UNL     1      17.965  48.459   6.064  1.00  0.00     0.009 A 
HETATM   11  C7  UNL     1      17.308  48.853   4.907  1.00  0.00     0.102 A 
HETATM   12  N3  UNL     1      17.075  50.144   4.560  1.00  0.00    -0.364 N 
HETATM   13  C8  UNL     1      17.540  51.108   5.373  1.00  0.00     0.045 A 
ATOM     14  H3  UNL     1      16.564  50.376   3.709  1.00  0.00     0.165 HD
HETATM   15  C9  UNL     1      17.325  52.439   5.041  1.00  0.00     0.067 A 
HETATM   16  C16 UNL     1      18.244  50.814   6.562  1.00  0.00    -0.008 A 
HETATM   17  C10 UNL     1      17.796  53.477   5.848  1.00  0.00     0.071 A 
HETATM   18  C14 UNL     1      18.482  53.181   7.024  1.00  0.00     0.038 A 
HETATM   19  C15 UNL     1      18.711  51.853   7.381  1.00  0.00     0.016 A 
HETATM   20  C17 UNL     1      18.453  49.467   6.894  1.00  0.00     0.029 A 
BRANCH  17  21
HETATM   21  O1  UNL     1      17.612  54.814   5.594  1.00  0.00    -0.346 OA
BRANCH  21  22
HETATM   22  C11 UNL     1      16.248  55.265   5.507  1.00  0.00     0.129 A 
HETATM   23  C12 UNL     1      15.226  54.162   5.430  1.00  0.00     0.035 A 
HETATM   24  C13 UNL     1      15.528  54.988   4.215  1.00  0.00     0.035 A 
ENDBRANCH  21  22
ENDBRANCH  17  21
ENDBRANCH   4  10
BRANCH   5  25
HETATM   25  C19 UNL     1      15.749  46.004   6.168  1.00  0.00     0.255 C 
HETATM   26  N4  UNL     1      14.915  46.017   7.249  1.00  0.00    -0.366 N 
HETATM   27  H20 UNL     1      13.934  46.171   7.053  1.00  0.00     0.159 HD
HETATM   28  H21 UNL     1      15.247  46.244   8.176  1.00  0.00     0.159 HD
HETATM   29  O2  UNL     1      15.278  46.041   5.034  1.00  0.00    -0.268 OA
ENDBRANCH   5  25
BRANCH   1  30
HETATM   30  C2  UNL     1      20.397  44.488   7.339  1.00  0.00     0.044 C 
HETATM   31  C1  UNL     1      20.208  43.879   8.740  1.00  0.00     0.039 C 
HETATM   32  C3  UNL     1      20.665  43.378   6.301  1.00  0.00     0.039 C 
HETATM   33  C4  UNL     1      21.677  45.365   7.387  1.00  0.00     0.039 C 
ENDBRANCH   1  30
TORSDOF 5
ENDMDL
MODEL 8
REMARK minimizedAffinity -6.72465611
REMARK  5 active torsions:
REMARK  status: ('A' for Active; 'I' for Inactive)
REMARK    1  A    between atoms: C2_2  and  N1_5 
REMARK    2  A    between atoms: C5_8  and  C6_9 
REMARK    3  A    between atoms: C10_15  and  O1_16 
REMARK    4  A    between atoms: O1_16  and  C11_17 
REMARK    5  A    between atoms: C18_24  and  C19_25 
REMARK       I    between atoms: C19_25  and  N4_26 
ROOT
HETATM    1  N1  UNL     1       4.651  52.184  18.564  1.00  0.00    -0.267 N 
HETATM    2  N2  UNL     1       5.678  51.338  18.802  1.00  0.00    -0.294 N 
ATOM      3  H2  UNL     1       5.964  50.539  18.235  1.00  0.00     0.187 HD
HETATM    4  C5  UNL     1       6.241  51.768  19.938  1.00  0.00     0.079 A 
HETATM    5  C18 UNL     1       5.602  52.948  20.417  1.00  0.00     0.105 A 
HETATM    6  C20 UNL     1       4.545  53.153  19.543  1.00  0.00     0.134 A 
HETATM    7  N5  UNL     1       3.592  54.118  19.576  1.00  0.00    -0.383 N 
HETATM    8  H22 UNL     1       3.525  54.659  20.445  1.00  0.00     0.157 HD
HETATM    9  H23 UNL     1       2.673  53.972  19.173  1.00  0.00     0.157 HD
ENDROOT
BRANCH   4  10
HETATM   10  C6  UNL     1       7.351  51.017  20.511  1.00  0.00     0.009 A 
HETATM   11  C7  UNL     1       7.222  50.390  21.742  1.00  0.00     0.102 A 
HETATM   12  N3  UNL     1       8.196  49.649  22.329  1.00  0.00    -0.364 N 
HETATM   13  C8  UNL     1       9.375  49.541  21.693  1.00  0.00     0.045 A 
ATOM     14  H3  UNL     1       8.038  49.187  23.224  1.00  0.00     0.165 HD
HETATM   15  C9  UNL     1      10.395  48.796  22.272  1.00  0.00     0.067 A 
HETATM   16  C16 UNL     1       9.617  50.162  20.448  1.00  0.00    -0.008 A 
HETATM   17  C10 UNL     1      11.640  48.662  21.655  1.00  0.00     0.071 A 
HETATM   18  C14 UNL     1      11.870  49.269  20.423  1.00  0.00     0.038 A 
HETATM   19  C15 UNL     1      10.864  50.022  19.819  1.00  0.00     0.016 A 
HETATM   20  C17 UNL     1       8.582  50.909  19.866  1.00  0.00     0.029 A 
BRANCH  17  21
HETATM   21  O1  UNL     1      12.690  47.934  22.159  1.00  0.00    -0.346 OA
BRANCH  21  22
HETATM   22  C11 UNL     1      12.522  46.504  22.182  1.00  0.00     0.129 A 
HETATM   23  C12 UNL     1      13.537  45.741  21.373  1.00  0.00     0.035 A 
HETATM   24  C13 UNL     1      12.123  45.852  20.885  1.00  0.00     0.035 A 
ENDBRANCH  21  22
ENDBRANCH  17  21
ENDBRANCH   4  10
BRANCH   5  25
HETATM   25  C19 UNL     1       5.893  53.796  21.561  1.00  0.00     0.255 C 
HETATM   26  N4  UNL     1       5.635  53.269  22.794  1.00  0.00    -0.366 N 
HETATM   27  H20 UNL     1       5.979  53.798  23.584  1.00  0.00     0.159 HD
HETATM   28  H21 UNL     1       5.472  52.280  22.928  1.00  0.00     0.159 HD
HETATM   29  O2  UNL     1       6.391  54.914  21.468  1.00  0.00    -0.268 OA
ENDBRANCH   5  25
BRANCH   1  30
HETATM   30  C2  UNL     1       3.819  51.971  17.360  1.00  0.00     0.044 C 
HETATM   31  C1  UNL     1       2.983  50.689  17.521  1.00  0.00     0.039 C 
HETATM   32  C3  UNL     1       2.902  53.183  17.096  1.00  0.00     0.039 C 
HETATM   33  C4  UNL     1       4.693  51.795  16.089  1.00  0.00     0.039 C 
ENDBRANCH   1  30
TORSDOF 5
ENDMDL
MODEL 9
REMARK minimizedAffinity -6.64663315
REMARK  5 active torsions:
REMARK  status: ('A' for Active; 'I' for Inactive)
REMARK    1  A    between atoms: C2_2  and  N1_5 
REMARK    2  A    between atoms: C5_8  and  C6_9 
REMARK    3  A    between atoms: C10_15  and  O1_16 
REMARK    4  A    between atoms: O1_16  and  C11_17 
REMARK    5  A    between atoms: C18_24  and  C19_25 
REMARK       I    between atoms: C19_25  and  N4_26 
ROOT
HETATM    1  N1  UNL     1      13.089  54.417  -1.817  1.00  0.00    -0.267 N 
HETATM    2  N2  UNL     1      12.015  53.614  -1.992  1.00  0.00    -0.294 N 
ATOM      3  H2  UNL     1      11.037  53.845  -1.820  1.00  0.00     0.187 HD
HETATM    4  C5  UNL     1      12.508  52.452  -2.440  1.00  0.00     0.079 A 
HETATM    5  C18 UNL     1      13.921  52.519  -2.610  1.00  0.00     0.105 A 
HETATM    6  C20 UNL     1      14.269  53.778  -2.142  1.00  0.00     0.134 A 
HETATM    7  N5  UNL     1      15.503  54.331  -2.038  1.00  0.00    -0.383 N 
HETATM    8  H22 UNL     1      16.298  53.692  -2.145  1.00  0.00     0.157 HD
HETATM    9  H23 UNL     1      15.709  55.048  -1.350  1.00  0.00     0.157 HD
ENDROOT
BRANCH   4  10
HETATM   10  C6  UNL     1      11.599  51.335  -2.665  1.00  0.00     0.009 A 
HETATM   11  C7  UNL     1      11.003  51.144  -3.903  1.00  0.00     0.102 A 
HETATM   12  N3  UNL     1      10.171  50.114  -4.202  1.00  0.00    -0.364 N 
HETATM   13  C8  UNL     1       9.878  49.237  -3.226  1.00  0.00     0.045 A 
ATOM     14  H3  UNL     1       9.781  50.007  -5.138  1.00  0.00     0.165 HD
HETATM   15  C9  UNL     1       9.023  48.178  -3.498  1.00  0.00     0.067 A 
HETATM   16  C16 UNL     1      10.411  49.357  -1.924  1.00  0.00    -0.008 A 
HETATM   17  C10 UNL     1       8.680  47.247  -2.515  1.00  0.00     0.071 A 
HETATM   18  C14 UNL     1       9.217  47.364  -1.236  1.00  0.00     0.038 A 
HETATM   19  C15 UNL     1      10.078  48.418  -0.935  1.00  0.00     0.016 A 
HETATM   20  C17 UNL     1      11.279  50.427  -1.657  1.00  0.00     0.029 A 
BRANCH  17  21
HETATM   21  O1  UNL     1       7.853  46.168  -2.711  1.00  0.00    -0.346 OA
BRANCH  21  22
HETATM   22  C11 UNL     1       8.300  45.187  -3.666  1.00  0.00     0.129 A 
HETATM   23  C12 UNL     1       7.427  43.964  -3.761  1.00  0.00     0.035 A 
HETATM   24  C13 UNL     1       8.773  43.872  -3.107  1.00  0.00     0.035 A 
ENDBRANCH  21  22
ENDBRANCH  17  21
ENDBRANCH   4  10
BRANCH   5  25
HETATM   25  C19 UNL     1      14.870  51.544  -3.118  1.00  0.00     0.255 C 
HETATM   26  N4  UNL     1      14.763  50.274  -2.627  1.00  0.00    -0.366 N 
HETATM   27  H20 UNL     1      15.320  49.570  -3.093  1.00  0.00     0.159 HD
HETATM   28  H21 UNL     1      13.944  49.965  -2.123  1.00  0.00     0.159 HD
HETATM   29  O2  UNL     1      15.708  51.797  -3.979  1.00  0.00    -0.268 OA
ENDBRANCH   5  25
BRANCH   1  30
HETATM   30  C2  UNL     1      12.872  55.794  -1.323  1.00  0.00     0.044 C 
HETATM   31  C1  UNL     1      11.364  56.086  -1.229  1.00  0.00     0.039 C 
HETATM   32  C3  UNL     1      13.548  56.006   0.048  1.00  0.00     0.039 C 
HETATM   33  C4  UNL     1      13.487  56.847  -2.284  1.00  0.00     0.039 C 
ENDBRANCH   1  30
TORSDOF 5
ENDMDL
