MODEL 1
REMARK minimizedAffinity -8.21005726
REMARK  5 active torsions:
REMARK  status: ('A' for Active; 'I' for Inactive)
REMARK    1  A    between atoms: N1_2  and  C3_4 
REMARK    2  A    between atoms: C3_4  and  C4_5 
REMARK    3  A    between atoms: C4_5  and  C5_6 
REMARK    4  A    between atoms: C5_6  and  C6_7 
REMARK    5  A    between atoms: C7_8  and  C8_9 
ROOT
HETATM    1  C6  UNL     1      -1.790   7.439  12.739  1.00  0.00    -0.023 A 
HETATM    2  C7  UNL     1      -2.118   6.084  12.641  1.00  0.00     0.040 A 
HETATM    3  N3  UNL     1      -0.962   5.410  12.316  1.00  0.00    -0.359 N 
HETATM    4  C17 UNL     1       0.078   6.289  12.217  1.00  0.00     0.016 A 
HETATM    5  C18 UNL     1      -0.394   7.554  12.479  1.00  0.00    -0.027 A 
HETATM    6  C19 UNL     1       0.492   8.756  12.441  1.00  0.00     0.041 C 
HETATM    7  C20 UNL     1       1.978   8.355  12.482  1.00  0.00     0.005 C 
HETATM    8  C21 UNL     1       2.288   7.173  11.542  1.00  0.00     0.006 C 
HETATM    9  C22 UNL     1       1.483   5.913  11.909  1.00  0.00     0.057 C 
HETATM   10  H19 UNL     1      -0.883   4.408  12.173  1.00  0.00     0.166 HD
ENDROOT
BRANCH   2  11
HETATM   11  C8  UNL     1      -3.363   5.417  12.828  1.00  0.00     0.048 C 
HETATM   12  C9  UNL     1      -3.869   4.345  12.196  1.00  0.00     0.047 A 
HETATM   13  C10 UNL     1      -3.311   3.489  11.083  1.00  0.00     0.257 A 
HETATM   14  C16 UNL     1      -5.192   3.776  12.521  1.00  0.00     0.006 A 
HETATM   15  O1  UNL     1      -2.241   3.589  10.512  1.00  0.00    -0.267 OA
HETATM   16  N2  UNL     1      -4.279   2.533  10.829  1.00  0.00    -0.322 N 
HETATM   17  C11 UNL     1      -5.380   2.689  11.662  1.00  0.00     0.046 A 
HETATM   18  H14 UNL     1      -4.168   1.819  10.126  1.00  0.00     0.169 HD
HETATM   19  C12 UNL     1      -6.517   1.909  11.681  1.00  0.00     0.030 A 
HETATM   20  C13 UNL     1      -7.507   2.240  12.607  1.00  0.00     0.002 A 
HETATM   21  C14 UNL     1      -7.337   3.330  13.480  1.00  0.00     0.001 A 
HETATM   22  C15 UNL     1      -6.173   4.107  13.442  1.00  0.00     0.015 A 
ENDBRANCH   2  11
BRANCH   1  23
HETATM   23  C5  UNL     1      -2.716   8.574  13.057  1.00  0.00     0.043 C 
BRANCH  23  24
HETATM   24  C4  UNL     1      -4.188   8.186  12.899  1.00  0.00     0.035 C 
BRANCH  24  25
HETATM   25  C3  UNL     1      -5.020   8.715  14.075  1.00  0.00     0.271 C 
BRANCH  25  26
HETATM   26  N1  UNL     1      -6.048   7.767  14.536  1.00  0.00     0.080 N 
HETATM   27  C1  UNL     1      -5.530   6.836  15.541  1.00  0.00     0.309 C 
HETATM   28  C2  UNL     1      -7.192   8.498  15.086  1.00  0.00     0.309 C 
ENDBRANCH  25  26
ENDBRANCH  24  25
ENDBRANCH  23  24
ENDBRANCH   1  23
TORSDOF 5
ENDMDL
MODEL 2
REMARK minimizedAffinity -8.16273785
REMARK  5 active torsions:
REMARK  status: ('A' for Active; 'I' for Inactive)
REMARK    1  A    between atoms: N1_2  and  C3_4 
REMARK    2  A    between atoms: C3_4  and  C4_5 
REMARK    3  A    between atoms: C4_5  and  C5_6 
REMARK    4  A    between atoms: C5_6  and  C6_7 
REMARK    5  A    between atoms: C7_8  and  C8_9 
ROOT
HETATM    1  C6  UNL     1      -2.995   5.816  12.783  1.00  0.00    -0.023 A 
HETATM    2  C7  UNL     1      -4.293   5.429  13.127  1.00  0.00     0.040 A 
HETATM    3  N3  UNL     1      -4.421   4.099  12.793  1.00  0.00    -0.359 N 
HETATM    4  C17 UNL     1      -3.251   3.637  12.262  1.00  0.00     0.016 A 
HETATM    5  C18 UNL     1      -2.341   4.669  12.246  1.00  0.00    -0.027 A 
HETATM    6  C19 UNL     1      -0.957   4.500  11.713  1.00  0.00     0.041 C 
HETATM    7  C20 UNL     1      -0.587   3.010  11.586  1.00  0.00     0.005 C 
HETATM    8  C21 UNL     1      -1.728   2.177  10.970  1.00  0.00     0.006 C 
HETATM    9  C22 UNL     1      -3.013   2.239  11.815  1.00  0.00     0.057 C 
HETATM   10  H19 UNL     1      -5.256   3.536  12.921  1.00  0.00     0.166 HD
ENDROOT
BRANCH   2  11
HETATM   11  C8  UNL     1      -5.354   6.172  13.720  1.00  0.00     0.048 C 
HETATM   12  C9  UNL     1      -6.683   6.017  13.604  1.00  0.00     0.047 A 
HETATM   13  C10 UNL     1      -7.505   5.024  12.815  1.00  0.00     0.257 A 
HETATM   14  C16 UNL     1      -7.654   6.886  14.298  1.00  0.00     0.006 A 
HETATM   15  O1  UNL     1      -7.121   4.115  12.103  1.00  0.00    -0.267 OA
HETATM   16  N2  UNL     1      -8.827   5.350  13.070  1.00  0.00    -0.322 N 
HETATM   17  C11 UNL     1      -8.925   6.434  13.934  1.00  0.00     0.046 A 
HETATM   18  H14 UNL     1      -9.600   4.843  12.670  1.00  0.00     0.169 HD
HETATM   19  C12 UNL     1     -10.087   7.015  14.398  1.00  0.00     0.030 A 
HETATM   20  C13 UNL     1      -9.959   8.100  15.268  1.00  0.00     0.002 A 
HETATM   21  C14 UNL     1      -8.688   8.569  15.647  1.00  0.00     0.001 A 
HETATM   22  C15 UNL     1      -7.524   7.962  15.162  1.00  0.00     0.015 A 
ENDBRANCH   2  11
BRANCH   1  23
HETATM   23  C5  UNL     1      -2.384   7.176  12.941  1.00  0.00     0.043 C 
BRANCH  23  24
HETATM   24  C4  UNL     1      -0.932   7.222  12.458  1.00  0.00     0.035 C 
BRANCH  24  25
HETATM   25  C3  UNL     1      -0.744   8.318  11.402  1.00  0.00     0.271 C 
BRANCH  25  26
HETATM   26  N1  UNL     1       0.122   7.909  10.283  1.00  0.00     0.080 N 
HETATM   27  C1  UNL     1      -0.205   8.615   9.043  1.00  0.00     0.309 C 
HETATM   28  C2  UNL     1       1.527   8.145  10.627  1.00  0.00     0.309 C 
ENDBRANCH  25  26
ENDBRANCH  24  25
ENDBRANCH  23  24
ENDBRANCH   1  23
TORSDOF 5
ENDMDL
MODEL 3
REMARK minimizedAffinity -8.12814808
REMARK  5 active torsions:
REMARK  status: ('A' for Active; 'I' for Inactive)
REMARK    1  A    between atoms: N1_2  and  C3_4 
REMARK    2  A    between atoms: C3_4  and  C4_5 
REMARK    3  A    between atoms: C4_5  and  C5_6 
REMARK    4  A    between atoms: C5_6  and  C6_7 
REMARK    5  A    between atoms: C7_8  and  C8_9 
ROOT
HETATM    1  C6  UNL     1      -7.951   7.184  14.895  1.00  0.00    -0.023 A 
HETATM    2  C7  UNL     1      -7.771   6.296  13.831  1.00  0.00     0.040 A 
HETATM    3  N3  UNL     1      -8.999   6.130  13.231  1.00  0.00    -0.359 N 
HETATM    4  C17 UNL     1      -9.938   6.886  13.872  1.00  0.00     0.016 A 
HETATM    5  C18 UNL     1      -9.326   7.559  14.904  1.00  0.00    -0.027 A 
HETATM    6  C19 UNL     1     -10.080   8.470  15.816  1.00  0.00     0.041 C 
HETATM    7  C20 UNL     1     -11.449   8.848  15.219  1.00  0.00     0.005 C 
HETATM    8  C21 UNL     1     -12.177   7.631  14.615  1.00  0.00     0.006 C 
HETATM    9  C22 UNL     1     -11.369   6.976  13.480  1.00  0.00     0.057 C 
HETATM   10  H19 UNL     1      -9.188   5.538  12.428  1.00  0.00     0.166 HD
ENDROOT
BRANCH   2  11
HETATM   11  C8  UNL     1      -6.597   5.641  13.362  1.00  0.00     0.048 C 
HETATM   12  C9  UNL     1      -6.440   4.398  12.877  1.00  0.00     0.047 A 
HETATM   13  C10 UNL     1      -7.433   3.278  12.668  1.00  0.00     0.257 A 
HETATM   14  C16 UNL     1      -5.135   3.873  12.428  1.00  0.00     0.006 A 
HETATM   15  O1  UNL     1      -8.629   3.271  12.893  1.00  0.00    -0.267 OA
HETATM   16  N2  UNL     1      -6.700   2.224  12.148  1.00  0.00    -0.322 N 
HETATM   17  C11 UNL     1      -5.359   2.560  12.003  1.00  0.00     0.046 A 
HETATM   18  H14 UNL     1      -7.115   1.338  11.908  1.00  0.00     0.169 HD
HETATM   19  C12 UNL     1      -4.356   1.752  11.511  1.00  0.00     0.030 A 
HETATM   20  C13 UNL     1      -3.070   2.292  11.446  1.00  0.00     0.002 A 
HETATM   21  C14 UNL     1      -2.825   3.611  11.868  1.00  0.00     0.001 A 
HETATM   22  C15 UNL     1      -3.861   4.412  12.363  1.00  0.00     0.015 A 
ENDBRANCH   2  11
BRANCH   1  23
HETATM   23  C5  UNL     1      -6.909   7.666  15.859  1.00  0.00     0.043 C 
BRANCH  23  24
HETATM   24  C4  UNL     1      -6.051   8.792  15.275  1.00  0.00     0.035 C 
BRANCH  24  25
HETATM   25  C3  UNL     1      -4.559   8.492  15.461  1.00  0.00     0.271 C 
BRANCH  25  26
HETATM   26  N1  UNL     1      -3.737   8.874  14.300  1.00  0.00     0.080 N 
HETATM   27  C1  UNL     1      -2.381   8.327  14.378  1.00  0.00     0.309 C 
HETATM   28  C2  UNL     1      -4.380   8.422  13.063  1.00  0.00     0.309 C 
ENDBRANCH  25  26
ENDBRANCH  24  25
ENDBRANCH  23  24
ENDBRANCH   1  23
TORSDOF 5
ENDMDL
MODEL 4
REMARK minimizedAffinity -7.96751976
REMARK  5 active torsions:
REMARK  status: ('A' for Active; 'I' for Inactive)
REMARK    1  A    between atoms: N1_2  and  C3_4 
REMARK    2  A    between atoms: C3_4  and  C4_5 
REMARK    3  A    between atoms: C4_5  and  C5_6 
REMARK    4  A    between atoms: C5_6  and  C6_7 
REMARK    5  A    between atoms: C7_8  and  C8_9 
ROOT
HETATM    1  C6  UNL     1      -3.024   5.673  12.832  1.00  0.00    -0.023 A 
HETATM    2  C7  UNL     1      -4.337   5.312  13.149  1.00  0.00     0.040 A 
HETATM    3  N3  UNL     1      -4.493   3.994  12.782  1.00  0.00    -0.359 N 
HETATM    4  C17 UNL     1      -3.328   3.514  12.257  1.00  0.00     0.016 A 
HETATM    5  C18 UNL     1      -2.392   4.522  12.278  1.00  0.00    -0.027 A 
HETATM    6  C19 UNL     1      -1.005   4.330  11.760  1.00  0.00     0.041 C 
HETATM    7  C20 UNL     1      -0.671   2.834  11.603  1.00  0.00     0.005 C 
HETATM    8  C21 UNL     1      -1.824   2.045  10.952  1.00  0.00     0.006 C 
HETATM    9  C22 UNL     1      -3.120   2.121  11.781  1.00  0.00     0.057 C 
HETATM   10  H19 UNL     1      -5.345   3.450  12.886  1.00  0.00     0.166 HD
ENDROOT
BRANCH   2  11
HETATM   11  C8  UNL     1      -5.387   6.068  13.744  1.00  0.00     0.048 C 
HETATM   12  C9  UNL     1      -6.717   5.950  13.606  1.00  0.00     0.047 A 
HETATM   13  C10 UNL     1      -7.553   4.997  12.784  1.00  0.00     0.257 A 
HETATM   14  C16 UNL     1      -7.676   6.828  14.307  1.00  0.00     0.006 A 
HETATM   15  O1  UNL     1      -7.182   4.096  12.056  1.00  0.00    -0.267 OA
HETATM   16  N2  UNL     1      -8.869   5.352  13.028  1.00  0.00    -0.322 N 
HETATM   17  C11 UNL     1      -8.952   6.418  13.916  1.00  0.00     0.046 A 
HETATM   18  H14 UNL     1      -9.650   4.874  12.606  1.00  0.00     0.169 HD
HETATM   19  C12 UNL     1     -10.106   7.018  14.377  1.00  0.00     0.030 A 
HETATM   20  C13 UNL     1      -9.962   8.079  15.274  1.00  0.00     0.002 A 
HETATM   21  C14 UNL     1      -8.686   8.506  15.681  1.00  0.00     0.001 A 
HETATM   22  C15 UNL     1      -7.530   7.880  15.198  1.00  0.00     0.015 A 
ENDBRANCH   2  11
BRANCH   1  23
HETATM   23  C5  UNL     1      -2.381   7.013  13.030  1.00  0.00     0.043 C 
BRANCH  23  24
HETATM   24  C4  UNL     1      -3.385   8.163  12.923  1.00  0.00     0.035 C 
BRANCH  24  25
HETATM   25  C3  UNL     1      -3.083   9.248  13.964  1.00  0.00     0.271 C 
BRANCH  25  26
HETATM   26  N1  UNL     1      -3.579   8.919  15.311  1.00  0.00     0.080 N 
HETATM   27  C1  UNL     1      -2.492   8.786  16.284  1.00  0.00     0.309 C 
HETATM   28  C2  UNL     1      -4.519   9.949  15.763  1.00  0.00     0.309 C 
ENDBRANCH  25  26
ENDBRANCH  24  25
ENDBRANCH  23  24
ENDBRANCH   1  23
TORSDOF 5
ENDMDL
MODEL 5
REMARK minimizedAffinity -7.92003489
REMARK  5 active torsions:
REMARK  status: ('A' for Active; 'I' for Inactive)
REMARK    1  A    between atoms: N1_2  and  C3_4 
REMARK    2  A    between atoms: C3_4  and  C4_5 
REMARK    3  A    between atoms: C4_5  and  C5_6 
REMARK    4  A    between atoms: C5_6  and  C6_7 
REMARK    5  A    between atoms: C7_8  and  C8_9 
ROOT
HETATM    1  C6  UNL     1      -6.274   4.790  13.389  1.00  0.00    -0.023 A 
HETATM    2  C7  UNL     1      -5.113   5.567  13.448  1.00  0.00     0.040 A 
HETATM    3  N3  UNL     1      -4.128   4.871  12.783  1.00  0.00    -0.359 N 
HETATM    4  C17 UNL     1      -4.629   3.695  12.304  1.00  0.00     0.016 A 
HETATM    5  C18 UNL     1      -5.957   3.613  12.653  1.00  0.00    -0.027 A 
HETATM    6  C19 UNL     1      -6.803   2.437  12.289  1.00  0.00     0.041 C 
HETATM    7  C20 UNL     1      -6.137   1.591  11.187  1.00  0.00     0.005 C 
HETATM    8  C21 UNL     1      -4.634   1.373  11.449  1.00  0.00     0.006 C 
HETATM    9  C22 UNL     1      -3.857   2.702  11.512  1.00  0.00     0.057 C 
HETATM   10  H19 UNL     1      -3.168   5.179  12.660  1.00  0.00     0.166 HD
ENDROOT
BRANCH   2  11
HETATM   11  C8  UNL     1      -4.881   6.842  14.038  1.00  0.00     0.048 C 
HETATM   12  C9  UNL     1      -3.888   7.248  14.846  1.00  0.00     0.047 A 
HETATM   13  C10 UNL     1      -2.694   6.510  15.406  1.00  0.00     0.257 A 
HETATM   14  C16 UNL     1      -3.798   8.624  15.374  1.00  0.00     0.006 A 
HETATM   15  O1  UNL     1      -2.363   5.353  15.226  1.00  0.00    -0.267 OA
HETATM   16  N2  UNL     1      -2.018   7.434  16.185  1.00  0.00    -0.322 N 
HETATM   17  C11 UNL     1      -2.653   8.670  16.173  1.00  0.00     0.046 A 
HETATM   18  H14 UNL     1      -1.171   7.211  16.683  1.00  0.00     0.169 HD
HETATM   19  C12 UNL     1      -2.248   9.810  16.836  1.00  0.00     0.030 A 
HETATM   20  C13 UNL     1      -3.034  10.954  16.683  1.00  0.00     0.002 A 
HETATM   21  C14 UNL     1      -4.190  10.928  15.882  1.00  0.00     0.001 A 
HETATM   22  C15 UNL     1      -4.580   9.758  15.220  1.00  0.00     0.015 A 
ENDBRANCH   2  11
BRANCH   1  23
HETATM   23  C5  UNL     1      -7.612   5.117  13.981  1.00  0.00     0.043 C 
BRANCH  23  24
HETATM   24  C4  UNL     1      -7.570   5.191  15.510  1.00  0.00     0.035 C 
BRANCH  24  25
HETATM   25  C3  UNL     1      -8.473   6.319  16.025  1.00  0.00     0.271 C 
BRANCH  25  26
HETATM   26  N1  UNL     1      -8.832   7.300  14.987  1.00  0.00     0.080 N 
HETATM   27  C1  UNL     1     -10.276   7.533  14.923  1.00  0.00     0.309 C 
HETATM   28  C2  UNL     1      -8.139   8.567  15.235  1.00  0.00     0.309 C 
ENDBRANCH  25  26
ENDBRANCH  24  25
ENDBRANCH  23  24
ENDBRANCH   1  23
TORSDOF 5
ENDMDL
MODEL 6
REMARK minimizedAffinity -7.90909863
REMARK  5 active torsions:
REMARK  status: ('A' for Active; 'I' for Inactive)
REMARK    1  A    between atoms: N1_2  and  C3_4 
REMARK    2  A    between atoms: C3_4  and  C4_5 
REMARK    3  A    between atoms: C4_5  and  C5_6 
REMARK    4  A    between atoms: C5_6  and  C6_7 
REMARK    5  A    between atoms: C7_8  and  C8_9 
ROOT
HETATM    1  C6  UNL     1      -4.764   5.339  13.384  1.00  0.00    -0.023 A 
HETATM    2  C7  UNL     1      -3.689   5.168  12.507  1.00  0.00     0.040 A 
HETATM    3  N3  UNL     1      -3.976   4.071  11.725  1.00  0.00    -0.359 N 
HETATM    4  C17 UNL     1      -5.192   3.556  12.072  1.00  0.00     0.016 A 
HETATM    5  C18 UNL     1      -5.714   4.318  13.091  1.00  0.00    -0.027 A 
HETATM    6  C19 UNL     1      -7.036   4.014  13.714  1.00  0.00     0.041 C 
HETATM    7  C20 UNL     1      -7.860   3.055  12.833  1.00  0.00     0.005 C 
HETATM    8  C21 UNL     1      -7.009   1.891  12.287  1.00  0.00     0.006 C 
HETATM    9  C22 UNL     1      -5.836   2.386  11.420  1.00  0.00     0.057 C 
HETATM   10  H19 UNL     1      -3.380   3.696  10.994  1.00  0.00     0.166 HD
ENDROOT
BRANCH   2  11
HETATM   11  C8  UNL     1      -2.490   5.921  12.355  1.00  0.00     0.048 C 
HETATM   12  C9  UNL     1      -1.245   5.508  12.066  1.00  0.00     0.047 A 
HETATM   13  C10 UNL     1      -0.687   4.127  11.811  1.00  0.00     0.257 A 
HETATM   14  C16 UNL     1      -0.102   6.436  11.942  1.00  0.00     0.006 A 
HETATM   15  O1  UNL     1      -1.273   3.061  11.803  1.00  0.00    -0.267 OA
HETATM   16  N2  UNL     1       0.665   4.310  11.575  1.00  0.00    -0.322 N 
HETATM   17  C11 UNL     1       1.017   5.652  11.648  1.00  0.00     0.046 A 
HETATM   18  H14 UNL     1       1.291   3.547  11.371  1.00  0.00     0.169 HD
HETATM   19  C12 UNL     1       2.275   6.186  11.460  1.00  0.00     0.030 A 
HETATM   20  C13 UNL     1       2.408   7.571  11.575  1.00  0.00     0.002 A 
HETATM   21  C14 UNL     1       1.294   8.376  11.871  1.00  0.00     0.001 A 
HETATM   22  C15 UNL     1       0.027   7.811  12.056  1.00  0.00     0.015 A 
ENDBRANCH   2  11
BRANCH   1  23
HETATM   23  C5  UNL     1      -4.911   6.392  14.442  1.00  0.00     0.043 C 
BRANCH  23  24
HETATM   24  C4  UNL     1      -5.565   7.668  13.906  1.00  0.00     0.035 C 
BRANCH  24  25
HETATM   25  C3  UNL     1      -6.402   8.350  14.995  1.00  0.00     0.271 C 
BRANCH  25  26
HETATM   26  N1  UNL     1      -7.644   7.626  15.315  1.00  0.00     0.080 N 
HETATM   27  C1  UNL     1      -7.631   7.077  16.672  1.00  0.00     0.309 C 
HETATM   28  C2  UNL     1      -8.797   8.518  15.156  1.00  0.00     0.309 C 
ENDBRANCH  25  26
ENDBRANCH  24  25
ENDBRANCH  23  24
ENDBRANCH   1  23
TORSDOF 5
ENDMDL
MODEL 7
REMARK minimizedAffinity -7.83601856
REMARK  5 active torsions:
REMARK  status: ('A' for Active; 'I' for Inactive)
REMARK    1  A    between atoms: N1_2  and  C3_4 
REMARK    2  A    between atoms: C3_4  and  C4_5 
REMARK    3  A    between atoms: C4_5  and  C5_6 
REMARK    4  A    between atoms: C5_6  and  C6_7 
REMARK    5  A    between atoms: C7_8  and  C8_9 
ROOT
HETATM    1  C6  UNL     1      -6.050   5.149  13.332  1.00  0.00    -0.023 A 
HETATM    2  C7  UNL     1      -7.341   5.095  13.865  1.00  0.00     0.040 A 
HETATM    3  N3  UNL     1      -7.872   3.873  13.516  1.00  0.00    -0.359 N 
HETATM    4  C17 UNL     1      -6.960   3.158  12.793  1.00  0.00     0.016 A 
HETATM    5  C18 UNL     1      -5.817   3.912  12.665  1.00  0.00    -0.027 A 
HETATM    6  C19 UNL     1      -4.622   3.422  11.915  1.00  0.00     0.041 C 
HETATM    7  C20 UNL     1      -4.693   1.900  11.686  1.00  0.00     0.005 C 
HETATM    8  C21 UNL     1      -6.094   1.444  11.233  1.00  0.00     0.006 C 
HETATM    9  C22 UNL     1      -7.179   1.783  12.272  1.00  0.00     0.057 C 
HETATM   10  H19 UNL     1      -8.801   3.543  13.757  1.00  0.00     0.166 HD
ENDROOT
BRANCH   2  11
HETATM   11  C8  UNL     1      -8.063   6.047  14.640  1.00  0.00     0.048 C 
HETATM   12  C9  UNL     1      -9.154   6.764  14.325  1.00  0.00     0.047 A 
HETATM   13  C10 UNL     1      -9.981   6.816  13.061  1.00  0.00     0.257 A 
HETATM   14  C16 UNL     1      -9.783   7.718  15.261  1.00  0.00     0.006 A 
HETATM   15  O1  UNL     1      -9.832   6.188  12.030  1.00  0.00    -0.267 OA
HETATM   16  N2  UNL     1     -10.979   7.743  13.309  1.00  0.00    -0.322 N 
HETATM   17  C11 UNL     1     -10.874   8.274  14.588  1.00  0.00     0.046 A 
HETATM   18  H14 UNL     1     -11.685   7.978  12.629  1.00  0.00     0.169 HD
HETATM   19  C12 UNL     1     -11.705   9.215  15.161  1.00  0.00     0.030 A 
HETATM   20  C13 UNL     1     -11.420   9.611  16.469  1.00  0.00     0.002 A 
HETATM   21  C14 UNL     1     -10.326   9.062  17.162  1.00  0.00     0.001 A 
HETATM   22  C15 UNL     1      -9.498   8.108  16.560  1.00  0.00     0.015 A 
ENDBRANCH   2  11
BRANCH   1  23
HETATM   23  C5  UNL     1      -5.076   6.284  13.433  1.00  0.00     0.043 C 
BRANCH  23  24
HETATM   24  C4  UNL     1      -3.627   5.801  13.545  1.00  0.00     0.035 C 
BRANCH  24  25
HETATM   25  C3  UNL     1      -3.055   6.114  14.933  1.00  0.00     0.271 C 
BRANCH  25  26
HETATM   26  N1  UNL     1      -2.193   7.309  14.953  1.00  0.00     0.080 N 
HETATM   27  C1  UNL     1      -2.613   8.276  15.969  1.00  0.00     0.309 C 
HETATM   28  C2  UNL     1      -0.801   6.917  15.192  1.00  0.00     0.309 C 
ENDBRANCH  25  26
ENDBRANCH  24  25
ENDBRANCH  23  24
ENDBRANCH   1  23
TORSDOF 5
ENDMDL
MODEL 8
REMARK minimizedAffinity -7.82564783
REMARK  5 active torsions:
REMARK  status: ('A' for Active; 'I' for Inactive)
REMARK    1  A    between atoms: N1_2  and  C3_4 
REMARK    2  A    between atoms: C3_4  and  C4_5 
REMARK    3  A    between atoms: C4_5  and  C5_6 
REMARK    4  A    between atoms: C5_6  and  C6_7 
REMARK    5  A    between atoms: C7_8  and  C8_9 
ROOT
HETATM    1  C6  UNL     1      -2.508   4.762  12.337  1.00  0.00    -0.023 A 
HETATM    2  C7  UNL     1      -3.212   5.860  12.839  1.00  0.00     0.040 A 
HETATM    3  N3  UNL     1      -2.297   6.869  13.042  1.00  0.00    -0.359 N 
HETATM    4  C17 UNL     1      -1.051   6.447  12.677  1.00  0.00     0.016 A 
HETATM    5  C18 UNL     1      -1.142   5.150  12.230  1.00  0.00    -0.027 A 
HETATM    6  C19 UNL     1       0.053   4.384  11.764  1.00  0.00     0.041 C 
HETATM    7  C20 UNL     1       1.241   5.323  11.480  1.00  0.00     0.005 C 
HETATM    8  C21 UNL     1       1.421   6.384  12.583  1.00  0.00     0.006 C 
HETATM    9  C22 UNL     1       0.179   7.281  12.734  1.00  0.00     0.057 C 
HETATM   10  H19 UNL     1      -2.509   7.793  13.404  1.00  0.00     0.166 HD
ENDROOT
BRANCH   2  11
HETATM   11  C8  UNL     1      -4.600   6.022  13.115  1.00  0.00     0.048 C 
HETATM   12  C9  UNL     1      -5.207   6.638  14.143  1.00  0.00     0.047 A 
HETATM   13  C10 UNL     1      -4.644   7.356  15.347  1.00  0.00     0.257 A 
HETATM   14  C16 UNL     1      -6.676   6.715  14.275  1.00  0.00     0.006 A 
HETATM   15  O1  UNL     1      -3.479   7.544  15.643  1.00  0.00    -0.267 OA
HETATM   16  N2  UNL     1      -5.743   7.781  16.074  1.00  0.00    -0.322 N 
HETATM   17  C11 UNL     1      -6.933   7.413  15.458  1.00  0.00     0.046 A 
HETATM   18  H14 UNL     1      -5.660   8.296  16.936  1.00  0.00     0.169 HD
HETATM   19  C12 UNL     1      -8.210   7.678  15.908  1.00  0.00     0.030 A 
HETATM   20  C13 UNL     1      -9.273   7.218  15.128  1.00  0.00     0.002 A 
HETATM   21  C14 UNL     1      -9.035   6.514  13.934  1.00  0.00     0.001 A 
HETATM   22  C15 UNL     1      -7.729   6.258  13.499  1.00  0.00     0.015 A 
ENDBRANCH   2  11
BRANCH   1  23
HETATM   23  C5  UNL     1      -3.066   3.418  11.973  1.00  0.00     0.043 C 
BRANCH  23  24
HETATM   24  C4  UNL     1      -3.664   3.398  10.564  1.00  0.00     0.035 C 
BRANCH  24  25
HETATM   25  C3  UNL     1      -5.191   3.267  10.623  1.00  0.00     0.271 C 
BRANCH  25  26
HETATM   26  N1  UNL     1      -5.662   2.415  11.728  1.00  0.00     0.080 N 
HETATM   27  C1  UNL     1      -6.793   3.011  12.442  1.00  0.00     0.309 C 
HETATM   28  C2  UNL     1      -6.042   1.096  11.215  1.00  0.00     0.309 C 
ENDBRANCH  25  26
ENDBRANCH  24  25
ENDBRANCH  23  24
ENDBRANCH   1  23
TORSDOF 5
ENDMDL
MODEL 9
REMARK minimizedAffinity -7.75995731
REMARK  5 active torsions:
REMARK  status: ('A' for Active; 'I' for Inactive)
REMARK    1  A    between atoms: N1_2  and  C3_4 
REMARK    2  A    between atoms: C3_4  and  C4_5 
REMARK    3  A    between atoms: C4_5  and  C5_6 
REMARK    4  A    between atoms: C5_6  and  C6_7 
REMARK    5  A    between atoms: C7_8  and  C8_9 
ROOT
HETATM    1  C6  UNL     1      -1.140   7.161  12.179  1.00  0.00    -0.023 A 
HETATM    2  C7  UNL     1      -1.677   5.872  12.228  1.00  0.00     0.040 A 
HETATM    3  N3  UNL     1      -0.680   5.004  11.844  1.00  0.00    -0.359 N 
HETATM    4  C17 UNL     1       0.462   5.699  11.566  1.00  0.00     0.016 A 
HETATM    5  C18 UNL     1       0.218   7.037  11.768  1.00  0.00    -0.027 A 
HETATM    6  C19 UNL     1       1.264   8.079  11.540  1.00  0.00     0.041 C 
HETATM    7  C20 UNL     1       2.668   7.451  11.461  1.00  0.00     0.005 C 
HETATM    8  C21 UNL     1       2.688   6.176  10.596  1.00  0.00     0.006 C 
HETATM    9  C22 UNL     1       1.750   5.086  11.148  1.00  0.00     0.057 C 
HETATM   10  H19 UNL     1      -0.769   3.994  11.777  1.00  0.00     0.166 HD
ENDROOT
BRANCH   2  11
HETATM   11  C8  UNL     1      -2.978   5.424  12.597  1.00  0.00     0.048 C 
HETATM   12  C9  UNL     1      -3.715   4.418  12.099  1.00  0.00     0.047 A 
HETATM   13  C10 UNL     1      -3.433   3.429  10.991  1.00  0.00     0.257 A 
HETATM   14  C16 UNL     1      -5.062   4.085  12.606  1.00  0.00     0.006 A 
HETATM   15  O1  UNL     1      -2.437   3.327  10.300  1.00  0.00    -0.267 OA
HETATM   16  N2  UNL     1      -4.561   2.629  10.912  1.00  0.00    -0.322 N 
HETATM   17  C11 UNL     1      -5.516   3.002  11.849  1.00  0.00     0.046 A 
HETATM   18  H14 UNL     1      -4.647   1.873  10.251  1.00  0.00     0.169 HD
HETATM   19  C12 UNL     1      -6.749   2.416  12.047  1.00  0.00     0.030 A 
HETATM   20  C13 UNL     1      -7.559   2.948  13.052  1.00  0.00     0.002 A 
HETATM   21  C14 UNL     1      -7.119   4.038  13.825  1.00  0.00     0.001 A 
HETATM   22  C15 UNL     1      -5.862   4.615  13.606  1.00  0.00     0.015 A 
ENDBRANCH   2  11
BRANCH   1  23
HETATM   23  C5  UNL     1      -1.844   8.447  12.495  1.00  0.00     0.043 C 
BRANCH  23  24
HETATM   24  C4  UNL     1      -1.454   9.002  13.868  1.00  0.00     0.035 C 
BRANCH  24  25
HETATM   25  C3  UNL     1      -2.622   9.775  14.494  1.00  0.00     0.271 C 
BRANCH  25  26
HETATM   26  N1  UNL     1      -3.283   9.047  15.590  1.00  0.00     0.080 N 
HETATM   27  C1  UNL     1      -2.373   8.120  16.266  1.00  0.00     0.309 C 
HETATM   28  C2  UNL     1      -3.830   9.997  16.563  1.00  0.00     0.309 C 
ENDBRANCH  25  26
ENDBRANCH  24  25
ENDBRANCH  23  24
ENDBRANCH   1  23
TORSDOF 5
ENDMDL
