MODEL 1
REMARK minimizedAffinity -8.69048786
REMARK  8 active torsions:
REMARK  status: ('A' for Active; 'I' for Inactive)
REMARK    1  A    between atoms: O1_2  and  C2_3 
REMARK    2  A    between atoms: C5_6  and  N1_7 
REMARK    3  A    between atoms: N1_7  and  C6_8 
REMARK    4  A    between atoms: C17_25  and  O2_26 
REMARK    5  A    between atoms: O2_26  and  C18_27 
REMARK    6  A    between atoms: C18_27  and  C19_28 
REMARK    7  A    between atoms: C19_28  and  C20_29 
REMARK    8  A    between atoms: C20_29  and  N5_30 
ROOT
HETATM    1  C2  UNL     1      -1.249  50.093 -21.191  1.00  0.00     0.102 A 
HETATM    2  C3  UNL     1      -0.685  50.761 -20.105  1.00  0.00     0.057 A 
HETATM    3  C4  UNL     1       0.039  51.969 -20.286  1.00  0.00     0.038 A 
HETATM    4  C5  UNL     1       0.638  52.717 -19.252  1.00  0.00     0.119 A 
HETATM    5  N3  UNL     1       1.358  53.826 -19.498  1.00  0.00    -0.338 N 
ATOM      6  H3  UNL     1       1.810  54.347 -18.747  1.00  0.00     0.168 HD
HETATM    7  C14 UNL     1       1.455  54.213 -20.773  1.00  0.00     0.182 A 
HETATM    8  N4  UNL     1       0.898  53.603 -21.826  1.00  0.00    -0.351 N 
ATOM      9  H4  UNL     1       1.001  53.970 -22.772  1.00  0.00     0.166 HD
HETATM   10  C15 UNL     1       0.202  52.490 -21.577  1.00  0.00     0.050 A 
HETATM   11  C16 UNL     1      -0.388  51.829 -22.647  1.00  0.00     0.070 A 
HETATM   12  C17 UNL     1      -1.106  50.642 -22.471  1.00  0.00     0.104 A 
ENDROOT
BRANCH   4  13
HETATM   13  N1  UNL     1       0.457  52.296 -17.908  1.00  0.00    -0.340 N 
HETATM   14  H5  UNL     1      -0.452  52.589 -17.579  1.00  0.00     0.167 HD
BRANCH  13  15
HETATM   15  C6  UNL     1       1.420  52.207 -16.887  1.00  0.00     0.061 A 
HETATM   16  C7  UNL     1       2.757  52.599 -17.092  1.00  0.00     0.032 A 
HETATM   17  C8  UNL     1       3.735  52.469 -16.107  1.00  0.00     0.003 A 
HETATM   18  C9  UNL     1       3.417  51.918 -14.866  1.00  0.00     0.015 A 
HETATM   19  C10 UNL     1       2.096  51.493 -14.615  1.00  0.00     0.016 A 
HETATM   20  C11 UNL     1       1.446  50.894 -13.496  1.00  0.00     0.061 A 
HETATM   21  C13 UNL     1       1.134  51.648 -15.621  1.00  0.00     0.071 A 
HETATM   22 CL1  UNL     1       2.184  50.488 -12.017  1.00  0.00    -0.082 Cl
HETATM   23  C12 UNL     1       0.125  50.712 -13.819  1.00  0.00     0.113 A 
HETATM   24  N2  UNL     1      -0.053  51.166 -15.099  1.00  0.00    -0.362 N 
HETATM   25  H10 UNL     1      -0.935  51.165 -15.587  1.00  0.00     0.165 HD
ENDBRANCH  13  15
ENDBRANCH   4  13
BRANCH   1  26
HETATM   26  O1  UNL     1      -1.958  48.924 -21.097  1.00  0.00    -0.353 OA
HETATM   27  C1  UNL     1      -1.206  47.728 -20.902  1.00  0.00     0.210 C 
ENDBRANCH   1  26
BRANCH  12  28
HETATM   28  O2  UNL     1      -1.727  49.984 -23.503  1.00  0.00    -0.348 OA
BRANCH  28  29
HETATM   29  C18 UNL     1      -2.956  50.566 -23.955  1.00  0.00     0.177 C 
BRANCH  29  30
HETATM   30  C19 UNL     1      -2.756  51.122 -25.362  1.00  0.00     0.057 C 
BRANCH  30  31
HETATM   31  C20 UNL     1      -1.814  50.327 -26.285  1.00  0.00     0.274 C 
BRANCH  31  32
HETATM   32  N5  UNL     1      -1.031  51.135 -27.241  1.00  0.00     0.092 N 
HETATM   33  C21 UNL     1      -1.519  52.534 -27.325  1.00  0.00     0.298 C 
HETATM   34  C22 UNL     1      -0.405  53.541 -27.672  1.00  0.00     0.198 C 
HETATM   35  O3  UNL     1       0.624  53.595 -26.674  1.00  0.00    -0.388 OA
HETATM   36  C23 UNL     1       0.825  52.338 -26.014  1.00  0.00     0.198 C 
HETATM   37  C24 UNL     1       0.410  51.134 -26.875  1.00  0.00     0.298 C 
ENDBRANCH  31  32
ENDBRANCH  30  31
ENDBRANCH  29  30
ENDBRANCH  28  29
ENDBRANCH  12  28
TORSDOF 8
ENDMDL
MODEL 2
REMARK minimizedAffinity -8.43700695
REMARK  8 active torsions:
REMARK  status: ('A' for Active; 'I' for Inactive)
REMARK    1  A    between atoms: O1_2  and  C2_3 
REMARK    2  A    between atoms: C5_6  and  N1_7 
REMARK    3  A    between atoms: N1_7  and  C6_8 
REMARK    4  A    between atoms: C17_25  and  O2_26 
REMARK    5  A    between atoms: O2_26  and  C18_27 
REMARK    6  A    between atoms: C18_27  and  C19_28 
REMARK    7  A    between atoms: C19_28  and  C20_29 
REMARK    8  A    between atoms: C20_29  and  N5_30 
ROOT
HETATM    1  C2  UNL     1      -3.883  49.008 -24.801  1.00  0.00     0.102 A 
HETATM    2  C3  UNL     1      -3.027  49.837 -24.078  1.00  0.00     0.057 A 
HETATM    3  C4  UNL     1      -1.904  50.445 -24.699  1.00  0.00     0.038 A 
HETATM    4  C5  UNL     1      -0.987  51.301 -24.054  1.00  0.00     0.119 A 
HETATM    5  N3  UNL     1       0.090  51.801 -24.688  1.00  0.00    -0.338 N 
ATOM      6  H3  UNL     1       0.762  52.398 -24.206  1.00  0.00     0.168 HD
HETATM    7  C14 UNL     1       0.238  51.477 -25.975  1.00  0.00     0.182 A 
HETATM    8  N4  UNL     1      -0.587  50.707 -26.693  1.00  0.00    -0.351 N 
ATOM      9  H4  UNL     1      -0.417  50.519 -27.681  1.00  0.00     0.166 HD
HETATM   10  C15 UNL     1      -1.643  50.196 -26.054  1.00  0.00     0.050 A 
HETATM   11  C16 UNL     1      -2.519  49.390 -26.768  1.00  0.00     0.070 A 
HETATM   12  C17 UNL     1      -3.630  48.794 -26.161  1.00  0.00     0.104 A 
ENDROOT
BRANCH   4  13
HETATM   13  N1  UNL     1      -1.221  51.662 -22.701  1.00  0.00    -0.340 N 
HETATM   14  H5  UNL     1      -2.195  51.896 -22.575  1.00  0.00     0.167 HD
BRANCH  13  15
HETATM   15  C6  UNL     1      -0.362  52.346 -21.822  1.00  0.00     0.061 A 
HETATM   16  C7  UNL     1       0.539  53.327 -22.279  1.00  0.00     0.032 A 
HETATM   17  C8  UNL     1       1.432  53.977 -21.429  1.00  0.00     0.003 A 
HETATM   18  C9  UNL     1       1.475  53.657 -20.072  1.00  0.00     0.015 A 
HETATM   19  C10 UNL     1       0.605  52.669 -19.566  1.00  0.00     0.016 A 
HETATM   20  C11 UNL     1       0.396  52.104 -18.274  1.00  0.00     0.061 A 
HETATM   21  C13 UNL     1      -0.288  52.042 -20.444  1.00  0.00     0.071 A 
HETATM   22 CL1  UNL     1       1.242  52.520 -16.858  1.00  0.00    -0.082 Cl
HETATM   23  C12 UNL     1      -0.609  51.176 -18.374  1.00  0.00     0.113 A 
HETATM   24  N2  UNL     1      -1.013  51.144 -19.682  1.00  0.00    -0.362 N 
HETATM   25  H10 UNL     1      -1.753  50.557 -20.037  1.00  0.00     0.165 HD
ENDBRANCH  13  15
ENDBRANCH   4  13
BRANCH   1  26
HETATM   26  O1  UNL     1      -4.985  48.385 -24.273  1.00  0.00    -0.353 OA
HETATM   27  C1  UNL     1      -4.925  48.033 -22.893  1.00  0.00     0.210 C 
ENDBRANCH   1  26
BRANCH  12  28
HETATM   28  O2  UNL     1      -4.531  48.019 -26.848  1.00  0.00    -0.348 OA
BRANCH  28  29
HETATM   29  C18 UNL     1      -4.697  48.347 -28.232  1.00  0.00     0.177 C 
BRANCH  29  30
HETATM   30  C19 UNL     1      -5.949  47.652 -28.763  1.00  0.00     0.057 C 
BRANCH  30  31
HETATM   31  C20 UNL     1      -6.582  48.256 -30.029  1.00  0.00     0.274 C 
BRANCH  31  32
HETATM   32  N5  UNL     1      -6.650  47.355 -31.196  1.00  0.00     0.092 N 
HETATM   33  C21 UNL     1      -7.449  47.932 -32.305  1.00  0.00     0.298 C 
HETATM   34  C22 UNL     1      -6.980  47.458 -33.696  1.00  0.00     0.198 C 
HETATM   35  O3  UNL     1      -5.636  47.860 -33.995  1.00  0.00    -0.388 OA
HETATM   36  C23 UNL     1      -4.807  47.938 -32.827  1.00  0.00     0.198 C 
HETATM   37  C24 UNL     1      -5.286  47.024 -31.687  1.00  0.00     0.298 C 
ENDBRANCH  31  32
ENDBRANCH  30  31
ENDBRANCH  29  30
ENDBRANCH  28  29
ENDBRANCH  12  28
TORSDOF 8
ENDMDL
MODEL 3
REMARK minimizedAffinity -8.13225079
REMARK  8 active torsions:
REMARK  status: ('A' for Active; 'I' for Inactive)
REMARK    1  A    between atoms: O1_2  and  C2_3 
REMARK    2  A    between atoms: C5_6  and  N1_7 
REMARK    3  A    between atoms: N1_7  and  C6_8 
REMARK    4  A    between atoms: C17_25  and  O2_26 
REMARK    5  A    between atoms: O2_26  and  C18_27 
REMARK    6  A    between atoms: C18_27  and  C19_28 
REMARK    7  A    between atoms: C19_28  and  C20_29 
REMARK    8  A    between atoms: C20_29  and  N5_30 
ROOT
HETATM    1  C2  UNL     1      -0.274  50.419 -17.587  1.00  0.00     0.102 A 
HETATM    2  C3  UNL     1      -0.578  50.673 -18.923  1.00  0.00     0.057 A 
HETATM    3  C4  UNL     1      -0.042  51.805 -19.592  1.00  0.00     0.038 A 
HETATM    4  C5  UNL     1      -0.287  52.140 -20.940  1.00  0.00     0.119 A 
HETATM    5  N3  UNL     1       0.208  53.259 -21.498  1.00  0.00    -0.338 N 
ATOM      6  H3  UNL     1       0.005  53.507 -22.466  1.00  0.00     0.168 HD
HETATM    7  C14 UNL     1       0.977  54.031 -20.725  1.00  0.00     0.182 A 
HETATM    8  N4  UNL     1       1.304  53.791 -19.450  1.00  0.00    -0.351 N 
ATOM      9  H4  UNL     1       1.914  54.420 -18.928  1.00  0.00     0.166 HD
HETATM   10  C15 UNL     1       0.793  52.689 -18.895  1.00  0.00     0.050 A 
HETATM   11  C16 UNL     1       1.108  52.410 -17.572  1.00  0.00     0.070 A 
HETATM   12  C17 UNL     1       0.587  51.293 -16.911  1.00  0.00     0.104 A 
ENDROOT
BRANCH   4  13
HETATM   13  N1  UNL     1      -1.062  51.257 -21.736  1.00  0.00    -0.340 N 
HETATM   14  H5  UNL     1      -1.250  50.409 -21.220  1.00  0.00     0.167 HD
BRANCH  13  15
HETATM   15  C6  UNL     1      -1.007  51.064 -23.128  1.00  0.00     0.061 A 
HETATM   16  C7  UNL     1      -0.129  51.802 -23.945  1.00  0.00     0.032 A 
HETATM   17  C8  UNL     1      -0.097  51.660 -25.331  1.00  0.00     0.003 A 
HETATM   18  C9  UNL     1      -0.966  50.775 -25.969  1.00  0.00     0.015 A 
HETATM   19  C10 UNL     1      -1.879  50.024 -25.199  1.00  0.00     0.016 A 
HETATM   20  C11 UNL     1      -2.885  49.066 -25.516  1.00  0.00     0.061 A 
HETATM   21  C13 UNL     1      -1.877  50.182 -23.808  1.00  0.00     0.071 A 
HETATM   22 CL1  UNL     1      -3.292  48.531 -27.080  1.00  0.00    -0.082 Cl
HETATM   23  C12 UNL     1      -3.459  48.648 -24.342  1.00  0.00     0.113 A 
HETATM   24  N2  UNL     1      -2.848  49.326 -23.320  1.00  0.00    -0.362 N 
HETATM   25  H10 UNL     1      -3.065  49.202 -22.343  1.00  0.00     0.165 HD
ENDBRANCH  13  15
ENDBRANCH   4  13
BRANCH   1  26
HETATM   26  O1  UNL     1      -0.753  49.351 -16.873  1.00  0.00    -0.353 OA
HETATM   27  C1  UNL     1      -2.077  48.917 -17.175  1.00  0.00     0.210 C 
ENDBRANCH   1  26
BRANCH  12  28
HETATM   28  O2  UNL     1       0.906  50.974 -15.615  1.00  0.00    -0.348 OA
BRANCH  28  29
HETATM   29  C18 UNL     1       0.871  52.063 -14.686  1.00  0.00     0.177 C 
BRANCH  29  30
HETATM   30  C19 UNL     1       0.332  51.560 -13.349  1.00  0.00     0.057 C 
BRANCH  30  31
HETATM   31  C20 UNL     1      -0.545  52.542 -12.552  1.00  0.00     0.274 C 
BRANCH  31  32
HETATM   32  N5  UNL     1      -1.591  51.923 -11.713  1.00  0.00     0.092 N 
HETATM   33  C21 UNL     1      -1.789  52.650 -10.435  1.00  0.00     0.298 C 
HETATM   34  C22 UNL     1      -3.232  52.548  -9.902  1.00  0.00     0.198 C 
HETATM   35  O3  UNL     1      -4.193  53.140 -10.788  1.00  0.00    -0.388 OA
HETATM   36  C23 UNL     1      -3.815  53.038 -12.167  1.00  0.00     0.198 C 
HETATM   37  C24 UNL     1      -2.881  51.849 -12.447  1.00  0.00     0.298 C 
ENDBRANCH  31  32
ENDBRANCH  30  31
ENDBRANCH  29  30
ENDBRANCH  28  29
ENDBRANCH  12  28
TORSDOF 8
ENDMDL
MODEL 4
REMARK minimizedAffinity -8.06567192
REMARK  8 active torsions:
REMARK  status: ('A' for Active; 'I' for Inactive)
REMARK    1  A    between atoms: O1_2  and  C2_3 
REMARK    2  A    between atoms: C5_6  and  N1_7 
REMARK    3  A    between atoms: N1_7  and  C6_8 
REMARK    4  A    between atoms: C17_25  and  O2_26 
REMARK    5  A    between atoms: O2_26  and  C18_27 
REMARK    6  A    between atoms: C18_27  and  C19_28 
REMARK    7  A    between atoms: C19_28  and  C20_29 
REMARK    8  A    between atoms: C20_29  and  N5_30 
ROOT
HETATM    1  C2  UNL     1      -2.907  51.569 -25.760  1.00  0.00     0.102 A 
HETATM    2  C3  UNL     1      -1.850  52.214 -25.119  1.00  0.00     0.057 A 
HETATM    3  C4  UNL     1      -0.511  52.028 -25.554  1.00  0.00     0.038 A 
HETATM    4  C5  UNL     1       0.620  52.641 -24.975  1.00  0.00     0.119 A 
HETATM    5  N3  UNL     1       1.869  52.379 -25.400  1.00  0.00    -0.338 N 
ATOM      6  H3  UNL     1       2.683  52.806 -24.959  1.00  0.00     0.168 HD
HETATM    7  C14 UNL     1       1.994  51.532 -26.425  1.00  0.00     0.182 A 
HETATM    8  N4  UNL     1       0.992  50.925 -27.071  1.00  0.00    -0.351 N 
ATOM      9  H4  UNL     1       1.164  50.303 -27.861  1.00  0.00     0.166 HD
HETATM   10  C15 UNL     1      -0.245  51.172 -26.632  1.00  0.00     0.050 A 
HETATM   11  C16 UNL     1      -1.310  50.557 -27.277  1.00  0.00     0.070 A 
HETATM   12  C17 UNL     1      -2.631  50.742 -26.856  1.00  0.00     0.104 A 
ENDROOT
BRANCH   4  13
HETATM   13  N1  UNL     1       0.430  53.579 -23.926  1.00  0.00    -0.340 N 
HETATM   14  H5  UNL     1       0.683  54.503 -24.246  1.00  0.00     0.167 HD
BRANCH  13  15
HETATM   15  C6  UNL     1       0.625  53.391 -22.546  1.00  0.00     0.061 A 
HETATM   16  C7  UNL     1       1.424  54.265 -21.784  1.00  0.00     0.032 A 
HETATM   17  C8  UNL     1       1.667  54.064 -20.426  1.00  0.00     0.003 A 
HETATM   18  C9  UNL     1       1.130  52.957 -19.769  1.00  0.00     0.015 A 
HETATM   19  C10 UNL     1       0.337  52.041 -20.490  1.00  0.00     0.016 A 
HETATM   20  C11 UNL     1      -0.339  50.834 -20.146  1.00  0.00     0.061 A 
HETATM   21  C13 UNL     1       0.101  52.278 -21.851  1.00  0.00     0.071 A 
HETATM   22 CL1  UNL     1      -0.356  50.107 -18.608  1.00  0.00    -0.082 Cl
HETATM   23  C12 UNL     1      -0.977  50.370 -21.268  1.00  0.00     0.113 A 
HETATM   24  N2  UNL     1      -0.705  51.243 -22.289  1.00  0.00    -0.362 N 
HETATM   25  H10 UNL     1      -1.062  51.152 -23.228  1.00  0.00     0.165 HD
ENDBRANCH  13  15
ENDBRANCH   4  13
BRANCH   1  26
HETATM   26  O1  UNL     1      -4.224  51.695 -25.399  1.00  0.00    -0.353 OA
HETATM   27  C1  UNL     1      -4.494  51.906 -24.015  1.00  0.00     0.210 C 
ENDBRANCH   1  26
BRANCH  12  28
HETATM   28  O2  UNL     1      -3.705  50.173 -27.492  1.00  0.00    -0.348 OA
BRANCH  28  29
HETATM   29  C18 UNL     1      -3.862  48.763 -27.297  1.00  0.00     0.177 C 
BRANCH  29  30
HETATM   30  C19 UNL     1      -4.690  48.189 -28.444  1.00  0.00     0.057 C 
BRANCH  30  31
HETATM   31  C20 UNL     1      -6.123  47.744 -28.098  1.00  0.00     0.274 C 
BRANCH  31  32
HETATM   32  N5  UNL     1      -7.065  47.698 -29.234  1.00  0.00     0.092 N 
HETATM   33  C21 UNL     1      -7.429  46.308 -29.604  1.00  0.00     0.298 C 
HETATM   34  C22 UNL     1      -8.846  46.196 -30.202  1.00  0.00     0.198 C 
HETATM   35  O3  UNL     1      -9.871  46.587 -29.276  1.00  0.00    -0.388 OA
HETATM   36  C23 UNL     1      -9.438  47.606 -28.366  1.00  0.00     0.198 C 
HETATM   37  C24 UNL     1      -8.297  48.470 -28.929  1.00  0.00     0.298 C 
ENDBRANCH  31  32
ENDBRANCH  30  31
ENDBRANCH  29  30
ENDBRANCH  28  29
ENDBRANCH  12  28
TORSDOF 8
ENDMDL
MODEL 5
REMARK minimizedAffinity -8.04279518
REMARK  8 active torsions:
REMARK  status: ('A' for Active; 'I' for Inactive)
REMARK    1  A    between atoms: O1_2  and  C2_3 
REMARK    2  A    between atoms: C5_6  and  N1_7 
REMARK    3  A    between atoms: N1_7  and  C6_8 
REMARK    4  A    between atoms: C17_25  and  O2_26 
REMARK    5  A    between atoms: O2_26  and  C18_27 
REMARK    6  A    between atoms: C18_27  and  C19_28 
REMARK    7  A    between atoms: C19_28  and  C20_29 
REMARK    8  A    between atoms: C20_29  and  N5_30 
ROOT
HETATM    1  C2  UNL     1      -3.046  50.506 -21.661  1.00  0.00     0.102 A 
HETATM    2  C3  UNL     1      -2.264  51.091 -20.666  1.00  0.00     0.057 A 
HETATM    3  C4  UNL     1      -1.106  51.844 -20.996  1.00  0.00     0.038 A 
HETATM    4  C5  UNL     1      -0.259  52.477 -20.064  1.00  0.00     0.119 A 
HETATM    5  N3  UNL     1       0.855  53.129 -20.440  1.00  0.00    -0.338 N 
ATOM      6  H3  UNL     1       1.477  53.562 -19.757  1.00  0.00     0.168 HD
HETATM    7  C14 UNL     1       1.111  53.184 -21.750  1.00  0.00     0.182 A 
HETATM    8  N4  UNL     1       0.359  52.653 -22.722  1.00  0.00    -0.351 N 
ATOM      9  H4  UNL     1       0.610  52.752 -23.705  1.00  0.00     0.166 HD
HETATM   10  C15 UNL     1      -0.735  51.988 -22.341  1.00  0.00     0.050 A 
HETATM   11  C16 UNL     1      -1.538  51.422 -23.322  1.00  0.00     0.070 A 
HETATM   12  C17 UNL     1      -2.682  50.685 -23.001  1.00  0.00     0.104 A 
ENDROOT
BRANCH   4  13
HETATM   13  N1  UNL     1      -0.606  52.441 -18.688  1.00  0.00    -0.340 N 
HETATM   14  H5  UNL     1      -0.803  53.376 -18.361  1.00  0.00     0.167 HD
BRANCH  13  15
HETATM   15  C6  UNL     1      -0.101  51.592 -17.685  1.00  0.00     0.061 A 
HETATM   16  C7  UNL     1      -0.778  50.420 -17.297  1.00  0.00     0.032 A 
HETATM   17  C8  UNL     1      -0.318  49.596 -16.271  1.00  0.00     0.003 A 
HETATM   18  C9  UNL     1       0.843  49.923 -15.569  1.00  0.00     0.015 A 
HETATM   19  C10 UNL     1       1.548  51.096 -15.907  1.00  0.00     0.016 A 
HETATM   20  C11 UNL     1       2.729  51.718 -15.406  1.00  0.00     0.061 A 
HETATM   21  C13 UNL     1       1.066  51.897 -16.950  1.00  0.00     0.071 A 
HETATM   22 CL1  UNL     1       3.688  51.143 -14.123  1.00  0.00    -0.082 Cl
HETATM   23  C12 UNL     1       2.957  52.853 -16.142  1.00  0.00     0.113 A 
HETATM   24  N2  UNL     1       1.951  52.954 -17.067  1.00  0.00    -0.362 N 
HETATM   25  H10 UNL     1       1.878  53.690 -17.752  1.00  0.00     0.165 HD
ENDBRANCH  13  15
ENDBRANCH   4  13
BRANCH   1  26
HETATM   26  O1  UNL     1      -4.175  49.764 -21.422  1.00  0.00    -0.353 OA
HETATM   27  C1  UNL     1      -5.046  50.231 -20.394  1.00  0.00     0.210 C 
ENDBRANCH   1  26
BRANCH  12  28
HETATM   28  O2  UNL     1      -3.512  50.141 -23.949  1.00  0.00    -0.348 OA
BRANCH  28  29
HETATM   29  C18 UNL     1      -2.897  49.208 -24.845  1.00  0.00     0.177 C 
BRANCH  29  30
HETATM   30  C19 UNL     1      -3.094  49.691 -26.280  1.00  0.00     0.057 C 
BRANCH  30  31
HETATM   31  C20 UNL     1      -2.862  51.192 -26.535  1.00  0.00     0.274 C 
BRANCH  31  32
HETATM   32  N5  UNL     1      -1.754  51.514 -27.456  1.00  0.00     0.092 N 
HETATM   33  C21 UNL     1      -1.533  52.977 -27.577  1.00  0.00     0.298 C 
HETATM   34  C22 UNL     1      -0.065  53.341 -27.875  1.00  0.00     0.198 C 
HETATM   35  O3  UNL     1       0.829  52.943 -26.826  1.00  0.00    -0.388 OA
HETATM   36  C23 UNL     1       0.395  51.757 -26.146  1.00  0.00     0.198 C 
HETATM   37  C24 UNL     1      -0.495  50.857 -27.018  1.00  0.00     0.298 C 
ENDBRANCH  31  32
ENDBRANCH  30  31
ENDBRANCH  29  30
ENDBRANCH  28  29
ENDBRANCH  12  28
TORSDOF 8
ENDMDL
MODEL 6
REMARK minimizedAffinity -8.03958893
REMARK  8 active torsions:
REMARK  status: ('A' for Active; 'I' for Inactive)
REMARK    1  A    between atoms: O1_2  and  C2_3 
REMARK    2  A    between atoms: C5_6  and  N1_7 
REMARK    3  A    between atoms: N1_7  and  C6_8 
REMARK    4  A    between atoms: C17_25  and  O2_26 
REMARK    5  A    between atoms: O2_26  and  C18_27 
REMARK    6  A    between atoms: C18_27  and  C19_28 
REMARK    7  A    between atoms: C19_28  and  C20_29 
REMARK    8  A    between atoms: C20_29  and  N5_30 
ROOT
HETATM    1  C2  UNL     1      -0.779  50.540 -18.028  1.00  0.00     0.102 A 
HETATM    2  C3  UNL     1      -0.764  50.811 -19.395  1.00  0.00     0.057 A 
HETATM    3  C4  UNL     1      -0.018  51.902 -19.915  1.00  0.00     0.038 A 
HETATM    4  C5  UNL     1       0.064  52.249 -21.280  1.00  0.00     0.119 A 
HETATM    5  N3  UNL     1       0.745  53.330 -21.701  1.00  0.00    -0.338 N 
ATOM      6  H3  UNL     1       0.777  53.589 -22.687  1.00  0.00     0.168 HD
HETATM    7  C14 UNL     1       1.375  54.049 -20.768  1.00  0.00     0.182 A 
HETATM    8  N4  UNL     1       1.396  53.791 -19.456  1.00  0.00    -0.351 N 
ATOM      9  H4  UNL     1       1.917  54.377 -18.804  1.00  0.00     0.166 HD
HETATM   10  C15 UNL     1       0.701  52.728 -19.040  1.00  0.00     0.050 A 
HETATM   11  C16 UNL     1       0.698  52.432 -17.684  1.00  0.00     0.070 A 
HETATM   12  C17 UNL     1      -0.031  51.355 -17.168  1.00  0.00     0.104 A 
ENDROOT
BRANCH   4  13
HETATM   13  N1  UNL     1      -0.575  51.419 -22.238  1.00  0.00    -0.340 N 
HETATM   14  H5  UNL     1      -0.131  50.512 -22.253  1.00  0.00     0.167 HD
BRANCH  13  15
HETATM   15  C6  UNL     1      -1.135  51.789 -23.474  1.00  0.00     0.061 A 
HETATM   16  C7  UNL     1      -2.524  51.956 -23.638  1.00  0.00     0.032 A 
HETATM   17  C8  UNL     1      -3.099  52.273 -24.868  1.00  0.00     0.003 A 
HETATM   18  C9  UNL     1      -2.303  52.420 -26.003  1.00  0.00     0.015 A 
HETATM   19  C10 UNL     1      -0.907  52.245 -25.896  1.00  0.00     0.016 A 
HETATM   20  C11 UNL     1       0.171  52.309 -26.827  1.00  0.00     0.061 A 
HETATM   21  C13 UNL     1      -0.359  51.939 -24.645  1.00  0.00     0.071 A 
HETATM   22 CL1  UNL     1       0.030  52.640 -28.491  1.00  0.00    -0.082 Cl
HETATM   23  C12 UNL     1       1.336  52.064 -26.146  1.00  0.00     0.113 A 
HETATM   24  N2  UNL     1       1.008  51.841 -24.835  1.00  0.00    -0.362 N 
HETATM   25  H10 UNL     1       1.676  51.649 -24.104  1.00  0.00     0.165 HD
ENDBRANCH  13  15
ENDBRANCH   4  13
BRANCH   1  26
HETATM   26  O1  UNL     1      -1.475  49.510 -17.450  1.00  0.00    -0.353 OA
HETATM   27  C1  UNL     1      -1.853  48.431 -18.303  1.00  0.00     0.210 C 
ENDBRANCH   1  26
BRANCH  12  28
HETATM   28  O2  UNL     1      -0.027  51.018 -15.838  1.00  0.00    -0.348 OA
BRANCH  28  29
HETATM   29  C18 UNL     1       0.917  51.725 -15.026  1.00  0.00     0.177 C 
BRANCH  29  30
HETATM   30  C19 UNL     1       0.215  52.226 -13.766  1.00  0.00     0.057 C 
BRANCH  30  31
HETATM   31  C20 UNL     1      -1.260  51.817 -13.597  1.00  0.00     0.274 C 
BRANCH  31  32
HETATM   32  N5  UNL     1      -1.755  51.786 -12.207  1.00  0.00     0.092 N 
HETATM   33  C21 UNL     1      -1.296  52.958 -11.422  1.00  0.00     0.298 C 
HETATM   34  C22 UNL     1      -2.287  53.367 -10.313  1.00  0.00     0.198 C 
HETATM   35  O3  UNL     1      -3.560  53.777 -10.832  1.00  0.00    -0.388 OA
HETATM   36  C23 UNL     1      -3.912  53.095 -12.044  1.00  0.00     0.198 C 
HETATM   37  C24 UNL     1      -3.239  51.719 -12.176  1.00  0.00     0.298 C 
ENDBRANCH  31  32
ENDBRANCH  30  31
ENDBRANCH  29  30
ENDBRANCH  28  29
ENDBRANCH  12  28
TORSDOF 8
ENDMDL
MODEL 7
REMARK minimizedAffinity -7.96517897
REMARK  8 active torsions:
REMARK  status: ('A' for Active; 'I' for Inactive)
REMARK    1  A    between atoms: O1_2  and  C2_3 
REMARK    2  A    between atoms: C5_6  and  N1_7 
REMARK    3  A    between atoms: N1_7  and  C6_8 
REMARK    4  A    between atoms: C17_25  and  O2_26 
REMARK    5  A    between atoms: O2_26  and  C18_27 
REMARK    6  A    between atoms: C18_27  and  C19_28 
REMARK    7  A    between atoms: C19_28  and  C20_29 
REMARK    8  A    between atoms: C20_29  and  N5_30 
ROOT
HETATM    1  C2  UNL     1       0.044  52.207 -20.878  1.00  0.00     0.102 A 
HETATM    2  C3  UNL     1       0.100  52.108 -19.488  1.00  0.00     0.057 A 
HETATM    3  C4  UNL     1      -0.344  50.935 -18.822  1.00  0.00     0.038 A 
HETATM    4  C5  UNL     1      -0.321  50.739 -17.425  1.00  0.00     0.119 A 
HETATM    5  N3  UNL     1      -0.810  49.625 -16.853  1.00  0.00    -0.338 N 
ATOM      6  H3  UNL     1      -0.812  49.503 -15.840  1.00  0.00     0.168 HD
HETATM    7  C14 UNL     1      -1.291  48.686 -17.672  1.00  0.00     0.182 A 
HETATM    8  N4  UNL     1      -1.328  48.750 -19.007  1.00  0.00    -0.351 N 
ATOM      9  H4  UNL     1      -1.696  47.982 -19.569  1.00  0.00     0.166 HD
HETATM   10  C15 UNL     1      -0.861  49.868 -19.570  1.00  0.00     0.050 A 
HETATM   11  C16 UNL     1      -0.887  49.970 -20.954  1.00  0.00     0.070 A 
HETATM   12  C17 UNL     1      -0.444  51.121 -21.615  1.00  0.00     0.104 A 
ENDROOT
BRANCH   4  13
HETATM   13  N1  UNL     1       0.255  51.743 -16.602  1.00  0.00    -0.340 N 
HETATM   14  H5  UNL     1      -0.105  52.648 -16.867  1.00  0.00     0.167 HD
BRANCH  13  15
HETATM   15  C6  UNL     1       1.557  51.791 -16.071  1.00  0.00     0.061 A 
HETATM   16  C7  UNL     1       2.605  52.454 -16.736  1.00  0.00     0.032 A 
HETATM   17  C8  UNL     1       3.911  52.468 -16.248  1.00  0.00     0.003 A 
HETATM   18  C9  UNL     1       4.232  51.795 -15.070  1.00  0.00     0.015 A 
HETATM   19  C10 UNL     1       3.221  51.099 -14.374  1.00  0.00     0.016 A 
HETATM   20  C11 UNL     1       3.201  50.320 -13.180  1.00  0.00     0.061 A 
HETATM   21  C13 UNL     1       1.917  51.114 -14.884  1.00  0.00     0.071 A 
HETATM   22 CL1  UNL     1       4.542  49.987 -12.187  1.00  0.00    -0.082 Cl
HETATM   23  C12 UNL     1       1.914  49.894 -12.972  1.00  0.00     0.113 A 
HETATM   24  N2  UNL     1       1.149  50.375 -14.002  1.00  0.00    -0.362 N 
HETATM   25  H10 UNL     1       0.156  50.225 -14.094  1.00  0.00     0.165 HD
ENDBRANCH  13  15
ENDBRANCH   4  13
BRANCH   1  26
HETATM   26  O1  UNL     1       0.452  53.304 -21.592  1.00  0.00    -0.353 OA
HETATM   27  C1  UNL     1       1.501  54.087 -21.027  1.00  0.00     0.210 C 
ENDBRANCH   1  26
BRANCH  12  28
HETATM   28  O2  UNL     1      -0.427  51.239 -22.982  1.00  0.00    -0.348 OA
BRANCH  28  29
HETATM   29  C18 UNL     1      -1.704  51.440 -23.599  1.00  0.00     0.177 C 
BRANCH  29  30
HETATM   30  C19 UNL     1      -1.850  50.470 -24.769  1.00  0.00     0.057 C 
BRANCH  30  31
HETATM   31  C20 UNL     1      -1.376  50.979 -26.143  1.00  0.00     0.274 C 
BRANCH  31  32
HETATM   32  N5  UNL     1      -0.139  51.785 -26.128  1.00  0.00     0.092 N 
HETATM   33  C21 UNL     1       1.081  50.941 -26.132  1.00  0.00     0.298 C 
HETATM   34  C22 UNL     1       2.280  51.619 -26.825  1.00  0.00     0.198 C 
HETATM   35  O3  UNL     1       2.040  51.883 -28.215  1.00  0.00    -0.388 OA
HETATM   36  C23 UNL     1       0.661  52.156 -28.498  1.00  0.00     0.198 C 
HETATM   37  C24 UNL     1      -0.102  52.716 -27.286  1.00  0.00     0.298 C 
ENDBRANCH  31  32
ENDBRANCH  30  31
ENDBRANCH  29  30
ENDBRANCH  28  29
ENDBRANCH  12  28
TORSDOF 8
ENDMDL
MODEL 8
REMARK minimizedAffinity -7.95577955
REMARK  8 active torsions:
REMARK  status: ('A' for Active; 'I' for Inactive)
REMARK    1  A    between atoms: O1_2  and  C2_3 
REMARK    2  A    between atoms: C5_6  and  N1_7 
REMARK    3  A    between atoms: N1_7  and  C6_8 
REMARK    4  A    between atoms: C17_25  and  O2_26 
REMARK    5  A    between atoms: O2_26  and  C18_27 
REMARK    6  A    between atoms: C18_27  and  C19_28 
REMARK    7  A    between atoms: C19_28  and  C20_29 
REMARK    8  A    between atoms: C20_29  and  N5_30 
ROOT
HETATM    1  C2  UNL     1      -3.647  50.778 -23.769  1.00  0.00     0.102 A 
HETATM    2  C3  UNL     1      -3.120  50.846 -22.480  1.00  0.00     0.057 A 
HETATM    3  C4  UNL     1      -2.547  49.702 -21.864  1.00  0.00     0.038 A 
HETATM    4  C5  UNL     1      -1.985  49.675 -20.571  1.00  0.00     0.119 A 
HETATM    5  N3  UNL     1      -1.509  48.542 -20.024  1.00  0.00    -0.338 N 
ATOM      6  H3  UNL     1      -1.128  48.526 -19.078  1.00  0.00     0.168 HD
HETATM    7  C14 UNL     1      -1.558  47.440 -20.777  1.00  0.00     0.182 A 
HETATM    8  N4  UNL     1      -2.034  47.359 -22.025  1.00  0.00    -0.351 N 
ATOM      9  H4  UNL     1      -2.021  46.483 -22.546  1.00  0.00     0.166 HD
HETATM   10  C15 UNL     1      -2.525  48.483 -22.555  1.00  0.00     0.050 A 
HETATM   11  C16 UNL     1      -3.029  48.436 -23.848  1.00  0.00     0.070 A 
HETATM   12  C17 UNL     1      -3.589  49.562 -24.461  1.00  0.00     0.104 A 
ENDROOT
BRANCH   4  13
HETATM   13  N1  UNL     1      -1.903  50.885 -19.834  1.00  0.00    -0.340 N 
HETATM   14  H5  UNL     1      -2.788  51.370 -19.875  1.00  0.00     0.167 HD
BRANCH  13  15
HETATM   15  C6  UNL     1      -0.798  51.745 -19.694  1.00  0.00     0.061 A 
HETATM   16  C7  UNL     1      -0.365  52.572 -20.748  1.00  0.00     0.032 A 
HETATM   17  C8  UNL     1       0.758  53.393 -20.643  1.00  0.00     0.003 A 
HETATM   18  C9  UNL     1       1.514  53.407 -19.471  1.00  0.00     0.015 A 
HETATM   19  C10 UNL     1       1.133  52.583 -18.391  1.00  0.00     0.016 A 
HETATM   20  C11 UNL     1       1.668  52.348 -17.091  1.00  0.00     0.061 A 
HETATM   21  C13 UNL     1      -0.006  51.779 -18.525  1.00  0.00     0.071 A 
HETATM   22 CL1  UNL     1       3.062  53.077 -16.442  1.00  0.00    -0.082 Cl
HETATM   23  C12 UNL     1       0.858  51.440 -16.456  1.00  0.00     0.113 A 
HETATM   24  N2  UNL     1      -0.144  51.102 -17.326  1.00  0.00    -0.362 N 
HETATM   25  H10 UNL     1      -0.892  50.460 -17.113  1.00  0.00     0.165 HD
ENDBRANCH  13  15
ENDBRANCH   4  13
BRANCH   1  26
HETATM   26  O1  UNL     1      -4.217  51.836 -24.429  1.00  0.00    -0.353 OA
HETATM   27  C1  UNL     1      -5.464  52.311 -23.927  1.00  0.00     0.210 C 
ENDBRANCH   1  26
BRANCH  12  28
HETATM   28  O2  UNL     1      -4.065  49.555 -25.747  1.00  0.00    -0.348 OA
BRANCH  28  29
HETATM   29  C18 UNL     1      -3.076  49.385 -26.770  1.00  0.00     0.177 C 
BRANCH  29  30
HETATM   30  C19 UNL     1      -3.118  50.589 -27.708  1.00  0.00     0.057 C 
BRANCH  30  31
HETATM   31  C20 UNL     1      -2.101  51.711 -27.425  1.00  0.00     0.274 C 
BRANCH  31  32
HETATM   32  N5  UNL     1      -1.026  51.367 -26.474  1.00  0.00     0.092 N 
HETATM   33  C21 UNL     1       0.280  51.170 -27.151  1.00  0.00     0.298 C 
HETATM   34  C22 UNL     1       1.483  51.534 -26.258  1.00  0.00     0.198 C 
HETATM   35  O3  UNL     1       1.495  52.919 -25.882  1.00  0.00    -0.388 OA
HETATM   36  C23 UNL     1       0.179  53.473 -25.759  1.00  0.00     0.198 C 
HETATM   37  C24 UNL     1      -0.890  52.417 -25.430  1.00  0.00     0.298 C 
ENDBRANCH  31  32
ENDBRANCH  30  31
ENDBRANCH  29  30
ENDBRANCH  28  29
ENDBRANCH  12  28
TORSDOF 8
ENDMDL
MODEL 9
REMARK minimizedAffinity -7.94585609
REMARK  8 active torsions:
REMARK  status: ('A' for Active; 'I' for Inactive)
REMARK    1  A    between atoms: O1_2  and  C2_3 
REMARK    2  A    between atoms: C5_6  and  N1_7 
REMARK    3  A    between atoms: N1_7  and  C6_8 
REMARK    4  A    between atoms: C17_25  and  O2_26 
REMARK    5  A    between atoms: O2_26  and  C18_27 
REMARK    6  A    between atoms: C18_27  and  C19_28 
REMARK    7  A    between atoms: C19_28  and  C20_29 
REMARK    8  A    between atoms: C20_29  and  N5_30 
ROOT
HETATM    1  C2  UNL     1      -3.599  48.829 -25.715  1.00  0.00     0.102 A 
HETATM    2  C3  UNL     1      -4.866  48.474 -26.175  1.00  0.00     0.057 A 
HETATM    3  C4  UNL     1      -5.890  48.087 -25.271  1.00  0.00     0.038 A 
HETATM    4  C5  UNL     1      -7.200  47.718 -25.640  1.00  0.00     0.119 A 
HETATM    5  N3  UNL     1      -8.107  47.308 -24.737  1.00  0.00    -0.338 N 
ATOM      6  H3  UNL     1      -9.045  47.018 -25.016  1.00  0.00     0.168 HD
HETATM    7  C14 UNL     1      -7.724  47.296 -23.457  1.00  0.00     0.182 A 
HETATM    8  N4  UNL     1      -6.523  47.660 -22.992  1.00  0.00    -0.351 N 
ATOM      9  H4  UNL     1      -6.309  47.642 -21.995  1.00  0.00     0.166 HD
HETATM   10  C15 UNL     1      -5.619  48.046 -23.896  1.00  0.00     0.050 A 
HETATM   11  C16 UNL     1      -4.361  48.428 -23.449  1.00  0.00     0.070 A 
HETATM   12  C17 UNL     1      -3.352  48.815 -24.336  1.00  0.00     0.104 A 
ENDROOT
BRANCH   4  13
HETATM   13  N1  UNL     1      -7.576  47.803 -27.007  1.00  0.00    -0.340 N 
HETATM   14  H5  UNL     1      -8.464  48.279 -27.086  1.00  0.00     0.167 HD
BRANCH  13  15
HETATM   15  C6  UNL     1      -7.348  46.868 -28.032  1.00  0.00     0.061 A 
HETATM   16  C7  UNL     1      -7.741  45.522 -27.908  1.00  0.00     0.032 A 
HETATM   17  C8  UNL     1      -7.477  44.571 -28.894  1.00  0.00     0.003 A 
HETATM   18  C9  UNL     1      -6.784  44.927 -30.050  1.00  0.00     0.015 A 
HETATM   19  C10 UNL     1      -6.352  46.260 -30.215  1.00  0.00     0.016 A 
HETATM   20  C11 UNL     1      -5.632  46.945 -31.237  1.00  0.00     0.061 A 
HETATM   21  C13 UNL     1      -6.643  47.193 -29.212  1.00  0.00     0.071 A 
HETATM   22 CL1  UNL     1      -5.037  46.251 -32.672  1.00  0.00    -0.082 Cl
HETATM   23  C12 UNL     1      -5.511  48.259 -30.862  1.00  0.00     0.113 A 
HETATM   24  N2  UNL     1      -6.120  48.399 -29.643  1.00  0.00    -0.362 N 
HETATM   25  H10 UNL     1      -6.192  49.269 -29.138  1.00  0.00     0.165 HD
ENDBRANCH  13  15
ENDBRANCH   4  13
BRANCH   1  26
HETATM   26  O1  UNL     1      -2.560  49.211 -26.524  1.00  0.00    -0.353 OA
HETATM   27  C1  UNL     1      -2.814  50.275 -27.438  1.00  0.00     0.210 C 
ENDBRANCH   1  26
BRANCH  12  28
HETATM   28  O2  UNL     1      -2.110  49.228 -23.923  1.00  0.00    -0.348 OA
BRANCH  28  29
HETATM   29  C18 UNL     1      -1.982  50.631 -23.663  1.00  0.00     0.177 C 
BRANCH  29  30
HETATM   30  C19 UNL     1      -0.677  51.134 -24.275  1.00  0.00     0.057 C 
BRANCH  30  31
HETATM   31  C20 UNL     1      -0.748  52.476 -25.028  1.00  0.00     0.274 C 
BRANCH  31  32
HETATM   32  N5  UNL     1       0.480  52.862 -25.751  1.00  0.00     0.092 N 
HETATM   33  C21 UNL     1       1.469  51.758 -25.808  1.00  0.00     0.298 C 
HETATM   34  C22 UNL     1       2.355  51.807 -27.069  1.00  0.00     0.198 C 
HETATM   35  O3  UNL     1       1.602  51.658 -28.281  1.00  0.00    -0.388 OA
HETATM   36  C23 UNL     1       0.278  52.197 -28.183  1.00  0.00     0.198 C 
HETATM   37  C24 UNL     1       0.160  53.312 -27.131  1.00  0.00     0.298 C 
ENDBRANCH  31  32
ENDBRANCH  30  31
ENDBRANCH  29  30
ENDBRANCH  28  29
ENDBRANCH  12  28
TORSDOF 8
ENDMDL
