MODEL 1
REMARK minimizedAffinity -9.03355503
REMARK CNNscore 0.897177517
REMARK CNNaffinity 7.97911882
REMARK  10 active torsions:
REMARK  status: ('A' for Active; 'I' for Inactive)
REMARK    1  A    between atoms: N1_2  and  S1_3 
REMARK    2  A    between atoms: S1_3  and  C2_6 
REMARK    3  A    between atoms: C9_13  and  C10_14 
REMARK    4  A    between atoms: C13_18  and  C14_19 
REMARK    5  A    between atoms: C14_19  and  C15_20 
REMARK    6  A    between atoms: C15_20  and  C16_21 
REMARK    7  A    between atoms: C16_21  and  N3_22 
REMARK    8  A    between atoms: N4_25  and  C19_26 
REMARK    9  A    between atoms: C19_26  and  C20_27 
REMARK   10  A    between atoms: C20_27  and  O4_29 
ROOT
HETATM    1  C10 UNL     1      -7.683   6.126  13.745  1.00  0.00     0.040 A 
HETATM    2  N2  UNL     1      -8.879   6.070  13.066  1.00  0.00    -0.359 N 
HETATM    3  C11 UNL     1      -9.815   6.828  13.709  1.00  0.00     0.016 A 
HETATM    4  C12 UNL     1      -9.234   7.391  14.822  1.00  0.00    -0.027 A 
HETATM    5  C13 UNL     1      -7.878   6.950  14.856  1.00  0.00    -0.023 A 
HETATM    6  C23 UNL     1      -9.998   8.269  15.756  1.00  0.00     0.041 C 
HETATM    7  C24 UNL     1     -11.313   8.758  15.114  1.00  0.00     0.005 C 
HETATM    8  C25 UNL     1     -12.056   7.624  14.380  1.00  0.00     0.006 C 
HETATM    9  C26 UNL     1     -11.212   7.029  13.240  1.00  0.00     0.057 C 
HETATM   10  H9  UNL     1      -9.047   5.558  12.206  1.00  0.00     0.166 HD
ENDROOT
BRANCH   1  11
HETATM   11  C9  UNL     1      -6.526   5.423  13.305  1.00  0.00     0.048 C 
HETATM   12  C8  UNL     1      -6.398   4.158  12.878  1.00  0.00     0.047 A 
HETATM   13  C6  UNL     1      -5.109   3.601  12.424  1.00  0.00     0.008 A 
HETATM   14  C27 UNL     1      -7.417   3.060  12.682  1.00  0.00     0.257 A 
HETATM   15  C5  UNL     1      -5.372   2.306  11.965  1.00  0.00     0.046 A 
HETATM   16  C7  UNL     1      -3.819   4.106  12.389  1.00  0.00     0.040 A 
HETATM   17  C4  UNL     1      -4.393   1.481  11.445  1.00  0.00     0.032 A 
HETATM   18  N5  UNL     1      -6.719   2.003  12.120  1.00  0.00    -0.322 N 
HETATM   19  C3  UNL     1      -3.092   1.984  11.388  1.00  0.00     0.027 A 
HETATM   20  C2  UNL     1      -2.814   3.288  11.853  1.00  0.00     0.080 A 
HETATM   21  H35 UNL     1      -7.161   1.129  11.871  1.00  0.00     0.169 HD
HETATM   22  O5  UNL     1      -8.605   3.073  12.947  1.00  0.00    -0.267 OA
BRANCH  20  23
HETATM   23  S1  UNL     1      -1.143   3.894  11.813  1.00  0.00     0.258 S 
HETATM   24  O1  UNL     1      -0.244   2.778  12.009  1.00  0.00    -0.201 OA
HETATM   25  O2  UNL     1      -1.023   4.784  10.681  1.00  0.00    -0.201 OA
BRANCH  23  26
HETATM   26  N1  UNL     1      -1.091   4.869  13.184  1.00  0.00    -0.320 N 
HETATM   27  C1  UNL     1      -0.022   5.859  13.284  1.00  0.00     0.159 C 
HETATM   28  H4  UNL     1      -2.027   5.148  13.483  1.00  0.00     0.171 HD
ENDBRANCH  23  26
ENDBRANCH  20  23
ENDBRANCH   1  11
BRANCH   5  29
HETATM   29  C14 UNL     1      -6.858   7.326  15.892  1.00  0.00     0.043 C 
BRANCH  29  30
HETATM   30  C15 UNL     1      -5.784   8.298  15.399  1.00  0.00     0.035 C 
BRANCH  30  31
HETATM   31  C16 UNL     1      -4.402   7.643  15.278  1.00  0.00     0.273 C 
BRANCH  31  32
HETATM   32  N3  UNL     1      -3.327   8.647  15.269  1.00  0.00     0.091 N 
HETATM   33  C17 UNL     1      -2.278   8.297  16.249  1.00  0.00     0.302 C 
HETATM   34  C18 UNL     1      -1.395   9.504  16.631  1.00  0.00     0.303 C 
HETATM   35  N4  UNL     1      -2.132  10.609  17.279  1.00  0.00     0.101 N 
HETATM   36  C21 UNL     1      -3.564  10.583  16.902  1.00  0.00     0.303 C 
HETATM   37  C22 UNL     1      -3.815  10.028  15.480  1.00  0.00     0.302 C 
BRANCH  35  38
HETATM   38  C19 UNL     1      -1.961  10.578  18.747  1.00  0.00     0.381 C 
BRANCH  38  39
HETATM   39  C20 UNL     1      -0.718  11.331  19.193  1.00  0.00     0.169 C 
HETATM   40  O3  UNL     1       0.140  10.911  19.956  1.00  0.00    -0.649 OA
BRANCH  39  41
HETATM   41  O4  UNL     1      -0.617  12.571  18.667  1.00  0.00    -0.775 OA
HETATM   42  H22 UNL     1       0.206  12.929  19.063  1.00  0.00     0.167 HD
ENDBRANCH  39  41
ENDBRANCH  38  39
ENDBRANCH  35  38
ENDBRANCH  31  32
ENDBRANCH  30  31
ENDBRANCH  29  30
ENDBRANCH   5  29
TORSDOF 10
ENDMDL
MODEL 2
REMARK minimizedAffinity -8.51260471
REMARK CNNscore 0.777636409
REMARK CNNaffinity 7.98390007
REMARK  10 active torsions:
REMARK  status: ('A' for Active; 'I' for Inactive)
REMARK    1  A    between atoms: N1_2  and  S1_3 
REMARK    2  A    between atoms: S1_3  and  C2_6 
REMARK    3  A    between atoms: C9_13  and  C10_14 
REMARK    4  A    between atoms: C13_18  and  C14_19 
REMARK    5  A    between atoms: C14_19  and  C15_20 
REMARK    6  A    between atoms: C15_20  and  C16_21 
REMARK    7  A    between atoms: C16_21  and  N3_22 
REMARK    8  A    between atoms: N4_25  and  C19_26 
REMARK    9  A    between atoms: C19_26  and  C20_27 
REMARK   10  A    between atoms: C20_27  and  O4_29 
ROOT
HETATM    1  C10 UNL     1      -7.763   6.187  13.779  1.00  0.00     0.040 A 
HETATM    2  N2  UNL     1      -8.998   6.108  13.177  1.00  0.00    -0.359 N 
HETATM    3  C11 UNL     1      -9.885   6.914  13.829  1.00  0.00     0.016 A 
HETATM    4  C12 UNL     1      -9.233   7.533  14.870  1.00  0.00    -0.027 A 
HETATM    5  C13 UNL     1      -7.882   7.077  14.850  1.00  0.00    -0.023 A 
HETATM    6  C23 UNL     1      -9.932   8.474  15.795  1.00  0.00     0.041 C 
HETATM    7  C24 UNL     1     -11.278   8.942  15.204  1.00  0.00     0.005 C 
HETATM    8  C25 UNL     1     -12.075   7.778  14.584  1.00  0.00     0.006 C 
HETATM    9  C26 UNL     1     -11.307   7.106  13.432  1.00  0.00     0.057 C 
HETATM   10  H9  UNL     1      -9.222   5.549  12.360  1.00  0.00     0.166 HD
ENDROOT
BRANCH   1  11
HETATM   11  C9  UNL     1      -6.641   5.444  13.313  1.00  0.00     0.048 C 
HETATM   12  C8  UNL     1      -6.564   4.173  12.893  1.00  0.00     0.047 A 
HETATM   13  C6  UNL     1      -5.307   3.572  12.409  1.00  0.00     0.008 A 
HETATM   14  C27 UNL     1      -7.623   3.106  12.736  1.00  0.00     0.257 A 
HETATM   15  C5  UNL     1      -5.624   2.283  11.969  1.00  0.00     0.046 A 
HETATM   16  C7  UNL     1      -4.004   4.035  12.333  1.00  0.00     0.040 A 
HETATM   17  C4  UNL     1      -4.686   1.423  11.429  1.00  0.00     0.032 A 
HETATM   18  N5  UNL     1      -6.975   2.023  12.164  1.00  0.00    -0.322 N 
HETATM   19  C3  UNL     1      -3.371   1.884  11.331  1.00  0.00     0.027 A 
HETATM   20  C2  UNL     1      -3.040   3.182  11.776  1.00  0.00     0.080 A 
HETATM   21  H35 UNL     1      -7.450   1.162  11.936  1.00  0.00     0.169 HD
HETATM   22  O5  UNL     1      -8.801   3.159  13.034  1.00  0.00    -0.267 OA
BRANCH  20  23
HETATM   23  S1  UNL     1      -1.353   3.735  11.685  1.00  0.00     0.258 S 
HETATM   24  O1  UNL     1      -1.148   4.378  10.405  1.00  0.00    -0.201 OA
HETATM   25  O2  UNL     1      -1.036   4.393  12.931  1.00  0.00    -0.201 OA
BRANCH  23  26
HETATM   26  N1  UNL     1      -0.506   2.281  11.694  1.00  0.00    -0.320 N 
HETATM   27  C1  UNL     1      -0.557   1.447  10.496  1.00  0.00     0.159 C 
HETATM   28  H4  UNL     1       0.392   2.371  12.172  1.00  0.00     0.171 HD
ENDBRANCH  23  26
ENDBRANCH  20  23
ENDBRANCH   1  11
BRANCH   5  29
HETATM   29  C14 UNL     1      -6.798   7.498  15.799  1.00  0.00     0.043 C 
BRANCH  29  30
HETATM   30  C15 UNL     1      -6.188   8.868  15.494  1.00  0.00     0.035 C 
BRANCH  30  31
HETATM   31  C16 UNL     1      -5.204   8.830  14.316  1.00  0.00     0.273 C 
BRANCH  31  32
HETATM   32  N3  UNL     1      -3.920   8.226  14.704  1.00  0.00     0.091 N 
HETATM   33  C17 UNL     1      -2.873   9.262  14.827  1.00  0.00     0.302 C 
HETATM   34  C18 UNL     1      -1.447   8.676  14.757  1.00  0.00     0.303 C 
HETATM   35  N4  UNL     1      -1.133   8.005  13.478  1.00  0.00     0.101 N 
HETATM   36  C21 UNL     1      -2.369   7.535  12.810  1.00  0.00     0.303 C 
HETATM   37  C22 UNL     1      -3.489   7.136  13.800  1.00  0.00     0.302 C 
BRANCH  35  38
HETATM   38  C19 UNL     1      -0.343   8.884  12.592  1.00  0.00     0.381 C 
BRANCH  38  39
HETATM   39  C20 UNL     1       0.164   8.149  11.361  1.00  0.00     0.169 C 
HETATM   40  O3  UNL     1       0.278   8.621  10.239  1.00  0.00    -0.649 OA
BRANCH  39  41
HETATM   41  O4  UNL     1       0.497   6.861  11.598  1.00  0.00    -0.775 OA
HETATM   42  H22 UNL     1       0.774   6.524  10.720  1.00  0.00     0.167 HD
ENDBRANCH  39  41
ENDBRANCH  38  39
ENDBRANCH  35  38
ENDBRANCH  31  32
ENDBRANCH  30  31
ENDBRANCH  29  30
ENDBRANCH   5  29
TORSDOF 10
ENDMDL
MODEL 3
REMARK minimizedAffinity -9.18719482
REMARK CNNscore 0.735809445
REMARK CNNaffinity 7.77091455
REMARK  10 active torsions:
REMARK  status: ('A' for Active; 'I' for Inactive)
REMARK    1  A    between atoms: N1_2  and  S1_3 
REMARK    2  A    between atoms: S1_3  and  C2_6 
REMARK    3  A    between atoms: C9_13  and  C10_14 
REMARK    4  A    between atoms: C13_18  and  C14_19 
REMARK    5  A    between atoms: C14_19  and  C15_20 
REMARK    6  A    between atoms: C15_20  and  C16_21 
REMARK    7  A    between atoms: C16_21  and  N3_22 
REMARK    8  A    between atoms: N4_25  and  C19_26 
REMARK    9  A    between atoms: C19_26  and  C20_27 
REMARK   10  A    between atoms: C20_27  and  O4_29 
ROOT
HETATM    1  C10 UNL     1      -7.395   6.319  13.894  1.00  0.00     0.040 A 
HETATM    2  N2  UNL     1      -8.652   6.119  13.370  1.00  0.00    -0.359 N 
HETATM    3  C11 UNL     1      -9.552   6.928  13.998  1.00  0.00     0.016 A 
HETATM    4  C12 UNL     1      -8.887   7.672  14.946  1.00  0.00    -0.027 A 
HETATM    5  C13 UNL     1      -7.514   7.291  14.890  1.00  0.00    -0.023 A 
HETATM    6  C23 UNL     1      -9.594   8.650  15.826  1.00  0.00     0.041 C 
HETATM    7  C24 UNL     1     -10.994   8.989  15.272  1.00  0.00     0.005 C 
HETATM    8  C25 UNL     1     -11.749   7.732  14.797  1.00  0.00     0.006 C 
HETATM    9  C26 UNL     1     -11.000   7.005  13.666  1.00  0.00     0.057 C 
HETATM   10  H9  UNL     1      -8.882   5.479  12.616  1.00  0.00     0.166 HD
ENDROOT
BRANCH   1  11
HETATM   11  C9  UNL     1      -6.255   5.602  13.432  1.00  0.00     0.048 C 
HETATM   12  C8  UNL     1      -6.154   4.342  12.984  1.00  0.00     0.047 A 
HETATM   13  C6  UNL     1      -4.880   3.769  12.509  1.00  0.00     0.008 A 
HETATM   14  C27 UNL     1      -7.195   3.265  12.782  1.00  0.00     0.257 A 
HETATM   15  C5  UNL     1      -5.172   2.486  12.034  1.00  0.00     0.046 A 
HETATM   16  C7  UNL     1      -3.582   4.250  12.468  1.00  0.00     0.040 A 
HETATM   17  C4  UNL     1      -4.213   1.652  11.491  1.00  0.00     0.032 A 
HETATM   18  N5  UNL     1      -6.522   2.205  12.197  1.00  0.00    -0.322 N 
HETATM   19  C3  UNL     1      -2.903   2.132  11.428  1.00  0.00     0.027 A 
HETATM   20  C2  UNL     1      -2.597   3.423  11.910  1.00  0.00     0.080 A 
HETATM   21  H35 UNL     1      -6.982   1.343  11.940  1.00  0.00     0.169 HD
HETATM   22  O5  UNL     1      -8.379   3.296  13.059  1.00  0.00    -0.267 OA
BRANCH  20  23
HETATM   23  S1  UNL     1      -0.916   4.000  11.862  1.00  0.00     0.258 S 
HETATM   24  O1  UNL     1      -0.049   2.871  11.603  1.00  0.00    -0.201 OA
HETATM   25  O2  UNL     1      -0.881   5.193  11.049  1.00  0.00    -0.201 OA
BRANCH  23  26
HETATM   26  N1  UNL     1      -0.674   4.506  13.449  1.00  0.00    -0.320 N 
HETATM   27  C1  UNL     1      -1.519   5.578  13.966  1.00  0.00     0.159 C 
HETATM   28  H4  UNL     1      -0.472   3.719  14.068  1.00  0.00     0.171 HD
ENDBRANCH  23  26
ENDBRANCH  20  23
ENDBRANCH   1  11
BRANCH   5  29
HETATM   29  C14 UNL     1      -6.411   7.854  15.740  1.00  0.00     0.043 C 
BRANCH  29  30
HETATM   30  C15 UNL     1      -5.475   8.815  15.005  1.00  0.00     0.035 C 
BRANCH  30  31
HETATM   31  C16 UNL     1      -4.498   9.530  15.950  1.00  0.00     0.273 C 
BRANCH  31  32
HETATM   32  N3  UNL     1      -3.406  10.178  15.207  1.00  0.00     0.091 N 
HETATM   33  C17 UNL     1      -2.877   9.275  14.164  1.00  0.00     0.302 C 
HETATM   34  C18 UNL     1      -1.467   9.681  13.686  1.00  0.00     0.303 C 
HETATM   35  N4  UNL     1      -0.437   9.640  14.746  1.00  0.00     0.101 N 
HETATM   36  C21 UNL     1      -1.049   9.796  16.085  1.00  0.00     0.303 C 
HETATM   37  C22 UNL     1      -2.321  10.677  16.081  1.00  0.00     0.302 C 
BRANCH  35  38
HETATM   38  C19 UNL     1       0.369   8.405  14.662  1.00  0.00     0.381 C 
BRANCH  38  39
HETATM   39  C20 UNL     1       0.963   8.017  16.007  1.00  0.00     0.169 C 
HETATM   40  O3  UNL     1       1.793   8.658  16.635  1.00  0.00    -0.649 OA
BRANCH  39  41
HETATM   41  O4  UNL     1       0.492   6.848  16.491  1.00  0.00    -0.775 OA
HETATM   42  H22 UNL     1       0.980   6.727  17.333  1.00  0.00     0.167 HD
ENDBRANCH  39  41
ENDBRANCH  38  39
ENDBRANCH  35  38
ENDBRANCH  31  32
ENDBRANCH  30  31
ENDBRANCH  29  30
ENDBRANCH   5  29
TORSDOF 10
ENDMDL
MODEL 4
REMARK minimizedAffinity -8.92174721
REMARK CNNscore 0.700943828
REMARK CNNaffinity 7.74272966
REMARK  10 active torsions:
REMARK  status: ('A' for Active; 'I' for Inactive)
REMARK    1  A    between atoms: N1_2  and  S1_3 
REMARK    2  A    between atoms: S1_3  and  C2_6 
REMARK    3  A    between atoms: C9_13  and  C10_14 
REMARK    4  A    between atoms: C13_18  and  C14_19 
REMARK    5  A    between atoms: C14_19  and  C15_20 
REMARK    6  A    between atoms: C15_20  and  C16_21 
REMARK    7  A    between atoms: C16_21  and  N3_22 
REMARK    8  A    between atoms: N4_25  and  C19_26 
REMARK    9  A    between atoms: C19_26  and  C20_27 
REMARK   10  A    between atoms: C20_27  and  O4_29 
ROOT
HETATM    1  C10 UNL     1      -7.455   6.250  13.847  1.00  0.00     0.040 A 
HETATM    2  N2  UNL     1      -8.674   6.056  13.237  1.00  0.00    -0.359 N 
HETATM    3  C11 UNL     1      -9.628   6.811  13.854  1.00  0.00     0.016 A 
HETATM    4  C12 UNL     1      -9.037   7.512  14.881  1.00  0.00    -0.027 A 
HETATM    5  C13 UNL     1      -7.655   7.161  14.887  1.00  0.00    -0.023 A 
HETATM    6  C23 UNL     1      -9.817   8.425  15.768  1.00  0.00     0.041 C 
HETATM    7  C24 UNL     1     -11.189   8.768  15.150  1.00  0.00     0.005 C 
HETATM    8  C25 UNL     1     -11.886   7.526  14.562  1.00  0.00     0.006 C 
HETATM    9  C26 UNL     1     -11.055   6.879  13.439  1.00  0.00     0.057 C 
HETATM   10  H9  UNL     1      -8.845   5.455  12.437  1.00  0.00     0.166 HD
ENDROOT
BRANCH   1  11
HETATM   11  C9  UNL     1      -6.274   5.582  13.416  1.00  0.00     0.048 C 
HETATM   12  C8  UNL     1      -6.114   4.340  12.934  1.00  0.00     0.047 A 
HETATM   13  C6  UNL     1      -4.803   3.821  12.501  1.00  0.00     0.008 A 
HETATM   14  C27 UNL     1      -7.112   3.240  12.652  1.00  0.00     0.257 A 
HETATM   15  C5  UNL     1      -5.033   2.546  11.973  1.00  0.00     0.046 A 
HETATM   16  C7  UNL     1      -3.520   4.341  12.534  1.00  0.00     0.040 A 
HETATM   17  C4  UNL     1      -4.026   1.758  11.450  1.00  0.00     0.032 A 
HETATM   18  N5  UNL     1      -6.381   2.219  12.066  1.00  0.00    -0.322 N 
HETATM   19  C3  UNL     1      -2.730   2.278  11.461  1.00  0.00     0.027 A 
HETATM   20  C2  UNL     1      -2.486   3.562  11.996  1.00  0.00     0.080 A 
HETATM   21  H35 UNL     1      -6.802   1.353  11.761  1.00  0.00     0.169 HD
HETATM   22  O5  UNL     1      -8.307   3.227  12.875  1.00  0.00    -0.267 OA
BRANCH  20  23
HETATM   23  S1  UNL     1      -0.823   4.189  12.044  1.00  0.00     0.258 S 
HETATM   24  O1  UNL     1      -0.570   4.724  13.364  1.00  0.00    -0.201 OA
HETATM   25  O2  UNL     1       0.039   3.199  11.441  1.00  0.00    -0.201 OA
BRANCH  23  26
HETATM   26  N1  UNL     1      -0.900   5.470  10.955  1.00  0.00    -0.320 N 
HETATM   27  C1  UNL     1       0.292   6.296  10.779  1.00  0.00     0.159 C 
HETATM   28  H4  UNL     1      -1.433   5.222  10.120  1.00  0.00     0.171 HD
ENDBRANCH  23  26
ENDBRANCH  20  23
ENDBRANCH   1  11
BRANCH   5  29
HETATM   29  C14 UNL     1      -6.618   7.695  15.832  1.00  0.00     0.043 C 
BRANCH  29  30
HETATM   30  C15 UNL     1      -5.680   8.737  15.218  1.00  0.00     0.035 C 
BRANCH  30  31
HETATM   31  C16 UNL     1      -4.231   8.241  15.111  1.00  0.00     0.273 C 
BRANCH  31  32
HETATM   32  N3  UNL     1      -3.409   8.732  16.228  1.00  0.00     0.091 N 
HETATM   33  C17 UNL     1      -3.327  10.207  16.205  1.00  0.00     0.302 C 
HETATM   34  C18 UNL     1      -2.134  10.749  17.022  1.00  0.00     0.303 C 
HETATM   35  N4  UNL     1      -0.813  10.312  16.520  1.00  0.00     0.101 N 
HETATM   36  C21 UNL     1      -0.928   9.045  15.763  1.00  0.00     0.303 C 
HETATM   37  C22 UNL     1      -2.061   8.124  16.273  1.00  0.00     0.302 C 
BRANCH  35  38
HETATM   38  C19 UNL     1      -0.173  11.369  15.709  1.00  0.00     0.381 C 
BRANCH  38  39
HETATM   39  C20 UNL     1      -1.160  12.046  14.771  1.00  0.00     0.169 C 
HETATM   40  O3  UNL     1      -1.747  13.096  14.986  1.00  0.00    -0.649 OA
BRANCH  39  41
HETATM   41  O4  UNL     1      -1.362  11.372  13.619  1.00  0.00    -0.775 OA
HETATM   42  H22 UNL     1      -2.029  11.912  13.144  1.00  0.00     0.167 HD
ENDBRANCH  39  41
ENDBRANCH  38  39
ENDBRANCH  35  38
ENDBRANCH  31  32
ENDBRANCH  30  31
ENDBRANCH  29  30
ENDBRANCH   5  29
TORSDOF 10
ENDMDL
MODEL 5
REMARK minimizedAffinity -7.84619522
REMARK CNNscore 0.368379742
REMARK CNNaffinity 7.06023979
REMARK  10 active torsions:
REMARK  status: ('A' for Active; 'I' for Inactive)
REMARK    1  A    between atoms: N1_2  and  S1_3 
REMARK    2  A    between atoms: S1_3  and  C2_6 
REMARK    3  A    between atoms: C9_13  and  C10_14 
REMARK    4  A    between atoms: C13_18  and  C14_19 
REMARK    5  A    between atoms: C14_19  and  C15_20 
REMARK    6  A    between atoms: C15_20  and  C16_21 
REMARK    7  A    between atoms: C16_21  and  N3_22 
REMARK    8  A    between atoms: N4_25  and  C19_26 
REMARK    9  A    between atoms: C19_26  and  C20_27 
REMARK   10  A    between atoms: C20_27  and  O4_29 
ROOT
HETATM    1  C10 UNL     1      -9.085   7.129  14.448  1.00  0.00     0.040 A 
HETATM    2  N2  UNL     1     -10.099   6.245  14.161  1.00  0.00    -0.359 N 
HETATM    3  C11 UNL     1     -11.309   6.831  14.397  1.00  0.00     0.016 A 
HETATM    4  C12 UNL     1     -11.095   8.115  14.843  1.00  0.00    -0.027 A 
HETATM    5  C13 UNL     1      -9.683   8.315  14.882  1.00  0.00    -0.023 A 
HETATM    6  C23 UNL     1     -12.221   9.024  15.209  1.00  0.00     0.041 C 
HETATM    7  C24 UNL     1     -13.563   8.503  14.653  1.00  0.00     0.005 C 
HETATM    8  C25 UNL     1     -13.730   6.987  14.870  1.00  0.00     0.006 C 
HETATM    9  C26 UNL     1     -12.627   6.181  14.162  1.00  0.00     0.057 C 
HETATM   10  H9  UNL     1      -9.977   5.300  13.809  1.00  0.00     0.166 HD
ENDROOT
BRANCH   1  11
HETATM   11  C9  UNL     1      -7.712   6.786  14.301  1.00  0.00     0.048 C 
HETATM   12  C8  UNL     1      -7.148   5.735  13.687  1.00  0.00     0.047 A 
HETATM   13  C6  UNL     1      -5.685   5.557  13.603  1.00  0.00     0.008 A 
HETATM   14  C27 UNL     1      -7.752   4.582  12.920  1.00  0.00     0.257 A 
HETATM   15  C5  UNL     1      -5.466   4.420  12.818  1.00  0.00     0.046 A 
HETATM   16  C7  UNL     1      -4.614   6.261  14.127  1.00  0.00     0.040 A 
HETATM   17  C4  UNL     1      -4.202   3.954  12.510  1.00  0.00     0.032 A 
HETATM   18  N5  UNL     1      -6.676   3.862  12.426  1.00  0.00    -0.322 N 
HETATM   19  C3  UNL     1      -3.112   4.666  13.017  1.00  0.00     0.027 A 
HETATM   20  C2  UNL     1      -3.323   5.812  13.815  1.00  0.00     0.080 A 
HETATM   21  H35 UNL     1      -6.790   3.033  11.860  1.00  0.00     0.169 HD
HETATM   22  O5  UNL     1      -8.928   4.319  12.751  1.00  0.00    -0.267 OA
BRANCH  20  23
HETATM   23  S1  UNL     1      -1.925   6.677  14.489  1.00  0.00     0.258 S 
HETATM   24  O1  UNL     1      -0.796   5.774  14.522  1.00  0.00    -0.201 OA
HETATM   25  O2  UNL     1      -1.852   7.968  13.845  1.00  0.00    -0.201 OA
BRANCH  23  26
HETATM   26  N1  UNL     1      -2.421   6.969  16.070  1.00  0.00    -0.320 N 
HETATM   27  C1  UNL     1      -2.183   8.295  16.633  1.00  0.00     0.159 C 
HETATM   28  H4  UNL     1      -3.317   6.522  16.272  1.00  0.00     0.171 HD
ENDBRANCH  23  26
ENDBRANCH  20  23
ENDBRANCH   1  11
BRANCH   5  29
HETATM   29  C14 UNL     1      -8.987   9.579  15.297  1.00  0.00     0.043 C 
BRANCH  29  30
HETATM   30  C15 UNL     1      -9.910  10.640  15.901  1.00  0.00     0.035 C 
BRANCH  30  31
HETATM   31  C16 UNL     1      -9.350  12.062  15.761  1.00  0.00     0.273 C 
BRANCH  31  32
HETATM   32  N3  UNL     1     -10.427  13.060  15.666  1.00  0.00     0.091 N 
HETATM   33  C17 UNL     1     -11.243  12.832  14.456  1.00  0.00     0.302 C 
HETATM   34  C18 UNL     1     -12.057  14.077  14.045  1.00  0.00     0.303 C 
HETATM   35  N4  UNL     1     -11.228  15.251  13.698  1.00  0.00     0.101 N 
HETATM   36  C21 UNL     1      -9.904  15.177  14.357  1.00  0.00     0.303 C 
HETATM   37  C22 UNL     1      -9.938  14.456  15.725  1.00  0.00     0.302 C 
BRANCH  35  38
HETATM   38  C19 UNL     1     -11.094  15.397  12.234  1.00  0.00     0.381 C 
BRANCH  38  39
HETATM   39  C20 UNL     1     -12.441  15.360  11.529  1.00  0.00     0.169 C 
HETATM   40  O3  UNL     1     -12.796  14.533  10.702  1.00  0.00    -0.649 OA
BRANCH  39  41
HETATM   41  O4  UNL     1     -13.270  16.363  11.891  1.00  0.00    -0.775 OA
HETATM   42  H22 UNL     1     -14.069  16.219  11.343  1.00  0.00     0.167 HD
ENDBRANCH  39  41
ENDBRANCH  38  39
ENDBRANCH  35  38
ENDBRANCH  31  32
ENDBRANCH  30  31
ENDBRANCH  29  30
ENDBRANCH   5  29
TORSDOF 10
ENDMDL
MODEL 6
REMARK minimizedAffinity -8.55956554
REMARK CNNscore 0.333555609
REMARK CNNaffinity 7.48488379
REMARK  10 active torsions:
REMARK  status: ('A' for Active; 'I' for Inactive)
REMARK    1  A    between atoms: N1_2  and  S1_3 
REMARK    2  A    between atoms: S1_3  and  C2_6 
REMARK    3  A    between atoms: C9_13  and  C10_14 
REMARK    4  A    between atoms: C13_18  and  C14_19 
REMARK    5  A    between atoms: C14_19  and  C15_20 
REMARK    6  A    between atoms: C15_20  and  C16_21 
REMARK    7  A    between atoms: C16_21  and  N3_22 
REMARK    8  A    between atoms: N4_25  and  C19_26 
REMARK    9  A    between atoms: C19_26  and  C20_27 
REMARK   10  A    between atoms: C20_27  and  O4_29 
ROOT
HETATM    1  C10 UNL     1      -6.811   6.147  13.765  1.00  0.00     0.040 A 
HETATM    2  N2  UNL     1      -7.997   5.931  13.102  1.00  0.00    -0.359 N 
HETATM    3  C11 UNL     1      -9.012   6.584  13.738  1.00  0.00     0.016 A 
HETATM    4  C12 UNL     1      -8.495   7.239  14.832  1.00  0.00    -0.027 A 
HETATM    5  C13 UNL     1      -7.095   6.966  14.861  1.00  0.00    -0.023 A 
HETATM    6  C23 UNL     1      -9.353   8.039  15.756  1.00  0.00     0.041 C 
HETATM    7  C24 UNL     1     -10.722   8.349  15.117  1.00  0.00     0.005 C 
HETATM    8  C25 UNL     1     -11.328   7.118  14.417  1.00  0.00     0.006 C 
HETATM    9  C26 UNL     1     -10.427   6.603  13.280  1.00  0.00     0.057 C 
HETATM   10  H9  UNL     1      -8.108   5.383  12.254  1.00  0.00     0.166 HD
ENDROOT
BRANCH   1  11
HETATM   11  C9  UNL     1      -5.581   5.580  13.329  1.00  0.00     0.048 C 
HETATM   12  C8  UNL     1      -5.327   4.369  12.809  1.00  0.00     0.047 A 
HETATM   13  C6  UNL     1      -3.977   3.960  12.376  1.00  0.00     0.008 A 
HETATM   14  C27 UNL     1      -6.239   3.211  12.479  1.00  0.00     0.257 A 
HETATM   15  C5  UNL     1      -4.109   2.690  11.805  1.00  0.00     0.046 A 
HETATM   16  C7  UNL     1      -2.735   4.569  12.443  1.00  0.00     0.040 A 
HETATM   17  C4  UNL     1      -3.042   1.994  11.270  1.00  0.00     0.032 A 
HETATM   18  N5  UNL     1      -5.431   2.265  11.869  1.00  0.00    -0.322 N 
HETATM   19  C3  UNL     1      -1.787   2.605  11.315  1.00  0.00     0.027 A 
HETATM   20  C2  UNL     1      -1.642   3.884  11.894  1.00  0.00     0.080 A 
HETATM   21  H35 UNL     1      -5.785   1.382  11.532  1.00  0.00     0.169 HD
HETATM   22  O5  UNL     1      -7.433   3.106  12.686  1.00  0.00    -0.267 OA
BRANCH  20  23
HETATM   23  S1  UNL     1      -0.029   4.626  11.983  1.00  0.00     0.258 S 
HETATM   24  O1  UNL     1       0.235   4.990  13.358  1.00  0.00    -0.201 OA
HETATM   25  O2  UNL     1       0.880   3.801  11.222  1.00  0.00    -0.201 OA
BRANCH  23  26
HETATM   26  N1  UNL     1      -0.242   6.037  11.090  1.00  0.00    -0.320 N 
HETATM   27  C1  UNL     1       0.860   6.488  10.244  1.00  0.00     0.159 C 
HETATM   28  H4  UNL     1      -1.188   6.104  10.713  1.00  0.00     0.171 HD
ENDBRANCH  23  26
ENDBRANCH  20  23
ENDBRANCH   1  11
BRANCH   5  29
HETATM   29  C14 UNL     1      -6.120   7.486  15.878  1.00  0.00     0.043 C 
BRANCH  29  30
HETATM   30  C15 UNL     1      -5.543   8.865  15.552  1.00  0.00     0.035 C 
BRANCH  30  31
HETATM   31  C16 UNL     1      -4.276   8.790  14.689  1.00  0.00     0.273 C 
BRANCH  31  32
HETATM   32  N3  UNL     1      -3.459  10.007  14.820  1.00  0.00     0.091 N 
HETATM   33  C17 UNL     1      -2.214   9.886  14.034  1.00  0.00     0.302 C 
HETATM   34  C18 UNL     1      -1.125  10.880  14.490  1.00  0.00     0.303 C 
HETATM   35  N4  UNL     1      -0.682  10.689  15.887  1.00  0.00     0.101 N 
HETATM   36  C21 UNL     1      -1.735  10.025  16.690  1.00  0.00     0.303 C 
HETATM   37  C22 UNL     1      -3.170  10.368  16.226  1.00  0.00     0.302 C 
BRANCH  35  38
HETATM   38  C19 UNL     1       0.592   9.943  15.948  1.00  0.00     0.381 C 
BRANCH  38  39
HETATM   39  C20 UNL     1       1.448  10.367  17.131  1.00  0.00     0.169 C 
HETATM   40  O3  UNL     1       1.880   9.630  18.005  1.00  0.00    -0.649 OA
BRANCH  39  41
HETATM   41  O4  UNL     1       1.712  11.691  17.161  1.00  0.00    -0.775 OA
HETATM   42  H22 UNL     1       2.240  11.808  17.979  1.00  0.00     0.167 HD
ENDBRANCH  39  41
ENDBRANCH  38  39
ENDBRANCH  35  38
ENDBRANCH  31  32
ENDBRANCH  30  31
ENDBRANCH  29  30
ENDBRANCH   5  29
TORSDOF 10
ENDMDL
MODEL 7
REMARK minimizedAffinity -9.01792431
REMARK CNNscore 0.263592511
REMARK CNNaffinity 7.10268164
REMARK  10 active torsions:
REMARK  status: ('A' for Active; 'I' for Inactive)
REMARK    1  A    between atoms: N1_2  and  S1_3 
REMARK    2  A    between atoms: S1_3  and  C2_6 
REMARK    3  A    between atoms: C9_13  and  C10_14 
REMARK    4  A    between atoms: C13_18  and  C14_19 
REMARK    5  A    between atoms: C14_19  and  C15_20 
REMARK    6  A    between atoms: C15_20  and  C16_21 
REMARK    7  A    between atoms: C16_21  and  N3_22 
REMARK    8  A    between atoms: N4_25  and  C19_26 
REMARK    9  A    between atoms: C19_26  and  C20_27 
REMARK   10  A    between atoms: C20_27  and  O4_29 
ROOT
HETATM    1  C10 UNL     1      -0.494   5.672  11.924  1.00  0.00     0.040 A 
HETATM    2  N2  UNL     1       0.372   5.120  11.008  1.00  0.00    -0.359 N 
HETATM    3  C11 UNL     1       1.592   5.726  11.097  1.00  0.00     0.016 A 
HETATM    4  C12 UNL     1       1.534   6.686  12.080  1.00  0.00    -0.027 A 
HETATM    5  C13 UNL     1       0.210   6.662  12.612  1.00  0.00    -0.023 A 
HETATM    6  C23 UNL     1       2.707   7.546  12.418  1.00  0.00     0.041 C 
HETATM    7  C24 UNL     1       4.013   6.960  11.843  1.00  0.00     0.005 C 
HETATM    8  C25 UNL     1       3.840   6.472  10.392  1.00  0.00     0.006 C 
HETATM    9  C26 UNL     1       2.782   5.360  10.282  1.00  0.00     0.057 C 
HETATM   10  H9  UNL     1       0.151   4.363  10.368  1.00  0.00     0.166 HD
ENDROOT
BRANCH   1  11
HETATM   11  C9  UNL     1      -1.844   5.238  12.051  1.00  0.00     0.048 C 
HETATM   12  C8  UNL     1      -2.406   4.065  11.725  1.00  0.00     0.047 A 
HETATM   13  C6  UNL     1      -3.834   3.777  11.963  1.00  0.00     0.008 A 
HETATM   14  C27 UNL     1      -1.816   2.799  11.147  1.00  0.00     0.257 A 
HETATM   15  C5  UNL     1      -4.038   2.443  11.593  1.00  0.00     0.046 A 
HETATM   16  C7  UNL     1      -4.887   4.539  12.439  1.00  0.00     0.040 A 
HETATM   17  C4  UNL     1      -5.266   1.816  11.697  1.00  0.00     0.032 A 
HETATM   18  N5  UNL     1      -2.857   1.884  11.121  1.00  0.00    -0.322 N 
HETATM   19  C3  UNL     1      -6.333   2.568  12.193  1.00  0.00     0.027 A 
HETATM   20  C2  UNL     1      -6.138   3.917  12.564  1.00  0.00     0.080 A 
HETATM   21  H35 UNL     1      -2.742   0.938  10.787  1.00  0.00     0.169 HD
HETATM   22  O5  UNL     1      -0.675   2.595  10.780  1.00  0.00    -0.267 OA
BRANCH  20  23
HETATM   23  S1  UNL     1      -7.518   4.871  13.151  1.00  0.00     0.258 S 
HETATM   24  O1  UNL     1      -7.140   6.267  13.165  1.00  0.00    -0.201 OA
HETATM   25  O2  UNL     1      -8.701   4.406  12.463  1.00  0.00    -0.201 OA
BRANCH  23  26
HETATM   26  N1  UNL     1      -7.661   4.341  14.741  1.00  0.00    -0.320 N 
HETATM   27  C1  UNL     1      -7.434   5.307  15.812  1.00  0.00     0.159 C 
HETATM   28  H4  UNL     1      -8.435   3.684  14.851  1.00  0.00     0.171 HD
ENDBRANCH  23  26
ENDBRANCH  20  23
ENDBRANCH   1  11
BRANCH   5  29
HETATM   29  C14 UNL     1      -0.306   7.535  13.719  1.00  0.00     0.043 C 
BRANCH  29  30
HETATM   30  C15 UNL     1      -0.309   6.872  15.098  1.00  0.00     0.035 C 
BRANCH  30  31
HETATM   31  C16 UNL     1       0.615   7.580  16.099  1.00  0.00     0.273 C 
BRANCH  31  32
HETATM   32  N3  UNL     1       0.672   9.029  15.850  1.00  0.00     0.091 N 
HETATM   33  C17 UNL     1       2.021   9.555  16.143  1.00  0.00     0.302 C 
HETATM   34  C18 UNL     1       2.027  11.083  16.364  1.00  0.00     0.303 C 
HETATM   35  N4  UNL     1       1.215  11.528  17.517  1.00  0.00     0.101 N 
HETATM   36  C21 UNL     1       0.152  10.545  17.826  1.00  0.00     0.303 C 
HETATM   37  C22 UNL     1      -0.367   9.789  16.579  1.00  0.00     0.302 C 
BRANCH  35  38
HETATM   38  C19 UNL     1       2.062  11.794  18.698  1.00  0.00     0.381 C 
BRANCH  38  39
HETATM   39  C20 UNL     1       1.980  10.675  19.724  1.00  0.00     0.169 C 
HETATM   40  O3  UNL     1       2.666   9.664  19.739  1.00  0.00    -0.649 OA
BRANCH  39  41
HETATM   41  O4  UNL     1       1.041  10.878  20.673  1.00  0.00    -0.775 OA
HETATM   42  H22 UNL     1       1.093  10.075  21.232  1.00  0.00     0.167 HD
ENDBRANCH  39  41
ENDBRANCH  38  39
ENDBRANCH  35  38
ENDBRANCH  31  32
ENDBRANCH  30  31
ENDBRANCH  29  30
ENDBRANCH   5  29
TORSDOF 10
ENDMDL
MODEL 8
REMARK minimizedAffinity -9.01818562
REMARK CNNscore 0.212165594
REMARK CNNaffinity 7.09205484
REMARK  10 active torsions:
REMARK  status: ('A' for Active; 'I' for Inactive)
REMARK    1  A    between atoms: N1_2  and  S1_3 
REMARK    2  A    between atoms: S1_3  and  C2_6 
REMARK    3  A    between atoms: C9_13  and  C10_14 
REMARK    4  A    between atoms: C13_18  and  C14_19 
REMARK    5  A    between atoms: C14_19  and  C15_20 
REMARK    6  A    between atoms: C15_20  and  C16_21 
REMARK    7  A    between atoms: C16_21  and  N3_22 
REMARK    8  A    between atoms: N4_25  and  C19_26 
REMARK    9  A    between atoms: C19_26  and  C20_27 
REMARK   10  A    between atoms: C20_27  and  O4_29 
ROOT
HETATM    1  C10 UNL     1      -0.934   5.694  12.196  1.00  0.00     0.040 A 
HETATM    2  N2  UNL     1      -0.232   5.867  11.026  1.00  0.00    -0.359 N 
HETATM    3  C11 UNL     1       0.971   6.457  11.288  1.00  0.00     0.016 A 
HETATM    4  C12 UNL     1       1.066   6.676  12.643  1.00  0.00    -0.027 A 
HETATM    5  C13 UNL     1      -0.142   6.196  13.231  1.00  0.00    -0.023 A 
HETATM    6  C23 UNL     1       2.261   7.326  13.259  1.00  0.00     0.041 C 
HETATM    7  C24 UNL     1       3.458   7.331  12.286  1.00  0.00     0.005 C 
HETATM    8  C25 UNL     1       3.042   7.735  10.858  1.00  0.00     0.006 C 
HETATM    9  C26 UNL     1       2.006   6.764  10.265  1.00  0.00     0.057 C 
HETATM   10  H9  UNL     1      -0.545   5.587  10.101  1.00  0.00     0.166 HD
ENDROOT
BRANCH   1  11
HETATM   11  C9  UNL     1      -2.230   5.106  12.225  1.00  0.00     0.048 C 
HETATM   12  C8  UNL     1      -2.638   3.899  11.806  1.00  0.00     0.047 A 
HETATM   13  C6  UNL     1      -4.033   3.440  11.949  1.00  0.00     0.008 A 
HETATM   14  C27 UNL     1      -1.879   2.743  11.197  1.00  0.00     0.257 A 
HETATM   15  C5  UNL     1      -4.065   2.115  11.499  1.00  0.00     0.046 A 
HETATM   16  C7  UNL     1      -5.189   4.050  12.405  1.00  0.00     0.040 A 
HETATM   17  C4  UNL     1      -5.216   1.351  11.501  1.00  0.00     0.032 A 
HETATM   18  N5  UNL     1      -2.806   1.721  11.065  1.00  0.00    -0.322 N 
HETATM   19  C3  UNL     1      -6.386   1.949  11.975  1.00  0.00     0.027 A 
HETATM   20  C2  UNL     1      -6.365   3.287  12.427  1.00  0.00     0.080 A 
HETATM   21  H35 UNL     1      -2.567   0.814  10.688  1.00  0.00     0.169 HD
HETATM   22  O5  UNL     1      -0.705   2.689  10.884  1.00  0.00    -0.267 OA
BRANCH  20  23
HETATM   23  S1  UNL     1      -7.873   4.045  12.985  1.00  0.00     0.258 S 
HETATM   24  O1  UNL     1      -7.888   5.421  12.540  1.00  0.00    -0.201 OA
HETATM   25  O2  UNL     1      -8.958   3.136  12.696  1.00  0.00    -0.201 OA
BRANCH  23  26
HETATM   26  N1  UNL     1      -7.678   4.027  14.656  1.00  0.00    -0.320 N 
HETATM   27  C1  UNL     1      -7.567   5.307  15.350  1.00  0.00     0.159 C 
HETATM   28  H4  UNL     1      -8.243   3.297  15.093  1.00  0.00     0.171 HD
ENDBRANCH  23  26
ENDBRANCH  20  23
ENDBRANCH   1  11
BRANCH   5  29
HETATM   29  C14 UNL     1      -0.474   6.218  14.695  1.00  0.00     0.043 C 
BRANCH  29  30
HETATM   30  C15 UNL     1      -0.945   7.577  15.217  1.00  0.00     0.035 C 
BRANCH  30  31
HETATM   31  C16 UNL     1      -2.345   7.953  14.713  1.00  0.00     0.273 C 
BRANCH  31  32
HETATM   32  N3  UNL     1      -3.050   8.818  15.672  1.00  0.00     0.091 N 
HETATM   33  C17 UNL     1      -3.705   9.944  14.974  1.00  0.00     0.302 C 
HETATM   34  C18 UNL     1      -4.041  11.115  15.922  1.00  0.00     0.303 C 
HETATM   35  N4  UNL     1      -2.859  11.733  16.559  1.00  0.00     0.101 N 
HETATM   36  C21 UNL     1      -1.731  10.774  16.623  1.00  0.00     0.303 C 
HETATM   37  C22 UNL     1      -2.184   9.302  16.770  1.00  0.00     0.302 C 
BRANCH  35  38
HETATM   38  C19 UNL     1      -2.468  12.979  15.869  1.00  0.00     0.381 C 
BRANCH  38  39
HETATM   39  C20 UNL     1      -1.200  12.804  15.048  1.00  0.00     0.169 C 
HETATM   40  O3  UNL     1      -0.065  13.069  15.416  1.00  0.00    -0.649 OA
BRANCH  39  41
HETATM   41  O4  UNL     1      -1.419  12.313  13.810  1.00  0.00    -0.775 OA
HETATM   42  H22 UNL     1      -0.526  12.283  13.406  1.00  0.00     0.167 HD
ENDBRANCH  39  41
ENDBRANCH  38  39
ENDBRANCH  35  38
ENDBRANCH  31  32
ENDBRANCH  30  31
ENDBRANCH  29  30
ENDBRANCH   5  29
TORSDOF 10
ENDMDL
MODEL 9
REMARK minimizedAffinity -7.28801012
REMARK CNNscore 0.181666449
REMARK CNNaffinity 6.82616472
REMARK  10 active torsions:
REMARK  status: ('A' for Active; 'I' for Inactive)
REMARK    1  A    between atoms: N1_2  and  S1_3 
REMARK    2  A    between atoms: S1_3  and  C2_6 
REMARK    3  A    between atoms: C9_13  and  C10_14 
REMARK    4  A    between atoms: C13_18  and  C14_19 
REMARK    5  A    between atoms: C14_19  and  C15_20 
REMARK    6  A    between atoms: C15_20  and  C16_21 
REMARK    7  A    between atoms: C16_21  and  N3_22 
REMARK    8  A    between atoms: N4_25  and  C19_26 
REMARK    9  A    between atoms: C19_26  and  C20_27 
REMARK   10  A    between atoms: C20_27  and  O4_29 
ROOT
HETATM    1  C10 UNL     1      -9.278   7.261  14.644  1.00  0.00     0.040 A 
HETATM    2  N2  UNL     1     -10.245   6.340  14.310  1.00  0.00    -0.359 N 
HETATM    3  C11 UNL     1     -11.485   6.871  14.518  1.00  0.00     0.016 A 
HETATM    4  C12 UNL     1     -11.338   8.155  14.993  1.00  0.00    -0.027 A 
HETATM    5  C13 UNL     1      -9.938   8.412  15.080  1.00  0.00    -0.023 A 
HETATM    6  C23 UNL     1     -12.512   9.010  15.340  1.00  0.00     0.041 C 
HETATM    7  C24 UNL     1     -13.813   8.445  14.734  1.00  0.00     0.005 C 
HETATM    8  C25 UNL     1     -13.924   6.918  14.918  1.00  0.00     0.006 C 
HETATM    9  C26 UNL     1     -12.766   6.173  14.231  1.00  0.00     0.057 C 
HETATM   10  H9  UNL     1     -10.073   5.408  13.945  1.00  0.00     0.166 HD
ENDROOT
BRANCH   1  11
HETATM   11  C9  UNL     1      -7.888   6.977  14.533  1.00  0.00     0.048 C 
HETATM   12  C8  UNL     1      -7.258   6.009  13.851  1.00  0.00     0.047 A 
HETATM   13  C6  UNL     1      -5.787   5.887  13.824  1.00  0.00     0.008 A 
HETATM   14  C27 UNL     1      -7.783   4.917  12.948  1.00  0.00     0.257 A 
HETATM   15  C5  UNL     1      -5.490   4.839  12.946  1.00  0.00     0.046 A 
HETATM   16  C7  UNL     1      -4.768   6.570  14.466  1.00  0.00     0.040 A 
HETATM   17  C4  UNL     1      -4.197   4.446  12.658  1.00  0.00     0.032 A 
HETATM   18  N5  UNL     1      -6.660   4.283  12.442  1.00  0.00    -0.322 N 
HETATM   19  C3  UNL     1      -3.159   5.139  13.285  1.00  0.00     0.027 A 
HETATM   20  C2  UNL     1      -3.448   6.194  14.177  1.00  0.00     0.080 A 
HETATM   21  H35 UNL     1      -6.716   3.510  11.794  1.00  0.00     0.169 HD
HETATM   22  O5  UNL     1      -8.939   4.634  12.697  1.00  0.00    -0.267 OA
BRANCH  20  23
HETATM   23  S1  UNL     1      -2.116   7.035  15.000  1.00  0.00     0.258 S 
HETATM   24  O1  UNL     1      -2.625   7.625  16.218  1.00  0.00    -0.201 OA
HETATM   25  O2  UNL     1      -0.970   6.154  14.997  1.00  0.00    -0.201 OA
BRANCH  23  26
HETATM   26  N1  UNL     1      -1.758   8.272  13.916  1.00  0.00    -0.320 N 
HETATM   27  C1  UNL     1      -2.685   8.510  12.813  1.00  0.00     0.159 C 
HETATM   28  H4  UNL     1      -1.365   9.086  14.391  1.00  0.00     0.171 HD
ENDBRANCH  23  26
ENDBRANCH  20  23
ENDBRANCH   1  11
BRANCH   5  29
HETATM   29  C14 UNL     1      -9.309   9.696  15.539  1.00  0.00     0.043 C 
BRANCH  29  30
HETATM   30  C15 UNL     1      -9.903  10.954  14.904  1.00  0.00     0.035 C 
BRANCH  30  31
HETATM   31  C16 UNL     1      -9.423  12.245  15.582  1.00  0.00     0.273 C 
BRANCH  31  32
HETATM   32  N3  UNL     1     -10.156  13.421  15.086  1.00  0.00     0.091 N 
HETATM   33  C17 UNL     1      -9.432  14.049  13.962  1.00  0.00     0.302 C 
HETATM   34  C18 UNL     1      -9.869  15.509  13.716  1.00  0.00     0.303 C 
HETATM   35  N4  UNL     1      -9.611  16.415  14.855  1.00  0.00     0.101 N 
HETATM   36  C21 UNL     1      -9.551  15.661  16.128  1.00  0.00     0.303 C 
HETATM   37  C22 UNL     1     -10.460  14.409  16.144  1.00  0.00     0.302 C 
BRANCH  35  38
HETATM   38  C19 UNL     1      -8.384  17.209  14.640  1.00  0.00     0.381 C 
BRANCH  38  39
HETATM   39  C20 UNL     1      -8.504  18.135  13.440  1.00  0.00     0.169 C 
HETATM   40  O3  UNL     1      -7.801  18.108  12.440  1.00  0.00    -0.649 OA
BRANCH  39  41
HETATM   41  O4  UNL     1      -9.491  19.048  13.557  1.00  0.00    -0.775 OA
HETATM   42  H22 UNL     1      -9.424  19.575  12.733  1.00  0.00     0.167 HD
ENDBRANCH  39  41
ENDBRANCH  38  39
ENDBRANCH  35  38
ENDBRANCH  31  32
ENDBRANCH  30  31
ENDBRANCH  29  30
ENDBRANCH   5  29
TORSDOF 10
ENDMDL
