MODEL 1
REMARK minimizedAffinity -10.4797621
REMARK  5 active torsions:
REMARK  status: ('A' for Active; 'I' for Inactive)
REMARK    1  A    between atoms: C8_8  and  C9_9 
REMARK    2  A    between atoms: C14_16  and  N2_17 
REMARK    3  A    between atoms: N2_17  and  C15_18 
REMARK    4  A    between atoms: C19_22  and  C20_23 
REMARK       I    between atoms: C20_23  and  N3_25 
REMARK    5  A    between atoms: N3_25  and  C21_26 
ROOT
HETATM    1  C9  UNL     1      -1.226  50.768 -23.407  1.00  0.00    -0.022 A 
HETATM    2  C10 UNL     1      -0.440  51.897 -23.653  1.00  0.00     0.021 A 
HETATM    3  C11 UNL     1       0.215  52.561 -22.602  1.00  0.00    -0.032 A 
HETATM    4  C12 UNL     1       1.055  53.774 -22.903  1.00  0.00     0.050 C 
HETATM    5  C13 UNL     1       0.093  52.102 -21.284  1.00  0.00     0.083 A 
HETATM    6  N1  UNL     1       0.724  52.742 -20.279  1.00  0.00    -0.188 N 
ATOM      7  H1  UNL     1       1.298  53.567 -20.458  1.00  0.00     0.184 HD
HETATM    8  C14 UNL     1       0.574  52.261 -19.035  1.00  0.00     0.697 A 
HETATM    9  N5  UNL     1      -0.179  51.178 -18.774  1.00  0.00    -0.131 N 
ATOM     10  H5  UNL     1      -0.271  50.844 -17.815  1.00  0.00     0.205 HD
HETATM   11  N6  UNL     1      -0.821  50.523 -19.787  1.00  0.00    -0.284 N 
ATOM     12  H6  UNL     1      -1.391  49.701 -19.587  1.00  0.00     0.187 HD
HETATM   13  C26 UNL     1      -0.696  50.969 -21.040  1.00  0.00     0.077 A 
HETATM   14  C27 UNL     1      -1.341  50.319 -22.087  1.00  0.00     0.045 A 
ENDROOT
BRANCH   8  15
HETATM   15  N2  UNL     1       1.251  52.968 -18.044  1.00  0.00    -0.190 N 
HETATM   16  H14 UNL     1       1.240  53.951 -18.277  1.00  0.00     0.184 HD
BRANCH  15  17
HETATM   17  C15 UNL     1       1.971  52.594 -16.905  1.00  0.00     0.050 A 
HETATM   18  C16 UNL     1       3.368  52.601 -16.825  1.00  0.00     0.030 A 
HETATM   19  C17 UNL     1       4.033  52.211 -15.657  1.00  0.00     0.003 A 
HETATM   20  C18 UNL     1       3.310  51.789 -14.544  1.00  0.00     0.017 A 
HETATM   21  C19 UNL     1       1.915  51.747 -14.605  1.00  0.00     0.034 A 
HETATM   22  C25 UNL     1       1.259  52.158 -15.776  1.00  0.00     0.047 A 
BRANCH  21  23
HETATM   23  C20 UNL     1       1.082  51.304 -13.455  1.00  0.00     0.252 C 
HETATM   24  O1  UNL     1       1.308  50.230 -12.912  1.00  0.00    -0.268 OA
HETATM   25  N3  UNL     1       0.092  52.170 -13.041  1.00  0.00    -0.351 N 
HETATM   26  H18 UNL     1      -0.033  53.059 -13.504  1.00  0.00     0.163 HD
BRANCH  25  27
HETATM   27  C21 UNL     1      -0.838  51.812 -11.973  1.00  0.00     0.114 C 
HETATM   28  C22 UNL     1      -2.050  51.080 -12.531  1.00  0.00     0.057 C 
HETATM   29  C23 UNL     1      -2.956  52.218 -12.964  1.00  0.00     0.272 C 
HETATM   30  N4  UNL     1      -2.789  53.244 -11.933  1.00  0.00     0.085 N 
HETATM   31  C24 UNL     1      -1.464  53.053 -11.323  1.00  0.00     0.294 C 
HETATM   32  H24 UNL     1      -2.884  54.177 -12.331  1.00  0.00     0.315 HD
ENDBRANCH  25  27
ENDBRANCH  21  23
ENDBRANCH  15  17
ENDBRANCH   8  15
BRANCH   1  33
HETATM   33  C8  UNL     1      -1.913  50.069 -24.505  1.00  0.00    -0.014 A 
HETATM   34  C2  UNL     1      -1.559  50.325 -25.854  1.00  0.00    -0.050 A 
HETATM   35  C1  UNL     1      -0.480  51.314 -26.214  1.00  0.00     0.049 C 
HETATM   36  C3  UNL     1      -2.226  49.652 -26.890  1.00  0.00     0.007 A 
HETATM   37  C4  UNL     1      -3.231  48.733 -26.609  1.00  0.00     0.001 A 
HETATM   38  C5  UNL     1      -3.586  48.473 -25.288  1.00  0.00     0.007 A 
HETATM   39  C6  UNL     1      -2.940  49.131 -24.230  1.00  0.00    -0.050 A 
HETATM   40  C7  UNL     1      -3.363  48.813 -22.818  1.00  0.00     0.049 C 
ENDBRANCH   1  33
TORSDOF 5
ENDMDL
MODEL 2
REMARK minimizedAffinity -10.3008108
REMARK  5 active torsions:
REMARK  status: ('A' for Active; 'I' for Inactive)
REMARK    1  A    between atoms: C8_8  and  C9_9 
REMARK    2  A    between atoms: C14_16  and  N2_17 
REMARK    3  A    between atoms: N2_17  and  C15_18 
REMARK    4  A    between atoms: C19_22  and  C20_23 
REMARK       I    between atoms: C20_23  and  N3_25 
REMARK    5  A    between atoms: N3_25  and  C21_26 
ROOT
HETATM    1  C9  UNL     1      -0.476  51.110 -20.763  1.00  0.00    -0.022 A 
HETATM    2  C10 UNL     1      -0.067  51.855 -21.872  1.00  0.00     0.021 A 
HETATM    3  C11 UNL     1      -0.554  51.562 -23.157  1.00  0.00    -0.032 A 
HETATM    4  C12 UNL     1      -0.092  52.386 -24.329  1.00  0.00     0.050 C 
HETATM    5  C13 UNL     1      -1.462  50.513 -23.351  1.00  0.00     0.083 A 
HETATM    6  N1  UNL     1      -1.927  50.235 -24.586  1.00  0.00    -0.188 N 
ATOM      7  H1  UNL     1      -1.628  50.779 -25.396  1.00  0.00     0.184 HD
HETATM    8  C14 UNL     1      -2.796  49.220 -24.717  1.00  0.00     0.697 A 
HETATM    9  N5  UNL     1      -3.202  48.488 -23.666  1.00  0.00    -0.131 N 
ATOM     10  H5  UNL     1      -3.861  47.722 -23.806  1.00  0.00     0.205 HD
HETATM   11  N6  UNL     1      -2.736  48.763 -22.411  1.00  0.00    -0.284 N 
ATOM     12  H6  UNL     1      -3.046  48.207 -21.614  1.00  0.00     0.187 HD
HETATM   13  C26 UNL     1      -1.871  49.766 -22.237  1.00  0.00     0.077 A 
HETATM   14  C27 UNL     1      -1.383  50.065 -20.969  1.00  0.00     0.045 A 
ENDROOT
BRANCH   8  15
HETATM   15  N2  UNL     1      -3.236  48.986 -26.018  1.00  0.00    -0.190 N 
HETATM   16  H14 UNL     1      -2.540  49.327 -26.666  1.00  0.00     0.184 HD
BRANCH  15  17
HETATM   17  C15 UNL     1      -4.419  48.479 -26.565  1.00  0.00     0.050 A 
HETATM   18  C16 UNL     1      -5.532  48.100 -25.807  1.00  0.00     0.030 A 
HETATM   19  C17 UNL     1      -6.688  47.594 -26.413  1.00  0.00     0.003 A 
HETATM   20  C18 UNL     1      -6.749  47.443 -27.796  1.00  0.00     0.017 A 
HETATM   21  C19 UNL     1      -5.642  47.790 -28.575  1.00  0.00     0.034 A 
HETATM   22  C25 UNL     1      -4.495  48.312 -27.958  1.00  0.00     0.047 A 
BRANCH  21  23
HETATM   23  C20 UNL     1      -5.638  47.652 -30.056  1.00  0.00     0.252 C 
HETATM   24  O1  UNL     1      -4.582  47.483 -30.654  1.00  0.00    -0.268 OA
HETATM   25  N3  UNL     1      -6.865  47.697 -30.683  1.00  0.00    -0.351 N 
HETATM   26  H18 UNL     1      -7.710  47.807 -30.140  1.00  0.00     0.163 HD
BRANCH  25  27
HETATM   27  C21 UNL     1      -6.981  47.651 -32.138  1.00  0.00     0.114 C 
HETATM   28  C22 UNL     1      -8.340  48.166 -32.591  1.00  0.00     0.057 C 
HETATM   29  C23 UNL     1      -9.221  46.937 -32.463  1.00  0.00     0.272 C 
HETATM   30  N4  UNL     1      -8.375  45.822 -32.893  1.00  0.00     0.085 N 
HETATM   31  C24 UNL     1      -6.975  46.209 -32.665  1.00  0.00     0.294 C 
HETATM   32  H24 UNL     1      -8.612  44.971 -32.386  1.00  0.00     0.315 HD
ENDBRANCH  25  27
ENDBRANCH  21  23
ENDBRANCH  15  17
ENDBRANCH   8  15
BRANCH   1  33
HETATM   33  C8  UNL     1       0.031  51.415 -19.416  1.00  0.00    -0.014 A 
HETATM   34  C2  UNL     1      -0.133  50.485 -18.357  1.00  0.00    -0.050 A 
HETATM   35  C1  UNL     1      -0.829  49.165 -18.567  1.00  0.00     0.049 C 
HETATM   36  C3  UNL     1       0.355  50.792 -17.078  1.00  0.00     0.007 A 
HETATM   37  C4  UNL     1       1.002  51.999 -16.834  1.00  0.00     0.001 A 
HETATM   38  C5  UNL     1       1.170  52.919 -17.865  1.00  0.00     0.007 A 
HETATM   39  C6  UNL     1       0.691  52.643 -19.156  1.00  0.00    -0.050 A 
HETATM   40  C7  UNL     1       0.899  53.673 -20.237  1.00  0.00     0.049 C 
ENDBRANCH   1  33
TORSDOF 5
ENDMDL
MODEL 3
REMARK minimizedAffinity -10.2252302
REMARK  5 active torsions:
REMARK  status: ('A' for Active; 'I' for Inactive)
REMARK    1  A    between atoms: C8_8  and  C9_9 
REMARK    2  A    between atoms: C14_16  and  N2_17 
REMARK    3  A    between atoms: N2_17  and  C15_18 
REMARK    4  A    between atoms: C19_22  and  C20_23 
REMARK       I    between atoms: C20_23  and  N3_25 
REMARK    5  A    between atoms: N3_25  and  C21_26 
ROOT
HETATM    1  C9  UNL     1      -0.218  51.882 -23.875  1.00  0.00    -0.022 A 
HETATM    2  C10 UNL     1      -0.743  50.843 -23.102  1.00  0.00     0.021 A 
HETATM    3  C11 UNL     1      -0.629  50.857 -21.702  1.00  0.00    -0.032 A 
HETATM    4  C12 UNL     1      -1.207  49.721 -20.901  1.00  0.00     0.050 C 
HETATM    5  C13 UNL     1       0.016  51.917 -21.052  1.00  0.00     0.083 A 
HETATM    6  N1  UNL     1       0.124  51.927 -19.708  1.00  0.00    -0.188 N 
ATOM      7  H1  UNL     1      -0.260  51.168 -19.143  1.00  0.00     0.184 HD
HETATM    8  C14 UNL     1       0.751  52.966 -19.135  1.00  0.00     0.697 A 
HETATM    9  N5  UNL     1       1.267  53.975 -19.857  1.00  0.00    -0.131 N 
ATOM     10  H5  UNL     1       1.739  54.747 -19.385  1.00  0.00     0.205 HD
HETATM   11  N6  UNL     1       1.162  53.974 -21.220  1.00  0.00    -0.284 N 
ATOM     12  H6  UNL     1       1.553  54.741 -21.766  1.00  0.00     0.187 HD
HETATM   13  C26 UNL     1       0.543  52.958 -21.829  1.00  0.00     0.077 A 
HETATM   14  C27 UNL     1       0.424  52.934 -23.215  1.00  0.00     0.045 A 
ENDROOT
BRANCH   8  15
HETATM   15  N2  UNL     1       0.828  52.914 -17.744  1.00  0.00    -0.190 N 
HETATM   16  H14 UNL     1      -0.002  53.337 -17.354  1.00  0.00     0.184 HD
BRANCH  15  17
HETATM   17  C15 UNL     1       1.811  52.492 -16.842  1.00  0.00     0.050 A 
HETATM   18  C16 UNL     1       3.133  52.951 -16.855  1.00  0.00     0.030 A 
HETATM   19  C17 UNL     1       4.073  52.487 -15.927  1.00  0.00     0.003 A 
HETATM   20  C18 UNL     1       3.711  51.539 -14.973  1.00  0.00     0.017 A 
HETATM   21  C19 UNL     1       2.405  51.044 -14.956  1.00  0.00     0.034 A 
HETATM   22  C25 UNL     1       1.466  51.530 -15.879  1.00  0.00     0.047 A 
BRANCH  21  23
HETATM   23  C20 UNL     1       1.953  50.029 -13.966  1.00  0.00     0.252 C 
HETATM   24  O1  UNL     1       1.862  50.326 -12.781  1.00  0.00    -0.268 OA
HETATM   25  N3  UNL     1       1.629  48.785 -14.463  1.00  0.00    -0.351 N 
HETATM   26  H18 UNL     1       1.692  48.600 -15.455  1.00  0.00     0.163 HD
BRANCH  25  27
HETATM   27  C21 UNL     1       1.247  47.685 -13.581  1.00  0.00     0.114 C 
HETATM   28  C22 UNL     1       2.456  46.836 -13.218  1.00  0.00     0.057 C 
HETATM   29  C23 UNL     1       2.556  45.881 -14.393  1.00  0.00     0.272 C 
HETATM   30  N4  UNL     1       1.169  45.561 -14.736  1.00  0.00     0.085 N 
HETATM   31  C24 UNL     1       0.328  46.680 -14.288  1.00  0.00     0.294 C 
HETATM   32  H24 UNL     1       1.071  45.401 -15.738  1.00  0.00     0.315 HD
ENDBRANCH  25  27
ENDBRANCH  21  23
ENDBRANCH  15  17
ENDBRANCH   8  15
BRANCH   1  33
HETATM   33  C8  UNL     1      -0.337  51.870 -25.341  1.00  0.00    -0.014 A 
HETATM   34  C2  UNL     1      -1.583  52.136 -25.965  1.00  0.00    -0.050 A 
HETATM   35  C1  UNL     1      -2.822  52.434 -25.160  1.00  0.00     0.049 C 
HETATM   36  C3  UNL     1      -1.680  52.119 -27.365  1.00  0.00     0.007 A 
HETATM   37  C4  UNL     1      -0.565  51.847 -28.152  1.00  0.00     0.001 A 
HETATM   38  C5  UNL     1       0.663  51.586 -27.551  1.00  0.00     0.007 A 
HETATM   39  C6  UNL     1       0.792  51.593 -26.153  1.00  0.00    -0.050 A 
HETATM   40  C7  UNL     1       2.145  51.303 -25.553  1.00  0.00     0.049 C 
ENDBRANCH   1  33
TORSDOF 5
ENDMDL
MODEL 4
REMARK minimizedAffinity -10.2080059
REMARK  5 active torsions:
REMARK  status: ('A' for Active; 'I' for Inactive)
REMARK    1  A    between atoms: C8_8  and  C9_9 
REMARK    2  A    between atoms: C14_16  and  N2_17 
REMARK    3  A    between atoms: N2_17  and  C15_18 
REMARK    4  A    between atoms: C19_22  and  C20_23 
REMARK       I    between atoms: C20_23  and  N3_25 
REMARK    5  A    between atoms: N3_25  and  C21_26 
ROOT
HETATM    1  C9  UNL     1      -0.345  51.888 -23.895  1.00  0.00    -0.022 A 
HETATM    2  C10 UNL     1      -0.788  50.841 -23.083  1.00  0.00     0.021 A 
HETATM    3  C11 UNL     1      -0.566  50.863 -21.696  1.00  0.00    -0.032 A 
HETATM    4  C12 UNL     1      -1.058  49.718 -20.850  1.00  0.00     0.050 C 
HETATM    5  C13 UNL     1       0.106  51.937 -21.099  1.00  0.00     0.083 A 
HETATM    6  N1  UNL     1       0.316  51.954 -19.767  1.00  0.00    -0.188 N 
ATOM      7  H1  UNL     1      -0.007  51.190 -19.173  1.00  0.00     0.184 HD
HETATM    8  C14 UNL     1       0.964  53.008 -19.246  1.00  0.00     0.697 A 
HETATM    9  N5  UNL     1       1.402  54.025 -20.008  1.00  0.00    -0.131 N 
ATOM     10  H5  UNL     1       1.894  54.807 -19.576  1.00  0.00     0.205 HD
HETATM   11  N6  UNL     1       1.193  54.016 -21.359  1.00  0.00    -0.284 N 
ATOM     12  H6  UNL     1       1.525  54.789 -21.936  1.00  0.00     0.187 HD
HETATM   13  C26 UNL     1       0.550  52.987 -21.917  1.00  0.00     0.077 A 
HETATM   14  C27 UNL     1       0.325  52.955 -23.289  1.00  0.00     0.045 A 
ENDROOT
BRANCH   8  15
HETATM   15  N2  UNL     1       1.149  52.962 -17.866  1.00  0.00    -0.190 N 
HETATM   16  H14 UNL     1       1.442  53.874 -17.544  1.00  0.00     0.184 HD
BRANCH  15  17
HETATM   17  C15 UNL     1       1.094  51.940 -16.913  1.00  0.00     0.050 A 
HETATM   18  C16 UNL     1       0.445  50.717 -17.115  1.00  0.00     0.030 A 
HETATM   19  C17 UNL     1       0.419  49.733 -16.119  1.00  0.00     0.003 A 
HETATM   20  C18 UNL     1       1.032  49.960 -14.890  1.00  0.00     0.017 A 
HETATM   21  C19 UNL     1       1.664  51.184 -14.652  1.00  0.00     0.034 A 
HETATM   22  C25 UNL     1       1.699  52.155 -15.664  1.00  0.00     0.047 A 
BRANCH  21  23
HETATM   23  C20 UNL     1       2.336  51.493 -13.361  1.00  0.00     0.252 C 
HETATM   24  O1  UNL     1       3.374  50.917 -13.057  1.00  0.00    -0.268 OA
HETATM   25  N3  UNL     1       1.745  52.458 -12.574  1.00  0.00    -0.351 N 
HETATM   26  H18 UNL     1       0.905  52.925 -12.886  1.00  0.00     0.163 HD
BRANCH  25  27
HETATM   27  C21 UNL     1       2.269  52.791 -11.252  1.00  0.00     0.114 C 
HETATM   28  C22 UNL     1       1.151  53.243 -10.323  1.00  0.00     0.057 C 
HETATM   29  C23 UNL     1       1.014  54.716 -10.661  1.00  0.00     0.272 C 
HETATM   30  N4  UNL     1       2.385  55.180 -10.883  1.00  0.00     0.085 N 
HETATM   31  C24 UNL     1       3.188  54.020 -11.296  1.00  0.00     0.294 C 
HETATM   32  H24 UNL     1       2.409  55.918 -11.585  1.00  0.00     0.315 HD
ENDBRANCH  25  27
ENDBRANCH  21  23
ENDBRANCH  15  17
ENDBRANCH   8  15
BRANCH   1  33
HETATM   33  C8  UNL     1      -0.576  51.869 -25.349  1.00  0.00    -0.014 A 
HETATM   34  C2  UNL     1       0.495  51.622 -26.245  1.00  0.00    -0.050 A 
HETATM   35  C1  UNL     1       1.898  51.377 -25.751  1.00  0.00     0.049 C 
HETATM   36  C3  UNL     1       0.258  51.610 -27.628  1.00  0.00     0.007 A 
HETATM   37  C4  UNL     1      -1.018  51.834 -28.133  1.00  0.00     0.001 A 
HETATM   38  C5  UNL     1      -2.078  52.076 -27.263  1.00  0.00     0.007 A 
HETATM   39  C6  UNL     1      -1.873  52.098 -25.875  1.00  0.00    -0.050 A 
HETATM   40  C7  UNL     1      -3.055  52.364 -24.976  1.00  0.00     0.049 C 
ENDBRANCH   1  33
TORSDOF 5
ENDMDL
MODEL 5
REMARK minimizedAffinity -10.1352234
REMARK  5 active torsions:
REMARK  status: ('A' for Active; 'I' for Inactive)
REMARK    1  A    between atoms: C8_8  and  C9_9 
REMARK    2  A    between atoms: C14_16  and  N2_17 
REMARK    3  A    between atoms: N2_17  and  C15_18 
REMARK    4  A    between atoms: C19_22  and  C20_23 
REMARK       I    between atoms: C20_23  and  N3_25 
REMARK    5  A    between atoms: N3_25  and  C21_26 
ROOT
HETATM    1  C9  UNL     1      -0.580  51.789 -23.633  1.00  0.00    -0.022 A 
HETATM    2  C10 UNL     1      -0.882  50.695 -22.817  1.00  0.00     0.021 A 
HETATM    3  C11 UNL     1      -0.548  50.701 -21.452  1.00  0.00    -0.032 A 
HETATM    4  C12 UNL     1      -0.889  49.506 -20.603  1.00  0.00     0.050 C 
HETATM    5  C13 UNL     1       0.096  51.806 -20.882  1.00  0.00     0.083 A 
HETATM    6  N1  UNL     1       0.414  51.808 -19.571  1.00  0.00    -0.188 N 
ATOM      7  H1  UNL     1       0.194  51.009 -18.975  1.00  0.00     0.184 HD
HETATM    8  C14 UNL     1       1.030  52.892 -19.075  1.00  0.00     0.697 A 
HETATM    9  N5  UNL     1       1.333  53.955 -19.840  1.00  0.00    -0.131 N 
ATOM     10  H5  UNL     1       1.805  54.760 -19.428  1.00  0.00     0.205 HD
HETATM   11  N6  UNL     1       1.014  53.962 -21.170  1.00  0.00    -0.284 N 
ATOM     12  H6  UNL     1       1.244  54.769 -21.749  1.00  0.00     0.187 HD
HETATM   13  C26 UNL     1       0.399  52.903 -21.703  1.00  0.00     0.077 A 
HETATM   14  C27 UNL     1       0.064  52.886 -23.053  1.00  0.00     0.045 A 
ENDROOT
BRANCH   8  15
HETATM   15  N2  UNL     1       1.331  52.829 -17.716  1.00  0.00    -0.190 N 
HETATM   16  H14 UNL     1       1.957  53.586 -17.483  1.00  0.00     0.184 HD
BRANCH  15  17
HETATM   17  C15 UNL     1       1.021  51.925 -16.695  1.00  0.00     0.050 A 
HETATM   18  C16 UNL     1       0.552  50.625 -16.917  1.00  0.00     0.030 A 
HETATM   19  C17 UNL     1       0.254  49.767 -15.852  1.00  0.00     0.003 A 
HETATM   20  C18 UNL     1       0.405  50.199 -14.537  1.00  0.00     0.017 A 
HETATM   21  C19 UNL     1       0.846  51.501 -14.287  1.00  0.00     0.034 A 
HETATM   22  C25 UNL     1       1.159  52.346 -15.363  1.00  0.00     0.047 A 
BRANCH  21  23
HETATM   23  C20 UNL     1       1.027  52.028 -12.907  1.00  0.00     0.252 C 
HETATM   24  O1  UNL     1       2.123  51.960 -12.364  1.00  0.00    -0.268 OA
HETATM   25  N3  UNL     1      -0.078  52.601 -12.316  1.00  0.00    -0.351 N 
HETATM   26  H18 UNL     1      -0.952  52.660 -12.820  1.00  0.00     0.163 HD
BRANCH  25  27
HETATM   27  C21 UNL     1      -0.044  53.083 -10.937  1.00  0.00     0.114 C 
HETATM   28  C22 UNL     1      -1.329  52.725 -10.205  1.00  0.00     0.057 C 
HETATM   29  C23 UNL     1      -2.260  53.858 -10.597  1.00  0.00     0.272 C 
HETATM   30  N4  UNL     1      -1.413  55.052 -10.615  1.00  0.00     0.085 N 
HETATM   31  C24 UNL     1      -0.032  54.616 -10.870  1.00  0.00     0.294 C 
HETATM   32  H24 UNL     1      -1.731  55.711 -11.323  1.00  0.00     0.315 HD
ENDBRANCH  25  27
ENDBRANCH  21  23
ENDBRANCH  15  17
ENDBRANCH   8  15
BRANCH   1  33
HETATM   33  C8  UNL     1      -0.928  51.786 -25.063  1.00  0.00    -0.014 A 
HETATM   34  C2  UNL     1      -2.265  52.015 -25.478  1.00  0.00    -0.050 A 
HETATM   35  C1  UNL     1      -3.370  52.262 -24.483  1.00  0.00     0.049 C 
HETATM   36  C3  UNL     1      -2.581  52.007 -26.846  1.00  0.00     0.007 A 
HETATM   37  C4  UNL     1      -1.596  51.781 -27.802  1.00  0.00     0.001 A 
HETATM   38  C5  UNL     1      -0.281  51.557 -27.406  1.00  0.00     0.007 A 
HETATM   39  C6  UNL     1       0.067  51.555 -26.046  1.00  0.00    -0.050 A 
HETATM   40  C7  UNL     1       1.507  51.307 -25.671  1.00  0.00     0.049 C 
ENDBRANCH   1  33
TORSDOF 5
ENDMDL
MODEL 6
REMARK minimizedAffinity -10.065918
REMARK  5 active torsions:
REMARK  status: ('A' for Active; 'I' for Inactive)
REMARK    1  A    between atoms: C8_8  and  C9_9 
REMARK    2  A    between atoms: C14_16  and  N2_17 
REMARK    3  A    between atoms: N2_17  and  C15_18 
REMARK    4  A    between atoms: C19_22  and  C20_23 
REMARK       I    between atoms: C20_23  and  N3_25 
REMARK    5  A    between atoms: N3_25  and  C21_26 
ROOT
HETATM    1  C9  UNL     1      -0.638  50.853 -18.870  1.00  0.00    -0.022 A 
HETATM    2  C10 UNL     1      -0.131  51.148 -20.138  1.00  0.00     0.021 A 
HETATM    3  C11 UNL     1      -0.907  50.939 -21.291  1.00  0.00    -0.032 A 
HETATM    4  C12 UNL     1      -0.329  51.269 -22.641  1.00  0.00     0.050 C 
HETATM    5  C13 UNL     1      -2.207  50.427 -21.190  1.00  0.00     0.083 A 
HETATM    6  N1  UNL     1      -2.948  50.227 -22.299  1.00  0.00    -0.188 N 
ATOM      7  H1  UNL     1      -2.578  50.443 -23.225  1.00  0.00     0.184 HD
HETATM    8  C14 UNL     1      -4.188  49.735 -22.147  1.00  0.00     0.697 A 
HETATM    9  N5  UNL     1      -4.696  49.441 -20.938  1.00  0.00    -0.131 N 
ATOM     10  H5  UNL     1      -5.641  49.066 -20.862  1.00  0.00     0.205 HD
HETATM   11  N6  UNL     1      -3.952  49.640 -19.808  1.00  0.00    -0.284 N 
ATOM     12  H6  UNL     1      -4.339  49.418 -18.891  1.00  0.00     0.187 HD
HETATM   13  C26 UNL     1      -2.714  50.130 -19.916  1.00  0.00     0.077 A 
HETATM   14  C27 UNL     1      -1.937  50.342 -18.782  1.00  0.00     0.045 A 
ENDROOT
BRANCH   8  15
HETATM   15  N2  UNL     1      -4.899  49.552 -23.331  1.00  0.00    -0.190 N 
HETATM   16  H14 UNL     1      -5.872  49.398 -23.109  1.00  0.00     0.184 HD
BRANCH  15  17
HETATM   17  C15 UNL     1      -4.533  49.461 -24.678  1.00  0.00     0.050 A 
HETATM   18  C16 UNL     1      -4.936  48.426 -25.529  1.00  0.00     0.030 A 
HETATM   19  C17 UNL     1      -4.532  48.387 -26.869  1.00  0.00     0.003 A 
HETATM   20  C18 UNL     1      -3.700  49.379 -27.383  1.00  0.00     0.017 A 
HETATM   21  C19 UNL     1      -3.261  50.409 -26.547  1.00  0.00     0.034 A 
HETATM   22  C25 UNL     1      -3.687  50.448 -25.210  1.00  0.00     0.047 A 
BRANCH  21  23
HETATM   23  C20 UNL     1      -2.370  51.498 -27.029  1.00  0.00     0.252 C 
HETATM   24  O1  UNL     1      -2.723  52.667 -26.933  1.00  0.00    -0.268 OA
HETATM   25  N3  UNL     1      -1.152  51.114 -27.548  1.00  0.00    -0.351 N 
HETATM   26  H18 UNL     1      -0.895  50.137 -27.576  1.00  0.00     0.163 HD
BRANCH  25  27
HETATM   27  C21 UNL     1      -0.226  52.087 -28.123  1.00  0.00     0.114 C 
HETATM   28  C22 UNL     1       1.207  51.783 -27.708  1.00  0.00     0.057 C 
HETATM   29  C23 UNL     1       1.311  52.458 -26.353  1.00  0.00     0.272 C 
HETATM   30  N4  UNL     1       0.547  53.699 -26.492  1.00  0.00     0.085 N 
HETATM   31  C24 UNL     1      -0.450  53.494 -27.553  1.00  0.00     0.294 C 
HETATM   32  H24 UNL     1       0.104  53.954 -25.611  1.00  0.00     0.315 HD
ENDBRANCH  25  27
ENDBRANCH  21  23
ENDBRANCH  15  17
ENDBRANCH   8  15
BRANCH   1  33
HETATM   33  C8  UNL     1       0.171  51.072 -17.660  1.00  0.00    -0.014 A 
HETATM   34  C2  UNL     1       0.257  50.070 -16.661  1.00  0.00    -0.050 A 
HETATM   35  C1  UNL     1      -0.471  48.757 -16.793  1.00  0.00     0.049 C 
HETATM   36  C3  UNL     1       1.031  50.296 -15.512  1.00  0.00     0.007 A 
HETATM   37  C4  UNL     1       1.719  51.494 -15.342  1.00  0.00     0.001 A 
HETATM   38  C5  UNL     1       1.643  52.484 -16.317  1.00  0.00     0.007 A 
HETATM   39  C6  UNL     1       0.875  52.289 -17.476  1.00  0.00    -0.050 A 
HETATM   40  C7  UNL     1       0.826  53.394 -18.502  1.00  0.00     0.049 C 
ENDBRANCH   1  33
TORSDOF 5
ENDMDL
MODEL 7
REMARK minimizedAffinity -10.0571003
REMARK  5 active torsions:
REMARK  status: ('A' for Active; 'I' for Inactive)
REMARK    1  A    between atoms: C8_8  and  C9_9 
REMARK    2  A    between atoms: C14_16  and  N2_17 
REMARK    3  A    between atoms: N2_17  and  C15_18 
REMARK    4  A    between atoms: C19_22  and  C20_23 
REMARK       I    between atoms: C20_23  and  N3_25 
REMARK    5  A    between atoms: N3_25  and  C21_26 
ROOT
HETATM    1  C9  UNL     1      -1.210  50.500 -22.618  1.00  0.00    -0.022 A 
HETATM    2  C10 UNL     1      -1.282  49.676 -21.491  1.00  0.00     0.021 A 
HETATM    3  C11 UNL     1      -0.780  50.106 -20.251  1.00  0.00    -0.032 A 
HETATM    4  C12 UNL     1      -0.876  49.194 -19.058  1.00  0.00     0.050 C 
HETATM    5  C13 UNL     1      -0.195  51.372 -20.121  1.00  0.00     0.083 A 
HETATM    6  N1  UNL     1       0.286  51.781 -18.929  1.00  0.00    -0.188 N 
ATOM      7  H1  UNL     1       0.234  51.180 -18.106  1.00  0.00     0.184 HD
HETATM    8  C14 UNL     1       0.837  53.004 -18.859  1.00  0.00     0.697 A 
HETATM    9  N5  UNL     1       0.920  53.812 -19.930  1.00  0.00    -0.131 N 
ATOM     10  H5  UNL     1       1.348  54.733 -19.838  1.00  0.00     0.205 HD
HETATM   11  N6  UNL     1       0.435  53.406 -21.142  1.00  0.00    -0.284 N 
ATOM     12  H6  UNL     1       0.498  54.021 -21.953  1.00  0.00     0.187 HD
HETATM   13  C26 UNL     1      -0.123  52.197 -21.254  1.00  0.00     0.077 A 
HETATM   14  C27 UNL     1      -0.623  51.761 -22.476  1.00  0.00     0.045 A 
ENDROOT
BRANCH   8  15
HETATM   15  N2  UNL     1       1.314  53.363 -17.601  1.00  0.00    -0.190 N 
HETATM   16  H14 UNL     1       1.181  54.356 -17.471  1.00  0.00     0.184 HD
BRANCH  15  17
HETATM   17  C15 UNL     1       1.978  52.673 -16.581  1.00  0.00     0.050 A 
HETATM   18  C16 UNL     1       3.354  52.417 -16.578  1.00  0.00     0.030 A 
HETATM   19  C17 UNL     1       3.960  51.715 -15.529  1.00  0.00     0.003 A 
HETATM   20  C18 UNL     1       3.197  51.241 -14.465  1.00  0.00     0.017 A 
HETATM   21  C19 UNL     1       1.817  51.460 -14.458  1.00  0.00     0.034 A 
HETATM   22  C25 UNL     1       1.222  52.180 -15.505  1.00  0.00     0.047 A 
BRANCH  21  23
HETATM   23  C20 UNL     1       0.943  50.978 -13.354  1.00  0.00     0.252 C 
HETATM   24  O1  UNL     1       1.099  49.853 -12.895  1.00  0.00    -0.268 OA
HETATM   25  N3  UNL     1      -0.002  51.865 -12.884  1.00  0.00    -0.351 N 
HETATM   26  H18 UNL     1      -0.069  52.794 -13.277  1.00  0.00     0.163 HD
BRANCH  25  27
HETATM   27  C21 UNL     1      -0.967  51.481 -11.858  1.00  0.00     0.114 C 
HETATM   28  C22 UNL     1      -2.236  50.923 -12.487  1.00  0.00     0.057 C 
HETATM   29  C23 UNL     1      -3.033  52.178 -12.793  1.00  0.00     0.272 C 
HETATM   30  N4  UNL     1      -2.782  53.069 -11.659  1.00  0.00     0.085 N 
HETATM   31  C24 UNL     1      -1.484  52.696 -11.077  1.00  0.00     0.294 C 
HETATM   32  H24 UNL     1      -2.791  54.044 -11.954  1.00  0.00     0.315 HD
ENDBRANCH  25  27
ENDBRANCH  21  23
ENDBRANCH  15  17
ENDBRANCH   8  15
BRANCH   1  33
HETATM   33  C8  UNL     1      -1.736  50.053 -23.917  1.00  0.00    -0.014 A 
HETATM   34  C2  UNL     1      -1.157  50.516 -25.126  1.00  0.00    -0.050 A 
HETATM   35  C1  UNL     1       0.005  51.476 -25.128  1.00  0.00     0.049 C 
HETATM   36  C3  UNL     1      -1.671  50.082 -26.358  1.00  0.00     0.007 A 
HETATM   37  C4  UNL     1      -2.745  49.199 -26.408  1.00  0.00     0.001 A 
HETATM   38  C5  UNL     1      -3.321  48.736 -25.228  1.00  0.00     0.007 A 
HETATM   39  C6  UNL     1      -2.831  49.154 -23.981  1.00  0.00    -0.050 A 
HETATM   40  C7  UNL     1      -3.491  48.623 -22.733  1.00  0.00     0.049 C 
ENDBRANCH   1  33
TORSDOF 5
ENDMDL
MODEL 8
REMARK minimizedAffinity -9.97331238
REMARK  5 active torsions:
REMARK  status: ('A' for Active; 'I' for Inactive)
REMARK    1  A    between atoms: C8_8  and  C9_9 
REMARK    2  A    between atoms: C14_16  and  N2_17 
REMARK    3  A    between atoms: N2_17  and  C15_18 
REMARK    4  A    between atoms: C19_22  and  C20_23 
REMARK       I    between atoms: C20_23  and  N3_25 
REMARK    5  A    between atoms: N3_25  and  C21_26 
ROOT
HETATM    1  C9  UNL     1      -1.431  51.180 -21.902  1.00  0.00    -0.022 A 
HETATM    2  C10 UNL     1      -1.269  49.808 -21.698  1.00  0.00     0.021 A 
HETATM    3  C11 UNL     1      -2.206  48.890 -22.201  1.00  0.00    -0.032 A 
HETATM    4  C12 UNL     1      -2.000  47.417 -21.963  1.00  0.00     0.050 C 
HETATM    5  C13 UNL     1      -3.324  49.334 -22.919  1.00  0.00     0.083 A 
HETATM    6  N1  UNL     1      -4.221  48.449 -23.400  1.00  0.00    -0.188 N 
ATOM      7  H1  UNL     1      -4.103  47.447 -23.250  1.00  0.00     0.184 HD
HETATM    8  C14 UNL     1      -5.273  48.928 -24.081  1.00  0.00     0.697 A 
HETATM    9  N5  UNL     1      -5.451  50.244 -24.288  1.00  0.00    -0.131 N 
ATOM     10  H5  UNL     1      -6.266  50.571 -24.808  1.00  0.00     0.205 HD
HETATM   11  N6  UNL     1      -4.547  51.149 -23.804  1.00  0.00    -0.284 N 
ATOM     12  H6  UNL     1      -4.683  52.147 -23.963  1.00  0.00     0.187 HD
HETATM   13  C26 UNL     1      -3.484  50.713 -23.122  1.00  0.00     0.077 A 
HETATM   14  C27 UNL     1      -2.550  51.613 -22.620  1.00  0.00     0.045 A 
ENDROOT
BRANCH   8  15
HETATM   15  N2  UNL     1      -6.161  47.962 -24.549  1.00  0.00    -0.190 N 
HETATM   16  H14 UNL     1      -6.237  47.226 -23.862  1.00  0.00     0.184 HD
BRANCH  15  17
HETATM   17  C15 UNL     1      -6.858  47.785 -25.749  1.00  0.00     0.050 A 
HETATM   18  C16 UNL     1      -8.248  47.654 -25.834  1.00  0.00     0.030 A 
HETATM   19  C17 UNL     1      -8.889  47.473 -27.066  1.00  0.00     0.003 A 
HETATM   20  C18 UNL     1      -8.146  47.405 -28.241  1.00  0.00     0.017 A 
HETATM   21  C19 UNL     1      -6.754  47.506 -28.182  1.00  0.00     0.034 A 
HETATM   22  C25 UNL     1      -6.124  47.704 -26.944  1.00  0.00     0.047 A 
BRANCH  21  23
HETATM   23  C20 UNL     1      -5.900  47.438 -29.399  1.00  0.00     0.252 C 
HETATM   24  O1  UNL     1      -4.792  47.963 -29.400  1.00  0.00    -0.268 OA
HETATM   25  N3  UNL     1      -6.412  46.745 -30.474  1.00  0.00    -0.351 N 
HETATM   26  H18 UNL     1      -7.319  46.304 -30.411  1.00  0.00     0.163 HD
BRANCH  25  27
HETATM   27  C21 UNL     1      -5.700  46.676 -31.748  1.00  0.00     0.114 C 
HETATM   28  C22 UNL     1      -6.470  47.406 -32.840  1.00  0.00     0.057 C 
HETATM   29  C23 UNL     1      -7.454  46.352 -33.312  1.00  0.00     0.272 C 
HETATM   30  N4  UNL     1      -6.704  45.095 -33.280  1.00  0.00     0.085 N 
HETATM   31  C24 UNL     1      -5.631  45.241 -32.285  1.00  0.00     0.294 C 
HETATM   32  H24 UNL     1      -7.317  44.313 -33.054  1.00  0.00     0.315 HD
ENDBRANCH  25  27
ENDBRANCH  21  23
ENDBRANCH  15  17
ENDBRANCH   8  15
BRANCH   1  33
HETATM   33  C8  UNL     1      -0.451  52.145 -21.378  1.00  0.00    -0.014 A 
HETATM   34  C2  UNL     1      -0.438  52.481 -20.000  1.00  0.00    -0.050 A 
HETATM   35  C1  UNL     1      -1.418  51.873 -19.030  1.00  0.00     0.049 C 
HETATM   36  C3  UNL     1       0.502  53.404 -19.516  1.00  0.00     0.007 A 
HETATM   37  C4  UNL     1       1.425  53.995 -20.373  1.00  0.00     0.001 A 
HETATM   38  C5  UNL     1       1.423  53.672 -21.727  1.00  0.00     0.007 A 
HETATM   39  C6  UNL     1       0.494  52.754 -22.242  1.00  0.00    -0.050 A 
HETATM   40  C7  UNL     1       0.534  52.439 -23.717  1.00  0.00     0.049 C 
ENDBRANCH   1  33
TORSDOF 5
ENDMDL
MODEL 9
REMARK minimizedAffinity -9.95322895
REMARK  5 active torsions:
REMARK  status: ('A' for Active; 'I' for Inactive)
REMARK    1  A    between atoms: C8_8  and  C9_9 
REMARK    2  A    between atoms: C14_16  and  N2_17 
REMARK    3  A    between atoms: N2_17  and  C15_18 
REMARK    4  A    between atoms: C19_22  and  C20_23 
REMARK       I    between atoms: C20_23  and  N3_25 
REMARK    5  A    between atoms: N3_25  and  C21_26 
ROOT
HETATM    1  C9  UNL     1      -1.488  51.093 -21.662  1.00  0.00    -0.022 A 
HETATM    2  C10 UNL     1      -1.290  49.716 -21.530  1.00  0.00     0.021 A 
HETATM    3  C11 UNL     1      -2.219  48.801 -22.055  1.00  0.00    -0.032 A 
HETATM    4  C12 UNL     1      -1.974  47.325 -21.896  1.00  0.00     0.050 C 
HETATM    5  C13 UNL     1      -3.364  49.254 -22.723  1.00  0.00     0.083 A 
HETATM    6  N1  UNL     1      -4.252  48.373 -23.226  1.00  0.00    -0.188 N 
ATOM      7  H1  UNL     1      -4.108  47.367 -23.130  1.00  0.00     0.184 HD
HETATM    8  C14 UNL     1      -5.332  48.860 -23.858  1.00  0.00     0.697 A 
HETATM    9  N5  UNL     1      -5.545  50.180 -23.995  1.00  0.00    -0.131 N 
ATOM     10  H5  UNL     1      -6.379  50.512 -24.478  1.00  0.00     0.205 HD
HETATM   11  N6  UNL     1      -4.649  51.081 -23.488  1.00  0.00    -0.284 N 
ATOM     12  H6  UNL     1      -4.811  52.082 -23.594  1.00  0.00     0.187 HD
HETATM   13  C26 UNL     1      -3.560  50.637 -22.854  1.00  0.00     0.077 A 
HETATM   14  C27 UNL     1      -2.635  51.533 -22.330  1.00  0.00     0.045 A 
ENDROOT
BRANCH   8  15
HETATM   15  N2  UNL     1      -6.209  47.897 -24.352  1.00  0.00    -0.190 N 
HETATM   16  H14 UNL     1      -6.353  47.190 -23.645  1.00  0.00     0.184 HD
BRANCH  15  17
HETATM   17  C15 UNL     1      -6.824  47.689 -25.591  1.00  0.00     0.050 A 
HETATM   18  C16 UNL     1      -8.183  47.397 -25.751  1.00  0.00     0.030 A 
HETATM   19  C17 UNL     1      -8.739  47.194 -27.020  1.00  0.00     0.003 A 
HETATM   20  C18 UNL     1      -7.940  47.265 -28.158  1.00  0.00     0.017 A 
HETATM   21  C19 UNL     1      -6.575  47.529 -28.025  1.00  0.00     0.034 A 
HETATM   22  C25 UNL     1      -6.031  47.749 -26.749  1.00  0.00     0.047 A 
BRANCH  21  23
HETATM   23  C20 UNL     1      -5.664  47.616 -29.198  1.00  0.00     0.252 C 
HETATM   24  O1  UNL     1      -4.716  48.393 -29.182  1.00  0.00    -0.268 OA
HETATM   25  N3  UNL     1      -5.936  46.773 -30.254  1.00  0.00    -0.351 N 
HETATM   26  H18 UNL     1      -6.713  46.129 -30.204  1.00  0.00     0.163 HD
BRANCH  25  27
HETATM   27  C21 UNL     1      -5.160  46.822 -31.490  1.00  0.00     0.114 C 
HETATM   28  C22 UNL     1      -5.653  47.941 -32.397  1.00  0.00     0.057 C 
HETATM   29  C23 UNL     1      -6.811  47.289 -33.129  1.00  0.00     0.272 C 
HETATM   30  N4  UNL     1      -6.373  45.914 -33.377  1.00  0.00     0.085 N 
HETATM   31  C24 UNL     1      -5.378  45.570 -32.350  1.00  0.00     0.294 C 
HETATM   32  H24 UNL     1      -7.164  45.272 -33.357  1.00  0.00     0.315 HD
ENDBRANCH  25  27
ENDBRANCH  21  23
ENDBRANCH  15  17
ENDBRANCH   8  15
BRANCH   1  33
HETATM   33  C8  UNL     1      -0.517  52.053 -21.114  1.00  0.00    -0.014 A 
HETATM   34  C2  UNL     1       0.453  52.656 -21.954  1.00  0.00    -0.050 A 
HETATM   35  C1  UNL     1       0.531  52.337 -23.426  1.00  0.00     0.049 C 
HETATM   36  C3  UNL     1       1.373  53.568 -21.415  1.00  0.00     0.007 A 
HETATM   37  C4  UNL     1       1.344  53.892 -20.063  1.00  0.00     0.001 A 
HETATM   38  C5  UNL     1       0.395  53.309 -19.228  1.00  0.00     0.007 A 
HETATM   39  C6  UNL     1      -0.537  52.390 -19.736  1.00  0.00    -0.050 A 
HETATM   40  C7  UNL     1      -1.544  51.787 -18.789  1.00  0.00     0.049 C 
ENDBRANCH   1  33
TORSDOF 5
ENDMDL
