MODEL 1
REMARK minimizedAffinity -7.68894768
REMARK  4 active torsions:
REMARK  status: ('A' for Active; 'I' for Inactive)
REMARK    1  A    between atoms: O1_1  and  C1_2 
REMARK    2  A    between atoms: C4_5  and  N1_6 
REMARK    3  A    between atoms: C8_17  and  N6_18 
REMARK    4  A    between atoms: N6_18  and  C9_19 
ROOT
HETATM    1  N1  UNL     1      12.006  35.725  18.452  1.00  0.00    -0.341 N 
HETATM    2  C5  UNL     1      12.643  35.824  17.256  1.00  0.00     0.138 A 
HETATM    3  N2  UNL     1      12.047  36.355  16.135  1.00  0.00    -0.283 N 
HETATM    4  N3  UNL     1      12.863  36.484  15.070  1.00  0.00    -0.283 N 
ATOM      5  H3  UNL     1      12.639  36.845  14.142  1.00  0.00     0.188 HD
HETATM    6  C6  UNL     1      14.035  36.028  15.519  1.00  0.00     0.139 A 
HETATM    7  N4  UNL     1      15.196  35.971  14.829  1.00  0.00    -0.337 N 
ATOM      8  H4  UNL     1      15.312  36.273  13.861  1.00  0.00     0.168 HD
HETATM    9  C7  UNL     1      16.185  35.457  15.601  1.00  0.00     0.183 A 
HETATM   10  N5  UNL     1      16.156  35.001  16.895  1.00  0.00    -0.338 N 
ATOM     11  H5  UNL     1      17.007  34.643  17.328  1.00  0.00     0.168 HD
HETATM   12  C8  UNL     1      14.989  35.027  17.603  1.00  0.00     0.124 A 
HETATM   13  C15 UNL     1      13.938  35.584  16.863  1.00  0.00     0.099 A 
HETATM   14  H4  UNL     1      12.533  35.937  19.300  1.00  0.00     0.167 HD
HETATM   15  H5  UNL     1      11.095  36.696  16.055  1.00  0.00     0.188 HD
ENDROOT
BRANCH   1  16
HETATM   16  C4  UNL     1      10.617  35.624  18.676  1.00  0.00     0.033 A 
HETATM   17  C3  UNL     1      10.159  35.010  19.850  1.00  0.00     0.032 A 
HETATM   18  C2  UNL     1       8.792  34.926  20.129  1.00  0.00     0.039 A 
HETATM   19  C1  UNL     1       7.874  35.458  19.235  1.00  0.00     0.065 A 
HETATM   20  C17 UNL     1       8.300  36.074  18.064  1.00  0.00     0.039 A 
HETATM   21  C16 UNL     1       9.670  36.158  17.791  1.00  0.00     0.032 A 
BRANCH  19  22
HETATM   22  O1  UNL     1       6.552  35.353  19.544  1.00  0.00    -0.361 OA
HETATM   23  H1  UNL     1       6.028  35.751  18.828  1.00  0.00     0.217 HD
ENDBRANCH  19  22
ENDBRANCH   1  16
BRANCH  12  24
HETATM   24  N6  UNL     1      14.844  34.498  18.891  1.00  0.00    -0.342 N 
HETATM   25  H7  UNL     1      14.774  33.487  18.867  1.00  0.00     0.167 HD
BRANCH  24  26
HETATM   26  C9  UNL     1      15.155  35.028  20.157  1.00  0.00     0.035 A 
HETATM   27  C10 UNL     1      16.462  35.277  20.590  1.00  0.00     0.029 A 
HETATM   28  C11 UNL     1      16.717  35.837  21.847  1.00  0.00     0.004 A 
HETATM   29  C12 UNL     1      15.662  36.171  22.690  1.00  0.00     0.024 A 
HETATM   30  C13 UNL     1      14.356  35.948  22.266  1.00  0.00     0.036 A 
HETATM   31 CL1  UNL     1      13.041  36.369  23.295  1.00  0.00    -0.084 Cl
HETATM   32  C14 UNL     1      14.101  35.389  21.013  1.00  0.00     0.053 A 
ENDBRANCH  24  26
ENDBRANCH  12  24
TORSDOF 4
ENDMDL
MODEL 2
REMARK minimizedAffinity -7.46898079
REMARK  4 active torsions:
REMARK  status: ('A' for Active; 'I' for Inactive)
REMARK    1  A    between atoms: O1_1  and  C1_2 
REMARK    2  A    between atoms: C4_5  and  N1_6 
REMARK    3  A    between atoms: C8_17  and  N6_18 
REMARK    4  A    between atoms: N6_18  and  C9_19 
ROOT
HETATM    1  N1  UNL     1      12.742  34.635  18.144  1.00  0.00    -0.341 N 
HETATM    2  C5  UNL     1      11.502  35.151  17.942  1.00  0.00     0.138 A 
HETATM    3  N2  UNL     1      11.094  35.665  16.732  1.00  0.00    -0.283 N 
HETATM    4  N3  UNL     1       9.796  36.024  16.680  1.00  0.00    -0.283 N 
ATOM      5  H3  UNL     1       9.283  36.428  15.897  1.00  0.00     0.188 HD
HETATM    6  C6  UNL     1       9.340  35.721  17.899  1.00  0.00     0.139 A 
HETATM    7  N4  UNL     1       8.073  35.871  18.346  1.00  0.00    -0.337 N 
ATOM      8  H4  UNL     1       7.302  36.245  17.793  1.00  0.00     0.168 HD
HETATM    9  C7  UNL     1       7.969  35.455  19.633  1.00  0.00     0.183 A 
HETATM   10  N5  UNL     1       8.922  34.955  20.484  1.00  0.00    -0.338 N 
ATOM     11  H5  UNL     1       8.666  34.687  21.434  1.00  0.00     0.168 HD
HETATM   12  C8  UNL     1      10.213  34.818  20.061  1.00  0.00     0.124 A 
HETATM   13  C15 UNL     1      10.371  35.200  18.724  1.00  0.00     0.099 A 
HETATM   14  H4  UNL     1      12.829  33.788  18.706  1.00  0.00     0.167 HD
HETATM   15  H5  UNL     1      11.650  35.749  15.888  1.00  0.00     0.188 HD
ENDROOT
BRANCH   1  16
HETATM   16  C4  UNL     1      13.927  34.962  17.452  1.00  0.00     0.033 A 
HETATM   17  C3  UNL     1      15.139  34.394  17.870  1.00  0.00     0.032 A 
HETATM   18  C2  UNL     1      16.328  34.661  17.187  1.00  0.00     0.039 A 
HETATM   19  C1  UNL     1      16.313  35.498  16.079  1.00  0.00     0.065 A 
HETATM   20  C17 UNL     1      15.126  36.073  15.642  1.00  0.00     0.039 A 
HETATM   21  C16 UNL     1      13.937  35.801  16.328  1.00  0.00     0.032 A 
BRANCH  19  22
HETATM   22  O1  UNL     1      17.495  35.732  15.444  1.00  0.00    -0.361 OA
HETATM   23  H1  UNL     1      17.339  36.342  14.703  1.00  0.00     0.217 HD
ENDBRANCH  19  22
ENDBRANCH   1  16
BRANCH  12  24
HETATM   24  N6  UNL     1      11.267  34.407  20.887  1.00  0.00    -0.342 N 
HETATM   25  H7  UNL     1      11.558  33.461  20.666  1.00  0.00     0.167 HD
BRANCH  24  26
HETATM   26  C9  UNL     1      12.199  35.140  21.643  1.00  0.00     0.035 A 
HETATM   27  C10 UNL     1      11.849  35.937  22.739  1.00  0.00     0.029 A 
HETATM   28  C11 UNL     1      12.819  36.621  23.480  1.00  0.00     0.004 A 
HETATM   29  C12 UNL     1      14.164  36.508  23.142  1.00  0.00     0.024 A 
HETATM   30  C13 UNL     1      14.531  35.704  22.069  1.00  0.00     0.036 A 
HETATM   31 CL1  UNL     1      16.193  35.545  21.649  1.00  0.00    -0.084 Cl
HETATM   32  C14 UNL     1      13.563  35.022  21.328  1.00  0.00     0.053 A 
ENDBRANCH  24  26
ENDBRANCH  12  24
TORSDOF 4
ENDMDL
MODEL 3
REMARK minimizedAffinity -7.41918993
REMARK  4 active torsions:
REMARK  status: ('A' for Active; 'I' for Inactive)
REMARK    1  A    between atoms: O1_1  and  C1_2 
REMARK    2  A    between atoms: C4_5  and  N1_6 
REMARK    3  A    between atoms: C8_17  and  N6_18 
REMARK    4  A    between atoms: N6_18  and  C9_19 
ROOT
HETATM    1  N1  UNL     1      10.723  35.560  19.632  1.00  0.00    -0.341 N 
HETATM    2  C5  UNL     1      11.395  35.585  18.452  1.00  0.00     0.138 A 
HETATM    3  N2  UNL     1      10.789  35.889  17.253  1.00  0.00    -0.283 N 
HETATM    4  N3  UNL     1      11.630  35.983  16.204  1.00  0.00    -0.283 N 
ATOM      5  H3  UNL     1      11.405  36.191  15.231  1.00  0.00     0.188 HD
HETATM    6  C6  UNL     1      12.828  35.741  16.743  1.00  0.00     0.139 A 
HETATM    7  N4  UNL     1      14.017  35.745  16.099  1.00  0.00    -0.337 N 
ATOM      8  H4  UNL     1      14.138  35.933  15.104  1.00  0.00     0.168 HD
HETATM    9  C7  UNL     1      15.027  35.464  16.960  1.00  0.00     0.183 A 
HETATM   10  N5  UNL     1      14.996  35.177  18.301  1.00  0.00    -0.338 N 
ATOM     11  H5  UNL     1      15.864  34.988  18.802  1.00  0.00     0.168 HD
HETATM   12  C8  UNL     1      13.804  35.145  18.967  1.00  0.00     0.124 A 
HETATM   13  C15 UNL     1      12.727  35.464  18.131  1.00  0.00     0.099 A 
HETATM   14  H4  UNL     1      11.181  35.944  20.458  1.00  0.00     0.167 HD
HETATM   15  H5  UNL     1       9.808  36.092  17.102  1.00  0.00     0.188 HD
ENDROOT
BRANCH   1  16
HETATM   16  C4  UNL     1       9.348  35.313  19.828  1.00  0.00     0.033 A 
HETATM   17  C3  UNL     1       8.411  36.053  19.092  1.00  0.00     0.032 A 
HETATM   18  C2  UNL     1       7.042  35.811  19.228  1.00  0.00     0.039 A 
HETATM   19  C1  UNL     1       6.600  34.825  20.100  1.00  0.00     0.065 A 
HETATM   20  C17 UNL     1       7.506  34.076  20.840  1.00  0.00     0.039 A 
HETATM   21  C16 UNL     1       8.877  34.320  20.699  1.00  0.00     0.032 A 
BRANCH  19  22
HETATM   22  O1  UNL     1       5.257  34.624  20.202  1.00  0.00    -0.361 OA
HETATM   23  H1  UNL     1       5.093  33.921  20.854  1.00  0.00     0.217 HD
ENDBRANCH  19  22
ENDBRANCH   1  16
BRANCH  12  24
HETATM   24  N6  UNL     1      13.667  34.771  20.309  1.00  0.00    -0.342 N 
HETATM   25  H7  UNL     1      13.535  33.770  20.399  1.00  0.00     0.167 HD
BRANCH  24  26
HETATM   26  C9  UNL     1      14.049  35.415  21.500  1.00  0.00     0.035 A 
HETATM   27  C10 UNL     1      13.150  36.090  22.335  1.00  0.00     0.029 A 
HETATM   28  C11 UNL     1      13.575  36.687  23.527  1.00  0.00     0.004 A 
HETATM   29  C12 UNL     1      14.909  36.608  23.912  1.00  0.00     0.024 A 
HETATM   30  C13 UNL     1      15.810  35.924  23.104  1.00  0.00     0.036 A 
HETATM   31 CL1  UNL     1      17.462  35.808  23.575  1.00  0.00    -0.084 Cl
HETATM   32  C14 UNL     1      15.388  35.329  21.913  1.00  0.00     0.053 A 
ENDBRANCH  24  26
ENDBRANCH  12  24
TORSDOF 4
ENDMDL
MODEL 4
REMARK minimizedAffinity -7.35204077
REMARK  4 active torsions:
REMARK  status: ('A' for Active; 'I' for Inactive)
REMARK    1  A    between atoms: O1_1  and  C1_2 
REMARK    2  A    between atoms: C4_5  and  N1_6 
REMARK    3  A    between atoms: C8_17  and  N6_18 
REMARK    4  A    between atoms: N6_18  and  C9_19 
ROOT
HETATM    1  N1  UNL     1      14.049  56.985   4.813  1.00  0.00    -0.341 N 
HETATM    2  C5  UNL     1      13.866  57.709   3.678  1.00  0.00     0.138 A 
HETATM    3  N2  UNL     1      13.937  57.156   2.419  1.00  0.00    -0.283 N 
HETATM    4  N3  UNL     1      13.611  57.994   1.416  1.00  0.00    -0.283 N 
ATOM      5  H3  UNL     1      13.599  57.805   0.413  1.00  0.00     0.188 HD
HETATM    6  C6  UNL     1      13.308  59.132   2.046  1.00  0.00     0.139 A 
HETATM    7  N4  UNL     1      12.890  60.284   1.475  1.00  0.00    -0.337 N 
ATOM      8  H4  UNL     1      12.761  60.421   0.473  1.00  0.00     0.168 HD
HETATM    9  C7  UNL     1      12.668  61.231   2.420  1.00  0.00     0.183 A 
HETATM   10  N5  UNL     1      12.821  61.180   3.782  1.00  0.00    -0.338 N 
ATOM     11  H5  UNL     1      12.604  61.999   4.350  1.00  0.00     0.168 HD
HETATM   12  C8  UNL     1      13.265  60.034   4.378  1.00  0.00     0.124 A 
HETATM   13  C15 UNL     1      13.476  59.008   3.450  1.00  0.00     0.099 A 
HETATM   14  H4  UNL     1      13.442  57.173   5.610  1.00  0.00     0.167 HD
HETATM   15  H5  UNL     1      14.155  56.192   2.189  1.00  0.00     0.188 HD
ENDROOT
BRANCH   1  16
HETATM   16  C4  UNL     1      14.803  55.802   4.960  1.00  0.00     0.033 A 
HETATM   17  C3  UNL     1      14.132  54.574   5.061  1.00  0.00     0.032 A 
HETATM   18  C2  UNL     1      14.843  53.376   5.167  1.00  0.00     0.039 A 
HETATM   19  C1  UNL     1      16.231  53.398   5.172  1.00  0.00     0.065 A 
HETATM   20  C17 UNL     1      16.921  54.599   5.073  1.00  0.00     0.039 A 
HETATM   21  C16 UNL     1      16.205  55.796   4.963  1.00  0.00     0.032 A 
BRANCH  19  22
HETATM   22  O1  UNL     1      16.884  52.207   5.280  1.00  0.00    -0.361 OA
HETATM   23  H1  UNL     1      17.842  52.373   5.286  1.00  0.00     0.217 HD
ENDBRANCH  19  22
ENDBRANCH   1  16
BRANCH  12  24
HETATM   24  N6  UNL     1      13.539  59.921   5.747  1.00  0.00    -0.342 N 
HETATM   25  H7  UNL     1      14.447  60.312   5.972  1.00  0.00     0.167 HD
BRANCH  24  26
HETATM   26  C9  UNL     1      12.692  59.741   6.855  1.00  0.00     0.035 A 
HETATM   27  C10 UNL     1      11.374  60.209   6.904  1.00  0.00     0.029 A 
HETATM   28  C11 UNL     1      10.560  59.975   8.019  1.00  0.00     0.004 A 
HETATM   29  C12 UNL     1      11.051  59.254   9.102  1.00  0.00     0.024 A 
HETATM   30  C13 UNL     1      12.352  58.765   9.061  1.00  0.00     0.036 A 
HETATM   31 CL1  UNL     1      12.967  57.860  10.391  1.00  0.00    -0.084 Cl
HETATM   32  C14 UNL     1      13.165  58.999   7.950  1.00  0.00     0.053 A 
ENDBRANCH  24  26
ENDBRANCH  12  24
TORSDOF 4
ENDMDL
MODEL 5
REMARK minimizedAffinity -7.32629728
REMARK  4 active torsions:
REMARK  status: ('A' for Active; 'I' for Inactive)
REMARK    1  A    between atoms: O1_1  and  C1_2 
REMARK    2  A    between atoms: C4_5  and  N1_6 
REMARK    3  A    between atoms: C8_17  and  N6_18 
REMARK    4  A    between atoms: N6_18  and  C9_19 
ROOT
HETATM    1  N1  UNL     1      13.864  56.948   3.656  1.00  0.00    -0.341 N 
HETATM    2  C5  UNL     1      13.630  57.288   2.362  1.00  0.00     0.138 A 
HETATM    3  N2  UNL     1      13.553  56.360   1.348  1.00  0.00    -0.283 N 
HETATM    4  N3  UNL     1      13.196  56.862   0.149  1.00  0.00    -0.283 N 
ATOM      5  H3  UNL     1      13.083  56.367  -0.735  1.00  0.00     0.188 HD
HETATM    6  C6  UNL     1      13.026  58.164   0.395  1.00  0.00     0.139 A 
HETATM    7  N4  UNL     1      12.636  59.108  -0.490  1.00  0.00    -0.337 N 
ATOM      8  H4  UNL     1      12.428  58.932  -1.473  1.00  0.00     0.168 HD
HETATM    9  C7  UNL     1      12.562  60.323   0.109  1.00  0.00     0.183 A 
HETATM   10  N5  UNL     1      12.830  60.693   1.402  1.00  0.00    -0.338 N 
ATOM     11  H5  UNL     1      12.719  61.666   1.687  1.00  0.00     0.168 HD
HETATM   12  C8  UNL     1      13.248  59.760   2.308  1.00  0.00     0.124 A 
HETATM   13  C15 UNL     1      13.309  58.477   1.751  1.00  0.00     0.099 A 
HETATM   14  H4  UNL     1      13.344  57.433   4.386  1.00  0.00     0.167 HD
HETATM   15  H5  UNL     1      13.685  55.358   1.428  1.00  0.00     0.188 HD
ENDROOT
BRANCH   1  16
HETATM   16  C4  UNL     1      14.548  55.809   4.130  1.00  0.00     0.033 A 
HETATM   17  C3  UNL     1      15.943  55.749   4.001  1.00  0.00     0.032 A 
HETATM   18  C2  UNL     1      16.662  54.657   4.494  1.00  0.00     0.039 A 
HETATM   19  C1  UNL     1      15.990  53.617   5.121  1.00  0.00     0.065 A 
HETATM   20  C17 UNL     1      14.609  53.651   5.264  1.00  0.00     0.039 A 
HETATM   21  C16 UNL     1      13.893  54.748   4.771  1.00  0.00     0.032 A 
BRANCH  19  22
HETATM   22  O1  UNL     1      16.729  52.572   5.585  1.00  0.00    -0.361 OA
HETATM   23  H1  UNL     1      16.132  51.916   5.984  1.00  0.00     0.217 HD
ENDBRANCH  19  22
ENDBRANCH   1  16
BRANCH  12  24
HETATM   24  N6  UNL     1      13.634  60.062   3.620  1.00  0.00    -0.342 N 
HETATM   25  H7  UNL     1      14.628  60.255   3.674  1.00  0.00     0.167 HD
BRANCH  24  26
HETATM   26  C9  UNL     1      12.894  60.506   4.730  1.00  0.00     0.035 A 
HETATM   27  C10 UNL     1      12.158  61.697   4.741  1.00  0.00     0.029 A 
HETATM   28  C11 UNL     1      11.410  62.079   5.861  1.00  0.00     0.004 A 
HETATM   29  C12 UNL     1      11.377  61.266   6.989  1.00  0.00     0.024 A 
HETATM   30  C13 UNL     1      12.087  60.070   6.987  1.00  0.00     0.036 A 
HETATM   31 CL1  UNL     1      12.044  59.048   8.372  1.00  0.00    -0.084 Cl
HETATM   32  C14 UNL     1      12.834  59.689   5.870  1.00  0.00     0.053 A 
ENDBRANCH  24  26
ENDBRANCH  12  24
TORSDOF 4
ENDMDL
MODEL 6
REMARK minimizedAffinity -7.29138374
REMARK  4 active torsions:
REMARK  status: ('A' for Active; 'I' for Inactive)
REMARK    1  A    between atoms: O1_1  and  C1_2 
REMARK    2  A    between atoms: C4_5  and  N1_6 
REMARK    3  A    between atoms: C8_17  and  N6_18 
REMARK    4  A    between atoms: N6_18  and  C9_19 
ROOT
HETATM    1  N1  UNL     1      13.925  58.871   4.776  1.00  0.00    -0.341 N 
HETATM    2  C5  UNL     1      13.061  59.600   5.530  1.00  0.00     0.138 A 
HETATM    3  N2  UNL     1      12.585  59.168   6.748  1.00  0.00    -0.283 N 
HETATM    4  N3  UNL     1      11.833  60.069   7.411  1.00  0.00    -0.283 N 
ATOM      5  H3  UNL     1      11.377  59.966   8.317  1.00  0.00     0.188 HD
HETATM    6  C6  UNL     1      11.829  61.130   6.599  1.00  0.00     0.139 A 
HETATM    7  N4  UNL     1      11.226  62.318   6.827  1.00  0.00    -0.337 N 
ATOM      8  H4  UNL     1      10.688  62.545   7.663  1.00  0.00     0.168 HD
HETATM    9  C7  UNL     1      11.435  63.166   5.789  1.00  0.00     0.183 A 
HETATM   10  N5  UNL     1      12.115  62.979   4.613  1.00  0.00    -0.338 N 
ATOM     11  H5  UNL     1      12.175  63.737   3.933  1.00  0.00     0.168 HD
HETATM   12  C8  UNL     1      12.712  61.779   4.351  1.00  0.00     0.124 A 
HETATM   13  C15 UNL     1      12.558  60.874   5.408  1.00  0.00     0.099 A 
HETATM   14  H4  UNL     1      14.683  59.360   4.301  1.00  0.00     0.167 HD
HETATM   15  H5  UNL     1      12.784  58.283   7.200  1.00  0.00     0.188 HD
ENDROOT
BRANCH   1  16
HETATM   16  C4  UNL     1      14.082  57.470   4.770  1.00  0.00     0.033 A 
HETATM   17  C3  UNL     1      14.933  56.875   5.713  1.00  0.00     0.032 A 
HETATM   18  C2  UNL     1      15.085  55.487   5.766  1.00  0.00     0.039 A 
HETATM   19  C1  UNL     1      14.384  54.684   4.876  1.00  0.00     0.065 A 
HETATM   20  C17 UNL     1      13.534  55.246   3.933  1.00  0.00     0.039 A 
HETATM   21  C16 UNL     1      13.382  56.636   3.886  1.00  0.00     0.032 A 
BRANCH  19  22
HETATM   22  O1  UNL     1      14.563  53.336   4.962  1.00  0.00    -0.361 OA
HETATM   23  H1  UNL     1      14.029  52.903   4.275  1.00  0.00     0.217 HD
ENDBRANCH  19  22
ENDBRANCH   1  16
BRANCH  12  24
HETATM   24  N6  UNL     1      13.345  61.468   3.141  1.00  0.00    -0.342 N 
HETATM   25  H7  UNL     1      13.899  60.623   3.224  1.00  0.00     0.167 HD
BRANCH  24  26
HETATM   26  C9  UNL     1      13.065  61.851   1.817  1.00  0.00     0.035 A 
HETATM   27  C10 UNL     1      12.382  61.038   0.905  1.00  0.00     0.029 A 
HETATM   28  C11 UNL     1      12.099  61.480  -0.392  1.00  0.00     0.004 A 
HETATM   29  C12 UNL     1      12.484  62.753  -0.796  1.00  0.00     0.024 A 
HETATM   30  C13 UNL     1      13.146  63.582   0.104  1.00  0.00     0.036 A 
HETATM   31 CL1  UNL     1      13.617  65.165  -0.380  1.00  0.00    -0.084 Cl
HETATM   32  C14 UNL     1      13.430  63.141   1.399  1.00  0.00     0.053 A 
ENDBRANCH  24  26
ENDBRANCH  12  24
TORSDOF 4
ENDMDL
MODEL 7
REMARK minimizedAffinity -7.28846693
REMARK  4 active torsions:
REMARK  status: ('A' for Active; 'I' for Inactive)
REMARK    1  A    between atoms: O1_1  and  C1_2 
REMARK    2  A    between atoms: C4_5  and  N1_6 
REMARK    3  A    between atoms: C8_17  and  N6_18 
REMARK    4  A    between atoms: N6_18  and  C9_19 
ROOT
HETATM    1  N1  UNL     1      16.463  51.652   5.797  1.00  0.00    -0.341 N 
HETATM    2  C5  UNL     1      17.586  51.288   6.469  1.00  0.00     0.138 A 
HETATM    3  N2  UNL     1      18.372  52.188   7.153  1.00  0.00    -0.283 N 
HETATM    4  N3  UNL     1      19.378  51.635   7.859  1.00  0.00    -0.283 N 
ATOM      5  H3  UNL     1      20.082  52.104   8.429  1.00  0.00     0.188 HD
HETATM    6  C6  UNL     1      19.235  50.327   7.633  1.00  0.00     0.139 A 
HETATM    7  N4  UNL     1      19.993  49.332   8.145  1.00  0.00    -0.337 N 
ATOM      8  H4  UNL     1      20.785  49.470   8.774  1.00  0.00     0.168 HD
HETATM    9  C7  UNL     1      19.557  48.125   7.708  1.00  0.00     0.183 A 
HETATM   10  N5  UNL     1      18.529  47.808   6.856  1.00  0.00    -0.338 N 
ATOM     11  H5  UNL     1      18.336  46.832   6.632  1.00  0.00     0.168 HD
HETATM   12  C8  UNL     1      17.765  48.798   6.308  1.00  0.00     0.124 A 
HETATM   13  C15 UNL     1      18.150  50.067   6.756  1.00  0.00     0.099 A 
HETATM   14  H4  UNL     1      15.646  51.044   5.854  1.00  0.00     0.167 HD
HETATM   15  H5  UNL     1      18.237  53.191   7.213  1.00  0.00     0.188 HD
ENDROOT
BRANCH   1  16
HETATM   16  C4  UNL     1      16.173  52.913   5.235  1.00  0.00     0.033 A 
HETATM   17  C3  UNL     1      14.849  53.375   5.244  1.00  0.00     0.032 A 
HETATM   18  C2  UNL     1      14.527  54.636   4.733  1.00  0.00     0.039 A 
HETATM   19  C1  UNL     1      15.529  55.443   4.212  1.00  0.00     0.065 A 
HETATM   20  C17 UNL     1      16.849  55.011   4.191  1.00  0.00     0.039 A 
HETATM   21  C16 UNL     1      17.167  53.750   4.707  1.00  0.00     0.032 A 
BRANCH  19  22
HETATM   22  O1  UNL     1      15.170  56.663   3.723  1.00  0.00    -0.361 OA
HETATM   23  H1  UNL     1      15.962  57.109   3.379  1.00  0.00     0.217 HD
ENDBRANCH  19  22
ENDBRANCH   1  16
BRANCH  12  24
HETATM   24  N6  UNL     1      16.759  48.575   5.360  1.00  0.00    -0.342 N 
HETATM   25  H7  UNL     1      16.377  49.449   5.018  1.00  0.00     0.167 HD
BRANCH  24  26
HETATM   26  C9  UNL     1      16.469  47.460   4.553  1.00  0.00     0.035 A 
HETATM   27  C10 UNL     1      15.611  47.508   3.448  1.00  0.00     0.029 A 
HETATM   28  C11 UNL     1      15.382  46.377   2.656  1.00  0.00     0.004 A 
HETATM   29  C12 UNL     1      16.021  45.177   2.950  1.00  0.00     0.024 A 
HETATM   30  C13 UNL     1      16.892  45.118   4.032  1.00  0.00     0.036 A 
HETATM   31 CL1  UNL     1      17.699  43.642   4.399  1.00  0.00    -0.084 Cl
HETATM   32  C14 UNL     1      17.121  46.245   4.824  1.00  0.00     0.053 A 
ENDBRANCH  24  26
ENDBRANCH  12  24
TORSDOF 4
ENDMDL
MODEL 8
REMARK minimizedAffinity -7.22959757
REMARK  4 active torsions:
REMARK  status: ('A' for Active; 'I' for Inactive)
REMARK    1  A    between atoms: O1_1  and  C1_2 
REMARK    2  A    between atoms: C4_5  and  N1_6 
REMARK    3  A    between atoms: C8_17  and  N6_18 
REMARK    4  A    between atoms: N6_18  and  C9_19 
ROOT
HETATM    1  N1  UNL     1      14.852  57.348   4.049  1.00  0.00    -0.341 N 
HETATM    2  C5  UNL     1      14.040  58.214   4.709  1.00  0.00     0.138 A 
HETATM    3  N2  UNL     1      13.756  58.096   6.051  1.00  0.00    -0.283 N 
HETATM    4  N3  UNL     1      13.031  59.109   6.565  1.00  0.00    -0.283 N 
ATOM      5  H3  UNL     1      12.703  59.228   7.524  1.00  0.00     0.188 HD
HETATM    6  C6  UNL     1      12.845  59.920   5.521  1.00  0.00     0.139 A 
HETATM    7  N4  UNL     1      12.190  61.103   5.525  1.00  0.00    -0.337 N 
ATOM      8  H4  UNL     1      11.748  61.519   6.345  1.00  0.00     0.168 HD
HETATM    9  C7  UNL     1      12.202  61.659   4.288  1.00  0.00     0.183 A 
HETATM   10  N5  UNL     1      12.738  61.199   3.112  1.00  0.00    -0.338 N 
ATOM     11  H5  UNL     1      12.655  61.755   2.262  1.00  0.00     0.168 HD
HETATM   12  C8  UNL     1      13.384  59.996   3.080  1.00  0.00     0.124 A 
HETATM   13  C15 UNL     1      13.433  59.392   4.342  1.00  0.00     0.099 A 
HETATM   14  H4  UNL     1      15.506  57.725   3.363  1.00  0.00     0.167 HD
HETATM   15  H5  UNL     1      14.076  57.367   6.679  1.00  0.00     0.188 HD
ENDROOT
BRANCH   1  16
HETATM   16  C4  UNL     1      15.110  56.000   4.374  1.00  0.00     0.033 A 
HETATM   17  C3  UNL     1      16.437  55.546   4.398  1.00  0.00     0.032 A 
HETATM   18  C2  UNL     1      16.737  54.229   4.754  1.00  0.00     0.039 A 
HETATM   19  C1  UNL     1      15.712  53.357   5.092  1.00  0.00     0.065 A 
HETATM   20  C17 UNL     1      14.389  53.779   5.078  1.00  0.00     0.039 A 
HETATM   21  C16 UNL     1      14.093  55.100   4.723  1.00  0.00     0.032 A 
BRANCH  19  22
HETATM   22  O1  UNL     1      16.050  52.082   5.431  1.00  0.00    -0.361 OA
HETATM   23  H1  UNL     1      15.238  51.583   5.626  1.00  0.00     0.217 HD
ENDBRANCH  19  22
ENDBRANCH   1  16
BRANCH  12  24
HETATM   24  N6  UNL     1      13.879  59.405   1.911  1.00  0.00    -0.342 N 
HETATM   25  H7  UNL     1      14.747  58.914   2.088  1.00  0.00     0.167 HD
BRANCH  24  26
HETATM   26  C9  UNL     1      13.246  59.051   0.706  1.00  0.00     0.035 A 
HETATM   27  C10 UNL     1      12.888  59.977  -0.281  1.00  0.00     0.029 A 
HETATM   28  C11 UNL     1      12.290  59.569  -1.479  1.00  0.00     0.004 A 
HETATM   29  C12 UNL     1      12.050  58.220  -1.715  1.00  0.00     0.024 A 
HETATM   30  C13 UNL     1      12.417  57.285  -0.754  1.00  0.00     0.036 A 
HETATM   31 CL1  UNL     1      12.138  55.610  -1.040  1.00  0.00    -0.084 Cl
HETATM   32  C14 UNL     1      13.014  57.691   0.442  1.00  0.00     0.053 A 
ENDBRANCH  24  26
ENDBRANCH  12  24
TORSDOF 4
ENDMDL
MODEL 9
REMARK minimizedAffinity -7.14902306
REMARK  4 active torsions:
REMARK  status: ('A' for Active; 'I' for Inactive)
REMARK    1  A    between atoms: O1_1  and  C1_2 
REMARK    2  A    between atoms: C4_5  and  N1_6 
REMARK    3  A    between atoms: C8_17  and  N6_18 
REMARK    4  A    between atoms: N6_18  and  C9_19 
ROOT
HETATM    1  N1  UNL     1      17.434  49.115   4.244  1.00  0.00    -0.341 N 
HETATM    2  C5  UNL     1      18.214  49.258   5.347  1.00  0.00     0.138 A 
HETATM    3  N2  UNL     1      19.124  48.306   5.747  1.00  0.00    -0.283 N 
HETATM    4  N3  UNL     1      19.894  48.666   6.793  1.00  0.00    -0.283 N 
ATOM      5  H3  UNL     1      20.623  48.124   7.257  1.00  0.00     0.188 HD
HETATM    6  C6  UNL     1      19.475  49.902   7.077  1.00  0.00     0.139 A 
HETATM    7  N4  UNL     1      19.957  50.715   8.043  1.00  0.00    -0.337 N 
ATOM      8  H4  UNL     1      20.712  50.471   8.685  1.00  0.00     0.168 HD
HETATM    9  C7  UNL     1      19.299  51.901   8.041  1.00  0.00     0.183 A 
HETATM   10  N5  UNL     1      18.267  52.343   7.254  1.00  0.00    -0.338 N 
ATOM     11  H5  UNL     1      17.886  53.279   7.390  1.00  0.00     0.168 HD
HETATM   12  C8  UNL     1      17.748  51.529   6.287  1.00  0.00     0.124 A 
HETATM   13  C15 UNL     1      18.415  50.301   6.221  1.00  0.00     0.099 A 
HETATM   14  H4  UNL     1      17.284  49.929   3.648  1.00  0.00     0.167 HD
HETATM   15  H5  UNL     1      19.298  47.408   5.309  1.00  0.00     0.188 HD
ENDROOT
BRANCH   1  16
HETATM   16  C4  UNL     1      17.010  47.909   3.647  1.00  0.00     0.033 A 
HETATM   17  C3  UNL     1      15.734  47.413   3.947  1.00  0.00     0.032 A 
HETATM   18  C2  UNL     1      15.260  46.243   3.346  1.00  0.00     0.039 A 
HETATM   19  C1  UNL     1      16.061  45.563   2.439  1.00  0.00     0.065 A 
HETATM   20  C17 UNL     1      17.330  46.032   2.123  1.00  0.00     0.039 A 
HETATM   21  C16 UNL     1      17.798  47.205   2.725  1.00  0.00     0.032 A 
BRANCH  19  22
HETATM   22  O1  UNL     1      15.561  44.427   1.879  1.00  0.00    -0.361 OA
HETATM   23  H1  UNL     1      16.229  44.050   1.281  1.00  0.00     0.217 HD
ENDBRANCH  19  22
ENDBRANCH   1  16
BRANCH  12  24
HETATM   24  N6  UNL     1      16.636  51.859   5.502  1.00  0.00    -0.342 N 
HETATM   25  H7  UNL     1      15.975  51.092   5.463  1.00  0.00     0.167 HD
BRANCH  24  26
HETATM   26  C9  UNL     1      16.107  53.102   5.110  1.00  0.00     0.035 A 
HETATM   27  C10 UNL     1      14.758  53.448   5.254  1.00  0.00     0.029 A 
HETATM   28  C11 UNL     1      14.289  54.711   4.878  1.00  0.00     0.004 A 
HETATM   29  C12 UNL     1      15.167  55.658   4.362  1.00  0.00     0.024 A 
HETATM   30  C13 UNL     1      16.513  55.337   4.231  1.00  0.00     0.036 A 
HETATM   31 CL1  UNL     1      17.613  56.505   3.605  1.00  0.00    -0.084 Cl
HETATM   32  C14 UNL     1      16.983  54.077   4.605  1.00  0.00     0.053 A 
ENDBRANCH  24  26
ENDBRANCH  12  24
TORSDOF 4
ENDMDL
