MODEL 1
REMARK minimizedAffinity -9.62808418
REMARK  3 active torsions:
REMARK  status: ('A' for Active; 'I' for Inactive)
REMARK    1  A    between atoms: C3_4  and  C4_5 
REMARK    2  A    between atoms: C13_17  and  N2_18 
REMARK    3  A    between atoms: N2_18  and  C14_19 
ROOT
HETATM    1  F1  UNL     1      -0.598  50.821 -19.178  1.00  0.00    -0.204 F 
HETATM    2  C1  UNL     1      -0.016  51.766 -19.933  1.00  0.00     0.143 A 
HETATM    3  C2  UNL     1      -0.076  51.650 -21.320  1.00  0.00     0.059 A 
HETATM    4  C3  UNL     1       0.511  52.622 -22.145  1.00  0.00     0.001 A 
HETATM    5  C11 UNL     1       1.142  53.710 -21.520  1.00  0.00     0.017 A 
HETATM    6  C12 UNL     1       1.197  53.816 -20.121  1.00  0.00     0.034 A 
HETATM    7  C13 UNL     1       0.641  52.831 -19.303  1.00  0.00     0.072 A 
ENDROOT
BRANCH   7   8
HETATM    8  N2  UNL     1       0.612  52.920 -17.892  1.00  0.00    -0.339 N 
HETATM    9  H8  UNL     1      -0.290  52.601 -17.543  1.00  0.00     0.167 HD
BRANCH   8  10
HETATM   10  C14 UNL     1       1.631  52.574 -16.967  1.00  0.00     0.119 A 
HETATM   11  N3  UNL     1       2.791  53.255 -16.983  1.00  0.00    -0.338 N 
HETATM   12  C15 UNL     1       3.729  52.872 -16.113  1.00  0.00     0.182 A 
ATOM     13  H3  UNL     1       2.948  54.029 -17.631  1.00  0.00     0.168 HD
HETATM   14  N4  UNL     1       3.623  51.880 -15.223  1.00  0.00    -0.351 N 
HETATM   15  C16 UNL     1       2.463  51.217 -15.197  1.00  0.00     0.048 A 
ATOM     16  H4  UNL     1       4.390  51.640 -14.594  1.00  0.00     0.166 HD
HETATM   17  C17 UNL     1       2.315  50.188 -14.277  1.00  0.00     0.054 A 
HETATM   18  C21 UNL     1       1.397  51.522 -16.057  1.00  0.00     0.035 A 
HETATM   19  C18 UNL     1       1.129  49.461 -14.188  1.00  0.00     0.036 A 
HETATM   20 CL1  UNL     1       0.986  48.195 -13.032  1.00  0.00    -0.084 Cl
HETATM   21  C19 UNL     1       0.060  49.756 -15.022  1.00  0.00     0.025 A 
HETATM   22  C20 UNL     1       0.190  50.784 -15.954  1.00  0.00     0.019 A 
ENDBRANCH   8  10
ENDBRANCH   7   8
BRANCH   4  23
HETATM   23  C4  UNL     1       0.421  52.455 -23.612  1.00  0.00     0.085 A 
HETATM   24  N1  UNL     1       1.463  52.188 -24.376  1.00  0.00    -0.349 N 
HETATM   25  C5  UNL     1       1.084  52.092 -25.704  1.00  0.00     0.050 A 
ATOM     26  H1  UNL     1       2.416  52.069 -24.035  1.00  0.00     0.166 HD
HETATM   27  C6  UNL     1       1.939  51.815 -26.790  1.00  0.00     0.031 A 
HETATM   28  C10 UNL     1      -0.272  52.295 -25.953  1.00  0.00     0.033 A 
HETATM   29  C7  UNL     1       1.418  51.747 -28.086  1.00  0.00     0.002 A 
HETATM   30  C8  UNL     1       0.061  51.953 -28.311  1.00  0.00     0.002 A 
HETATM   31  C9  UNL     1      -0.808  52.231 -27.250  1.00  0.00     0.021 A 
HETATM   32  S1  UNL     1      -1.067  52.612 -24.464  1.00  0.00    -0.070 SA
ENDBRANCH   4  23
TORSDOF 3
ENDMDL
MODEL 2
REMARK minimizedAffinity -9.46535206
REMARK  3 active torsions:
REMARK  status: ('A' for Active; 'I' for Inactive)
REMARK    1  A    between atoms: C3_4  and  C4_5 
REMARK    2  A    between atoms: C13_17  and  N2_18 
REMARK    3  A    between atoms: N2_18  and  C14_19 
ROOT
HETATM    1  F1  UNL     1      -3.556  51.335 -19.686  1.00  0.00    -0.204 F 
HETATM    2  C1  UNL     1      -3.024  50.354 -20.433  1.00  0.00     0.143 A 
HETATM    3  C2  UNL     1      -3.623  50.036 -21.649  1.00  0.00     0.059 A 
HETATM    4  C3  UNL     1      -3.092  49.024 -22.464  1.00  0.00     0.001 A 
HETATM    5  C11 UNL     1      -1.938  48.363 -22.012  1.00  0.00     0.017 A 
HETATM    6  C12 UNL     1      -1.343  48.693 -20.783  1.00  0.00     0.034 A 
HETATM    7  C13 UNL     1      -1.892  49.677 -19.960  1.00  0.00     0.072 A 
ENDROOT
BRANCH   7   8
HETATM    8  N2  UNL     1      -1.299  50.091 -18.745  1.00  0.00    -0.339 N 
HETATM    9  H8  UNL     1      -1.068  49.277 -18.177  1.00  0.00     0.167 HD
BRANCH   8  10
HETATM   10  C14 UNL     1      -0.329  51.107 -18.540  1.00  0.00     0.119 A 
HETATM   11  N3  UNL     1       0.188  51.282 -17.310  1.00  0.00    -0.338 N 
HETATM   12  C15 UNL     1       1.075  52.270 -17.164  1.00  0.00     0.182 A 
ATOM     13  H3  UNL     1      -0.084  50.689 -16.526  1.00  0.00     0.168 HD
HETATM   14  N4  UNL     1       1.502  53.098 -18.124  1.00  0.00    -0.351 N 
HETATM   15  C16 UNL     1       0.999  52.910 -19.347  1.00  0.00     0.048 A 
ATOM     16  H4  UNL     1       2.178  53.837 -17.931  1.00  0.00     0.166 HD
HETATM   17  C17 UNL     1       1.430  53.744 -20.369  1.00  0.00     0.054 A 
HETATM   18  C21 UNL     1       0.062  51.906 -19.634  1.00  0.00     0.035 A 
HETATM   19  C18 UNL     1       0.956  53.598 -21.672  1.00  0.00     0.036 A 
HETATM   20 CL1  UNL     1       1.517  54.652 -22.910  1.00  0.00    -0.084 Cl
HETATM   21  C19 UNL     1       0.037  52.604 -21.978  1.00  0.00     0.025 A 
HETATM   22  C20 UNL     1      -0.409  51.758 -20.965  1.00  0.00     0.019 A 
ENDBRANCH   8  10
ENDBRANCH   7   8
BRANCH   4  23
HETATM   23  C4  UNL     1      -3.763  48.722 -23.747  1.00  0.00     0.085 A 
HETATM   24  N1  UNL     1      -3.152  48.777 -24.915  1.00  0.00    -0.349 N 
HETATM   25  C5  UNL     1      -4.023  48.451 -25.940  1.00  0.00     0.050 A 
ATOM     26  H1  UNL     1      -2.172  49.027 -25.046  1.00  0.00     0.166 HD
HETATM   27  C6  UNL     1      -3.706  48.407 -27.312  1.00  0.00     0.031 A 
HETATM   28  C10 UNL     1      -5.324  48.146 -25.541  1.00  0.00     0.033 A 
HETATM   29  C7  UNL     1      -4.691  48.059 -28.243  1.00  0.00     0.002 A 
HETATM   30  C8  UNL     1      -5.983  47.759 -27.822  1.00  0.00     0.002 A 
HETATM   31  C9  UNL     1      -6.322  47.796 -26.466  1.00  0.00     0.021 A 
HETATM   32  S1  UNL     1      -5.425  48.280 -23.832  1.00  0.00    -0.070 SA
ENDBRANCH   4  23
TORSDOF 3
ENDMDL
MODEL 3
REMARK minimizedAffinity -9.36796093
REMARK  3 active torsions:
REMARK  status: ('A' for Active; 'I' for Inactive)
REMARK    1  A    between atoms: C3_4  and  C4_5 
REMARK    2  A    between atoms: C13_17  and  N2_18 
REMARK    3  A    between atoms: N2_18  and  C14_19 
ROOT
HETATM    1  F1  UNL     1      -2.622  50.388 -28.134  1.00  0.00    -0.204 F 
HETATM    2  C1  UNL     1      -2.633  49.986 -26.853  1.00  0.00     0.143 A 
HETATM    3  C2  UNL     1      -1.923  50.725 -25.910  1.00  0.00     0.059 A 
HETATM    4  C3  UNL     1      -1.916  50.344 -24.559  1.00  0.00     0.001 A 
HETATM    5  C11 UNL     1      -2.658  49.205 -24.202  1.00  0.00     0.017 A 
HETATM    6  C12 UNL     1      -3.370  48.468 -25.161  1.00  0.00     0.034 A 
HETATM    7  C13 UNL     1      -3.348  48.831 -26.509  1.00  0.00     0.072 A 
ENDROOT
BRANCH   7   8
HETATM    8  N2  UNL     1      -4.096  48.161 -27.505  1.00  0.00    -0.339 N 
HETATM    9  H8  UNL     1      -3.652  47.274 -27.734  1.00  0.00     0.167 HD
BRANCH   8  10
HETATM   10  C14 UNL     1      -5.506  48.032 -27.609  1.00  0.00     0.119 A 
HETATM   11  N3  UNL     1      -6.236  47.886 -26.489  1.00  0.00    -0.338 N 
HETATM   12  C15 UNL     1      -7.555  47.739 -26.644  1.00  0.00     0.182 A 
ATOM     13  H3  UNL     1      -5.803  47.887 -25.565  1.00  0.00     0.168 HD
HETATM   14  N4  UNL     1      -8.218  47.728 -27.804  1.00  0.00    -0.351 N 
HETATM   15  C16 UNL     1      -7.492  47.891 -28.914  1.00  0.00     0.048 A 
ATOM     16  H4  UNL     1      -9.230  47.602 -27.841  1.00  0.00     0.166 HD
HETATM   17  C17 UNL     1      -8.151  47.897 -30.135  1.00  0.00     0.054 A 
HETATM   18  C21 UNL     1      -6.099  48.058 -28.889  1.00  0.00     0.035 A 
HETATM   19  C18 UNL     1      -7.458  48.072 -31.331  1.00  0.00     0.036 A 
HETATM   20 CL1  UNL     1      -8.314  48.075 -32.824  1.00  0.00    -0.084 Cl
HETATM   21  C19 UNL     1      -6.081  48.250 -31.326  1.00  0.00     0.025 A 
HETATM   22  C20 UNL     1      -5.401  48.245 -30.110  1.00  0.00     0.019 A 
ENDBRANCH   8  10
ENDBRANCH   7   8
BRANCH   4  23
HETATM   23  C4  UNL     1      -1.148  51.160 -23.595  1.00  0.00     0.085 A 
HETATM   24  N1  UNL     1      -1.209  50.988 -22.288  1.00  0.00    -0.349 N 
HETATM   25  C5  UNL     1      -0.391  51.894 -21.636  1.00  0.00     0.050 A 
ATOM     26  H1  UNL     1      -1.781  50.284 -21.823  1.00  0.00     0.166 HD
HETATM   27  C6  UNL     1      -0.213  51.992 -20.241  1.00  0.00     0.031 A 
HETATM   28  C10 UNL     1       0.302  52.775 -22.465  1.00  0.00     0.033 A 
HETATM   29  C7  UNL     1       0.649  52.960 -19.717  1.00  0.00     0.002 A 
HETATM   30  C8  UNL     1       1.331  53.829 -20.563  1.00  0.00     0.002 A 
HETATM   31  C9  UNL     1       1.170  53.753 -21.950  1.00  0.00     0.021 A 
HETATM   32  S1  UNL     1      -0.103  52.433 -24.099  1.00  0.00    -0.070 SA
ENDBRANCH   4  23
TORSDOF 3
ENDMDL
MODEL 4
REMARK minimizedAffinity -9.30612183
REMARK  3 active torsions:
REMARK  status: ('A' for Active; 'I' for Inactive)
REMARK    1  A    between atoms: C3_4  and  C4_5 
REMARK    2  A    between atoms: C13_17  and  N2_18 
REMARK    3  A    between atoms: N2_18  and  C14_19 
ROOT
HETATM    1  F1  UNL     1      -3.569  48.164 -24.318  1.00  0.00    -0.204 F 
HETATM    2  C1  UNL     1      -3.548  48.679 -25.558  1.00  0.00     0.143 A 
HETATM    3  C2  UNL     1      -4.483  48.231 -26.488  1.00  0.00     0.059 A 
HETATM    4  C3  UNL     1      -4.500  48.750 -27.791  1.00  0.00     0.001 A 
HETATM    5  C11 UNL     1      -3.554  49.738 -28.110  1.00  0.00     0.017 A 
HETATM    6  C12 UNL     1      -2.616  50.182 -27.164  1.00  0.00     0.034 A 
HETATM    7  C13 UNL     1      -2.580  49.641 -25.878  1.00  0.00     0.072 A 
ENDROOT
BRANCH   7   8
HETATM    8  N2  UNL     1      -1.700  50.095 -24.869  1.00  0.00    -0.339 N 
HETATM    9  H8  UNL     1      -1.252  49.300 -24.417  1.00  0.00     0.167 HD
BRANCH   8  10
HETATM   10  C14 UNL     1      -0.797  51.189 -24.916  1.00  0.00     0.119 A 
HETATM   11  N3  UNL     1      -0.354  51.625 -26.109  1.00  0.00    -0.338 N 
HETATM   12  C15 UNL     1       0.516  52.638 -26.097  1.00  0.00     0.182 A 
ATOM     13  H3  UNL     1      -0.668  51.201 -26.983  1.00  0.00     0.168 HD
HETATM   14  N4  UNL     1       0.984  53.264 -25.012  1.00  0.00    -0.351 N 
HETATM   15  C16 UNL     1       0.529  52.841 -23.830  1.00  0.00     0.048 A 
ATOM     16  H4  UNL     1       1.657  54.028 -25.085  1.00  0.00     0.166 HD
HETATM   17  C17 UNL     1       0.986  53.477 -22.684  1.00  0.00     0.054 A 
HETATM   18  C21 UNL     1      -0.389  51.787 -23.705  1.00  0.00     0.035 A 
HETATM   19  C18 UNL     1       0.546  53.095 -21.418  1.00  0.00     0.036 A 
HETATM   20 CL1  UNL     1       1.136  53.912 -20.024  1.00  0.00    -0.084 Cl
HETATM   21  C19 UNL     1      -0.371  52.062 -21.276  1.00  0.00     0.025 A 
HETATM   22  C20 UNL     1      -0.840  51.410 -22.414  1.00  0.00     0.019 A 
ENDBRANCH   8  10
ENDBRANCH   7   8
BRANCH   4  23
HETATM   23  C4  UNL     1      -5.512  48.242 -28.743  1.00  0.00     0.085 A 
HETATM   24  N1  UNL     1      -5.541  48.580 -30.019  1.00  0.00    -0.349 N 
HETATM   25  C5  UNL     1      -6.596  47.960 -30.666  1.00  0.00     0.050 A 
ATOM     26  H1  UNL     1      -4.877  49.210 -30.466  1.00  0.00     0.166 HD
HETATM   27  C6  UNL     1      -6.922  48.093 -32.030  1.00  0.00     0.031 A 
HETATM   28  C10 UNL     1      -7.386  47.139 -29.863  1.00  0.00     0.033 A 
HETATM   29  C7  UNL     1      -8.022  47.405 -32.553  1.00  0.00     0.002 A 
HETATM   30  C8  UNL     1      -8.797  46.591 -31.733  1.00  0.00     0.002 A 
HETATM   31  C9  UNL     1      -8.494  46.444 -30.376  1.00  0.00     0.021 A 
HETATM   32  S1  UNL     1      -6.766  47.165 -28.262  1.00  0.00    -0.070 SA
ENDBRANCH   4  23
TORSDOF 3
ENDMDL
MODEL 5
REMARK minimizedAffinity -9.18631744
REMARK  3 active torsions:
REMARK  status: ('A' for Active; 'I' for Inactive)
REMARK    1  A    between atoms: C3_4  and  C4_5 
REMARK    2  A    between atoms: C13_17  and  N2_18 
REMARK    3  A    between atoms: N2_18  and  C14_19 
ROOT
HETATM    1  F1  UNL     1      -0.453  50.050 -19.151  1.00  0.00    -0.204 F 
HETATM    2  C1  UNL     1      -0.079  51.176 -19.779  1.00  0.00     0.143 A 
HETATM    3  C2  UNL     1      -0.164  51.230 -21.169  1.00  0.00     0.059 A 
HETATM    4  C3  UNL     1       0.208  52.391 -21.863  1.00  0.00     0.001 A 
HETATM    5  C11 UNL     1       0.651  53.488 -21.105  1.00  0.00     0.017 A 
HETATM    6  C12 UNL     1       0.732  53.422 -19.704  1.00  0.00     0.034 A 
HETATM    7  C13 UNL     1       0.393  52.254 -19.019  1.00  0.00     0.072 A 
ENDROOT
BRANCH   7   8
HETATM    8  N2  UNL     1       0.396  52.154 -17.608  1.00  0.00    -0.339 N 
HETATM    9  H8  UNL     1      -0.261  51.435 -17.311  1.00  0.00     0.167 HD
BRANCH   8  10
HETATM   10  C14 UNL     1       1.508  52.180 -16.726  1.00  0.00     0.119 A 
HETATM   11  N3  UNL     1       2.504  53.055 -16.951  1.00  0.00    -0.338 N 
HETATM   12  C15 UNL     1       3.541  53.019 -16.109  1.00  0.00     0.182 A 
ATOM     13  H3  UNL     1       2.470  53.715 -17.728  1.00  0.00     0.168 HD
HETATM   14  N4  UNL     1       3.680  52.200 -15.062  1.00  0.00    -0.351 N 
HETATM   15  C16 UNL     1       2.680  51.344 -14.831  1.00  0.00     0.048 A 
ATOM     16  H4  UNL     1       4.509  52.227 -14.468  1.00  0.00     0.166 HD
HETATM   17  C17 UNL     1       2.787  50.487 -13.744  1.00  0.00     0.054 A 
HETATM   18  C21 UNL     1       1.535  51.282 -15.639  1.00  0.00     0.035 A 
HETATM   19  C18 UNL     1       1.778  49.576 -13.438  1.00  0.00     0.036 A 
HETATM   20 CL1  UNL     1       1.949  48.534 -12.080  1.00  0.00    -0.084 Cl
HETATM   21  C19 UNL     1       0.632  49.508 -14.219  1.00  0.00     0.025 A 
HETATM   22  C20 UNL     1       0.508  50.358 -15.315  1.00  0.00     0.019 A 
ENDBRANCH   8  10
ENDBRANCH   7   8
BRANCH   4  23
HETATM   23  C4  UNL     1       0.101  52.401 -23.338  1.00  0.00     0.085 A 
HETATM   24  N1  UNL     1      -0.400  51.398 -24.035  1.00  0.00    -0.349 N 
HETATM   25  C5  UNL     1      -0.370  51.681 -25.389  1.00  0.00     0.050 A 
ATOM     26  H1  UNL     1      -0.759  50.534 -23.631  1.00  0.00     0.166 HD
HETATM   27  C6  UNL     1      -0.827  50.835 -26.420  1.00  0.00     0.031 A 
HETATM   28  C10 UNL     1       0.168  52.921 -25.727  1.00  0.00     0.033 A 
HETATM   29  C7  UNL     1      -0.735  51.251 -27.753  1.00  0.00     0.002 A 
HETATM   30  C8  UNL     1      -0.194  52.494 -28.067  1.00  0.00     0.002 A 
HETATM   31  C9  UNL     1       0.266  53.350 -27.062  1.00  0.00     0.021 A 
HETATM   32  S1  UNL     1       0.640  53.732 -24.288  1.00  0.00    -0.070 SA
ENDBRANCH   4  23
TORSDOF 3
ENDMDL
MODEL 6
REMARK minimizedAffinity -9.10777283
REMARK  3 active torsions:
REMARK  status: ('A' for Active; 'I' for Inactive)
REMARK    1  A    between atoms: C3_4  and  C4_5 
REMARK    2  A    between atoms: C13_17  and  N2_18 
REMARK    3  A    between atoms: N2_18  and  C14_19 
ROOT
HETATM    1  F1  UNL     1      -1.981  51.423 -27.732  1.00  0.00    -0.204 F 
HETATM    2  C1  UNL     1      -2.724  50.321 -27.535  1.00  0.00     0.143 A 
HETATM    3  C2  UNL     1      -3.721  50.009 -28.456  1.00  0.00     0.059 A 
HETATM    4  C3  UNL     1      -4.512  48.863 -28.292  1.00  0.00     0.001 A 
HETATM    5  C11 UNL     1      -4.251  48.046 -27.179  1.00  0.00     0.017 A 
HETATM    6  C12 UNL     1      -3.243  48.371 -26.257  1.00  0.00     0.034 A 
HETATM    7  C13 UNL     1      -2.479  49.530 -26.405  1.00  0.00     0.072 A 
ENDROOT
BRANCH   7   8
HETATM    8  N2  UNL     1      -1.412  49.871 -25.542  1.00  0.00    -0.339 N 
HETATM    9  H8  UNL     1      -0.911  49.030 -25.261  1.00  0.00     0.167 HD
BRANCH   8  10
HETATM   10  C14 UNL     1      -0.502  50.954 -25.654  1.00  0.00     0.119 A 
HETATM   11  N3  UNL     1       0.046  51.231 -26.851  1.00  0.00    -0.338 N 
HETATM   12  C15 UNL     1       0.919  52.241 -26.896  1.00  0.00     0.182 A 
ATOM     13  H3  UNL     1      -0.193  50.695 -27.685  1.00  0.00     0.168 HD
HETATM   14  N4  UNL     1       1.295  53.007 -25.866  1.00  0.00    -0.351 N 
HETATM   15  C16 UNL     1       0.736  52.741 -24.683  1.00  0.00     0.048 A 
ATOM     16  H4  UNL     1       1.977  53.758 -25.980  1.00  0.00     0.166 HD
HETATM   17  C17 UNL     1       1.096  53.524 -23.595  1.00  0.00     0.054 A 
HETATM   18  C21 UNL     1      -0.196  51.708 -24.501  1.00  0.00     0.035 A 
HETATM   19  C18 UNL     1       0.546  53.309 -22.333  1.00  0.00     0.036 A 
HETATM   20 CL1  UNL     1       1.018  54.305 -21.012  1.00  0.00    -0.084 Cl
HETATM   21  C19 UNL     1      -0.387  52.299 -22.136  1.00  0.00     0.025 A 
HETATM   22  C20 UNL     1      -0.759  51.501 -23.215  1.00  0.00     0.019 A 
ENDBRANCH   8  10
ENDBRANCH   7   8
BRANCH   4  23
HETATM   23  C4  UNL     1      -5.558  48.573 -29.296  1.00  0.00     0.085 A 
HETATM   24  N1  UNL     1      -6.831  48.407 -28.991  1.00  0.00    -0.349 N 
HETATM   25  C5  UNL     1      -7.578  48.144 -30.126  1.00  0.00     0.050 A 
ATOM     26  H1  UNL     1      -7.213  48.466 -28.047  1.00  0.00     0.166 HD
HETATM   27  C6  UNL     1      -8.968  47.918 -30.167  1.00  0.00     0.031 A 
HETATM   28  C10 UNL     1      -6.855  48.104 -31.317  1.00  0.00     0.033 A 
HETATM   29  C7  UNL     1      -9.595  47.663 -31.391  1.00  0.00     0.002 A 
HETATM   30  C8  UNL     1      -8.854  47.627 -32.568  1.00  0.00     0.002 A 
HETATM   31  C9  UNL     1      -7.473  47.847 -32.553  1.00  0.00     0.021 A 
HETATM   32  S1  UNL     1      -5.201  48.409 -30.973  1.00  0.00    -0.070 SA
ENDBRANCH   4  23
TORSDOF 3
ENDMDL
MODEL 7
REMARK minimizedAffinity -9.10129261
REMARK  3 active torsions:
REMARK  status: ('A' for Active; 'I' for Inactive)
REMARK    1  A    between atoms: C3_4  and  C4_5 
REMARK    2  A    between atoms: C13_17  and  N2_18 
REMARK    3  A    between atoms: N2_18  and  C14_19 
ROOT
HETATM    1  F1  UNL     1       1.989  54.265 -19.770  1.00  0.00    -0.204 F 
HETATM    2  C1  UNL     1       1.138  53.382 -20.318  1.00  0.00     0.143 A 
HETATM    3  C2  UNL     1       1.076  53.282 -21.706  1.00  0.00     0.059 A 
HETATM    4  C3  UNL     1       0.207  52.366 -22.318  1.00  0.00     0.001 A 
HETATM    5  C11 UNL     1      -0.577  51.555 -21.481  1.00  0.00     0.017 A 
HETATM    6  C12 UNL     1      -0.505  51.664 -20.083  1.00  0.00     0.034 A 
HETATM    7  C13 UNL     1       0.335  52.599 -19.478  1.00  0.00     0.072 A 
ENDROOT
BRANCH   7   8
HETATM    8  N2  UNL     1       0.493  52.708 -18.077  1.00  0.00    -0.339 N 
HETATM    9  H8  UNL     1       0.118  53.599 -17.755  1.00  0.00     0.167 HD
BRANCH   8  10
HETATM   10  C14 UNL     1       0.279  51.714 -17.087  1.00  0.00     0.119 A 
HETATM   11  N3  UNL     1      -0.899  51.066 -17.051  1.00  0.00    -0.338 N 
HETATM   12  C15 UNL     1      -1.061  50.161 -16.082  1.00  0.00     0.182 A 
ATOM     13  H3  UNL     1      -1.635  51.257 -17.732  1.00  0.00     0.168 HD
HETATM   14  N4  UNL     1      -0.162  49.833 -15.148  1.00  0.00    -0.351 N 
HETATM   15  C16 UNL     1       1.013  50.466 -15.197  1.00  0.00     0.048 A 
ATOM     16  H4  UNL     1      -0.364  49.134 -14.433  1.00  0.00     0.166 HD
HETATM   17  C17 UNL     1       1.974  50.142 -14.249  1.00  0.00     0.054 A 
HETATM   18  C21 UNL     1       1.311  51.437 -16.166  1.00  0.00     0.035 A 
HETATM   19  C18 UNL     1       3.226  50.755 -14.247  1.00  0.00     0.036 A 
HETATM   20 CL1  UNL     1       4.388  50.322 -13.055  1.00  0.00    -0.084 Cl
HETATM   21  C19 UNL     1       3.542  51.709 -15.204  1.00  0.00     0.025 A 
HETATM   22  C20 UNL     1       2.590  52.050 -16.162  1.00  0.00     0.019 A 
ENDBRANCH   8  10
ENDBRANCH   7   8
BRANCH   4  23
HETATM   23  C4  UNL     1       0.176  52.296 -23.795  1.00  0.00     0.085 A 
HETATM   24  N1  UNL     1       1.239  52.034 -24.531  1.00  0.00    -0.349 N 
HETATM   25  C5  UNL     1       0.916  52.038 -25.877  1.00  0.00     0.050 A 
ATOM     26  H1  UNL     1       2.171  51.854 -24.160  1.00  0.00     0.166 HD
HETATM   27  C6  UNL     1       1.807  51.795 -26.942  1.00  0.00     0.031 A 
HETATM   28  C10 UNL     1      -0.419  52.313 -26.168  1.00  0.00     0.033 A 
HETATM   29  C7  UNL     1       1.341  51.831 -28.261  1.00  0.00     0.002 A 
HETATM   30  C8  UNL     1       0.005  52.108 -28.528  1.00  0.00     0.002 A 
HETATM   31  C9  UNL     1      -0.898  52.354 -27.489  1.00  0.00     0.021 A 
HETATM   32  S1  UNL     1      -1.266  52.569 -24.696  1.00  0.00    -0.070 SA
ENDBRANCH   4  23
TORSDOF 3
ENDMDL
MODEL 8
REMARK minimizedAffinity -9.0687952
REMARK  3 active torsions:
REMARK  status: ('A' for Active; 'I' for Inactive)
REMARK    1  A    between atoms: C3_4  and  C4_5 
REMARK    2  A    between atoms: C13_17  and  N2_18 
REMARK    3  A    between atoms: N2_18  and  C14_19 
ROOT
HETATM    1  F1  UNL     1      -6.431  47.746 -25.414  1.00  0.00    -0.204 F 
HETATM    2  C1  UNL     1      -5.260  48.234 -25.852  1.00  0.00     0.143 A 
HETATM    3  C2  UNL     1      -4.403  48.846 -24.940  1.00  0.00     0.059 A 
HETATM    4  C3  UNL     1      -3.165  49.360 -25.356  1.00  0.00     0.001 A 
HETATM    5  C11 UNL     1      -2.827  49.222 -26.712  1.00  0.00     0.017 A 
HETATM    6  C12 UNL     1      -3.698  48.603 -27.622  1.00  0.00     0.034 A 
HETATM    7  C13 UNL     1      -4.943  48.122 -27.212  1.00  0.00     0.072 A 
ENDROOT
BRANCH   7   8
HETATM    8  N2  UNL     1      -5.831  47.436 -28.073  1.00  0.00    -0.339 N 
HETATM    9  H8  UNL     1      -6.096  46.544 -27.657  1.00  0.00     0.167 HD
BRANCH   8  10
HETATM   10  C14 UNL     1      -6.922  47.961 -28.812  1.00  0.00     0.119 A 
HETATM   11  N3  UNL     1      -7.925  48.573 -28.157  1.00  0.00    -0.338 N 
HETATM   12  C15 UNL     1      -8.942  49.024 -28.896  1.00  0.00     0.182 A 
ATOM     13  H3  UNL     1      -7.910  48.688 -27.143  1.00  0.00     0.168 HD
HETATM   14  N4  UNL     1      -9.056  48.930 -30.225  1.00  0.00    -0.351 N 
HETATM   15  C16 UNL     1      -8.051  48.337 -30.874  1.00  0.00     0.048 A 
ATOM     16  H4  UNL     1      -9.872  49.293 -30.719  1.00  0.00     0.166 HD
HETATM   17  C17 UNL     1      -8.131  48.233 -32.256  1.00  0.00     0.054 A 
HETATM   18  C21 UNL     1      -6.923  47.822 -30.216  1.00  0.00     0.035 A 
HETATM   19  C18 UNL     1      -7.114  47.636 -32.999  1.00  0.00     0.036 A 
HETATM   20 CL1  UNL     1      -7.253  47.529 -34.710  1.00  0.00    -0.084 Cl
HETATM   21  C19 UNL     1      -5.986  47.131 -32.366  1.00  0.00     0.025 A 
HETATM   22  C20 UNL     1      -5.888  47.224 -30.979  1.00  0.00     0.019 A 
ENDBRANCH   8  10
ENDBRANCH   7   8
BRANCH   4  23
HETATM   23  C4  UNL     1      -2.290  50.001 -24.351  1.00  0.00     0.085 A 
HETATM   24  N1  UNL     1      -1.499  51.022 -24.623  1.00  0.00    -0.349 N 
HETATM   25  C5  UNL     1      -0.795  51.410 -23.497  1.00  0.00     0.050 A 
ATOM     26  H1  UNL     1      -1.419  51.464 -25.538  1.00  0.00     0.166 HD
HETATM   27  C6  UNL     1       0.135  52.466 -23.427  1.00  0.00     0.031 A 
HETATM   28  C10 UNL     1      -1.052  50.665 -22.347  1.00  0.00     0.033 A 
HETATM   29  C7  UNL     1       0.777  52.749 -22.217  1.00  0.00     0.002 A 
HETATM   30  C8  UNL     1       0.505  51.992 -21.082  1.00  0.00     0.002 A 
HETATM   31  C9  UNL     1      -0.413  50.938 -21.126  1.00  0.00     0.021 A 
HETATM   32  S1  UNL     1      -2.212  49.454 -22.719  1.00  0.00    -0.070 SA
ENDBRANCH   4  23
TORSDOF 3
ENDMDL
MODEL 9
REMARK minimizedAffinity -9.015275
REMARK  3 active torsions:
REMARK  status: ('A' for Active; 'I' for Inactive)
REMARK    1  A    between atoms: C3_4  and  C4_5 
REMARK    2  A    between atoms: C13_17  and  N2_18 
REMARK    3  A    between atoms: N2_18  and  C14_19 
ROOT
HETATM    1  F1  UNL     1      -3.735  51.645 -20.262  1.00  0.00    -0.204 F 
HETATM    2  C1  UNL     1      -3.241  50.594 -20.937  1.00  0.00     0.143 A 
HETATM    3  C2  UNL     1      -3.845  50.221 -22.136  1.00  0.00     0.059 A 
HETATM    4  C3  UNL     1      -3.354  49.136 -22.877  1.00  0.00     0.001 A 
HETATM    5  C11 UNL     1      -2.233  48.457 -22.370  1.00  0.00     0.017 A 
HETATM    6  C12 UNL     1      -1.633  48.842 -21.160  1.00  0.00     0.034 A 
HETATM    7  C13 UNL     1      -2.144  49.902 -20.409  1.00  0.00     0.072 A 
ENDROOT
BRANCH   7   8
HETATM    8  N2  UNL     1      -1.541  50.370 -19.219  1.00  0.00    -0.339 N 
HETATM    9  H8  UNL     1      -1.293  49.582 -18.623  1.00  0.00     0.167 HD
BRANCH   8  10
HETATM   10  C14 UNL     1      -0.583  51.406 -19.065  1.00  0.00     0.119 A 
HETATM   11  N3  UNL     1      -0.468  52.342 -20.025  1.00  0.00    -0.338 N 
HETATM   12  C15 UNL     1       0.468  53.277 -19.846  1.00  0.00     0.182 A 
ATOM     13  H3  UNL     1      -1.067  52.337 -20.851  1.00  0.00     0.168 HD
HETATM   14  N4  UNL     1       1.297  53.376 -18.802  1.00  0.00    -0.351 N 
HETATM   15  C16 UNL     1       1.169  52.456 -17.842  1.00  0.00     0.048 A 
ATOM     16  H4  UNL     1       1.995  54.119 -18.742  1.00  0.00     0.166 HD
HETATM   17  C17 UNL     1       2.006  52.537 -16.739  1.00  0.00     0.054 A 
HETATM   18  C21 UNL     1       0.223  51.421 -17.908  1.00  0.00     0.035 A 
HETATM   19  C18 UNL     1       1.921  51.617 -15.695  1.00  0.00     0.036 A 
HETATM   20 CL1  UNL     1       2.977  51.754 -14.345  1.00  0.00    -0.084 Cl
HETATM   21  C19 UNL     1       0.984  50.593 -15.737  1.00  0.00     0.025 A 
HETATM   22  C20 UNL     1       0.136  50.494 -16.838  1.00  0.00     0.019 A 
ENDBRANCH   8  10
ENDBRANCH   7   8
BRANCH   4  23
HETATM   23  C4  UNL     1      -4.028  48.778 -24.143  1.00  0.00     0.085 A 
HETATM   24  N1  UNL     1      -3.437  48.837 -25.321  1.00  0.00    -0.349 N 
HETATM   25  C5  UNL     1      -4.307  48.451 -26.326  1.00  0.00     0.050 A 
ATOM     26  H1  UNL     1      -2.471  49.128 -25.471  1.00  0.00     0.166 HD
HETATM   27  C6  UNL     1      -4.008  48.394 -27.702  1.00  0.00     0.031 A 
HETATM   28  C10 UNL     1      -5.586  48.095 -25.902  1.00  0.00     0.033 A 
HETATM   29  C7  UNL     1      -4.989  47.983 -28.611  1.00  0.00     0.002 A 
HETATM   30  C8  UNL     1      -6.259  47.633 -28.165  1.00  0.00     0.002 A 
HETATM   31  C9  UNL     1      -6.580  47.682 -26.805  1.00  0.00     0.021 A 
HETATM   32  S1  UNL     1      -5.669  48.259 -24.194  1.00  0.00    -0.070 SA
ENDBRANCH   4  23
TORSDOF 3
ENDMDL
