MODEL 1
REMARK minimizedAffinity -8.38135338
REMARK CNNscore 0.657296121
REMARK CNNaffinity 6.99299383
REMARK  4 active torsions:
REMARK  status: ('A' for Active; 'I' for Inactive)
REMARK    1  A    between atoms: C5_6  and  C6_7 
REMARK    2  A    between atoms: C6_7  and  N1_8 
REMARK    3  A    between atoms: C10_19  and  N6_20 
REMARK    4  A    between atoms: N6_20  and  C11_21 
ROOT
HETATM    1  N1  UNL     1      -0.289  52.125 -22.248  1.00  0.00    -0.370 N 
HETATM    2  C7  UNL     1       0.181  52.520 -21.029  1.00  0.00     0.134 A 
HETATM    3  N2  UNL     1       0.763  53.745 -20.783  1.00  0.00    -0.283 N 
HETATM    4  N3  UNL     1       1.051  53.984 -19.489  1.00  0.00    -0.283 N 
ATOM      5  H3  UNL     1       1.442  54.831 -19.074  1.00  0.00     0.188 HD
HETATM    6  C8  UNL     1       0.702  52.850 -18.877  1.00  0.00     0.138 A 
HETATM    7  N4  UNL     1       0.802  52.582 -17.555  1.00  0.00    -0.337 N 
ATOM      8  H4  UNL     1       1.158  53.233 -16.856  1.00  0.00     0.168 HD
HETATM    9  C9  UNL     1       0.363  51.327 -17.287  1.00  0.00     0.183 A 
HETATM   10  N5  UNL     1      -0.118  50.355 -18.129  1.00  0.00    -0.338 N 
ATOM     11  H5  UNL     1      -0.407  49.452 -17.753  1.00  0.00     0.168 HD
HETATM   12  C10 UNL     1      -0.209  50.599 -19.470  1.00  0.00     0.124 A 
HETATM   13  C17 UNL     1       0.197  51.898 -19.800  1.00  0.00     0.098 A 
HETATM   14  H6  UNL     1      -1.098  51.499 -22.240  1.00  0.00     0.161 HD
HETATM   15  H7  UNL     1       0.958  54.482 -21.449  1.00  0.00     0.188 HD
ENDROOT
BRANCH   1  16
HETATM   16  C6  UNL     1      -0.330  53.019 -23.399  1.00  0.00     0.160 C 
BRANCH  16  17
HETATM   17  C5  UNL     1      -0.101  52.209 -24.651  1.00  0.00    -0.039 A 
HETATM   18  C4  UNL     1      -1.115  51.378 -25.152  1.00  0.00     0.009 A 
HETATM   19  C3  UNL     1      -0.921  50.646 -26.325  1.00  0.00     0.002 A 
HETATM   20  C2  UNL     1       0.288  50.741 -27.014  1.00  0.00     0.024 A 
HETATM   21  C1  UNL     1       1.296  51.571 -26.528  1.00  0.00     0.034 A 
HETATM   22 CL1  UNL     1       2.786  51.694 -27.379  1.00  0.00    -0.084 Cl
HETATM   23  C18 UNL     1       1.107  52.305 -25.356  1.00  0.00     0.032 A 
ENDBRANCH  16  17
ENDBRANCH   1  16
BRANCH  12  24
HETATM   24  N6  UNL     1      -0.598  49.643 -20.417  1.00  0.00    -0.342 N 
HETATM   25  H9  UNL     1       0.116  48.931 -20.521  1.00  0.00     0.167 HD
BRANCH  24  26
HETATM   26  C11 UNL     1      -1.855  49.289 -20.935  1.00  0.00     0.035 A 
HETATM   27  C12 UNL     1      -3.017  49.202 -20.158  1.00  0.00     0.029 A 
HETATM   28  C13 UNL     1      -4.252  48.880 -20.731  1.00  0.00     0.004 A 
HETATM   29  C14 UNL     1      -4.349  48.653 -22.101  1.00  0.00     0.024 A 
HETATM   30  C15 UNL     1      -3.208  48.756 -22.890  1.00  0.00     0.036 A 
HETATM   31 CL2  UNL     1      -3.316  48.491 -24.588  1.00  0.00    -0.084 Cl
HETATM   32  C16 UNL     1      -1.975  49.077 -22.318  1.00  0.00     0.053 A 
ENDBRANCH  24  26
ENDBRANCH  12  24
TORSDOF 4
ENDMDL
MODEL 2
REMARK minimizedAffinity -8.67064953
REMARK CNNscore 0.586063981
REMARK CNNaffinity 6.9092927
REMARK  4 active torsions:
REMARK  status: ('A' for Active; 'I' for Inactive)
REMARK    1  A    between atoms: C5_6  and  C6_7 
REMARK    2  A    between atoms: C6_7  and  N1_8 
REMARK    3  A    between atoms: C10_19  and  N6_20 
REMARK    4  A    between atoms: N6_20  and  C11_21 
ROOT
HETATM    1  N1  UNL     1      -1.646  50.005 -22.387  1.00  0.00    -0.370 N 
HETATM    2  C7  UNL     1      -1.052  50.706 -21.377  1.00  0.00     0.134 A 
HETATM    3  N2  UNL     1      -1.172  50.392 -20.041  1.00  0.00    -0.283 N 
HETATM    4  N3  UNL     1      -0.412  51.137 -19.215  1.00  0.00    -0.283 N 
ATOM      5  H3  UNL     1      -0.311  51.054 -18.203  1.00  0.00     0.188 HD
HETATM    6  C8  UNL     1       0.178  52.010 -20.036  1.00  0.00     0.138 A 
HETATM    7  N4  UNL     1       1.045  52.987 -19.687  1.00  0.00    -0.337 N 
ATOM      8  H4  UNL     1       1.360  53.170 -18.735  1.00  0.00     0.168 HD
HETATM    9  C9  UNL     1       1.437  53.690 -20.778  1.00  0.00     0.183 A 
HETATM   10  N5  UNL     1       1.078  53.558 -22.096  1.00  0.00    -0.338 N 
ATOM     11  H5  UNL     1       1.475  54.183 -22.798  1.00  0.00     0.168 HD
HETATM   12  C10 UNL     1       0.188  52.590 -22.467  1.00  0.00     0.124 A 
HETATM   13  C17 UNL     1      -0.223  51.806 -21.382  1.00  0.00     0.098 A 
HETATM   14  H6  UNL     1      -1.137  49.970 -23.274  1.00  0.00     0.161 HD
HETATM   15  H7  UNL     1      -1.728  49.655 -19.627  1.00  0.00     0.188 HD
ENDROOT
BRANCH   1  16
HETATM   16  C6  UNL     1      -2.378  48.766 -22.155  1.00  0.00     0.160 C 
BRANCH  16  17
HETATM   17  C5  UNL     1      -3.375  48.576 -23.271  1.00  0.00    -0.039 A 
HETATM   18  C4  UNL     1      -4.738  48.404 -22.981  1.00  0.00     0.009 A 
HETATM   19  C3  UNL     1      -5.671  48.255 -24.009  1.00  0.00     0.002 A 
HETATM   20  C2  UNL     1      -5.252  48.280 -25.340  1.00  0.00     0.024 A 
HETATM   21  C1  UNL     1      -3.903  48.460 -25.635  1.00  0.00     0.034 A 
HETATM   22 CL1  UNL     1      -3.386  48.498 -27.276  1.00  0.00    -0.084 Cl
HETATM   23  C18 UNL     1      -2.966  48.611 -24.612  1.00  0.00     0.032 A 
ENDBRANCH  16  17
ENDBRANCH   1  16
BRANCH  12  24
HETATM   24  N6  UNL     1      -0.309  52.438 -23.768  1.00  0.00    -0.342 N 
HETATM   25  H9  UNL     1      -1.275  52.743 -23.819  1.00  0.00     0.167 HD
BRANCH  24  26
HETATM   26  C11 UNL     1       0.331  52.314 -25.011  1.00  0.00     0.035 A 
HETATM   27  C12 UNL     1       1.443  51.491 -25.233  1.00  0.00     0.029 A 
HETATM   28  C13 UNL     1       2.021  51.376 -26.501  1.00  0.00     0.004 A 
HETATM   29  C14 UNL     1       1.486  52.074 -27.580  1.00  0.00     0.024 A 
HETATM   30  C15 UNL     1       0.369  52.880 -27.381  1.00  0.00     0.036 A 
HETATM   31 CL2  UNL     1      -0.312  53.739 -28.709  1.00  0.00    -0.084 Cl
HETATM   32  C16 UNL     1      -0.208  52.994 -26.115  1.00  0.00     0.053 A 
ENDBRANCH  24  26
ENDBRANCH  12  24
TORSDOF 4
ENDMDL
MODEL 3
REMARK minimizedAffinity -8.32511139
REMARK CNNscore 0.566101849
REMARK CNNaffinity 6.77687502
REMARK  4 active torsions:
REMARK  status: ('A' for Active; 'I' for Inactive)
REMARK    1  A    between atoms: C5_6  and  C6_7 
REMARK    2  A    between atoms: C6_7  and  N1_8 
REMARK    3  A    between atoms: C10_19  and  N6_20 
REMARK    4  A    between atoms: N6_20  and  C11_21 
ROOT
HETATM    1  N1  UNL     1       0.715  52.896 -21.006  1.00  0.00    -0.370 N 
HETATM    2  C7  UNL     1       0.814  53.462 -22.245  1.00  0.00     0.134 A 
HETATM    3  N2  UNL     1       1.422  54.673 -22.497  1.00  0.00    -0.283 N 
HETATM    4  N3  UNL     1       1.518  54.996 -23.801  1.00  0.00    -0.283 N 
ATOM      5  H3  UNL     1       1.961  55.815 -24.218  1.00  0.00     0.188 HD
HETATM    6  C8  UNL     1       0.895  53.989 -24.419  1.00  0.00     0.138 A 
HETATM    7  N4  UNL     1       0.717  53.847 -25.751  1.00  0.00    -0.337 N 
ATOM      8  H4  UNL     1       1.050  54.505 -26.456  1.00  0.00     0.168 HD
HETATM    9  C9  UNL     1       0.033  52.708 -26.023  1.00  0.00     0.183 A 
HETATM   10  N5  UNL     1      -0.482  51.757 -25.178  1.00  0.00    -0.338 N 
ATOM     11  H5  UNL     1      -0.978  50.951 -25.558  1.00  0.00     0.168 HD
HETATM   12  C10 UNL     1      -0.329  51.892 -23.827  1.00  0.00     0.124 A 
HETATM   13  C17 UNL     1       0.406  53.035 -23.489  1.00  0.00     0.098 A 
HETATM   14  H6  UNL     1       0.733  51.873 -20.973  1.00  0.00     0.161 HD
HETATM   15  H7  UNL     1       1.827  55.313 -21.825  1.00  0.00     0.188 HD
ENDROOT
BRANCH   1  16
HETATM   16  C6  UNL     1       1.356  53.469 -19.830  1.00  0.00     0.160 C 
BRANCH  16  17
HETATM   17  C5  UNL     1       1.055  52.594 -18.638  1.00  0.00    -0.039 A 
HETATM   18  C4  UNL     1      -0.026  51.699 -18.672  1.00  0.00     0.009 A 
HETATM   19  C3  UNL     1      -0.295  50.867 -17.584  1.00  0.00     0.002 A 
HETATM   20  C2  UNL     1       0.518  50.916 -16.451  1.00  0.00     0.024 A 
HETATM   21  C1  UNL     1       1.597  51.795 -16.414  1.00  0.00     0.034 A 
HETATM   22 CL1  UNL     1       2.604  51.852 -15.020  1.00  0.00    -0.084 Cl
HETATM   23  C18 UNL     1       1.872  52.629 -17.499  1.00  0.00     0.032 A 
ENDBRANCH  16  17
ENDBRANCH   1  16
BRANCH  12  24
HETATM   24  N6  UNL     1      -0.896  51.026 -22.882  1.00  0.00    -0.342 N 
HETATM   25  H9  UNL     1      -0.185  50.441 -22.460  1.00  0.00     0.167 HD
BRANCH  24  26
HETATM   26  C11 UNL     1      -2.111  51.069 -22.178  1.00  0.00     0.035 A 
HETATM   27  C12 UNL     1      -3.227  51.802 -22.601  1.00  0.00     0.029 A 
HETATM   28  C13 UNL     1      -4.426  51.781 -21.880  1.00  0.00     0.004 A 
HETATM   29  C14 UNL     1      -4.534  51.011 -20.726  1.00  0.00     0.024 A 
HETATM   30  C15 UNL     1      -3.441  50.261 -20.304  1.00  0.00     0.036 A 
HETATM   31 CL2  UNL     1      -3.565  49.293 -18.885  1.00  0.00    -0.084 Cl
HETATM   32  C16 UNL     1      -2.245  50.282 -21.023  1.00  0.00     0.053 A 
ENDBRANCH  24  26
ENDBRANCH  12  24
TORSDOF 4
ENDMDL
MODEL 4
REMARK minimizedAffinity -8.71451664
REMARK CNNscore 0.547838032
REMARK CNNaffinity 6.78901148
REMARK  4 active torsions:
REMARK  status: ('A' for Active; 'I' for Inactive)
REMARK    1  A    between atoms: C5_6  and  C6_7 
REMARK    2  A    between atoms: C6_7  and  N1_8 
REMARK    3  A    between atoms: C10_19  and  N6_20 
REMARK    4  A    between atoms: N6_20  and  C11_21 
ROOT
HETATM    1  N1  UNL     1       0.422  52.408 -22.979  1.00  0.00    -0.370 N 
HETATM    2  C7  UNL     1       0.685  52.765 -21.687  1.00  0.00     0.134 A 
HETATM    3  N2  UNL     1       1.354  53.912 -21.321  1.00  0.00    -0.283 N 
HETATM    4  N3  UNL     1       1.406  54.138 -19.994  1.00  0.00    -0.283 N 
ATOM      5  H3  UNL     1       1.809  54.937 -19.504  1.00  0.00     0.188 HD
HETATM    6  C8  UNL     1       0.804  53.066 -19.472  1.00  0.00     0.138 A 
HETATM    7  N4  UNL     1       0.604  52.812 -18.159  1.00  0.00    -0.337 N 
ATOM      8  H4  UNL     1       0.892  53.427 -17.399  1.00  0.00     0.168 HD
HETATM    9  C9  UNL     1      -0.033  51.626 -17.993  1.00  0.00     0.183 A 
HETATM   10  N5  UNL     1      -0.454  50.706 -18.921  1.00  0.00    -0.338 N 
ATOM     11  H5  UNL     1      -0.923  49.853 -18.617  1.00  0.00     0.168 HD
HETATM   12  C10 UNL     1      -0.245  50.935 -20.251  1.00  0.00     0.124 A 
HETATM   13  C17 UNL     1       0.378  52.168 -20.485  1.00  0.00     0.098 A 
HETATM   14  H6  UNL     1      -0.444  51.887 -23.137  1.00  0.00     0.161 HD
HETATM   15  H7  UNL     1       1.768  54.607 -21.930  1.00  0.00     0.188 HD
ENDROOT
BRANCH   1  16
HETATM   16  C6  UNL     1       0.722  53.279 -24.108  1.00  0.00     0.160 C 
BRANCH  16  17
HETATM   17  C5  UNL     1       0.206  52.633 -25.370  1.00  0.00    -0.039 A 
HETATM   18  C4  UNL     1       1.093  52.279 -26.399  1.00  0.00     0.009 A 
HETATM   19  C3  UNL     1       0.627  51.655 -27.557  1.00  0.00     0.002 A 
HETATM   20  C2  UNL     1      -0.733  51.374 -27.699  1.00  0.00     0.024 A 
HETATM   21  C1  UNL     1      -1.618  51.714 -26.679  1.00  0.00     0.034 A 
HETATM   22 CL1  UNL     1      -3.293  51.362 -26.849  1.00  0.00    -0.084 Cl
HETATM   23  C18 UNL     1      -1.157  52.336 -25.517  1.00  0.00     0.032 A 
ENDBRANCH  16  17
ENDBRANCH   1  16
BRANCH  12  24
HETATM   24  N6  UNL     1      -0.553  50.017 -21.264  1.00  0.00    -0.342 N 
HETATM   25  H9  UNL     1       0.085  49.229 -21.239  1.00  0.00     0.167 HD
BRANCH  24  26
HETATM   26  C11 UNL     1      -1.722  49.798 -22.010  1.00  0.00     0.035 A 
HETATM   27  C12 UNL     1      -2.169  48.529 -22.398  1.00  0.00     0.029 A 
HETATM   28  C13 UNL     1      -3.362  48.363 -23.110  1.00  0.00     0.004 A 
HETATM   29  C14 UNL     1      -4.140  49.471 -23.437  1.00  0.00     0.024 A 
HETATM   30  C15 UNL     1      -3.721  50.737 -23.042  1.00  0.00     0.036 A 
HETATM   31 CL2  UNL     1      -4.680  52.114 -23.427  1.00  0.00    -0.084 Cl
HETATM   32  C16 UNL     1      -2.530  50.901 -22.330  1.00  0.00     0.053 A 
ENDBRANCH  24  26
ENDBRANCH  12  24
TORSDOF 4
ENDMDL
MODEL 5
REMARK minimizedAffinity -7.90479708
REMARK CNNscore 0.398635745
REMARK CNNaffinity 6.62597418
REMARK  4 active torsions:
REMARK  status: ('A' for Active; 'I' for Inactive)
REMARK    1  A    between atoms: C5_6  and  C6_7 
REMARK    2  A    between atoms: C6_7  and  N1_8 
REMARK    3  A    between atoms: C10_19  and  N6_20 
REMARK    4  A    between atoms: N6_20  and  C11_21 
ROOT
HETATM    1  N1  UNL     1      -0.001  51.732 -22.034  1.00  0.00    -0.370 N 
HETATM    2  C7  UNL     1       0.251  51.992 -20.718  1.00  0.00     0.134 A 
HETATM    3  N2  UNL     1       0.860  53.140 -20.259  1.00  0.00    -0.283 N 
HETATM    4  N3  UNL     1       0.909  53.256 -18.917  1.00  0.00    -0.283 N 
ATOM      5  H3  UNL     1       1.271  54.031 -18.362  1.00  0.00     0.188 HD
HETATM    6  C8  UNL     1       0.369  52.113 -18.486  1.00  0.00     0.138 A 
HETATM    7  N4  UNL     1       0.194  51.738 -17.199  1.00  0.00    -0.337 N 
ATOM      8  H4  UNL     1       0.453  52.302 -16.389  1.00  0.00     0.168 HD
HETATM    9  C9  UNL     1      -0.376  50.510 -17.132  1.00  0.00     0.183 A 
HETATM   10  N5  UNL     1      -0.754  49.649 -18.132  1.00  0.00    -0.338 N 
ATOM     11  H5  UNL     1      -1.173  48.749 -17.900  1.00  0.00     0.168 HD
HETATM   12  C10 UNL     1      -0.567  50.000 -19.439  1.00  0.00     0.124 A 
HETATM   13  C17 UNL     1      -0.014  51.281 -19.569  1.00  0.00     0.098 A 
HETATM   14  H6  UNL     1      -0.839  51.179 -22.234  1.00  0.00     0.161 HD
HETATM   15  H7  UNL     1       1.231  53.906 -20.808  1.00  0.00     0.188 HD
ENDROOT
BRANCH   1  16
HETATM   16  C6  UNL     1       0.243  52.710 -23.087  1.00  0.00     0.160 C 
BRANCH  16  17
HETATM   17  C5  UNL     1       0.179  52.011 -24.423  1.00  0.00    -0.039 A 
HETATM   18  C4  UNL     1      -0.928  51.213 -24.753  1.00  0.00     0.009 A 
HETATM   19  C3  UNL     1      -1.007  50.586 -25.997  1.00  0.00     0.002 A 
HETATM   20  C2  UNL     1       0.019  50.752 -26.928  1.00  0.00     0.024 A 
HETATM   21  C1  UNL     1       1.116  51.550 -26.612  1.00  0.00     0.034 A 
HETATM   22 CL1  UNL     1       2.379  51.762 -27.761  1.00  0.00    -0.084 Cl
HETATM   23  C18 UNL     1       1.200  52.181 -25.370  1.00  0.00     0.032 A 
ENDBRANCH  16  17
ENDBRANCH   1  16
BRANCH  12  24
HETATM   24  N6  UNL     1      -0.832  49.155 -20.525  1.00  0.00    -0.342 N 
HETATM   25  H9  UNL     1       0.020  48.713 -20.850  1.00  0.00     0.167 HD
BRANCH  24  26
HETATM   26  C11 UNL     1      -2.015  48.546 -20.975  1.00  0.00     0.035 A 
HETATM   27  C12 UNL     1      -2.273  47.174 -20.863  1.00  0.00     0.029 A 
HETATM   28  C13 UNL     1      -3.484  46.624 -21.296  1.00  0.00     0.004 A 
HETATM   29  C14 UNL     1      -4.470  47.444 -21.837  1.00  0.00     0.024 A 
HETATM   30  C15 UNL     1      -4.239  48.812 -21.936  1.00  0.00     0.036 A 
HETATM   31 CL2  UNL     1      -5.455  49.840 -22.591  1.00  0.00    -0.084 Cl
HETATM   32  C16 UNL     1      -3.029  49.361 -21.504  1.00  0.00     0.053 A 
ENDBRANCH  24  26
ENDBRANCH  12  24
TORSDOF 4
ENDMDL
MODEL 6
REMARK minimizedAffinity -8.70268917
REMARK CNNscore 0.298332214
REMARK CNNaffinity 6.52844954
REMARK  4 active torsions:
REMARK  status: ('A' for Active; 'I' for Inactive)
REMARK    1  A    between atoms: C5_6  and  C6_7 
REMARK    2  A    between atoms: C6_7  and  N1_8 
REMARK    3  A    between atoms: C10_19  and  N6_20 
REMARK    4  A    between atoms: N6_20  and  C11_21 
ROOT
HETATM    1  N1  UNL     1      -1.170  49.870 -22.105  1.00  0.00    -0.370 N 
HETATM    2  C7  UNL     1      -1.031  50.832 -21.147  1.00  0.00     0.134 A 
HETATM    3  N2  UNL     1      -1.712  50.835 -19.949  1.00  0.00    -0.283 N 
HETATM    4  N3  UNL     1      -1.344  51.808 -19.093  1.00  0.00    -0.283 N 
ATOM      5  H3  UNL     1      -1.680  51.975 -18.144  1.00  0.00     0.188 HD
HETATM    6  C8  UNL     1      -0.434  52.502 -19.781  1.00  0.00     0.138 A 
HETATM    7  N4  UNL     1       0.239  53.595 -19.356  1.00  0.00    -0.337 N 
ATOM      8  H4  UNL     1       0.132  54.021 -18.436  1.00  0.00     0.168 HD
HETATM    9  C9  UNL     1       1.078  54.045 -20.322  1.00  0.00     0.183 A 
HETATM   10  N5  UNL     1       1.301  53.579 -21.593  1.00  0.00    -0.338 N 
ATOM     11  H5  UNL     1       1.977  54.047 -22.197  1.00  0.00     0.168 HD
HETATM   12  C10 UNL     1       0.616  52.489 -22.049  1.00  0.00     0.124 A 
HETATM   13  C17 UNL     1      -0.240  51.956 -21.077  1.00  0.00     0.098 A 
HETATM   14  H6  UNL     1      -0.337  49.662 -22.663  1.00  0.00     0.161 HD
HETATM   15  H7  UNL     1      -2.416  50.178 -19.636  1.00  0.00     0.188 HD
ENDROOT
BRANCH   1  16
HETATM   16  C6  UNL     1      -1.974  48.671 -21.902  1.00  0.00     0.160 C 
BRANCH  16  17
HETATM   17  C5  UNL     1      -3.014  48.594 -22.992  1.00  0.00    -0.039 A 
HETATM   18  C4  UNL     1      -4.379  48.563 -22.668  1.00  0.00     0.009 A 
HETATM   19  C3  UNL     1      -5.349  48.520 -23.671  1.00  0.00     0.002 A 
HETATM   20  C2  UNL     1      -4.964  48.511 -25.012  1.00  0.00     0.024 A 
HETATM   21  C1  UNL     1      -3.611  48.551 -25.342  1.00  0.00     0.034 A 
HETATM   22 CL1  UNL     1      -3.135  48.548 -26.996  1.00  0.00    -0.084 Cl
HETATM   23  C18 UNL     1      -2.638  48.596 -24.343  1.00  0.00     0.032 A 
ENDBRANCH  16  17
ENDBRANCH   1  16
BRANCH  12  24
HETATM   24  N6  UNL     1       0.706  51.997 -23.358  1.00  0.00    -0.342 N 
HETATM   25  H9  UNL     1       0.650  50.984 -23.364  1.00  0.00     0.167 HD
BRANCH  24  26
HETATM   26  C11 UNL     1       0.489  52.601 -24.607  1.00  0.00     0.035 A 
HETATM   27  C12 UNL     1       0.073  53.929 -24.764  1.00  0.00     0.029 A 
HETATM   28  C13 UNL     1      -0.094  54.494 -26.033  1.00  0.00     0.004 A 
HETATM   29  C14 UNL     1       0.169  53.740 -27.173  1.00  0.00     0.024 A 
HETATM   30  C15 UNL     1       0.603  52.426 -27.035  1.00  0.00     0.036 A 
HETATM   31 CL2  UNL     1       0.945  51.487 -28.436  1.00  0.00    -0.084 Cl
HETATM   32  C16 UNL     1       0.769  51.863 -25.768  1.00  0.00     0.053 A 
ENDBRANCH  24  26
ENDBRANCH  12  24
TORSDOF 4
ENDMDL
MODEL 7
REMARK minimizedAffinity -7.884799
REMARK CNNscore 0.200136214
REMARK CNNaffinity 6.54055977
REMARK  4 active torsions:
REMARK  status: ('A' for Active; 'I' for Inactive)
REMARK    1  A    between atoms: C5_6  and  C6_7 
REMARK    2  A    between atoms: C6_7  and  N1_8 
REMARK    3  A    between atoms: C10_19  and  N6_20 
REMARK    4  A    between atoms: N6_20  and  C11_21 
ROOT
HETATM    1  N1  UNL     1      -2.499  50.662 -21.013  1.00  0.00    -0.370 N 
HETATM    2  C7  UNL     1      -1.608  51.297 -20.198  1.00  0.00     0.134 A 
HETATM    3  N2  UNL     1      -1.577  51.160 -18.827  1.00  0.00    -0.283 N 
HETATM    4  N3  UNL     1      -0.546  51.778 -18.220  1.00  0.00    -0.283 N 
ATOM      5  H3  UNL     1      -0.303  51.777 -17.229  1.00  0.00     0.188 HD
HETATM    6  C8  UNL     1       0.084  52.394 -19.224  1.00  0.00     0.138 A 
HETATM    7  N4  UNL     1       1.192  53.162 -19.132  1.00  0.00    -0.337 N 
ATOM      8  H4  UNL     1       1.691  53.359 -18.264  1.00  0.00     0.168 HD
HETATM    9  C9  UNL     1       1.550  53.633 -20.352  1.00  0.00     0.183 A 
HETATM   10  N5  UNL     1       0.962  53.459 -21.579  1.00  0.00    -0.338 N 
ATOM     11  H5  UNL     1       1.370  53.895 -22.407  1.00  0.00     0.168 HD
HETATM   12  C10 UNL     1      -0.170  52.703 -21.691  1.00  0.00     0.124 A 
HETATM   13  C17 UNL     1      -0.565  52.157 -20.464  1.00  0.00     0.098 A 
HETATM   14  H6  UNL     1      -2.162  50.414 -21.947  1.00  0.00     0.161 HD
HETATM   15  H7  UNL     1      -2.210  50.625 -18.245  1.00  0.00     0.188 HD
ENDROOT
BRANCH   1  16
HETATM   16  C6  UNL     1      -3.443  49.668 -20.518  1.00  0.00     0.160 C 
BRANCH  16  17
HETATM   17  C5  UNL     1      -4.593  49.564 -21.489  1.00  0.00    -0.039 A 
HETATM   18  C4  UNL     1      -5.860  50.061 -21.143  1.00  0.00     0.009 A 
HETATM   19  C3  UNL     1      -6.922  49.993 -22.047  1.00  0.00     0.002 A 
HETATM   20  C2  UNL     1      -6.728  49.432 -23.309  1.00  0.00     0.024 A 
HETATM   21  C1  UNL     1      -5.472  48.946 -23.663  1.00  0.00     0.034 A 
HETATM   22 CL1  UNL     1      -5.230  48.260 -25.223  1.00  0.00    -0.084 Cl
HETATM   23  C18 UNL     1      -4.406  49.012 -22.765  1.00  0.00     0.032 A 
ENDBRANCH  16  17
ENDBRANCH   1  16
BRANCH  12  24
HETATM   24  N6  UNL     1      -0.894  52.544 -22.881  1.00  0.00    -0.342 N 
HETATM   25  H9  UNL     1      -1.685  53.177 -22.905  1.00  0.00     0.167 HD
BRANCH  24  26
HETATM   26  C11 UNL     1      -0.548  51.993 -24.125  1.00  0.00     0.035 A 
HETATM   27  C12 UNL     1       0.689  52.201 -24.749  1.00  0.00     0.029 A 
HETATM   28  C13 UNL     1       0.996  51.598 -25.974  1.00  0.00     0.004 A 
HETATM   29  C14 UNL     1       0.073  50.759 -26.591  1.00  0.00     0.024 A 
HETATM   30  C15 UNL     1      -1.152  50.525 -25.974  1.00  0.00     0.036 A 
HETATM   31 CL2  UNL     1      -2.298  49.479 -26.720  1.00  0.00    -0.084 Cl
HETATM   32  C16 UNL     1      -1.459  51.128 -24.752  1.00  0.00     0.053 A 
ENDBRANCH  24  26
ENDBRANCH  12  24
TORSDOF 4
ENDMDL
MODEL 8
REMARK minimizedAffinity -8.61222363
REMARK CNNscore 0.19143346
REMARK CNNaffinity 6.18759298
REMARK  4 active torsions:
REMARK  status: ('A' for Active; 'I' for Inactive)
REMARK    1  A    between atoms: C5_6  and  C6_7 
REMARK    2  A    between atoms: C6_7  and  N1_8 
REMARK    3  A    between atoms: C10_19  and  N6_20 
REMARK    4  A    between atoms: N6_20  and  C11_21 
ROOT
HETATM    1  N1  UNL     1      -3.051  49.875 -23.233  1.00  0.00    -0.370 N 
HETATM    2  C7  UNL     1      -2.442  50.092 -22.031  1.00  0.00     0.134 A 
HETATM    3  N2  UNL     1      -2.661  49.331 -20.903  1.00  0.00    -0.283 N 
HETATM    4  N3  UNL     1      -1.873  49.636 -19.854  1.00  0.00    -0.283 N 
ATOM      5  H3  UNL     1      -1.832  49.181 -18.941  1.00  0.00     0.188 HD
HETATM    6  C8  UNL     1      -1.156  50.673 -20.293  1.00  0.00     0.138 A 
HETATM    7  N4  UNL     1      -0.213  51.353 -19.602  1.00  0.00    -0.337 N 
ATOM      8  H4  UNL     1       0.071  51.142 -18.646  1.00  0.00     0.168 HD
HETATM    9  C9  UNL     1       0.305  52.353 -20.358  1.00  0.00     0.183 A 
HETATM   10  N5  UNL     1       0.001  52.749 -21.636  1.00  0.00    -0.338 N 
ATOM     11  H5  UNL     1       0.495  53.536 -22.057  1.00  0.00     0.168 HD
HETATM   12  C10 UNL     1      -0.962  52.088 -22.344  1.00  0.00     0.124 A 
HETATM   13  C17 UNL     1      -1.506  51.017 -21.624  1.00  0.00     0.098 A 
HETATM   14  H6  UNL     1      -2.504  50.106 -24.066  1.00  0.00     0.161 HD
HETATM   15  H7  UNL     1      -3.310  48.562 -20.792  1.00  0.00     0.188 HD
ENDROOT
BRANCH   1  16
HETATM   16  C6  UNL     1      -3.917  48.728 -23.477  1.00  0.00     0.160 C 
BRANCH  16  17
HETATM   17  C5  UNL     1      -4.094  48.562 -24.966  1.00  0.00    -0.039 A 
HETATM   18  C4  UNL     1      -3.000  48.721 -25.831  1.00  0.00     0.009 A 
HETATM   19  C3  UNL     1      -3.150  48.541 -27.208  1.00  0.00     0.002 A 
HETATM   20  C2  UNL     1      -4.394  48.196 -27.734  1.00  0.00     0.024 A 
HETATM   21  C1  UNL     1      -5.482  48.028 -26.881  1.00  0.00     0.034 A 
HETATM   22 CL1  UNL     1      -7.017  47.595 -27.529  1.00  0.00    -0.084 Cl
HETATM   23  C18 UNL     1      -5.339  48.204 -25.504  1.00  0.00     0.032 A 
ENDBRANCH  16  17
ENDBRANCH   1  16
BRANCH  12  24
HETATM   24  N6  UNL     1      -1.405  52.475 -23.616  1.00  0.00    -0.342 N 
HETATM   25  H9  UNL     1      -1.953  53.326 -23.560  1.00  0.00     0.167 HD
BRANCH  24  26
HETATM   26  C11 UNL     1      -0.955  52.153 -24.907  1.00  0.00     0.035 A 
HETATM   27  C12 UNL     1      -1.780  52.154 -26.038  1.00  0.00     0.029 A 
HETATM   28  C13 UNL     1      -1.272  51.861 -27.309  1.00  0.00     0.004 A 
HETATM   29  C14 UNL     1       0.081  51.575 -27.471  1.00  0.00     0.024 A 
HETATM   30  C15 UNL     1       0.918  51.590 -26.360  1.00  0.00     0.036 A 
HETATM   31 CL2  UNL     1       2.595  51.251 -26.549  1.00  0.00    -0.084 Cl
HETATM   32  C16 UNL     1       0.410  51.882 -25.093  1.00  0.00     0.053 A 
ENDBRANCH  24  26
ENDBRANCH  12  24
TORSDOF 4
ENDMDL
MODEL 9
REMARK minimizedAffinity -8.87973118
REMARK CNNscore 0.138092205
REMARK CNNaffinity 6.38735723
REMARK  4 active torsions:
REMARK  status: ('A' for Active; 'I' for Inactive)
REMARK    1  A    between atoms: C5_6  and  C6_7 
REMARK    2  A    between atoms: C6_7  and  N1_8 
REMARK    3  A    between atoms: C10_19  and  N6_20 
REMARK    4  A    between atoms: N6_20  and  C11_21 
ROOT
HETATM    1  N1  UNL     1      -2.372  50.192 -24.925  1.00  0.00    -0.370 N 
HETATM    2  C7  UNL     1      -2.188  51.013 -26.001  1.00  0.00     0.134 A 
HETATM    3  N2  UNL     1      -2.926  50.944 -27.162  1.00  0.00    -0.283 N 
HETATM    4  N3  UNL     1      -2.667  51.920 -28.055  1.00  0.00    -0.283 N 
ATOM      5  H3  UNL     1      -3.118  52.088 -28.954  1.00  0.00     0.188 HD
HETATM    6  C8  UNL     1      -1.681  52.613 -27.481  1.00  0.00     0.138 A 
HETATM    7  N4  UNL     1      -1.060  53.702 -27.987  1.00  0.00    -0.337 N 
ATOM      8  H4  UNL     1      -1.283  54.133 -28.884  1.00  0.00     0.168 HD
HETATM    9  C9  UNL     1      -0.100  54.143 -27.137  1.00  0.00     0.183 A 
HETATM   10  N5  UNL     1       0.307  53.649 -25.923  1.00  0.00    -0.338 N 
ATOM     11  H5  UNL     1       1.058  54.111 -25.411  1.00  0.00     0.168 HD
HETATM   12  C10 UNL     1      -0.294  52.539 -25.403  1.00  0.00     0.124 A 
HETATM   13  C17 UNL     1      -1.323  52.061 -26.224  1.00  0.00     0.098 A 
HETATM   14  H6  UNL     1      -2.182  50.600 -24.006  1.00  0.00     0.161 HD
HETATM   15  H7  UNL     1      -3.651  50.277 -27.396  1.00  0.00     0.188 HD
ENDROOT
BRANCH   1  16
HETATM   16  C6  UNL     1      -3.462  49.227 -24.853  1.00  0.00     0.160 C 
BRANCH  16  17
HETATM   17  C5  UNL     1      -3.479  48.616 -23.474  1.00  0.00    -0.039 A 
HETATM   18  C4  UNL     1      -4.649  48.020 -22.978  1.00  0.00     0.009 A 
HETATM   19  C3  UNL     1      -4.665  47.428 -21.713  1.00  0.00     0.002 A 
HETATM   20  C2  UNL     1      -3.509  47.420 -20.933  1.00  0.00     0.024 A 
HETATM   21  C1  UNL     1      -2.341  48.001 -21.422  1.00  0.00     0.034 A 
HETATM   22 CL1  UNL     1      -0.913  47.986 -20.463  1.00  0.00    -0.084 Cl
HETATM   23  C18 UNL     1      -2.319  48.593 -22.686  1.00  0.00     0.032 A 
ENDBRANCH  16  17
ENDBRANCH   1  16
BRANCH  12  24
HETATM   24  N6  UNL     1       0.113  51.907 -24.220  1.00  0.00    -0.342 N 
HETATM   25  H9  UNL     1       0.512  50.997 -24.420  1.00  0.00     0.167 HD
BRANCH  24  26
HETATM   26  C11 UNL     1       0.407  52.406 -22.941  1.00  0.00     0.035 A 
HETATM   27  C12 UNL     1       1.044  53.632 -22.714  1.00  0.00     0.029 A 
HETATM   28  C13 UNL     1       1.280  54.101 -21.417  1.00  0.00     0.004 A 
HETATM   29  C14 UNL     1       0.868  53.352 -20.318  1.00  0.00     0.024 A 
HETATM   30  C15 UNL     1       0.215  52.142 -20.526  1.00  0.00     0.036 A 
HETATM   31 CL2  UNL     1      -0.313  51.213 -19.176  1.00  0.00    -0.084 Cl
HETATM   32  C16 UNL     1      -0.021  51.675 -21.821  1.00  0.00     0.053 A 
ENDBRANCH  24  26
ENDBRANCH  12  24
TORSDOF 4
ENDMDL
