MODEL 1
REMARK minimizedAffinity -9.36314297
REMARK  5 active torsions:
REMARK  status: ('A' for Active; 'I' for Inactive)
REMARK    1  A    between atoms: C6_11  and  N4_12 
REMARK    2  A    between atoms: N4_12  and  C7_13 
REMARK    3  A    between atoms: C7_13  and  C8_14 
REMARK    4  A    between atoms: C15_23  and  N6_24 
REMARK    5  A    between atoms: N6_24  and  C16_25 
ROOT
HETATM    1  N1  UNL     1       1.784  54.710 -21.882  1.00  0.00    -0.191 NA
HETATM    2  C1  UNL     1       1.130  53.750 -21.858  1.00  0.00     0.103 C 
HETATM    3  C2  UNL     1       0.354  52.552 -21.769  1.00  0.00     0.087 A 
HETATM    4  C3  UNL     1       0.538  51.763 -20.643  1.00  0.00     0.113 A 
HETATM    5  N2  UNL     1      -0.056  50.566 -20.442  1.00  0.00    -0.363 N 
ATOM      6  H2  UNL     1       0.107  50.030 -19.590  1.00  0.00     0.165 HD
HETATM    7  C4  UNL     1      -0.874  50.110 -21.409  1.00  0.00     0.060 A 
HETATM    8  C5  UNL     1      -1.485  48.875 -21.289  1.00  0.00     0.119 A 
HETATM    9  N3  UNL     1      -2.320  48.306 -22.196  1.00  0.00    -0.355 N 
ATOM     10  H3  UNL     1      -2.717  47.379 -22.041  1.00  0.00     0.166 HD
HETATM   11  C6  UNL     1      -2.606  49.006 -23.304  1.00  0.00     0.081 A 
HETATM   12  C13 UNL     1      -2.027  50.253 -23.528  1.00  0.00     0.058 A 
HETATM   13  C14 UNL     1      -1.146  50.830 -22.584  1.00  0.00     0.023 A 
HETATM   14  C15 UNL     1      -0.534  52.108 -22.760  1.00  0.00     0.063 A 
ENDROOT
BRANCH  14  15
HETATM   15  N6  UNL     1      -0.769  52.785 -23.952  1.00  0.00    -0.383 N 
HETATM   16  H11 UNL     1      -1.529  53.472 -23.914  1.00  0.00     0.160 HD
BRANCH  15  17
HETATM   17  C16 UNL     1      -0.265  52.457 -25.295  1.00  0.00     0.081 C 
HETATM   18  C17 UNL     1      -0.267  53.649 -26.266  1.00  0.00     0.025 C 
HETATM   19  C18 UNL     1      -0.122  53.303 -27.755  1.00  0.00     0.002 C 
HETATM   20  C19 UNL     1       0.227  51.861 -28.110  1.00  0.00     0.000 C 
HETATM   21  C20 UNL     1       1.612  51.400 -27.656  1.00  0.00     0.000 C 
HETATM   22  C21 UNL     1       2.071  51.901 -26.291  1.00  0.00     0.002 C 
HETATM   23  C22 UNL     1       1.067  51.693 -25.169  1.00  0.00     0.025 C 
ENDBRANCH  15  17
ENDBRANCH  14  15
BRANCH  11  24
HETATM   24  N4  UNL     1      -3.433  48.467 -24.296  1.00  0.00    -0.275 NA
HETATM   25  H3  UNL     1      -3.540  47.470 -24.152  1.00  0.00     0.129 HD
BRANCH  24  26
HETATM   26  C7  UNL     1      -3.089  48.781 -25.678  1.00  0.00     0.133 C 
BRANCH  26  27
HETATM   27  C8  UNL     1      -4.210  48.442 -26.620  1.00  0.00    -0.029 A 
HETATM   28  C9  UNL     1      -4.022  48.410 -28.006  1.00  0.00     0.011 A 
HETATM   29  C10 UNL     1      -5.086  48.073 -28.841  1.00  0.00     0.018 A 
HETATM   30  C11 UNL     1      -6.310  47.789 -28.260  1.00  0.00     0.087 A 
HETATM   31  N5  UNL     1      -6.536  47.824 -26.929  1.00  0.00    -0.375 N 
HETATM   32  C12 UNL     1      -5.485  48.152 -26.141  1.00  0.00     0.096 A 
ATOM     33  H5  UNL     1      -7.454  47.614 -26.537  1.00  0.00     0.164 HD
ENDBRANCH  26  27
ENDBRANCH  24  26
ENDBRANCH  11  24
TORSDOF 5
ENDMDL
MODEL 2
REMARK minimizedAffinity -9.24609566
REMARK  5 active torsions:
REMARK  status: ('A' for Active; 'I' for Inactive)
REMARK    1  A    between atoms: C6_11  and  N4_12 
REMARK    2  A    between atoms: N4_12  and  C7_13 
REMARK    3  A    between atoms: C7_13  and  C8_14 
REMARK    4  A    between atoms: C15_23  and  N6_24 
REMARK    5  A    between atoms: N6_24  and  C16_25 
ROOT
HETATM    1  N1  UNL     1      -1.019  50.304 -17.841  1.00  0.00    -0.191 NA
HETATM    2  C1  UNL     1      -0.560  50.975 -18.670  1.00  0.00     0.103 C 
HETATM    3  C2  UNL     1       0.034  51.840 -19.641  1.00  0.00     0.087 A 
HETATM    4  C3  UNL     1       0.796  52.897 -19.164  1.00  0.00     0.113 A 
HETATM    5  N2  UNL     1       1.359  53.847 -19.943  1.00  0.00    -0.363 N 
ATOM      6  H2  UNL     1       1.918  54.599 -19.540  1.00  0.00     0.165 HD
HETATM    7  C4  UNL     1       1.153  53.763 -21.270  1.00  0.00     0.060 A 
HETATM    8  C5  UNL     1       1.664  54.723 -22.124  1.00  0.00     0.119 A 
HETATM    9  N3  UNL     1       1.519  54.750 -23.475  1.00  0.00    -0.355 N 
ATOM     10  H3  UNL     1       1.913  55.507 -24.033  1.00  0.00     0.166 HD
HETATM   11  C6  UNL     1       0.837  53.746 -24.047  1.00  0.00     0.081 A 
HETATM   12  C13 UNL     1       0.266  52.739 -23.273  1.00  0.00     0.058 A 
HETATM   13  C14 UNL     1       0.411  52.728 -21.866  1.00  0.00     0.023 A 
HETATM   14  C15 UNL     1      -0.146  51.715 -21.027  1.00  0.00     0.063 A 
ENDROOT
BRANCH  14  15
HETATM   15  N6  UNL     1      -0.923  50.730 -21.624  1.00  0.00    -0.383 N 
HETATM   16  H11 UNL     1      -0.392  49.990 -22.096  1.00  0.00     0.160 HD
BRANCH  15  17
HETATM   17  C16 UNL     1      -2.370  50.754 -21.894  1.00  0.00     0.081 C 
HETATM   18  C17 UNL     1      -3.205  51.344 -20.746  1.00  0.00     0.025 C 
HETATM   19  C18 UNL     1      -4.712  51.056 -20.795  1.00  0.00     0.002 C 
HETATM   20  C19 UNL     1      -5.264  50.415 -22.065  1.00  0.00     0.000 C 
HETATM   21  C20 UNL     1      -5.181  51.287 -23.318  1.00  0.00     0.000 C 
HETATM   22  C21 UNL     1      -3.917  52.128 -23.466  1.00  0.00     0.002 C 
HETATM   23  C22 UNL     1      -2.619  51.359 -23.289  1.00  0.00     0.025 C 
ENDBRANCH  15  17
ENDBRANCH  14  15
BRANCH  11  24
HETATM   24  N4  UNL     1       0.621  53.728 -25.430  1.00  0.00    -0.275 NA
HETATM   25  H3  UNL     1      -0.287  54.125 -25.642  1.00  0.00     0.129 HD
BRANCH  24  26
HETATM   26  C7  UNL     1       0.826  52.453 -26.108  1.00  0.00     0.133 C 
BRANCH  26  27
HETATM   27  C8  UNL     1      -0.470  51.868 -26.594  1.00  0.00    -0.029 A 
HETATM   28  C9  UNL     1      -0.832  50.547 -26.312  1.00  0.00     0.011 A 
HETATM   29  C10 UNL     1      -2.053  50.051 -26.767  1.00  0.00     0.018 A 
HETATM   30  C11 UNL     1      -2.869  50.894 -27.502  1.00  0.00     0.087 A 
HETATM   31  N5  UNL     1      -2.549  52.169 -27.810  1.00  0.00    -0.375 N 
HETATM   32  C12 UNL     1      -1.358  52.625 -27.353  1.00  0.00     0.096 A 
ATOM     33  H5  UNL     1      -3.173  52.759 -28.360  1.00  0.00     0.164 HD
ENDBRANCH  26  27
ENDBRANCH  24  26
ENDBRANCH  11  24
TORSDOF 5
ENDMDL
MODEL 3
REMARK minimizedAffinity -8.9886837
REMARK  5 active torsions:
REMARK  status: ('A' for Active; 'I' for Inactive)
REMARK    1  A    between atoms: C6_11  and  N4_12 
REMARK    2  A    between atoms: N4_12  and  C7_13 
REMARK    3  A    between atoms: C7_13  and  C8_14 
REMARK    4  A    between atoms: C15_23  and  N6_24 
REMARK    5  A    between atoms: N6_24  and  C16_25 
ROOT
HETATM    1  N1  UNL     1       1.103  53.322 -20.593  1.00  0.00    -0.191 NA
HETATM    2  C1  UNL     1       0.805  53.152 -21.703  1.00  0.00     0.103 C 
HETATM    3  C2  UNL     1       0.467  53.004 -23.084  1.00  0.00     0.087 A 
HETATM    4  C3  UNL     1       0.871  54.014 -23.946  1.00  0.00     0.113 A 
HETATM    5  N2  UNL     1       0.566  54.064 -25.261  1.00  0.00    -0.363 N 
ATOM      6  H2  UNL     1       0.897  54.827 -25.853  1.00  0.00     0.165 HD
HETATM    7  C4  UNL     1      -0.191  53.070 -25.761  1.00  0.00     0.060 A 
HETATM    8  C5  UNL     1      -0.575  53.078 -27.090  1.00  0.00     0.119 A 
HETATM    9  N3  UNL     1      -1.340  52.140 -27.706  1.00  0.00    -0.355 N 
ATOM     10  H3  UNL     1      -1.596  52.229 -28.689  1.00  0.00     0.166 HD
HETATM   11  C6  UNL     1      -1.748  51.091 -26.974  1.00  0.00     0.081 A 
HETATM   12  C13 UNL     1      -1.429  50.999 -25.621  1.00  0.00     0.058 A 
HETATM   13  C14 UNL     1      -0.644  51.989 -24.986  1.00  0.00     0.023 A 
HETATM   14  C15 UNL     1      -0.281  51.937 -23.606  1.00  0.00     0.063 A 
ENDROOT
BRANCH  14  15
HETATM   15  N6  UNL     1      -0.783  50.892 -22.839  1.00  0.00    -0.383 N 
HETATM   16  H11 UNL     1      -1.302  50.182 -23.367  1.00  0.00     0.160 HD
BRANCH  15  17
HETATM   17  C16 UNL     1      -0.897  50.814 -21.374  1.00  0.00     0.081 C 
HETATM   18  C17 UNL     1      -2.240  51.326 -20.829  1.00  0.00     0.025 C 
HETATM   19  C18 UNL     1      -2.283  51.627 -19.324  1.00  0.00     0.002 C 
HETATM   20  C19 UNL     1      -1.085  51.190 -18.486  1.00  0.00     0.000 C 
HETATM   21  C20 UNL     1      -0.882  49.678 -18.387  1.00  0.00     0.000 C 
HETATM   22  C21 UNL     1      -1.159  48.880 -19.657  1.00  0.00     0.002 C 
HETATM   23  C22 UNL     1      -0.469  49.411 -20.902  1.00  0.00     0.025 C 
ENDBRANCH  15  17
ENDBRANCH  14  15
BRANCH  11  24
HETATM   24  N4  UNL     1      -2.565  50.103 -27.536  1.00  0.00    -0.275 NA
HETATM   25  H3  UNL     1      -3.424  50.520 -27.877  1.00  0.00     0.129 HD
BRANCH  24  26
HETATM   26  C7  UNL     1      -2.823  48.924 -26.718  1.00  0.00     0.133 C 
BRANCH  26  27
HETATM   27  C8  UNL     1      -4.241  48.447 -26.863  1.00  0.00    -0.029 A 
HETATM   28  C9  UNL     1      -4.777  48.104 -28.109  1.00  0.00     0.011 A 
HETATM   29  C10 UNL     1      -6.092  47.650 -28.195  1.00  0.00     0.018 A 
HETATM   30  C11 UNL     1      -6.833  47.564 -27.029  1.00  0.00     0.087 A 
HETATM   31  N5  UNL     1      -6.357  47.901 -25.810  1.00  0.00    -0.375 N 
HETATM   32  C12 UNL     1      -5.076  48.337 -25.756  1.00  0.00     0.096 A 
ATOM     33  H5  UNL     1      -6.935  47.831 -24.972  1.00  0.00     0.164 HD
ENDBRANCH  26  27
ENDBRANCH  24  26
ENDBRANCH  11  24
TORSDOF 5
ENDMDL
MODEL 4
REMARK minimizedAffinity -8.97477531
REMARK  5 active torsions:
REMARK  status: ('A' for Active; 'I' for Inactive)
REMARK    1  A    between atoms: C6_11  and  N4_12 
REMARK    2  A    between atoms: N4_12  and  C7_13 
REMARK    3  A    between atoms: C7_13  and  C8_14 
REMARK    4  A    between atoms: C15_23  and  N6_24 
REMARK    5  A    between atoms: N6_24  and  C16_25 
ROOT
HETATM    1  N1  UNL     1      -1.967  48.434 -18.523  1.00  0.00    -0.191 NA
HETATM    2  C1  UNL     1      -1.380  49.334 -18.963  1.00  0.00     0.103 C 
HETATM    3  C2  UNL     1      -0.647  50.464 -19.441  1.00  0.00     0.087 A 
HETATM    4  C3  UNL     1      -0.134  51.334 -18.489  1.00  0.00     0.113 A 
HETATM    5  N2  UNL     1       0.513  52.485 -18.774  1.00  0.00    -0.363 N 
ATOM      6  H2  UNL     1       0.879  53.084 -18.034  1.00  0.00     0.165 HD
HETATM    7  C4  UNL     1       0.656  52.811 -20.072  1.00  0.00     0.060 A 
HETATM    8  C5  UNL     1       1.272  53.995 -20.437  1.00  0.00     0.119 A 
HETATM    9  N3  UNL     1       1.469  54.435 -21.707  1.00  0.00    -0.355 N 
ATOM     10  H3  UNL     1       1.917  55.332 -21.892  1.00  0.00     0.166 HD
HETATM   11  C6  UNL     1       1.052  53.647 -22.709  1.00  0.00     0.081 A 
HETATM   12  C13 UNL     1       0.404  52.442 -22.448  1.00  0.00     0.058 A 
HETATM   13  C14 UNL     1       0.191  52.000 -21.121  1.00  0.00     0.023 A 
HETATM   14  C15 UNL     1      -0.460  50.770 -20.798  1.00  0.00     0.063 A 
ENDROOT
BRANCH  14  15
HETATM   15  N6  UNL     1      -0.964  50.006 -21.844  1.00  0.00    -0.383 N 
HETATM   16  H11 UNL     1      -0.317  49.301 -22.212  1.00  0.00     0.160 HD
BRANCH  15  17
HETATM   17  C16 UNL     1      -2.171  50.253 -22.649  1.00  0.00     0.081 C 
HETATM   18  C17 UNL     1      -2.729  48.995 -23.332  1.00  0.00     0.025 C 
HETATM   19  C18 UNL     1      -3.734  49.237 -24.467  1.00  0.00     0.002 C 
HETATM   20  C19 UNL     1      -4.245  50.662 -24.661  1.00  0.00     0.000 C 
HETATM   21  C20 UNL     1      -5.097  51.205 -23.514  1.00  0.00     0.000 C 
HETATM   22  C21 UNL     1      -4.649  50.821 -22.107  1.00  0.00     0.002 C 
HETATM   23  C22 UNL     1      -3.178  51.073 -21.819  1.00  0.00     0.025 C 
ENDBRANCH  15  17
ENDBRANCH  14  15
BRANCH  11  24
HETATM   24  N4  UNL     1       1.193  54.052 -24.042  1.00  0.00    -0.275 NA
HETATM   25  H3  UNL     1       1.603  54.978 -24.079  1.00  0.00     0.129 HD
BRANCH  24  26
HETATM   26  C7  UNL     1       0.008  53.950 -24.887  1.00  0.00     0.133 C 
BRANCH  26  27
HETATM   27  C8  UNL     1       0.292  53.185 -26.149  1.00  0.00    -0.029 A 
HETATM   28  C9  UNL     1       1.120  52.057 -26.154  1.00  0.00     0.011 A 
HETATM   29  C10 UNL     1       1.341  51.367 -27.345  1.00  0.00     0.018 A 
HETATM   30  C11 UNL     1       0.734  51.837 -28.497  1.00  0.00     0.087 A 
HETATM   31  N5  UNL     1      -0.058  52.930 -28.536  1.00  0.00    -0.375 N 
HETATM   32  C12 UNL     1      -0.258  53.580 -27.365  1.00  0.00     0.096 A 
ATOM     33  H5  UNL     1      -0.484  53.251 -29.406  1.00  0.00     0.164 HD
ENDBRANCH  26  27
ENDBRANCH  24  26
ENDBRANCH  11  24
TORSDOF 5
ENDMDL
MODEL 5
REMARK minimizedAffinity -8.96109486
REMARK  5 active torsions:
REMARK  status: ('A' for Active; 'I' for Inactive)
REMARK    1  A    between atoms: C6_11  and  N4_12 
REMARK    2  A    between atoms: N4_12  and  C7_13 
REMARK    3  A    between atoms: C7_13  and  C8_14 
REMARK    4  A    between atoms: C15_23  and  N6_24 
REMARK    5  A    between atoms: N6_24  and  C16_25 
ROOT
HETATM    1  N1  UNL     1      -3.403  52.588 -26.160  1.00  0.00    -0.191 NA
HETATM    2  C1  UNL     1      -3.222  52.308 -25.047  1.00  0.00     0.103 C 
HETATM    3  C2  UNL     1      -3.069  51.958 -23.669  1.00  0.00     0.087 A 
HETATM    4  C3  UNL     1      -4.228  51.710 -22.947  1.00  0.00     0.113 A 
HETATM    5  N2  UNL     1      -4.262  51.444 -21.623  1.00  0.00    -0.363 N 
ATOM      6  H2  UNL     1      -5.143  51.259 -21.143  1.00  0.00     0.165 HD
HETATM    7  C4  UNL     1      -3.090  51.433 -20.962  1.00  0.00     0.060 A 
HETATM    8  C5  UNL     1      -3.053  51.208 -19.598  1.00  0.00     0.119 A 
HETATM    9  N3  UNL     1      -1.938  51.180 -18.823  1.00  0.00    -0.355 N 
ATOM     10  H3  UNL     1      -1.997  51.026 -17.817  1.00  0.00     0.166 HD
HETATM   11  C6  UNL     1      -0.754  51.362 -19.429  1.00  0.00     0.081 A 
HETATM   12  C13 UNL     1      -0.685  51.613 -20.797  1.00  0.00     0.058 A 
HETATM   13  C14 UNL     1      -1.854  51.655 -21.592  1.00  0.00     0.023 A 
HETATM   14  C15 UNL     1      -1.837  51.900 -23.000  1.00  0.00     0.063 A 
ENDROOT
BRANCH  14  15
HETATM   15  N6  UNL     1      -0.613  52.174 -23.599  1.00  0.00    -0.383 N 
HETATM   16  H11 UNL     1       0.120  52.488 -22.955  1.00  0.00     0.160 HD
BRANCH  15  17
HETATM   17  C16 UNL     1      -0.320  52.329 -25.033  1.00  0.00     0.081 C 
HETATM   18  C17 UNL     1       0.100  53.754 -25.429  1.00  0.00     0.025 C 
HETATM   19  C18 UNL     1       0.051  54.075 -26.929  1.00  0.00     0.002 C 
HETATM   20  C19 UNL     1      -0.190  52.914 -27.889  1.00  0.00     0.000 C 
HETATM   21  C20 UNL     1       0.928  51.874 -27.939  1.00  0.00     0.000 C 
HETATM   22  C21 UNL     1       1.591  51.537 -26.607  1.00  0.00     0.002 C 
HETATM   23  C22 UNL     1       0.623  51.198 -25.486  1.00  0.00     0.025 C 
ENDBRANCH  15  17
ENDBRANCH  14  15
BRANCH  11  24
HETATM   24  N4  UNL     1       0.433  51.378 -18.687  1.00  0.00    -0.275 NA
HETATM   25  H3  UNL     1       0.515  50.522 -18.150  1.00  0.00     0.129 HD
BRANCH  24  26
HETATM   26  C7  UNL     1       0.677  52.558 -17.866  1.00  0.00     0.133 C 
BRANCH  26  27
HETATM   27  C8  UNL     1       1.633  52.264 -16.744  1.00  0.00    -0.029 A 
HETATM   28  C9  UNL     1       2.960  52.707 -16.775  1.00  0.00     0.011 A 
HETATM   29  C10 UNL     1       3.807  52.428 -15.704  1.00  0.00     0.018 A 
HETATM   30  C11 UNL     1       3.301  51.703 -14.640  1.00  0.00     0.087 A 
HETATM   31  N5  UNL     1       2.033  51.243 -14.580  1.00  0.00    -0.375 N 
HETATM   32  C12 UNL     1       1.230  51.531 -15.632  1.00  0.00     0.096 A 
ATOM     33  H5  UNL     1       1.695  50.706 -13.781  1.00  0.00     0.164 HD
ENDBRANCH  26  27
ENDBRANCH  24  26
ENDBRANCH  11  24
TORSDOF 5
ENDMDL
MODEL 6
REMARK minimizedAffinity -8.83775139
REMARK  5 active torsions:
REMARK  status: ('A' for Active; 'I' for Inactive)
REMARK    1  A    between atoms: C6_11  and  N4_12 
REMARK    2  A    between atoms: N4_12  and  C7_13 
REMARK    3  A    between atoms: C7_13  and  C8_14 
REMARK    4  A    between atoms: C15_23  and  N6_24 
REMARK    5  A    between atoms: N6_24  and  C16_25 
ROOT
HETATM    1  N1  UNL     1      -3.378  50.344 -28.594  1.00  0.00    -0.191 NA
HETATM    2  C1  UNL     1      -3.420  50.060 -27.469  1.00  0.00     0.103 C 
HETATM    3  C2  UNL     1      -3.518  49.660 -26.099  1.00  0.00     0.087 A 
HETATM    4  C3  UNL     1      -4.374  48.608 -25.807  1.00  0.00     0.113 A 
HETATM    5  N2  UNL     1      -4.639  48.161 -24.560  1.00  0.00    -0.363 N 
ATOM      6  H2  UNL     1      -5.271  47.376 -24.402  1.00  0.00     0.165 HD
HETATM    7  C4  UNL     1      -4.037  48.791 -23.534  1.00  0.00     0.060 A 
HETATM    8  C5  UNL     1      -4.292  48.414 -22.229  1.00  0.00     0.119 A 
HETATM    9  N3  UNL     1      -3.754  48.975 -21.115  1.00  0.00    -0.355 N 
ATOM     10  H3  UNL     1      -4.010  48.649 -20.183  1.00  0.00     0.166 HD
HETATM   11  C6  UNL     1      -2.874  49.973 -21.284  1.00  0.00     0.081 A 
HETATM   12  C13 UNL     1      -2.562  50.439 -22.559  1.00  0.00     0.058 A 
HETATM   13  C14 UNL     1      -3.140  49.858 -23.712  1.00  0.00     0.023 A 
HETATM   14  C15 UNL     1      -2.847  50.292 -25.041  1.00  0.00     0.063 A 
ENDROOT
BRANCH  14  15
HETATM   15  N6  UNL     1      -2.001  51.384 -25.198  1.00  0.00    -0.383 N 
HETATM   16  H11 UNL     1      -2.352  52.261 -24.800  1.00  0.00     0.160 HD
BRANCH  15  17
HETATM   17  C16 UNL     1      -0.826  51.503 -26.076  1.00  0.00     0.081 C 
HETATM   18  C17 UNL     1      -0.847  52.749 -26.975  1.00  0.00     0.025 C 
HETATM   19  C18 UNL     1       0.130  52.739 -28.159  1.00  0.00     0.002 C 
HETATM   20  C19 UNL     1       1.164  51.619 -28.208  1.00  0.00     0.000 C 
HETATM   21  C20 UNL     1       2.203  51.648 -27.086  1.00  0.00     0.000 C 
HETATM   22  C21 UNL     1       1.688  52.048 -25.707  1.00  0.00     0.002 C 
HETATM   23  C22 UNL     1       0.454  51.291 -25.246  1.00  0.00     0.025 C 
ENDBRANCH  15  17
ENDBRANCH  14  15
BRANCH  11  24
HETATM   24  N4  UNL     1      -2.304  50.619 -20.180  1.00  0.00    -0.275 NA
HETATM   25  H3  UNL     1      -2.580  51.594 -20.172  1.00  0.00     0.129 HD
BRANCH  24  26
HETATM   26  C7  UNL     1      -0.866  50.460 -19.999  1.00  0.00     0.133 C 
BRANCH  26  27
HETATM   27  C8  UNL     1      -0.130  51.745 -20.256  1.00  0.00    -0.029 A 
HETATM   28  C9  UNL     1       0.625  51.939 -21.417  1.00  0.00     0.011 A 
HETATM   29  C10 UNL     1       1.277  53.154 -21.623  1.00  0.00     0.018 A 
HETATM   30  C11 UNL     1       1.161  54.133 -20.652  1.00  0.00     0.087 A 
HETATM   31  N5  UNL     1       0.455  53.978 -19.510  1.00  0.00    -0.375 N 
HETATM   32  C12 UNL     1      -0.170  52.789 -19.337  1.00  0.00     0.096 A 
ATOM     33  H5  UNL     1       0.397  54.721 -18.813  1.00  0.00     0.164 HD
ENDBRANCH  26  27
ENDBRANCH  24  26
ENDBRANCH  11  24
TORSDOF 5
ENDMDL
MODEL 7
REMARK minimizedAffinity -8.70780849
REMARK  5 active torsions:
REMARK  status: ('A' for Active; 'I' for Inactive)
REMARK    1  A    between atoms: C6_11  and  N4_12 
REMARK    2  A    between atoms: N4_12  and  C7_13 
REMARK    3  A    between atoms: C7_13  and  C8_14 
REMARK    4  A    between atoms: C15_23  and  N6_24 
REMARK    5  A    between atoms: N6_24  and  C16_25 
ROOT
HETATM    1  N1  UNL     1      -1.060  50.287 -26.696  1.00  0.00    -0.191 NA
HETATM    2  C1  UNL     1      -0.730  50.962 -25.811  1.00  0.00     0.103 C 
HETATM    3  C2  UNL     1      -0.288  51.832 -24.766  1.00  0.00     0.087 A 
HETATM    4  C3  UNL     1       0.524  52.896 -25.130  1.00  0.00     0.113 A 
HETATM    5  N2  UNL     1       1.088  53.762 -24.260  1.00  0.00    -0.363 N 
ATOM      6  H2  UNL     1       1.671  54.534 -24.583  1.00  0.00     0.165 HD
HETATM    7  C4  UNL     1       0.851  53.566 -22.949  1.00  0.00     0.060 A 
HETATM    8  C5  UNL     1       1.427  54.389 -21.999  1.00  0.00     0.119 A 
HETATM    9  N3  UNL     1       1.270  54.288 -20.653  1.00  0.00    -0.355 N 
ATOM     10  H3  UNL     1       1.747  54.925 -20.016  1.00  0.00     0.166 HD
HETATM   11  C6  UNL     1       0.464  53.319 -20.192  1.00  0.00     0.081 A 
HETATM   12  C13 UNL     1      -0.151  52.426 -21.067  1.00  0.00     0.058 A 
HETATM   13  C14 UNL     1       0.032  52.532 -22.466  1.00  0.00     0.023 A 
HETATM   14  C15 UNL     1      -0.582  51.649 -23.406  1.00  0.00     0.063 A 
ENDROOT
BRANCH  14  15
HETATM   15  N6  UNL     1      -1.343  50.596 -22.911  1.00  0.00    -0.383 N 
HETATM   16  H11 UNL     1      -0.802  49.784 -22.596  1.00  0.00     0.160 HD
BRANCH  15  17
HETATM   17  C16 UNL     1      -2.796  50.393 -23.028  1.00  0.00     0.081 C 
HETATM   18  C17 UNL     1      -3.553  51.621 -23.559  1.00  0.00     0.025 C 
HETATM   19  C18 UNL     1      -5.074  51.614 -23.351  1.00  0.00     0.002 C 
HETATM   20  C19 UNL     1      -5.708  50.321 -22.847  1.00  0.00     0.000 C 
HETATM   21  C20 UNL     1      -5.629  49.141 -23.816  1.00  0.00     0.000 C 
HETATM   22  C21 UNL     1      -4.330  49.008 -24.604  1.00  0.00     0.002 C 
HETATM   23  C22 UNL     1      -3.068  49.065 -23.760  1.00  0.00     0.025 C 
ENDBRANCH  15  17
ENDBRANCH  14  15
BRANCH  11  24
HETATM   24  N4  UNL     1       0.281  53.137 -18.816  1.00  0.00    -0.275 NA
HETATM   25  H3  UNL     1       0.953  53.694 -18.303  1.00  0.00     0.129 HD
BRANCH  24  26
HETATM   26  C7  UNL     1       0.241  51.760 -18.338  1.00  0.00     0.133 C 
BRANCH  26  27
HETATM   27  C8  UNL     1       0.920  51.617 -17.004  1.00  0.00    -0.029 A 
HETATM   28  C9  UNL     1       0.652  50.537 -16.156  1.00  0.00     0.011 A 
HETATM   29  C10 UNL     1       1.318  50.434 -14.936  1.00  0.00     0.018 A 
HETATM   30  C11 UNL     1       2.224  51.424 -14.599  1.00  0.00     0.087 A 
HETATM   31  N5  UNL     1       2.498  52.490 -15.382  1.00  0.00    -0.375 N 
HETATM   32  C12 UNL     1       1.839  52.564 -16.563  1.00  0.00     0.096 A 
ATOM     33  H5  UNL     1       3.169  53.204 -15.098  1.00  0.00     0.164 HD
ENDBRANCH  26  27
ENDBRANCH  24  26
ENDBRANCH  11  24
TORSDOF 5
ENDMDL
MODEL 8
REMARK minimizedAffinity -8.63650036
REMARK  5 active torsions:
REMARK  status: ('A' for Active; 'I' for Inactive)
REMARK    1  A    between atoms: C6_11  and  N4_12 
REMARK    2  A    between atoms: N4_12  and  C7_13 
REMARK    3  A    between atoms: C7_13  and  C8_14 
REMARK    4  A    between atoms: C15_23  and  N6_24 
REMARK    5  A    between atoms: N6_24  and  C16_25 
ROOT
HETATM    1  N1  UNL     1       1.817  52.186 -26.407  1.00  0.00    -0.191 NA
HETATM    2  C1  UNL     1       0.721  52.148 -26.024  1.00  0.00     0.103 C 
HETATM    3  C2  UNL     1      -0.648  52.127 -25.615  1.00  0.00     0.087 A 
HETATM    4  C3  UNL     1      -1.593  52.538 -26.544  1.00  0.00     0.113 A 
HETATM    5  N2  UNL     1      -2.916  52.651 -26.292  1.00  0.00    -0.363 N 
ATOM      6  H2  UNL     1      -3.569  52.950 -27.016  1.00  0.00     0.165 HD
HETATM    7  C4  UNL     1      -3.338  52.352 -25.050  1.00  0.00     0.060 A 
HETATM    8  C5  UNL     1      -4.672  52.483 -24.710  1.00  0.00     0.119 A 
HETATM    9  N3  UNL     1      -5.216  52.220 -23.493  1.00  0.00    -0.355 N 
ATOM     10  H3  UNL     1      -6.210  52.360 -23.317  1.00  0.00     0.166 HD
HETATM   11  C6  UNL     1      -4.397  51.769 -22.530  1.00  0.00     0.081 A 
HETATM   12  C13 UNL     1      -3.033  51.619 -22.767  1.00  0.00     0.058 A 
HETATM   13  C14 UNL     1      -2.475  51.910 -24.034  1.00  0.00     0.023 A 
HETATM   14  C15 UNL     1      -1.085  51.765 -24.331  1.00  0.00     0.063 A 
ENDROOT
BRANCH  14  15
HETATM   15  N6  UNL     1      -0.235  51.381 -23.300  1.00  0.00    -0.383 N 
HETATM   16  H11 UNL     1       0.354  50.568 -23.509  1.00  0.00     0.160 HD
BRANCH  15  17
HETATM   17  C16 UNL     1      -0.264  51.809 -21.893  1.00  0.00     0.081 C 
HETATM   18  C17 UNL     1      -0.034  50.666 -20.892  1.00  0.00     0.025 C 
HETATM   19  C18 UNL     1      -0.422  50.960 -19.436  1.00  0.00     0.002 C 
HETATM   20  C19 UNL     1      -0.784  52.399 -19.082  1.00  0.00     0.000 C 
HETATM   21  C20 UNL     1       0.365  53.401 -19.193  1.00  0.00     0.000 C 
HETATM   22  C21 UNL     1       1.317  53.201 -20.368  1.00  0.00     0.002 C 
HETATM   23  C22 UNL     1       0.635  53.049 -21.718  1.00  0.00     0.025 C 
ENDBRANCH  15  17
ENDBRANCH  14  15
BRANCH  11  24
HETATM   24  N4  UNL     1      -4.883  51.508 -21.243  1.00  0.00    -0.275 NA
HETATM   25  H3  UNL     1      -4.196  51.785 -20.553  1.00  0.00     0.129 HD
BRANCH  24  26
HETATM   26  C7  UNL     1      -5.390  50.164 -20.994  1.00  0.00     0.133 C 
BRANCH  26  27
HETATM   27  C8  UNL     1      -6.032  49.578 -22.220  1.00  0.00    -0.029 A 
HETATM   28  C9  UNL     1      -5.362  48.655 -23.030  1.00  0.00     0.011 A 
HETATM   29  C10 UNL     1      -6.003  48.122 -24.148  1.00  0.00     0.018 A 
HETATM   30  C11 UNL     1      -7.292  48.541 -24.425  1.00  0.00     0.087 A 
HETATM   31  N5  UNL     1      -7.967  49.441 -23.678  1.00  0.00    -0.375 N 
HETATM   32  C12 UNL     1      -7.322  49.941 -22.597  1.00  0.00     0.096 A 
ATOM     33  H5  UNL     1      -8.916  49.731 -23.916  1.00  0.00     0.164 HD
ENDBRANCH  26  27
ENDBRANCH  24  26
ENDBRANCH  11  24
TORSDOF 5
ENDMDL
MODEL 9
REMARK minimizedAffinity -8.63427639
REMARK  5 active torsions:
REMARK  status: ('A' for Active; 'I' for Inactive)
REMARK    1  A    between atoms: C6_11  and  N4_12 
REMARK    2  A    between atoms: N4_12  and  C7_13 
REMARK    3  A    between atoms: C7_13  and  C8_14 
REMARK    4  A    between atoms: C15_23  and  N6_24 
REMARK    5  A    between atoms: N6_24  and  C16_25 
ROOT
HETATM    1  N1  UNL     1      -3.485  50.025 -28.548  1.00  0.00    -0.191 NA
HETATM    2  C1  UNL     1      -2.875  50.634 -27.769  1.00  0.00     0.103 C 
HETATM    3  C2  UNL     1      -2.111  51.430 -26.860  1.00  0.00     0.087 A 
HETATM    4  C3  UNL     1      -1.582  52.617 -27.350  1.00  0.00     0.113 A 
HETATM    5  N2  UNL     1      -0.776  53.442 -26.647  1.00  0.00    -0.363 N 
ATOM      6  H2  UNL     1      -0.422  54.309 -27.052  1.00  0.00     0.165 HD
HETATM    7  C4  UNL     1      -0.459  53.078 -25.390  1.00  0.00     0.060 A 
HETATM    8  C5  UNL     1       0.393  53.854 -24.627  1.00  0.00     0.119 A 
HETATM    9  N3  UNL     1       0.792  53.589 -23.355  1.00  0.00    -0.355 N 
ATOM     10  H3  UNL     1       1.441  54.205 -22.865  1.00  0.00     0.166 HD
HETATM   11  C6  UNL     1       0.302  52.488 -22.767  1.00  0.00     0.081 A 
HETATM   12  C13 UNL     1      -0.551  51.630 -23.458  1.00  0.00     0.058 A 
HETATM   13  C14 UNL     1      -0.948  51.908 -24.786  1.00  0.00     0.023 A 
HETATM   14  C15 UNL     1      -1.826  51.066 -25.535  1.00  0.00     0.063 A 
ENDROOT
BRANCH  14  15
HETATM   15  N6  UNL     1      -2.256  49.884 -24.945  1.00  0.00    -0.383 N 
HETATM   16  H11 UNL     1      -1.632  49.082 -25.083  1.00  0.00     0.160 HD
BRANCH  15  17
HETATM   17  C16 UNL     1      -3.586  49.575 -24.396  1.00  0.00     0.081 C 
HETATM   18  C17 UNL     1      -4.501  50.802 -24.260  1.00  0.00     0.025 C 
HETATM   19  C18 UNL     1      -5.733  50.625 -23.361  1.00  0.00     0.002 C 
HETATM   20  C19 UNL     1      -6.050  49.215 -22.873  1.00  0.00     0.000 C 
HETATM   21  C20 UNL     1      -6.452  48.227 -23.968  1.00  0.00     0.000 C 
HETATM   22  C21 UNL     1      -5.695  48.344 -25.286  1.00  0.00     0.002 C 
HETATM   23  C22 UNL     1      -4.182  48.370 -25.149  1.00  0.00     0.025 C 
ENDBRANCH  15  17
ENDBRANCH  14  15
BRANCH  11  24
HETATM   24  N4  UNL     1       0.695  52.136 -21.470  1.00  0.00    -0.275 NA
HETATM   25  H3  UNL     1       1.451  51.463 -21.510  1.00  0.00     0.129 HD
BRANCH  24  26
HETATM   26  C7  UNL     1      -0.361  51.711 -20.558  1.00  0.00     0.133 C 
BRANCH  26  27
HETATM   27  C8  UNL     1       0.111  51.695 -19.132  1.00  0.00    -0.029 A 
HETATM   28  C9  UNL     1      -0.110  50.594 -18.297  1.00  0.00     0.011 A 
HETATM   29  C10 UNL     1       0.362  50.615 -16.985  1.00  0.00     0.018 A 
HETATM   30  C11 UNL     1       1.032  51.744 -16.548  1.00  0.00     0.087 A 
HETATM   31  N5  UNL     1       1.251  52.832 -17.317  1.00  0.00    -0.375 N 
HETATM   32  C12 UNL     1       0.784  52.784 -18.588  1.00  0.00     0.096 A 
ATOM     33  H5  UNL     1       1.745  53.650 -16.959  1.00  0.00     0.164 HD
ENDBRANCH  26  27
ENDBRANCH  24  26
ENDBRANCH  11  24
TORSDOF 5
ENDMDL
