MODEL 1
REMARK minimizedAffinity -10.1751003
REMARK CNNscore 0.192726046
REMARK CNNaffinity 6.77835083
REMARK  15 active torsions:
REMARK  status: ('A' for Active; 'I' for Inactive)
REMARK    1  A    between atoms: C2_2  and  N1_3 
REMARK    2  A    between atoms: C2_2  and  C18_28 
REMARK       I    between atoms: N1_3  and  C3_4 
REMARK    3  A    between atoms: C3_4  and  C4_6 
REMARK    4  A    between atoms: C4_6  and  C5_7 
REMARK    5  A    between atoms: C4_6  and  N2_19 
REMARK    6  A    between atoms: C5_7  and  C6_8 
REMARK    7  A    between atoms: C9_11  and  O2_12 
REMARK    8  A    between atoms: O2_12  and  P1_13 
REMARK    9  A    between atoms: P1_13  and  O4_15 
REMARK   10  A    between atoms: P1_13  and  O5_16 
REMARK       I    between atoms: N2_19  and  C12_20 
REMARK   11  A    between atoms: C12_20  and  C13_22 
REMARK   12  A    between atoms: C13_22  and  C14_23 
REMARK   13  A    between atoms: C19_31  and  C20_32 
REMARK   14  A    between atoms: C20_32  and  C21_33 
REMARK   15  A    between atoms: C24_36  and  C25_37 
ROOT
HETATM    1  C4  UNL     1      -2.866  49.693 -26.337  1.00  0.00     0.180 C 
ENDROOT
BRANCH   1   2
HETATM    2  C3  UNL     1      -1.849  50.767 -26.790  1.00  0.00     0.241 C 
HETATM    3  N1  UNL     1      -0.550  50.586 -26.382  1.00  0.00    -0.348 N 
HETATM    4  H5  UNL     1      -0.307  49.794 -25.801  1.00  0.00     0.163 HD
HETATM    5  O1  UNL     1      -2.201  51.751 -27.443  1.00  0.00    -0.271 OA
BRANCH   3   6
HETATM    6  C2  UNL     1       0.528  51.466 -26.830  1.00  0.00     0.158 C 
HETATM    7  C1  UNL     1       0.287  51.911 -28.269  1.00  0.00     0.041 C 
BRANCH   6   8
HETATM    8  C18 UNL     1       0.638  52.641 -25.911  1.00  0.00     0.170 A 
HETATM    9  N3  UNL     1       1.169  52.729 -24.711  1.00  0.00    -0.325 N 
HETATM   10  C19 UNL     1       0.944  54.048 -24.387  1.00  0.00     0.108 A 
ATOM     11  H3  UNL     1       1.631  52.005 -24.160  1.00  0.00     0.169 HD
HETATM   12  N4  UNL     1       0.331  54.762 -25.346  1.00  0.00    -0.247 N 
HETATM   13  O7  UNL     1       0.122  53.826 -26.359  1.00  0.00    -0.221 OA
ATOM     14  H4  UNL     1       0.079  55.750 -25.336  1.00  0.00     0.196 HD
BRANCH  10  15
HETATM   15  C20 UNL     1       1.431  54.659 -23.122  1.00  0.00     0.117 C 
BRANCH  15  16
HETATM   16  C21 UNL     1       0.977  53.764 -21.993  1.00  0.00    -0.051 A 
HETATM   17  C22 UNL     1       0.149  52.659 -22.242  1.00  0.00     0.008 A 
HETATM   18  C23 UNL     1      -0.272  51.833 -21.194  1.00  0.00     0.017 A 
HETATM   19  C24 UNL     1       0.116  52.100 -19.872  1.00  0.00     0.047 A 
HETATM   20  C26 UNL     1       0.935  53.211 -19.623  1.00  0.00     0.017 A 
HETATM   21  C27 UNL     1       1.366  54.028 -20.672  1.00  0.00     0.008 A 
BRANCH  19  22
HETATM   22  C25 UNL     1      -0.307  51.199 -18.739  1.00  0.00     0.417 C 
HETATM   23  F1  UNL     1       0.624  51.109 -17.745  1.00  0.00    -0.166 F 
HETATM   24  F2  UNL     1      -0.546  49.917 -19.134  1.00  0.00    -0.166 F 
HETATM   25  F3  UNL     1      -1.455  51.623 -18.125  1.00  0.00    -0.166 F 
ENDBRANCH  19  22
ENDBRANCH  15  16
ENDBRANCH  10  15
ENDBRANCH   6   8
ENDBRANCH   3   6
ENDBRANCH   1   2
BRANCH   1  26
HETATM   26  C5  UNL     1      -3.435  48.837 -27.490  1.00  0.00     0.073 C 
BRANCH  26  27
HETATM   27  C6  UNL     1      -4.821  48.279 -27.252  1.00  0.00    -0.056 A 
HETATM   28  C7  UNL     1      -5.648  47.979 -28.338  1.00  0.00     0.010 A 
HETATM   29  C8  UNL     1      -6.965  47.575 -28.129  1.00  0.00     0.038 A 
HETATM   30  C9  UNL     1      -7.466  47.436 -26.836  1.00  0.00     0.081 A 
HETATM   31  C10 UNL     1      -6.634  47.666 -25.747  1.00  0.00     0.038 A 
HETATM   32  C11 UNL     1      -5.317  48.092 -25.956  1.00  0.00     0.010 A 
BRANCH  30  33
HETATM   33  O2  UNL     1      -8.785  47.108 -26.758  1.00  0.00    -0.255 OA
BRANCH  33  34
HETATM   34  P1  UNL     1     -10.038  48.086 -26.640  1.00  0.00     0.396 P 
HETATM   35  O3  UNL     1     -11.063  47.923 -27.715  1.00  0.00    -0.631 OA
BRANCH  34  36
HETATM   36  O4  UNL     1     -10.656  47.880 -25.183  1.00  0.00    -0.307 OA
HETATM   37  H11 UNL     1     -11.312  47.157 -25.194  1.00  0.00     0.222 HD
ENDBRANCH  34  36
BRANCH  34  38
HETATM   38  O5  UNL     1      -9.488  49.587 -26.613  1.00  0.00    -0.307 OA
HETATM   39  H12 UNL     1      -9.641  50.020 -27.472  1.00  0.00     0.222 HD
ENDBRANCH  34  38
ENDBRANCH  33  34
ENDBRANCH  30  33
ENDBRANCH  26  27
ENDBRANCH   1  26
BRANCH   1  40
HETATM   40  N2  UNL     1      -3.910  50.388 -25.579  1.00  0.00    -0.347 N 
HETATM   41  C12 UNL     1      -3.666  50.924 -24.337  1.00  0.00     0.223 C 
HETATM   42  O6  UNL     1      -2.602  50.757 -23.745  1.00  0.00    -0.273 OA
HETATM   43  H15 UNL     1      -4.683  50.751 -26.133  1.00  0.00     0.163 HD
BRANCH  41  44
HETATM   44  C13 UNL     1      -4.826  51.716 -23.753  1.00  0.00     0.148 C 
BRANCH  44  45
HETATM   45  C14 UNL     1      -5.562  50.876 -22.756  1.00  0.00    -0.009 A 
HETATM   46  C15 UNL     1      -6.702  50.119 -22.955  1.00  0.00     0.015 A 
HETATM   47  C16 UNL     1      -7.114  49.442 -21.772  1.00  0.00     0.008 A 
HETATM   48  C17 UNL     1      -6.279  49.706 -20.708  1.00  0.00     0.050 A 
HETATM   49  S1  UNL     1      -5.007  50.767 -21.138  1.00  0.00    -0.106 SA
ENDBRANCH  44  45
ENDBRANCH  41  44
ENDBRANCH   1  40
TORSDOF 15
ENDMDL
MODEL 2
REMARK minimizedAffinity -9.783494
REMARK CNNscore 0.124297485
REMARK CNNaffinity 6.73349571
REMARK  15 active torsions:
REMARK  status: ('A' for Active; 'I' for Inactive)
REMARK    1  A    between atoms: C2_2  and  N1_3 
REMARK    2  A    between atoms: C2_2  and  C18_28 
REMARK       I    between atoms: N1_3  and  C3_4 
REMARK    3  A    between atoms: C3_4  and  C4_6 
REMARK    4  A    between atoms: C4_6  and  C5_7 
REMARK    5  A    between atoms: C4_6  and  N2_19 
REMARK    6  A    between atoms: C5_7  and  C6_8 
REMARK    7  A    between atoms: C9_11  and  O2_12 
REMARK    8  A    between atoms: O2_12  and  P1_13 
REMARK    9  A    between atoms: P1_13  and  O4_15 
REMARK   10  A    between atoms: P1_13  and  O5_16 
REMARK       I    between atoms: N2_19  and  C12_20 
REMARK   11  A    between atoms: C12_20  and  C13_22 
REMARK   12  A    between atoms: C13_22  and  C14_23 
REMARK   13  A    between atoms: C19_31  and  C20_32 
REMARK   14  A    between atoms: C20_32  and  C21_33 
REMARK   15  A    between atoms: C24_36  and  C25_37 
ROOT
HETATM    1  C4  UNL     1      -3.252  50.599 -26.399  1.00  0.00     0.180 C 
ENDROOT
BRANCH   1   2
HETATM    2  C3  UNL     1      -2.220  51.705 -26.722  1.00  0.00     0.241 C 
HETATM    3  N1  UNL     1      -0.901  51.320 -26.745  1.00  0.00    -0.348 N 
HETATM    4  H5  UNL     1      -0.649  50.362 -26.539  1.00  0.00     0.163 HD
HETATM    5  O1  UNL     1      -2.566  52.874 -26.903  1.00  0.00    -0.271 OA
BRANCH   3   6
HETATM    6  C2  UNL     1       0.162  52.240 -27.143  1.00  0.00     0.158 C 
HETATM    7  C1  UNL     1      -0.210  52.955 -28.438  1.00  0.00     0.041 C 
BRANCH   6   8
HETATM    8  C18 UNL     1       0.425  53.217 -26.042  1.00  0.00     0.170 A 
HETATM    9  N3  UNL     1       1.009  53.041 -24.876  1.00  0.00    -0.325 N 
HETATM   10  C19 UNL     1       0.930  54.297 -24.316  1.00  0.00     0.108 A 
ATOM     11  H3  UNL     1       1.417  52.192 -24.486  1.00  0.00     0.169 HD
HETATM   12  N4  UNL     1       0.354  55.223 -25.100  1.00  0.00    -0.247 N 
HETATM   13  O7  UNL     1       0.013  54.506 -26.247  1.00  0.00    -0.221 OA
ATOM     14  H4  UNL     1       0.202  56.212 -24.904  1.00  0.00     0.196 HD
BRANCH  10  15
HETATM   15  C20 UNL     1       1.524  54.625 -22.993  1.00  0.00     0.117 C 
BRANCH  15  16
HETATM   16  C21 UNL     1       0.977  53.627 -22.000  1.00  0.00    -0.051 A 
HETATM   17  C22 UNL     1       1.170  53.805 -20.622  1.00  0.00     0.008 A 
HETATM   18  C23 UNL     1       0.665  52.877 -19.705  1.00  0.00     0.017 A 
HETATM   19  C24 UNL     1      -0.035  51.744 -20.146  1.00  0.00     0.047 A 
HETATM   20  C26 UNL     1      -0.219  51.561 -21.524  1.00  0.00     0.017 A 
HETATM   21  C27 UNL     1       0.274  52.494 -22.439  1.00  0.00     0.008 A 
BRANCH  19  22
HETATM   22  C25 UNL     1      -0.611  50.753 -19.164  1.00  0.00     0.417 C 
HETATM   23  F1  UNL     1       0.204  50.519 -18.094  1.00  0.00    -0.166 F 
HETATM   24  F2  UNL     1      -0.852  49.531 -19.716  1.00  0.00    -0.166 F 
HETATM   25  F3  UNL     1      -1.801  51.168 -18.631  1.00  0.00    -0.166 F 
ENDBRANCH  19  22
ENDBRANCH  15  16
ENDBRANCH  10  15
ENDBRANCH   6   8
ENDBRANCH   3   6
ENDBRANCH   1   2
BRANCH   1  26
HETATM   26  C5  UNL     1      -2.651  49.361 -25.697  1.00  0.00     0.073 C 
BRANCH  26  27
HETATM   27  C6  UNL     1      -3.314  48.980 -24.391  1.00  0.00    -0.056 A 
HETATM   28  C7  UNL     1      -4.600  48.431 -24.397  1.00  0.00     0.010 A 
HETATM   29  C8  UNL     1      -5.264  48.183 -23.197  1.00  0.00     0.038 A 
HETATM   30  C9  UNL     1      -4.645  48.452 -21.978  1.00  0.00     0.081 A 
HETATM   31  C10 UNL     1      -3.343  48.934 -21.958  1.00  0.00     0.038 A 
HETATM   32  C11 UNL     1      -2.682  49.202 -23.163  1.00  0.00     0.010 A 
BRANCH  30  33
HETATM   33  O2  UNL     1      -5.418  48.240 -20.876  1.00  0.00    -0.255 OA
BRANCH  33  34
HETATM   34  P1  UNL     1      -6.596  49.153 -20.309  1.00  0.00     0.396 P 
HETATM   35  O3  UNL     1      -6.902  48.950 -18.861  1.00  0.00    -0.631 OA
BRANCH  34  36
HETATM   36  O4  UNL     1      -6.212  50.667 -20.637  1.00  0.00    -0.307 OA
HETATM   37  H11 UNL     1      -5.670  51.041 -19.915  1.00  0.00     0.222 HD
ENDBRANCH  34  36
BRANCH  34  38
HETATM   38  O5  UNL     1      -7.896  48.886 -21.200  1.00  0.00    -0.307 OA
HETATM   39  H12 UNL     1      -8.531  48.329 -20.714  1.00  0.00     0.222 HD
ENDBRANCH  34  38
ENDBRANCH  33  34
ENDBRANCH  30  33
ENDBRANCH  26  27
ENDBRANCH   1  26
BRANCH   1  40
HETATM   40  N2  UNL     1      -3.927  50.266 -27.657  1.00  0.00    -0.347 N 
HETATM   41  C12 UNL     1      -3.935  48.985 -28.157  1.00  0.00     0.223 C 
HETATM   42  O6  UNL     1      -3.289  48.074 -27.643  1.00  0.00    -0.273 OA
HETATM   43  H15 UNL     1      -4.654  50.916 -27.947  1.00  0.00     0.163 HD
BRANCH  41  44
HETATM   44  C13 UNL     1      -4.789  48.800 -29.402  1.00  0.00     0.148 C 
BRANCH  44  45
HETATM   45  C14 UNL     1      -6.001  47.987 -29.067  1.00  0.00    -0.009 A 
HETATM   46  C15 UNL     1      -6.406  47.530 -27.826  1.00  0.00     0.015 A 
HETATM   47  C16 UNL     1      -7.622  46.791 -27.893  1.00  0.00     0.008 A 
HETATM   48  C17 UNL     1      -8.103  46.703 -29.181  1.00  0.00     0.050 A 
HETATM   49  S1  UNL     1      -7.090  47.508 -30.302  1.00  0.00    -0.106 SA
ENDBRANCH  44  45
ENDBRANCH  41  44
ENDBRANCH   1  40
TORSDOF 15
ENDMDL
MODEL 3
REMARK minimizedAffinity -9.71336651
REMARK CNNscore 0.117732003
REMARK CNNaffinity 6.59294367
REMARK  15 active torsions:
REMARK  status: ('A' for Active; 'I' for Inactive)
REMARK    1  A    between atoms: C2_2  and  N1_3 
REMARK    2  A    between atoms: C2_2  and  C18_28 
REMARK       I    between atoms: N1_3  and  C3_4 
REMARK    3  A    between atoms: C3_4  and  C4_6 
REMARK    4  A    between atoms: C4_6  and  C5_7 
REMARK    5  A    between atoms: C4_6  and  N2_19 
REMARK    6  A    between atoms: C5_7  and  C6_8 
REMARK    7  A    between atoms: C9_11  and  O2_12 
REMARK    8  A    between atoms: O2_12  and  P1_13 
REMARK    9  A    between atoms: P1_13  and  O4_15 
REMARK   10  A    between atoms: P1_13  and  O5_16 
REMARK       I    between atoms: N2_19  and  C12_20 
REMARK   11  A    between atoms: C12_20  and  C13_22 
REMARK   12  A    between atoms: C13_22  and  C14_23 
REMARK   13  A    between atoms: C19_31  and  C20_32 
REMARK   14  A    between atoms: C20_32  and  C21_33 
REMARK   15  A    between atoms: C24_36  and  C25_37 
ROOT
HETATM    1  C4  UNL     1      -3.791  50.468 -25.214  1.00  0.00     0.180 C 
ENDROOT
BRANCH   1   2
HETATM    2  C3  UNL     1      -4.650  50.813 -23.975  1.00  0.00     0.241 C 
HETATM    3  N1  UNL     1      -5.483  49.822 -23.516  1.00  0.00    -0.348 N 
HETATM    4  H5  UNL     1      -5.524  48.932 -23.996  1.00  0.00     0.163 HD
HETATM    5  O1  UNL     1      -4.616  51.933 -23.460  1.00  0.00    -0.271 OA
BRANCH   3   6
HETATM    6  C2  UNL     1      -6.265  49.979 -22.291  1.00  0.00     0.158 C 
HETATM    7  C1  UNL     1      -7.371  48.931 -22.229  1.00  0.00     0.041 C 
BRANCH   6   8
HETATM    8  C18 UNL     1      -5.364  49.887 -21.101  1.00  0.00     0.170 A 
HETATM    9  N3  UNL     1      -4.674  50.824 -20.488  1.00  0.00    -0.325 N 
HETATM   10  C19 UNL     1      -4.041  50.118 -19.490  1.00  0.00     0.108 A 
ATOM     11  H3  UNL     1      -4.621  51.821 -20.698  1.00  0.00     0.169 HD
HETATM   12  N4  UNL     1      -4.341  48.808 -19.456  1.00  0.00    -0.247 N 
HETATM   13  O7  UNL     1      -5.218  48.652 -20.530  1.00  0.00    -0.221 OA
ATOM     14  H4  UNL     1      -4.008  48.100 -18.803  1.00  0.00     0.196 HD
BRANCH  10  15
HETATM   15  C20 UNL     1      -3.176  50.767 -18.470  1.00  0.00     0.117 C 
BRANCH  15  16
HETATM   16  C21 UNL     1      -2.046  51.442 -19.211  1.00  0.00    -0.051 A 
HETATM   17  C22 UNL     1      -1.114  52.237 -18.528  1.00  0.00     0.008 A 
HETATM   18  C23 UNL     1      -0.069  52.863 -19.218  1.00  0.00     0.017 A 
HETATM   19  C24 UNL     1       0.060  52.717 -20.607  1.00  0.00     0.047 A 
HETATM   20  C26 UNL     1      -0.878  51.930 -21.291  1.00  0.00     0.017 A 
HETATM   21  C27 UNL     1      -1.914  51.294 -20.600  1.00  0.00     0.008 A 
BRANCH  19  22
HETATM   22  C25 UNL     1       1.200  53.363 -21.356  1.00  0.00     0.417 C 
HETATM   23  F1  UNL     1       1.223  53.043 -22.683  1.00  0.00    -0.166 F 
HETATM   24  F2  UNL     1       2.424  53.012 -20.873  1.00  0.00    -0.166 F 
HETATM   25  F3  UNL     1       1.155  54.730 -21.312  1.00  0.00    -0.166 F 
ENDBRANCH  19  22
ENDBRANCH  15  16
ENDBRANCH  10  15
ENDBRANCH   6   8
ENDBRANCH   3   6
ENDBRANCH   1   2
BRANCH   1  26
HETATM   26  C5  UNL     1      -3.677  48.955 -25.502  1.00  0.00     0.073 C 
BRANCH  26  27
HETATM   27  C6  UNL     1      -4.627  48.429 -26.555  1.00  0.00    -0.056 A 
HETATM   28  C7  UNL     1      -4.287  48.518 -27.908  1.00  0.00     0.010 A 
HETATM   29  C8  UNL     1      -5.202  48.142 -28.889  1.00  0.00     0.038 A 
HETATM   30  C9  UNL     1      -6.456  47.646 -28.535  1.00  0.00     0.081 A 
HETATM   31  C10 UNL     1      -6.780  47.489 -27.194  1.00  0.00     0.038 A 
HETATM   32  C11 UNL     1      -5.869  47.885 -26.207  1.00  0.00     0.010 A 
BRANCH  30  33
HETATM   33  O2  UNL     1      -7.291  47.382 -29.578  1.00  0.00    -0.255 OA
BRANCH  33  34
HETATM   34  P1  UNL     1      -8.466  48.293 -30.154  1.00  0.00     0.396 P 
HETATM   35  O3  UNL     1      -9.232  47.685 -31.283  1.00  0.00    -0.631 OA
BRANCH  34  36
HETATM   36  O4  UNL     1      -9.408  48.673 -28.922  1.00  0.00    -0.307 OA
HETATM   37  H11 UNL     1     -10.094  47.989 -28.799  1.00  0.00     0.222 HD
ENDBRANCH  34  36
BRANCH  34  38
HETATM   38  O5  UNL     1      -7.831  49.692 -30.596  1.00  0.00    -0.307 OA
HETATM   39  H12 UNL     1      -7.757  49.740 -31.566  1.00  0.00     0.222 HD
ENDBRANCH  34  38
ENDBRANCH  33  34
ENDBRANCH  30  33
ENDBRANCH  26  27
ENDBRANCH   1  26
BRANCH   1  40
HETATM   40  N2  UNL     1      -2.487  51.109 -25.021  1.00  0.00    -0.347 N 
HETATM   41  C12 UNL     1      -2.204  52.347 -25.547  1.00  0.00     0.223 C 
HETATM   42  O6  UNL     1      -2.979  52.936 -26.299  1.00  0.00    -0.273 OA
HETATM   43  H15 UNL     1      -1.952  50.775 -24.222  1.00  0.00     0.163 HD
BRANCH  41  44
HETATM   44  C13 UNL     1      -0.852  52.911 -25.141  1.00  0.00     0.148 C 
BRANCH  44  45
HETATM   45  C14 UNL     1       0.206  52.411 -26.076  1.00  0.00    -0.009 A 
HETATM   46  C15 UNL     1       1.401  51.791 -25.760  1.00  0.00     0.015 A 
HETATM   47  C16 UNL     1       2.153  51.445 -26.919  1.00  0.00     0.008 A 
HETATM   48  C17 UNL     1       1.513  51.817 -28.080  1.00  0.00     0.050 A 
HETATM   49  S1  UNL     1       0.012  52.580 -27.771  1.00  0.00    -0.106 SA
ENDBRANCH  44  45
ENDBRANCH  41  44
ENDBRANCH   1  40
TORSDOF 15
ENDMDL
MODEL 4
REMARK minimizedAffinity -8.74725246
REMARK CNNscore 0.103099599
REMARK CNNaffinity 6.29037857
REMARK  15 active torsions:
REMARK  status: ('A' for Active; 'I' for Inactive)
REMARK    1  A    between atoms: C2_2  and  N1_3 
REMARK    2  A    between atoms: C2_2  and  C18_28 
REMARK       I    between atoms: N1_3  and  C3_4 
REMARK    3  A    between atoms: C3_4  and  C4_6 
REMARK    4  A    between atoms: C4_6  and  C5_7 
REMARK    5  A    between atoms: C4_6  and  N2_19 
REMARK    6  A    between atoms: C5_7  and  C6_8 
REMARK    7  A    between atoms: C9_11  and  O2_12 
REMARK    8  A    between atoms: O2_12  and  P1_13 
REMARK    9  A    between atoms: P1_13  and  O4_15 
REMARK   10  A    between atoms: P1_13  and  O5_16 
REMARK       I    between atoms: N2_19  and  C12_20 
REMARK   11  A    between atoms: C12_20  and  C13_22 
REMARK   12  A    between atoms: C13_22  and  C14_23 
REMARK   13  A    between atoms: C19_31  and  C20_32 
REMARK   14  A    between atoms: C20_32  and  C21_33 
REMARK   15  A    between atoms: C24_36  and  C25_37 
ROOT
HETATM    1  C4  UNL     1       0.120  51.798 -17.946  1.00  0.00     0.180 C 
ENDROOT
BRANCH   1   2
HETATM    2  C3  UNL     1       1.021  51.960 -16.698  1.00  0.00     0.241 C 
HETATM    3  N1  UNL     1       0.620  51.291 -15.567  1.00  0.00    -0.348 N 
HETATM    4  H5  UNL     1      -0.233  50.746 -15.576  1.00  0.00     0.163 HD
HETATM    5  O1  UNL     1       2.016  52.686 -16.714  1.00  0.00    -0.271 OA
BRANCH   3   6
HETATM    6  C2  UNL     1       1.436  51.271 -14.355  1.00  0.00     0.158 C 
HETATM    7  C1  UNL     1       2.864  51.703 -14.669  1.00  0.00     0.041 C 
BRANCH   6   8
HETATM    8  C18 UNL     1       0.820  52.151 -13.315  1.00  0.00     0.170 A 
HETATM    9  N3  UNL     1       1.389  52.939 -12.428  1.00  0.00    -0.325 N 
HETATM   10  C19 UNL     1       0.304  53.458 -11.758  1.00  0.00     0.108 A 
ATOM     11  H3  UNL     1       2.382  53.119 -12.276  1.00  0.00     0.169 HD
HETATM   12  N4  UNL     1      -0.887  53.044 -12.220  1.00  0.00    -0.247 N 
HETATM   13  O7  UNL     1      -0.547  52.171 -13.252  1.00  0.00    -0.221 OA
ATOM     14  H4  UNL     1      -1.817  53.305 -11.893  1.00  0.00     0.196 HD
BRANCH  10  15
HETATM   15  C20 UNL     1       0.437  54.473 -10.680  1.00  0.00     0.117 C 
BRANCH  15  16
HETATM   16  C21 UNL     1       1.910  54.600 -10.369  1.00  0.00    -0.051 A 
HETATM   17  C22 UNL     1       2.644  55.709 -10.815  1.00  0.00     0.008 A 
HETATM   18  C23 UNL     1       4.009  55.823 -10.528  1.00  0.00     0.017 A 
HETATM   19  C24 UNL     1       4.672  54.825  -9.797  1.00  0.00     0.047 A 
HETATM   20  C26 UNL     1       3.939  53.713  -9.360  1.00  0.00     0.017 A 
HETATM   21  C27 UNL     1       2.573  53.605  -9.636  1.00  0.00     0.008 A 
BRANCH  19  22
HETATM   22  C25 UNL     1       6.136  54.953  -9.455  1.00  0.00     0.417 C 
HETATM   23  F1  UNL     1       6.798  53.759  -9.463  1.00  0.00    -0.166 F 
HETATM   24  F2  UNL     1       6.353  55.484  -8.219  1.00  0.00    -0.166 F 
HETATM   25  F3  UNL     1       6.817  55.752 -10.334  1.00  0.00    -0.166 F 
ENDBRANCH  19  22
ENDBRANCH  15  16
ENDBRANCH  10  15
ENDBRANCH   6   8
ENDBRANCH   3   6
ENDBRANCH   1   2
BRANCH   1  26
HETATM   26  C5  UNL     1      -0.393  50.359 -18.171  1.00  0.00     0.073 C 
BRANCH  26  27
HETATM   27  C6  UNL     1      -1.440  50.214 -19.255  1.00  0.00    -0.056 A 
HETATM   28  C7  UNL     1      -1.106  49.607 -20.469  1.00  0.00     0.010 A 
HETATM   29  C8  UNL     1      -2.028  49.571 -21.513  1.00  0.00     0.038 A 
HETATM   30  C9  UNL     1      -3.301  50.113 -21.353  1.00  0.00     0.081 A 
HETATM   31  C10 UNL     1      -3.668  50.659 -20.129  1.00  0.00     0.038 A 
HETATM   32  C11 UNL     1      -2.736  50.714 -19.085  1.00  0.00     0.010 A 
BRANCH  30  33
HETATM   33  O2  UNL     1      -4.088  50.086 -22.465  1.00  0.00    -0.255 OA
BRANCH  33  34
HETATM   34  P1  UNL     1      -4.422  51.283 -23.463  1.00  0.00     0.396 P 
HETATM   35  O3  UNL     1      -4.506  52.629 -22.821  1.00  0.00    -0.631 OA
BRANCH  34  36
HETATM   36  O4  UNL     1      -3.331  51.238 -24.627  1.00  0.00    -0.307 OA
HETATM   37  H11 UNL     1      -2.547  51.762 -24.375  1.00  0.00     0.222 HD
ENDBRANCH  34  36
BRANCH  34  38
HETATM   38  O5  UNL     1      -5.792  50.931 -24.209  1.00  0.00    -0.307 OA
HETATM   39  H12 UNL     1      -6.523  51.461 -23.844  1.00  0.00     0.222 HD
ENDBRANCH  34  38
ENDBRANCH  33  34
ENDBRANCH  30  33
ENDBRANCH  26  27
ENDBRANCH   1  26
BRANCH   1  40
HETATM   40  N2  UNL     1       0.879  52.315 -19.088  1.00  0.00    -0.347 N 
HETATM   41  C12 UNL     1       0.556  53.508 -19.690  1.00  0.00     0.223 C 
HETATM   42  O6  UNL     1      -0.445  54.152 -19.383  1.00  0.00    -0.273 OA
HETATM   43  H15 UNL     1       1.824  51.950 -19.185  1.00  0.00     0.163 HD
BRANCH  41  44
HETATM   44  C13 UNL     1       1.526  53.949 -20.776  1.00  0.00     0.148 C 
BRANCH  44  45
HETATM   45  C14 UNL     1       1.034  53.484 -22.112  1.00  0.00    -0.009 A 
HETATM   46  C15 UNL     1       0.453  52.271 -22.432  1.00  0.00     0.015 A 
HETATM   47  C16 UNL     1       0.102  52.188 -23.810  1.00  0.00     0.008 A 
HETATM   48  C17 UNL     1       0.431  53.335 -24.498  1.00  0.00     0.050 A 
HETATM   49  S1  UNL     1       1.159  54.506 -23.483  1.00  0.00    -0.106 SA
ENDBRANCH  44  45
ENDBRANCH  41  44
ENDBRANCH   1  40
TORSDOF 15
ENDMDL
MODEL 5
REMARK minimizedAffinity -8.99729538
REMARK CNNscore 0.101374902
REMARK CNNaffinity 6.12353373
REMARK  15 active torsions:
REMARK  status: ('A' for Active; 'I' for Inactive)
REMARK    1  A    between atoms: C2_2  and  N1_3 
REMARK    2  A    between atoms: C2_2  and  C18_28 
REMARK       I    between atoms: N1_3  and  C3_4 
REMARK    3  A    between atoms: C3_4  and  C4_6 
REMARK    4  A    between atoms: C4_6  and  C5_7 
REMARK    5  A    between atoms: C4_6  and  N2_19 
REMARK    6  A    between atoms: C5_7  and  C6_8 
REMARK    7  A    between atoms: C9_11  and  O2_12 
REMARK    8  A    between atoms: O2_12  and  P1_13 
REMARK    9  A    between atoms: P1_13  and  O4_15 
REMARK   10  A    between atoms: P1_13  and  O5_16 
REMARK       I    between atoms: N2_19  and  C12_20 
REMARK   11  A    between atoms: C12_20  and  C13_22 
REMARK   12  A    between atoms: C13_22  and  C14_23 
REMARK   13  A    between atoms: C19_31  and  C20_32 
REMARK   14  A    between atoms: C20_32  and  C21_33 
REMARK   15  A    between atoms: C24_36  and  C25_37 
ROOT
HETATM    1  C4  UNL     1      -3.453  48.537 -22.769  1.00  0.00     0.180 C 
ENDROOT
BRANCH   1   2
HETATM    2  C3  UNL     1      -3.609  49.026 -24.228  1.00  0.00     0.241 C 
HETATM    3  N1  UNL     1      -3.238  48.140 -25.210  1.00  0.00    -0.348 N 
HETATM    4  H5  UNL     1      -2.868  47.232 -24.960  1.00  0.00     0.163 HD
HETATM    5  O1  UNL     1      -4.002  50.165 -24.486  1.00  0.00    -0.271 OA
BRANCH   3   6
HETATM    6  C2  UNL     1      -3.437  48.435 -26.627  1.00  0.00     0.158 C 
HETATM    7  C1  UNL     1      -4.924  48.450 -26.964  1.00  0.00     0.041 C 
BRANCH   6   8
HETATM    8  C18 UNL     1      -2.791  49.740 -26.969  1.00  0.00     0.170 A 
HETATM    9  N3  UNL     1      -1.571  50.169 -26.728  1.00  0.00    -0.325 N 
HETATM   10  C19 UNL     1      -1.594  51.436 -27.266  1.00  0.00     0.108 A 
ATOM     11  H3  UNL     1      -0.803  49.686 -26.262  1.00  0.00     0.169 HD
HETATM   12  N4  UNL     1      -2.759  51.776 -27.844  1.00  0.00    -0.247 N 
HETATM   13  O7  UNL     1      -3.558  50.651 -27.643  1.00  0.00    -0.221 OA
ATOM     14  H4  UNL     1      -3.000  52.648 -28.315  1.00  0.00     0.196 HD
BRANCH  10  15
HETATM   15  C20 UNL     1      -0.398  52.318 -27.296  1.00  0.00     0.117 C 
BRANCH  15  16
HETATM   16  C21 UNL     1      -0.033  52.621 -25.862  1.00  0.00    -0.051 A 
HETATM   17  C22 UNL     1       0.408  53.900 -25.488  1.00  0.00     0.008 A 
HETATM   18  C23 UNL     1       0.747  54.176 -24.159  1.00  0.00     0.017 A 
HETATM   19  C24 UNL     1       0.665  53.178 -23.177  1.00  0.00     0.047 A 
HETATM   20  C26 UNL     1       0.234  51.898 -23.553  1.00  0.00     0.017 A 
HETATM   21  C27 UNL     1      -0.118  51.625 -24.878  1.00  0.00     0.008 A 
BRANCH  19  22
HETATM   22  C25 UNL     1       1.000  53.474 -21.735  1.00  0.00     0.417 C 
HETATM   23  F1  UNL     1      -0.095  53.493 -20.920  1.00  0.00    -0.166 F 
HETATM   24  F2  UNL     1       1.606  54.682 -21.564  1.00  0.00    -0.166 F 
HETATM   25  F3  UNL     1       1.845  52.547 -21.188  1.00  0.00    -0.166 F 
ENDBRANCH  19  22
ENDBRANCH  15  16
ENDBRANCH  10  15
ENDBRANCH   6   8
ENDBRANCH   3   6
ENDBRANCH   1   2
BRANCH   1  26
HETATM   26  C5  UNL     1      -4.523  47.515 -22.328  1.00  0.00     0.073 C 
BRANCH  26  27
HETATM   27  C6  UNL     1      -5.915  47.772 -22.864  1.00  0.00    -0.056 A 
HETATM   28  C7  UNL     1      -6.605  46.753 -23.528  1.00  0.00     0.010 A 
HETATM   29  C8  UNL     1      -7.837  47.012 -24.125  1.00  0.00     0.038 A 
HETATM   30  C9  UNL     1      -8.411  48.279 -24.043  1.00  0.00     0.081 A 
HETATM   31  C10 UNL     1      -7.767  49.281 -23.328  1.00  0.00     0.038 A 
HETATM   32  C11 UNL     1      -6.519  49.029 -22.745  1.00  0.00     0.010 A 
BRANCH  30  33
HETATM   33  O2  UNL     1      -9.579  48.432 -24.727  1.00  0.00    -0.255 OA
BRANCH  33  34
HETATM   34  P1  UNL     1      -9.779  48.781 -26.269  1.00  0.00     0.396 P 
HETATM   35  O3  UNL     1      -9.034  47.893 -27.213  1.00  0.00    -0.631 OA
BRANCH  34  36
HETATM   36  O4  UNL     1     -11.350  48.774 -26.550  1.00  0.00    -0.307 OA
HETATM   37  H11 UNL     1     -11.646  47.874 -26.788  1.00  0.00     0.222 HD
ENDBRANCH  34  36
BRANCH  34  38
HETATM   38  O5  UNL     1      -9.358  50.308 -26.486  1.00  0.00    -0.307 OA
HETATM   39  H12 UNL     1      -8.488  50.362 -26.920  1.00  0.00     0.222 HD
ENDBRANCH  34  38
ENDBRANCH  33  34
ENDBRANCH  30  33
ENDBRANCH  26  27
ENDBRANCH   1  26
BRANCH   1  40
HETATM   40  N2  UNL     1      -3.425  49.731 -21.920  1.00  0.00    -0.347 N 
HETATM   41  C12 UNL     1      -2.814  49.730 -20.689  1.00  0.00     0.223 C 
HETATM   42  O6  UNL     1      -2.357  48.707 -20.181  1.00  0.00    -0.273 OA
HETATM   43  H15 UNL     1      -3.558  50.615 -22.407  1.00  0.00     0.163 HD
BRANCH  41  44
HETATM   44  C13 UNL     1      -2.772  51.087 -20.004  1.00  0.00     0.148 C 
BRANCH  44  45
HETATM   45  C14 UNL     1      -1.830  51.038 -18.841  1.00  0.00    -0.009 A 
HETATM   46  C15 UNL     1      -0.452  51.162 -18.853  1.00  0.00     0.015 A 
HETATM   47  C16 UNL     1       0.109  51.072 -17.548  1.00  0.00     0.008 A 
HETATM   48  C17 UNL     1      -0.854  50.876 -16.583  1.00  0.00     0.050 A 
HETATM   49  S1  UNL     1      -2.428  50.801 -17.252  1.00  0.00    -0.106 SA
ENDBRANCH  44  45
ENDBRANCH  41  44
ENDBRANCH   1  40
TORSDOF 15
ENDMDL
MODEL 6
REMARK minimizedAffinity -8.82769585
REMARK CNNscore 0.100400195
REMARK CNNaffinity 5.68195534
REMARK  15 active torsions:
REMARK  status: ('A' for Active; 'I' for Inactive)
REMARK    1  A    between atoms: C2_2  and  N1_3 
REMARK    2  A    between atoms: C2_2  and  C18_28 
REMARK       I    between atoms: N1_3  and  C3_4 
REMARK    3  A    between atoms: C3_4  and  C4_6 
REMARK    4  A    between atoms: C4_6  and  C5_7 
REMARK    5  A    between atoms: C4_6  and  N2_19 
REMARK    6  A    between atoms: C5_7  and  C6_8 
REMARK    7  A    between atoms: C9_11  and  O2_12 
REMARK    8  A    between atoms: O2_12  and  P1_13 
REMARK    9  A    between atoms: P1_13  and  O4_15 
REMARK   10  A    between atoms: P1_13  and  O5_16 
REMARK       I    between atoms: N2_19  and  C12_20 
REMARK   11  A    between atoms: C12_20  and  C13_22 
REMARK   12  A    between atoms: C13_22  and  C14_23 
REMARK   13  A    between atoms: C19_31  and  C20_32 
REMARK   14  A    between atoms: C20_32  and  C21_33 
REMARK   15  A    between atoms: C24_36  and  C25_37 
ROOT
HETATM    1  C4  UNL     1      -2.065  50.108 -20.350  1.00  0.00     0.180 C 
ENDROOT
BRANCH   1   2
HETATM    2  C3  UNL     1      -1.435  51.239 -19.504  1.00  0.00     0.241 C 
HETATM    3  N1  UNL     1      -0.065  51.338 -19.544  1.00  0.00    -0.348 N 
HETATM    4  H5  UNL     1       0.475  50.681 -20.091  1.00  0.00     0.163 HD
HETATM    5  O1  UNL     1      -2.127  51.977 -18.800  1.00  0.00    -0.271 OA
BRANCH   3   6
HETATM    6  C2  UNL     1       0.647  52.428 -18.879  1.00  0.00     0.158 C 
HETATM    7  C1  UNL     1      -0.051  53.758 -19.142  1.00  0.00     0.041 C 
BRANCH   6   8
HETATM    8  C18 UNL     1       0.745  52.148 -17.413  1.00  0.00     0.170 A 
HETATM    9  N3  UNL     1       0.280  51.137 -16.711  1.00  0.00    -0.325 N 
HETATM   10  C19 UNL     1       0.674  51.461 -15.433  1.00  0.00     0.108 A 
ATOM     11  H3  UNL     1      -0.240  50.321 -17.033  1.00  0.00     0.169 HD
HETATM   12  N4  UNL     1       1.379  52.601 -15.338  1.00  0.00    -0.247 N 
HETATM   13  O7  UNL     1       1.423  53.062 -16.653  1.00  0.00    -0.221 OA
ATOM     14  H4  UNL     1       1.783  53.027 -14.504  1.00  0.00     0.196 HD
BRANCH  10  15
HETATM   15  C20 UNL     1       0.430  50.571 -14.267  1.00  0.00     0.117 C 
BRANCH  15  16
HETATM   16  C21 UNL     1      -0.616  51.242 -13.408  1.00  0.00    -0.051 A 
HETATM   17  C22 UNL     1      -0.282  51.770 -12.152  1.00  0.00     0.008 A 
HETATM   18  C23 UNL     1      -1.254  52.389 -11.357  1.00  0.00     0.017 A 
HETATM   19  C24 UNL     1      -2.583  52.482 -11.795  1.00  0.00     0.047 A 
HETATM   20  C26 UNL     1      -2.918  51.945 -13.047  1.00  0.00     0.017 A 
HETATM   21  C27 UNL     1      -1.945  51.339 -13.846  1.00  0.00     0.008 A 
BRANCH  19  22
HETATM   22  C25 UNL     1      -3.632  53.174 -10.960  1.00  0.00     0.417 C 
HETATM   23  F1  UNL     1      -4.222  54.226 -11.598  1.00  0.00    -0.166 F 
HETATM   24  F2  UNL     1      -3.140  53.681  -9.795  1.00  0.00    -0.166 F 
HETATM   25  F3  UNL     1      -4.659  52.341 -10.605  1.00  0.00    -0.166 F 
ENDBRANCH  19  22
ENDBRANCH  15  16
ENDBRANCH  10  15
ENDBRANCH   6   8
ENDBRANCH   3   6
ENDBRANCH   1   2
BRANCH   1  26
HETATM   26  C5  UNL     1      -1.172  49.614 -21.509  1.00  0.00     0.073 C 
BRANCH  26  27
HETATM   27  C6  UNL     1      -1.157  50.505 -22.733  1.00  0.00    -0.056 A 
HETATM   28  C7  UNL     1      -0.369  51.660 -22.744  1.00  0.00     0.010 A 
HETATM   29  C8  UNL     1      -0.436  52.546 -23.817  1.00  0.00     0.038 A 
HETATM   30  C9  UNL     1      -1.266  52.279 -24.905  1.00  0.00     0.081 A 
HETATM   31  C10 UNL     1      -2.003  51.102 -24.936  1.00  0.00     0.038 A 
HETATM   32  C11 UNL     1      -1.952  50.220 -23.849  1.00  0.00     0.010 A 
BRANCH  30  33
HETATM   33  O2  UNL     1      -1.304  53.252 -25.857  1.00  0.00    -0.255 OA
BRANCH  33  34
HETATM   34  P1  UNL     1      -0.169  53.652 -26.902  1.00  0.00     0.396 P 
HETATM   35  O3  UNL     1       1.096  52.867 -26.783  1.00  0.00    -0.631 OA
BRANCH  34  36
HETATM   36  O4  UNL     1      -0.814  53.538 -28.358  1.00  0.00    -0.307 OA
HETATM   37  H11 UNL     1      -0.710  52.629 -28.702  1.00  0.00     0.222 HD
ENDBRANCH  34  36
BRANCH  34  38
HETATM   38  O5  UNL     1       0.122  55.216 -26.735  1.00  0.00    -0.307 OA
HETATM   39  H12 UNL     1       0.962  55.355 -26.262  1.00  0.00     0.222 HD
ENDBRANCH  34  38
ENDBRANCH  33  34
ENDBRANCH  30  33
ENDBRANCH  26  27
ENDBRANCH   1  26
BRANCH   1  40
HETATM   40  N2  UNL     1      -3.370  50.594 -20.807  1.00  0.00    -0.347 N 
HETATM   41  C12 UNL     1      -4.432  49.743 -21.000  1.00  0.00     0.223 C 
HETATM   42  O6  UNL     1      -4.322  48.522 -20.912  1.00  0.00    -0.273 OA
HETATM   43  H15 UNL     1      -3.550  51.582 -20.640  1.00  0.00     0.163 HD
BRANCH  41  44
HETATM   44  C13 UNL     1      -5.739  50.436 -21.352  1.00  0.00     0.148 C 
BRANCH  44  45
HETATM   45  C14 UNL     1      -6.883  49.490 -21.151  1.00  0.00    -0.009 A 
HETATM   46  C15 UNL     1      -7.549  48.742 -22.104  1.00  0.00     0.015 A 
HETATM   47  C16 UNL     1      -8.584  47.944 -21.538  1.00  0.00     0.008 A 
HETATM   48  C17 UNL     1      -8.679  48.113 -20.174  1.00  0.00     0.050 A 
HETATM   49  S1  UNL     1      -7.524  49.229 -19.582  1.00  0.00    -0.106 SA
ENDBRANCH  44  45
ENDBRANCH  41  44
ENDBRANCH   1  40
TORSDOF 15
ENDMDL
MODEL 7
REMARK minimizedAffinity -9.77947998
REMARK CNNscore 0.0897911862
REMARK CNNaffinity 6.07741737
REMARK  15 active torsions:
REMARK  status: ('A' for Active; 'I' for Inactive)
REMARK    1  A    between atoms: C2_2  and  N1_3 
REMARK    2  A    between atoms: C2_2  and  C18_28 
REMARK       I    between atoms: N1_3  and  C3_4 
REMARK    3  A    between atoms: C3_4  and  C4_6 
REMARK    4  A    between atoms: C4_6  and  C5_7 
REMARK    5  A    between atoms: C4_6  and  N2_19 
REMARK    6  A    between atoms: C5_7  and  C6_8 
REMARK    7  A    between atoms: C9_11  and  O2_12 
REMARK    8  A    between atoms: O2_12  and  P1_13 
REMARK    9  A    between atoms: P1_13  and  O4_15 
REMARK   10  A    between atoms: P1_13  and  O5_16 
REMARK       I    between atoms: N2_19  and  C12_20 
REMARK   11  A    between atoms: C12_20  and  C13_22 
REMARK   12  A    between atoms: C13_22  and  C14_23 
REMARK   13  A    between atoms: C19_31  and  C20_32 
REMARK   14  A    between atoms: C20_32  and  C21_33 
REMARK   15  A    between atoms: C24_36  and  C25_37 
ROOT
HETATM    1  C4  UNL     1      -4.771  49.915 -23.432  1.00  0.00     0.180 C 
ENDROOT
BRANCH   1   2
HETATM    2  C3  UNL     1      -4.973  49.825 -21.901  1.00  0.00     0.241 C 
HETATM    3  N1  UNL     1      -5.238  48.576 -21.393  1.00  0.00    -0.348 N 
HETATM    4  H5  UNL     1      -5.311  47.781 -22.016  1.00  0.00     0.163 HD
HETATM    5  O1  UNL     1      -4.940  50.830 -21.188  1.00  0.00    -0.271 OA
BRANCH   3   6
HETATM    6  C2  UNL     1      -5.341  48.335 -19.956  1.00  0.00     0.158 C 
HETATM    7  C1  UNL     1      -6.151  47.071 -19.685  1.00  0.00     0.041 C 
BRANCH   6   8
HETATM    8  C18 UNL     1      -3.973  48.240 -19.359  1.00  0.00     0.170 A 
HETATM    9  N3  UNL     1      -3.238  49.163 -18.777  1.00  0.00    -0.325 N 
HETATM   10  C19 UNL     1      -2.091  48.469 -18.463  1.00  0.00     0.108 A 
ATOM     11  H3  UNL     1      -3.460  50.143 -18.604  1.00  0.00     0.169 HD
HETATM   12  N4  UNL     1      -2.115  47.169 -18.800  1.00  0.00    -0.247 N 
HETATM   13  O7  UNL     1      -3.364  47.016 -19.401  1.00  0.00    -0.221 OA
ATOM     14  H4  UNL     1      -1.393  46.464 -18.653  1.00  0.00     0.196 HD
BRANCH  10  15
HETATM   15  C20 UNL     1      -0.960  49.082 -17.719  1.00  0.00     0.117 C 
BRANCH  15  16
HETATM   16  C21 UNL     1      -0.460  50.242 -18.548  1.00  0.00    -0.051 A 
HETATM   17  C22 UNL     1      -0.079  51.448 -17.940  1.00  0.00     0.008 A 
HETATM   18  C23 UNL     1       0.381  52.521 -18.711  1.00  0.00     0.017 A 
HETATM   19  C24 UNL     1       0.460  52.417 -20.108  1.00  0.00     0.047 A 
HETATM   20  C26 UNL     1       0.070  51.214 -20.716  1.00  0.00     0.017 A 
HETATM   21  C27 UNL     1      -0.377  50.138 -19.945  1.00  0.00     0.008 A 
BRANCH  19  22
HETATM   22  C25 UNL     1       0.984  53.557 -20.946  1.00  0.00     0.417 C 
HETATM   23  F1  UNL     1       2.346  53.651 -20.938  1.00  0.00    -0.166 F 
HETATM   24  F2  UNL     1       0.530  54.774 -20.538  1.00  0.00    -0.166 F 
HETATM   25  F3  UNL     1       0.635  53.447 -22.265  1.00  0.00    -0.166 F 
ENDBRANCH  19  22
ENDBRANCH  15  16
ENDBRANCH  10  15
ENDBRANCH   6   8
ENDBRANCH   3   6
ENDBRANCH   1   2
BRANCH   1  26
HETATM   26  C5  UNL     1      -4.203  48.628 -24.070  1.00  0.00     0.073 C 
BRANCH  26  27
HETATM   27  C6  UNL     1      -4.516  48.449 -25.540  1.00  0.00    -0.056 A 
HETATM   28  C7  UNL     1      -5.796  48.049 -25.936  1.00  0.00     0.010 A 
HETATM   29  C8  UNL     1      -6.062  47.771 -27.275  1.00  0.00     0.038 A 
HETATM   30  C9  UNL     1      -5.066  47.915 -28.239  1.00  0.00     0.081 A 
HETATM   31  C10 UNL     1      -3.810  48.376 -27.868  1.00  0.00     0.038 A 
HETATM   32  C11 UNL     1      -3.535  48.636 -26.520  1.00  0.00     0.010 A 
BRANCH  30  33
HETATM   33  O2  UNL     1      -5.422  47.543 -29.500  1.00  0.00    -0.255 OA
BRANCH  33  34
HETATM   34  P1  UNL     1      -5.656  48.474 -30.773  1.00  0.00     0.396 P 
HETATM   35  O3  UNL     1      -5.518  47.780 -32.089  1.00  0.00    -0.631 OA
BRANCH  34  36
HETATM   36  O4  UNL     1      -7.090  49.153 -30.598  1.00  0.00    -0.307 OA
HETATM   37  H11 UNL     1      -7.783  48.579 -30.978  1.00  0.00     0.222 HD
ENDBRANCH  34  36
BRANCH  34  38
HETATM   38  O5  UNL     1      -4.637  49.702 -30.676  1.00  0.00    -0.307 OA
HETATM   39  H12 UNL     1      -3.901  49.582 -31.304  1.00  0.00     0.222 HD
ENDBRANCH  34  38
ENDBRANCH  33  34
ENDBRANCH  30  33
ENDBRANCH  26  27
ENDBRANCH   1  26
BRANCH   1  40
HETATM   40  N2  UNL     1      -3.931  51.090 -23.683  1.00  0.00    -0.347 N 
HETATM   41  C12 UNL     1      -2.564  51.044 -23.550  1.00  0.00     0.223 C 
HETATM   42  O6  UNL     1      -1.978  50.058 -23.109  1.00  0.00    -0.273 OA
HETATM   43  H15 UNL     1      -4.350  51.806 -24.274  1.00  0.00     0.163 HD
BRANCH  41  44
HETATM   44  C13 UNL     1      -1.847  52.317 -23.973  1.00  0.00     0.148 C 
BRANCH  44  45
HETATM   45  C14 UNL     1      -0.937  52.026 -25.126  1.00  0.00    -0.009 A 
HETATM   46  C15 UNL     1      -0.849  50.864 -25.870  1.00  0.00     0.015 A 
HETATM   47  C16 UNL     1       0.130  50.956 -26.900  1.00  0.00     0.008 A 
HETATM   48  C17 UNL     1       0.761  52.181 -26.907  1.00  0.00     0.050 A 
HETATM   49  S1  UNL     1       0.173  53.212 -25.674  1.00  0.00    -0.106 SA
ENDBRANCH  44  45
ENDBRANCH  41  44
ENDBRANCH   1  40
TORSDOF 15
ENDMDL
MODEL 8
REMARK minimizedAffinity -8.26104736
REMARK CNNscore 0.0852693096
REMARK CNNaffinity 5.77992868
REMARK  15 active torsions:
REMARK  status: ('A' for Active; 'I' for Inactive)
REMARK    1  A    between atoms: C2_2  and  N1_3 
REMARK    2  A    between atoms: C2_2  and  C18_28 
REMARK       I    between atoms: N1_3  and  C3_4 
REMARK    3  A    between atoms: C3_4  and  C4_6 
REMARK    4  A    between atoms: C4_6  and  C5_7 
REMARK    5  A    between atoms: C4_6  and  N2_19 
REMARK    6  A    between atoms: C5_7  and  C6_8 
REMARK    7  A    between atoms: C9_11  and  O2_12 
REMARK    8  A    between atoms: O2_12  and  P1_13 
REMARK    9  A    between atoms: P1_13  and  O4_15 
REMARK   10  A    between atoms: P1_13  and  O5_16 
REMARK       I    between atoms: N2_19  and  C12_20 
REMARK   11  A    between atoms: C12_20  and  C13_22 
REMARK   12  A    between atoms: C13_22  and  C14_23 
REMARK   13  A    between atoms: C19_31  and  C20_32 
REMARK   14  A    between atoms: C20_32  and  C21_33 
REMARK   15  A    between atoms: C24_36  and  C25_37 
ROOT
HETATM    1  C4  UNL     1      -2.945  50.164 -26.039  1.00  0.00     0.180 C 
ENDROOT
BRANCH   1   2
HETATM    2  C3  UNL     1      -2.445  50.259 -24.578  1.00  0.00     0.241 C 
HETATM    3  N1  UNL     1      -3.413  50.330 -23.606  1.00  0.00    -0.348 N 
HETATM    4  H5  UNL     1      -4.392  50.336 -23.865  1.00  0.00     0.163 HD
HETATM    5  O1  UNL     1      -1.243  50.313 -24.312  1.00  0.00    -0.271 OA
BRANCH   3   6
HETATM    6  C2  UNL     1      -3.079  50.313 -22.184  1.00  0.00     0.158 C 
HETATM    7  C1  UNL     1      -3.545  51.601 -21.513  1.00  0.00     0.041 C 
BRANCH   6   8
HETATM    8  C18 UNL     1      -3.691  49.113 -21.534  1.00  0.00     0.170 A 
HETATM    9  N3  UNL     1      -3.765  48.784 -20.262  1.00  0.00    -0.325 N 
HETATM   10  C19 UNL     1      -4.421  47.575 -20.309  1.00  0.00     0.108 A 
ATOM     11  H3  UNL     1      -3.423  49.296 -19.449  1.00  0.00     0.169 HD
HETATM   12  N4  UNL     1      -4.770  47.177 -21.543  1.00  0.00    -0.247 N 
HETATM   13  O7  UNL     1      -4.282  48.196 -22.360  1.00  0.00    -0.221 OA
ATOM     14  H4  UNL     1      -5.272  46.332 -21.817  1.00  0.00     0.196 HD
BRANCH  10  15
HETATM   15  C20 UNL     1      -4.802  46.820 -19.086  1.00  0.00     0.117 C 
BRANCH  15  16
HETATM   16  C21 UNL     1      -6.283  47.031 -18.878  1.00  0.00    -0.051 A 
HETATM   17  C22 UNL     1      -6.769  48.238 -18.353  1.00  0.00     0.008 A 
HETATM   18  C23 UNL     1      -8.141  48.430 -18.158  1.00  0.00     0.017 A 
HETATM   19  C24 UNL     1      -9.057  47.415 -18.473  1.00  0.00     0.047 A 
HETATM   20  C26 UNL     1      -8.570  46.205 -18.988  1.00  0.00     0.017 A 
HETATM   21  C27 UNL     1      -7.200  46.018 -19.194  1.00  0.00     0.008 A 
BRANCH  19  22
HETATM   22  C25 UNL     1     -10.541  47.623 -18.296  1.00  0.00     0.417 C 
HETATM   23  F1  UNL     1     -10.885  48.013 -17.033  1.00  0.00    -0.166 F 
HETATM   24  F2  UNL     1     -11.272  46.500 -18.544  1.00  0.00    -0.166 F 
HETATM   25  F3  UNL     1     -11.043  48.590 -19.125  1.00  0.00    -0.166 F 
ENDBRANCH  19  22
ENDBRANCH  15  16
ENDBRANCH  10  15
ENDBRANCH   6   8
ENDBRANCH   3   6
ENDBRANCH   1   2
BRANCH   1  26
HETATM   26  C5  UNL     1      -3.054  48.720 -26.576  1.00  0.00     0.073 C 
BRANCH  26  27
HETATM   27  C6  UNL     1      -4.458  48.260 -26.902  1.00  0.00    -0.056 A 
HETATM   28  C7  UNL     1      -4.841  48.081 -28.235  1.00  0.00     0.010 A 
HETATM   29  C8  UNL     1      -6.162  47.770 -28.551  1.00  0.00     0.038 A 
HETATM   30  C9  UNL     1      -7.111  47.606 -27.544  1.00  0.00     0.081 A 
HETATM   31  C10 UNL     1      -6.729  47.716 -26.213  1.00  0.00     0.038 A 
HETATM   32  C11 UNL     1      -5.406  48.048 -25.894  1.00  0.00     0.010 A 
BRANCH  30  33
HETATM   33  O2  UNL     1      -8.382  47.378 -27.977  1.00  0.00    -0.255 OA
BRANCH  33  34
HETATM   34  P1  UNL     1      -9.155  48.085 -29.178  1.00  0.00     0.396 P 
HETATM   35  O3  UNL     1      -8.922  47.470 -30.520  1.00  0.00    -0.631 OA
BRANCH  34  36
HETATM   36  O4  UNL     1     -10.703  48.109 -28.788  1.00  0.00    -0.307 OA
HETATM   37  H11 UNL     1     -11.138  47.287 -29.085  1.00  0.00     0.222 HD
ENDBRANCH  34  36
BRANCH  34  38
HETATM   38  O5  UNL     1      -8.739  49.629 -29.189  1.00  0.00    -0.307 OA
HETATM   39  H12 UNL     1      -8.114  49.806 -29.915  1.00  0.00     0.222 HD
ENDBRANCH  34  38
ENDBRANCH  33  34
ENDBRANCH  30  33
ENDBRANCH  26  27
ENDBRANCH   1  26
BRANCH   1  40
HETATM   40  N2  UNL     1      -2.058  51.005 -26.848  1.00  0.00    -0.347 N 
HETATM   41  C12 UNL     1      -2.151  52.376 -26.835  1.00  0.00     0.223 C 
HETATM   42  O6  UNL     1      -3.047  52.970 -26.238  1.00  0.00    -0.273 OA
HETATM   43  H15 UNL     1      -1.182  50.569 -27.131  1.00  0.00     0.163 HD
BRANCH  41  44
HETATM   44  C13 UNL     1      -1.072  53.088 -27.635  1.00  0.00     0.148 C 
BRANCH  44  45
HETATM   45  C14 UNL     1       0.266  52.492 -27.322  1.00  0.00    -0.009 A 
HETATM   46  C15 UNL     1       1.146  51.870 -28.188  1.00  0.00     0.015 A 
HETATM   47  C16 UNL     1       2.332  51.433 -27.532  1.00  0.00     0.008 A 
HETATM   48  C17 UNL     1       2.317  51.730 -26.186  1.00  0.00     0.050 A 
HETATM   49  S1  UNL     1       0.878  52.531 -25.721  1.00  0.00    -0.106 SA
ENDBRANCH  44  45
ENDBRANCH  41  44
ENDBRANCH   1  40
TORSDOF 15
ENDMDL
MODEL 9
REMARK minimizedAffinity -9.2037611
REMARK CNNscore 0.0849941671
REMARK CNNaffinity 6.09577131
REMARK  15 active torsions:
REMARK  status: ('A' for Active; 'I' for Inactive)
REMARK    1  A    between atoms: C2_2  and  N1_3 
REMARK    2  A    between atoms: C2_2  and  C18_28 
REMARK       I    between atoms: N1_3  and  C3_4 
REMARK    3  A    between atoms: C3_4  and  C4_6 
REMARK    4  A    between atoms: C4_6  and  C5_7 
REMARK    5  A    between atoms: C4_6  and  N2_19 
REMARK    6  A    between atoms: C5_7  and  C6_8 
REMARK    7  A    between atoms: C9_11  and  O2_12 
REMARK    8  A    between atoms: O2_12  and  P1_13 
REMARK    9  A    between atoms: P1_13  and  O4_15 
REMARK   10  A    between atoms: P1_13  and  O5_16 
REMARK       I    between atoms: N2_19  and  C12_20 
REMARK   11  A    between atoms: C12_20  and  C13_22 
REMARK   12  A    between atoms: C13_22  and  C14_23 
REMARK   13  A    between atoms: C19_31  and  C20_32 
REMARK   14  A    between atoms: C20_32  and  C21_33 
REMARK   15  A    between atoms: C24_36  and  C25_37 
ROOT
HETATM    1  C4  UNL     1      -0.121  51.028 -18.063  1.00  0.00     0.180 C 
ENDROOT
BRANCH   1   2
HETATM    2  C3  UNL     1       0.517  50.553 -16.737  1.00  0.00     0.241 C 
HETATM    3  N1  UNL     1       1.113  51.522 -15.967  1.00  0.00    -0.348 N 
HETATM    4  H5  UNL     1       1.135  52.482 -16.286  1.00  0.00     0.163 HD
HETATM    5  O1  UNL     1       0.525  49.363 -16.417  1.00  0.00    -0.271 OA
BRANCH   3   6
HETATM    6  C2  UNL     1       1.656  51.226 -14.642  1.00  0.00     0.158 C 
HETATM    7  C1  UNL     1       3.158  51.486 -14.613  1.00  0.00     0.041 C 
BRANCH   6   8
HETATM    8  C18 UNL     1       0.945  52.042 -13.610  1.00  0.00     0.170 A 
HETATM    9  N3  UNL     1       1.430  52.790 -12.642  1.00  0.00    -0.325 N 
HETATM   10  C19 UNL     1       0.287  53.259 -12.034  1.00  0.00     0.108 A 
ATOM     11  H3  UNL     1       2.404  52.974 -12.402  1.00  0.00     0.169 HD
HETATM   12  N4  UNL     1      -0.858  52.854 -12.609  1.00  0.00    -0.247 N 
HETATM   13  O7  UNL     1      -0.422  52.041 -13.655  1.00  0.00    -0.221 OA
ATOM     14  H4  UNL     1      -1.815  53.086 -12.344  1.00  0.00     0.196 HD
BRANCH  10  15
HETATM   15  C20 UNL     1       0.317  54.217 -10.898  1.00  0.00     0.117 C 
BRANCH  15  16
HETATM   16  C21 UNL     1       1.767  54.423 -10.529  1.00  0.00    -0.051 A 
HETATM   17  C22 UNL     1       2.478  53.433  -9.834  1.00  0.00     0.008 A 
HETATM   18  C23 UNL     1       3.821  53.627  -9.491  1.00  0.00     0.017 A 
HETATM   19  C24 UNL     1       4.479  54.821  -9.824  1.00  0.00     0.047 A 
HETATM   20  C26 UNL     1       3.765  55.814 -10.510  1.00  0.00     0.017 A 
HETATM   21  C27 UNL     1       2.427  55.614 -10.864  1.00  0.00     0.008 A 
BRANCH  19  22
HETATM   22  C25 UNL     1       5.935  55.028  -9.486  1.00  0.00     0.417 C 
HETATM   23  F1  UNL     1       6.126  55.702  -8.315  1.00  0.00    -0.166 F 
HETATM   24  F2  UNL     1       6.608  55.740 -10.433  1.00  0.00    -0.166 F 
HETATM   25  F3  UNL     1       6.618  53.851  -9.344  1.00  0.00    -0.166 F 
ENDBRANCH  19  22
ENDBRANCH  15  16
ENDBRANCH  10  15
ENDBRANCH   6   8
ENDBRANCH   3   6
ENDBRANCH   1   2
BRANCH   1  26
HETATM   26  C5  UNL     1       0.253  52.473 -18.462  1.00  0.00     0.073 C 
BRANCH  26  27
HETATM   27  C6  UNL     1       0.387  52.713 -19.950  1.00  0.00    -0.056 A 
HETATM   28  C7  UNL     1      -0.118  51.775 -20.856  1.00  0.00     0.010 A 
HETATM   29  C8  UNL     1       0.101  51.930 -22.223  1.00  0.00     0.038 A 
HETATM   30  C9  UNL     1       0.800  53.034 -22.708  1.00  0.00     0.081 A 
HETATM   31  C10 UNL     1       1.249  54.007 -21.824  1.00  0.00     0.038 A 
HETATM   32  C11 UNL     1       1.047  53.843 -20.448  1.00  0.00     0.010 A 
BRANCH  30  33
HETATM   33  O2  UNL     1       1.016  53.038 -24.052  1.00  0.00    -0.255 OA
BRANCH  33  34
HETATM   34  P1  UNL     1       0.206  53.825 -25.178  1.00  0.00     0.396 P 
HETATM   35  O3  UNL     1       0.278  55.314 -25.074  1.00  0.00    -0.631 OA
BRANCH  34  36
HETATM   36  O4  UNL     1       0.731  53.293 -26.588  1.00  0.00    -0.307 OA
HETATM   37  H11 UNL     1       1.503  53.815 -26.880  1.00  0.00     0.222 HD
ENDBRANCH  34  36
BRANCH  34  38
HETATM   38  O5  UNL     1      -1.314  53.332 -25.123  1.00  0.00    -0.307 OA
HETATM   39  H12 UNL     1      -1.875  54.009 -24.704  1.00  0.00     0.222 HD
ENDBRANCH  34  38
ENDBRANCH  33  34
ENDBRANCH  30  33
ENDBRANCH  26  27
ENDBRANCH   1  26
BRANCH   1  40
HETATM   40  N2  UNL     1      -1.568  50.832 -17.934  1.00  0.00    -0.347 N 
HETATM   41  C12 UNL     1      -2.203  49.745 -18.485  1.00  0.00     0.223 C 
HETATM   42  O6  UNL     1      -1.620  48.938 -19.207  1.00  0.00    -0.273 OA
HETATM   43  H15 UNL     1      -2.007  51.322 -17.157  1.00  0.00     0.163 HD
BRANCH  41  44
HETATM   44  C13 UNL     1      -3.681  49.638 -18.144  1.00  0.00     0.148 C 
BRANCH  44  45
HETATM   45  C14 UNL     1      -4.494  49.679 -19.402  1.00  0.00    -0.009 A 
HETATM   46  C15 UNL     1      -4.599  50.711 -20.316  1.00  0.00     0.015 A 
HETATM   47  C16 UNL     1      -5.463  50.385 -21.401  1.00  0.00     0.008 A 
HETATM   48  C17 UNL     1      -5.993  49.120 -21.278  1.00  0.00     0.050 A 
HETATM   49  S1  UNL     1      -5.449  48.331 -19.859  1.00  0.00    -0.106 SA
ENDBRANCH  44  45
ENDBRANCH  41  44
ENDBRANCH   1  40
TORSDOF 15
ENDMDL
