MODEL 1
REMARK minimizedAffinity -8.20049953
REMARK  6 active torsions:
REMARK  status: ('A' for Active; 'I' for Inactive)
REMARK    1  A    between atoms: O1_2  and  C2_3 
REMARK    2  A    between atoms: C9_10  and  C10_11 
REMARK    3  A    between atoms: C13_15  and  C14_16 
REMARK    4  A    between atoms: C14_16  and  C15_17 
REMARK    5  A    between atoms: C15_17  and  C16_18 
REMARK    6  A    between atoms: C16_18  and  N2_19 
ROOT
HETATM    1  C10 UNL     1      -1.435   5.348  12.285  1.00  0.00     0.040 A 
HETATM    2  N1  UNL     1      -0.674   5.251  11.142  1.00  0.00    -0.359 N 
HETATM    3  C11 UNL     1       0.558   5.799  11.355  1.00  0.00     0.016 A 
HETATM    4  C12 UNL     1       0.611   6.265  12.647  1.00  0.00    -0.027 A 
HETATM    5  C13 UNL     1      -0.646   5.975  13.253  1.00  0.00    -0.023 A 
HETATM    6  C19 UNL     1       1.831   6.918  13.209  1.00  0.00     0.041 C 
HETATM    7  C20 UNL     1       2.799   7.345  12.088  1.00  0.00     0.005 C 
HETATM    8  C21 UNL     1       2.967   6.251  11.015  1.00  0.00     0.006 C 
HETATM    9  C22 UNL     1       1.633   5.898  10.332  1.00  0.00     0.057 C 
HETATM   10  H8  UNL     1      -0.976   4.840  10.264  1.00  0.00     0.166 HD
ENDROOT
BRANCH   1  11
HETATM   11  C9  UNL     1      -2.776   4.869  12.351  1.00  0.00     0.048 C 
HETATM   12  C8  UNL     1      -3.282   3.675  12.002  1.00  0.00     0.047 A 
HETATM   13  C6  UNL     1      -4.715   3.343  12.139  1.00  0.00     0.009 A 
HETATM   14  C23 UNL     1      -2.623   2.442  11.428  1.00  0.00     0.257 A 
HETATM   15  C5  UNL     1      -4.863   2.033  11.683  1.00  0.00     0.046 A 
HETATM   16  C7  UNL     1      -5.818   4.045  12.595  1.00  0.00     0.051 A 
HETATM   17  C4  UNL     1      -6.081   1.385  11.665  1.00  0.00     0.033 A 
HETATM   18  N3  UNL     1      -3.641   1.516  11.274  1.00  0.00    -0.322 N 
HETATM   19  C3  UNL     1      -7.197   2.092  12.126  1.00  0.00     0.039 A 
HETATM   20  C2  UNL     1      -7.071   3.416  12.589  1.00  0.00     0.069 A 
HETATM   21  H29 UNL     1      -3.483   0.592  10.905  1.00  0.00     0.169 HD
HETATM   22  O2  UNL     1      -1.452   2.268  11.149  1.00  0.00    -0.267 OA
BRANCH  20  23
HETATM   23  O1  UNL     1      -8.094   4.196  13.059  1.00  0.00    -0.356 OA
HETATM   24  C1  UNL     1      -8.427   5.353  12.303  1.00  0.00     0.210 C 
ENDBRANCH  20  23
ENDBRANCH   1  11
BRANCH   5  25
HETATM   25  C14 UNL     1      -1.028   6.297  14.667  1.00  0.00     0.043 C 
BRANCH  25  26
HETATM   26  C15 UNL     1      -2.508   6.021  14.944  1.00  0.00     0.035 C 
BRANCH  26  27
HETATM   27  C16 UNL     1      -3.198   7.271  15.504  1.00  0.00     0.271 C 
BRANCH  27  28
HETATM   28  N2  UNL     1      -4.578   7.444  15.018  1.00  0.00     0.080 N 
HETATM   29  C17 UNL     1      -5.465   6.372  15.473  1.00  0.00     0.309 C 
HETATM   30  C18 UNL     1      -5.105   8.739  15.457  1.00  0.00     0.309 C 
ENDBRANCH  27  28
ENDBRANCH  26  27
ENDBRANCH  25  26
ENDBRANCH   5  25
TORSDOF 6
ENDMDL
MODEL 2
REMARK minimizedAffinity -8.16626263
REMARK  6 active torsions:
REMARK  status: ('A' for Active; 'I' for Inactive)
REMARK    1  A    between atoms: O1_2  and  C2_3 
REMARK    2  A    between atoms: C9_10  and  C10_11 
REMARK    3  A    between atoms: C13_15  and  C14_16 
REMARK    4  A    between atoms: C14_16  and  C15_17 
REMARK    5  A    between atoms: C15_17  and  C16_18 
REMARK    6  A    between atoms: C16_18  and  N2_19 
ROOT
HETATM    1  C10 UNL     1      -0.469   6.301  12.842  1.00  0.00     0.040 A 
HETATM    2  N1  UNL     1       0.220   6.432  14.026  1.00  0.00    -0.359 N 
HETATM    3  C11 UNL     1       1.451   6.973  13.791  1.00  0.00     0.016 A 
HETATM    4  C12 UNL     1       1.578   7.200  12.440  1.00  0.00    -0.027 A 
HETATM    5  C13 UNL     1       0.360   6.787  11.827  1.00  0.00    -0.023 A 
HETATM    6  C19 UNL     1       2.809   7.799  11.846  1.00  0.00     0.041 C 
HETATM    7  C20 UNL     1       3.991   7.737  12.834  1.00  0.00     0.005 C 
HETATM    8  C21 UNL     1       3.578   8.146  14.262  1.00  0.00     0.006 C 
HETATM    9  C22 UNL     1       2.479   7.231  14.833  1.00  0.00     0.057 C 
HETATM   10  H8  UNL     1      -0.124   6.163  14.943  1.00  0.00     0.166 HD
ENDROOT
BRANCH   1  11
HETATM   11  C9  UNL     1      -1.781   5.748  12.779  1.00  0.00     0.048 C 
HETATM   12  C8  UNL     1      -2.208   4.604  12.220  1.00  0.00     0.047 A 
HETATM   13  C6  UNL     1      -3.623   4.180  12.248  1.00  0.00     0.009 A 
HETATM   14  C23 UNL     1      -1.464   3.520  11.475  1.00  0.00     0.257 A 
HETATM   15  C5  UNL     1      -3.684   2.958  11.577  1.00  0.00     0.046 A 
HETATM   16  C7  UNL     1      -4.777   4.738  12.773  1.00  0.00     0.051 A 
HETATM   17  C4  UNL     1      -4.861   2.259  11.408  1.00  0.00     0.033 A 
HETATM   18  N3  UNL     1      -2.423   2.581  11.133  1.00  0.00    -0.322 N 
HETATM   19  C3  UNL     1      -6.028   2.821  11.938  1.00  0.00     0.039 A 
HETATM   20  C2  UNL     1      -5.991   4.053  12.617  1.00  0.00     0.069 A 
HETATM   21  H29 UNL     1      -2.202   1.741  10.623  1.00  0.00     0.169 HD
HETATM   22  O2  UNL     1      -0.278   3.456  11.214  1.00  0.00    -0.267 OA
BRANCH  20  23
HETATM   23  O1  UNL     1      -7.070   4.690  13.171  1.00  0.00    -0.356 OA
HETATM   24  C1  UNL     1      -8.190   4.922  12.327  1.00  0.00     0.210 C 
ENDBRANCH  20  23
ENDBRANCH   1  11
BRANCH   5  25
HETATM   25  C14 UNL     1       0.052   6.864  10.361  1.00  0.00     0.043 C 
BRANCH  25  26
HETATM   26  C15 UNL     1       0.264   8.272   9.798  1.00  0.00     0.035 C 
BRANCH  26  27
HETATM   27  C16 UNL     1       0.500   8.220   8.283  1.00  0.00     0.271 C 
BRANCH  27  28
HETATM   28  N2  UNL     1       1.768   7.568   7.910  1.00  0.00     0.080 N 
HETATM   29  C17 UNL     1       1.752   7.067   6.535  1.00  0.00     0.309 C 
HETATM   30  C18 UNL     1       2.881   8.504   8.082  1.00  0.00     0.309 C 
ENDBRANCH  27  28
ENDBRANCH  26  27
ENDBRANCH  25  26
ENDBRANCH   5  25
TORSDOF 6
ENDMDL
MODEL 3
REMARK minimizedAffinity -8.16356945
REMARK  6 active torsions:
REMARK  status: ('A' for Active; 'I' for Inactive)
REMARK    1  A    between atoms: O1_2  and  C2_3 
REMARK    2  A    between atoms: C9_10  and  C10_11 
REMARK    3  A    between atoms: C13_15  and  C14_16 
REMARK    4  A    between atoms: C14_16  and  C15_17 
REMARK    5  A    between atoms: C15_17  and  C16_18 
REMARK    6  A    between atoms: C16_18  and  N2_19 
ROOT
HETATM    1  C10 UNL     1      -1.550   6.122  12.570  1.00  0.00     0.040 A 
HETATM    2  N1  UNL     1      -0.405   5.529  12.087  1.00  0.00    -0.359 N 
HETATM    3  C11 UNL     1       0.631   6.417  12.125  1.00  0.00     0.016 A 
HETATM    4  C12 UNL     1       0.168   7.607  12.635  1.00  0.00    -0.027 A 
HETATM    5  C13 UNL     1      -1.214   7.430  12.932  1.00  0.00    -0.023 A 
HETATM    6  C19 UNL     1       1.056   8.793  12.819  1.00  0.00     0.041 C 
HETATM    7  C20 UNL     1       2.366   8.637  12.021  1.00  0.00     0.005 C 
HETATM    8  C21 UNL     1       2.969   7.225  12.162  1.00  0.00     0.006 C 
HETATM    9  C22 UNL     1       2.012   6.131  11.653  1.00  0.00     0.057 C 
HETATM   10  H8  UNL     1      -0.334   4.576  11.745  1.00  0.00     0.166 HD
ENDROOT
BRANCH   1  11
HETATM   11  C9  UNL     1      -2.796   5.435  12.635  1.00  0.00     0.048 C 
HETATM   12  C8  UNL     1      -3.187   4.302  12.029  1.00  0.00     0.047 A 
HETATM   13  C6  UNL     1      -4.534   3.722  12.210  1.00  0.00     0.009 A 
HETATM   14  C23 UNL     1      -2.459   3.373  11.086  1.00  0.00     0.257 A 
HETATM   15  C5  UNL     1      -4.573   2.561  11.437  1.00  0.00     0.046 A 
HETATM   16  C7  UNL     1      -5.647   4.103  12.942  1.00  0.00     0.051 A 
HETATM   17  C4  UNL     1      -5.689   1.753  11.364  1.00  0.00     0.033 A 
HETATM   18  N3  UNL     1      -3.362   2.366  10.788  1.00  0.00    -0.322 N 
HETATM   19  C3  UNL     1      -6.814   2.135  12.103  1.00  0.00     0.039 A 
HETATM   20  C2  UNL     1      -6.798   3.303  12.888  1.00  0.00     0.069 A 
HETATM   21  H29 UNL     1      -3.137   1.601  10.172  1.00  0.00     0.169 HD
HETATM   22  O2  UNL     1      -1.324   3.463  10.659  1.00  0.00    -0.267 OA
BRANCH  20  23
HETATM   23  O1  UNL     1      -7.840   3.768  13.647  1.00  0.00    -0.356 OA
HETATM   24  C1  UNL     1      -7.751   5.106  14.119  1.00  0.00     0.210 C 
ENDBRANCH  20  23
ENDBRANCH   1  11
BRANCH   5  25
HETATM   25  C14 UNL     1      -2.120   8.471  13.519  1.00  0.00     0.043 C 
BRANCH  25  26
HETATM   26  C15 UNL     1      -3.527   8.420  12.918  1.00  0.00     0.035 C 
BRANCH  26  27
HETATM   27  C16 UNL     1      -4.567   8.927  13.926  1.00  0.00     0.271 C 
BRANCH  27  28
HETATM   28  N2  UNL     1      -5.513   7.885  14.363  1.00  0.00     0.080 N 
HETATM   29  C17 UNL     1      -4.897   6.926  15.281  1.00  0.00     0.309 C 
HETATM   30  C18 UNL     1      -6.677   8.504  15.003  1.00  0.00     0.309 C 
ENDBRANCH  27  28
ENDBRANCH  26  27
ENDBRANCH  25  26
ENDBRANCH   5  25
TORSDOF 6
ENDMDL
MODEL 4
REMARK minimizedAffinity -8.15056229
REMARK  6 active torsions:
REMARK  status: ('A' for Active; 'I' for Inactive)
REMARK    1  A    between atoms: O1_2  and  C2_3 
REMARK    2  A    between atoms: C9_10  and  C10_11 
REMARK    3  A    between atoms: C13_15  and  C14_16 
REMARK    4  A    between atoms: C14_16  and  C15_17 
REMARK    5  A    between atoms: C15_17  and  C16_18 
REMARK    6  A    between atoms: C16_18  and  N2_19 
ROOT
HETATM    1  C10 UNL     1      -7.623   6.225  13.844  1.00  0.00     0.040 A 
HETATM    2  N1  UNL     1      -8.927   6.004  13.463  1.00  0.00    -0.359 N 
HETATM    3  C11 UNL     1      -9.751   6.904  14.075  1.00  0.00     0.016 A 
HETATM    4  C12 UNL     1      -8.986   7.726  14.869  1.00  0.00    -0.027 A 
HETATM    5  C13 UNL     1      -7.631   7.312  14.724  1.00  0.00    -0.023 A 
HETATM    6  C19 UNL     1      -9.581   8.833  15.675  1.00  0.00     0.041 C 
HETATM    7  C20 UNL     1     -11.108   8.665  15.809  1.00  0.00     0.005 C 
HETATM    8  C21 UNL     1     -11.770   8.277  14.472  1.00  0.00     0.006 C 
HETATM    9  C22 UNL     1     -11.229   6.945  13.921  1.00  0.00     0.057 C 
HETATM   10  H8  UNL     1      -9.241   5.278  12.826  1.00  0.00     0.166 HD
ENDROOT
BRANCH   1  11
HETATM   11  C9  UNL     1      -6.543   5.424  13.371  1.00  0.00     0.048 C 
HETATM   12  C8  UNL     1      -6.545   4.164  12.908  1.00  0.00     0.047 A 
HETATM   13  C6  UNL     1      -5.318   3.477  12.453  1.00  0.00     0.009 A 
HETATM   14  C23 UNL     1      -7.669   3.171  12.724  1.00  0.00     0.257 A 
HETATM   15  C5  UNL     1      -5.707   2.201  12.045  1.00  0.00     0.046 A 
HETATM   16  C7  UNL     1      -3.988   3.852  12.376  1.00  0.00     0.051 A 
HETATM   17  C4  UNL     1      -4.812   1.272  11.556  1.00  0.00     0.033 A 
HETATM   18  N3  UNL     1      -7.076   2.032  12.205  1.00  0.00    -0.322 N 
HETATM   19  C3  UNL     1      -3.467   1.649  11.477  1.00  0.00     0.039 A 
HETATM   20  C2  UNL     1      -3.052   2.930  11.884  1.00  0.00     0.069 A 
HETATM   21  H29 UNL     1      -7.599   1.200  11.983  1.00  0.00     0.169 HD
HETATM   22  O2  UNL     1      -8.852   3.309  12.972  1.00  0.00    -0.267 OA
BRANCH  20  23
HETATM   23  O1  UNL     1      -1.766   3.400  11.850  1.00  0.00    -0.356 OA
HETATM   24  C1  UNL     1      -0.762   2.508  11.383  1.00  0.00     0.210 C 
ENDBRANCH  20  23
ENDBRANCH   1  11
BRANCH   5  25
HETATM   25  C14 UNL     1      -6.449   7.938  15.403  1.00  0.00     0.043 C 
BRANCH  25  26
HETATM   26  C15 UNL     1      -5.253   6.986  15.480  1.00  0.00     0.035 C 
BRANCH  26  27
HETATM   27  C16 UNL     1      -3.980   7.671  14.964  1.00  0.00     0.271 C 
BRANCH  27  28
HETATM   28  N2  UNL     1      -2.792   7.394  15.791  1.00  0.00     0.080 N 
HETATM   29  C17 UNL     1      -1.686   6.844  15.005  1.00  0.00     0.309 C 
HETATM   30  C18 UNL     1      -2.356   8.619  16.466  1.00  0.00     0.309 C 
ENDBRANCH  27  28
ENDBRANCH  26  27
ENDBRANCH  25  26
ENDBRANCH   5  25
TORSDOF 6
ENDMDL
MODEL 5
REMARK minimizedAffinity -8.10459995
REMARK  6 active torsions:
REMARK  status: ('A' for Active; 'I' for Inactive)
REMARK    1  A    between atoms: O1_2  and  C2_3 
REMARK    2  A    between atoms: C9_10  and  C10_11 
REMARK    3  A    between atoms: C13_15  and  C14_16 
REMARK    4  A    between atoms: C14_16  and  C15_17 
REMARK    5  A    between atoms: C15_17  and  C16_18 
REMARK    6  A    between atoms: C16_18  and  N2_19 
ROOT
HETATM    1  C10 UNL     1      -2.904   4.419  12.178  1.00  0.00     0.040 A 
HETATM    2  N1  UNL     1      -3.002   3.109  11.766  1.00  0.00    -0.359 N 
HETATM    3  C11 UNL     1      -4.304   2.703  11.811  1.00  0.00     0.016 A 
HETATM    4  C12 UNL     1      -5.074   3.752  12.256  1.00  0.00    -0.027 A 
HETATM    5  C13 UNL     1      -4.197   4.852  12.484  1.00  0.00    -0.023 A 
HETATM    6  C19 UNL     1      -6.554   3.643  12.411  1.00  0.00     0.041 C 
HETATM    7  C20 UNL     1      -7.008   2.170  12.406  1.00  0.00     0.005 C 
HETATM    8  C21 UNL     1      -6.312   1.351  11.301  1.00  0.00     0.006 C 
HETATM    9  C22 UNL     1      -4.781   1.338  11.464  1.00  0.00     0.057 C 
HETATM   10  H8  UNL     1      -2.226   2.521  11.477  1.00  0.00     0.166 HD
ENDROOT
BRANCH   1  11
HETATM   11  C9  UNL     1      -1.657   5.106  12.247  1.00  0.00     0.048 C 
HETATM   12  C8  UNL     1      -1.015   5.618  13.310  1.00  0.00     0.047 A 
HETATM   13  C6  UNL     1       0.287   6.308  13.201  1.00  0.00     0.009 A 
HETATM   14  C23 UNL     1      -1.378   5.645  14.777  1.00  0.00     0.257 A 
HETATM   15  C5  UNL     1       0.639   6.696  14.494  1.00  0.00     0.046 A 
HETATM   16  C7  UNL     1       1.125   6.603  12.139  1.00  0.00     0.051 A 
HETATM   17  C4  UNL     1       1.807   7.374  14.776  1.00  0.00     0.033 A 
HETATM   18  N3  UNL     1      -0.334   6.305  15.404  1.00  0.00    -0.322 N 
HETATM   19  C3  UNL     1       2.656   7.672  13.704  1.00  0.00     0.039 A 
HETATM   20  C2  UNL     1       2.321   7.292  12.391  1.00  0.00     0.069 A 
HETATM   21  H29 UNL     1      -0.315   6.468  16.398  1.00  0.00     0.169 HD
HETATM   22  O2  UNL     1      -2.367   5.194  15.322  1.00  0.00    -0.267 OA
BRANCH  20  23
HETATM   23  O1  UNL     1       3.076   7.533  11.274  1.00  0.00    -0.356 OA
HETATM   24  C1  UNL     1       3.284   6.443  10.384  1.00  0.00     0.210 C 
ENDBRANCH  20  23
ENDBRANCH   1  11
BRANCH   5  25
HETATM   25  C14 UNL     1      -4.609   6.211  12.966  1.00  0.00     0.043 C 
BRANCH  25  26
HETATM   26  C15 UNL     1      -5.886   6.164  13.809  1.00  0.00     0.035 C 
BRANCH  26  27
HETATM   27  C16 UNL     1      -5.563   6.354  15.296  1.00  0.00     0.271 C 
BRANCH  27  28
HETATM   28  N2  UNL     1      -6.679   5.995  16.188  1.00  0.00     0.080 N 
HETATM   29  C17 UNL     1      -7.482   7.158  16.568  1.00  0.00     0.309 C 
HETATM   30  C18 UNL     1      -7.533   4.995  15.542  1.00  0.00     0.309 C 
ENDBRANCH  27  28
ENDBRANCH  26  27
ENDBRANCH  25  26
ENDBRANCH   5  25
TORSDOF 6
ENDMDL
MODEL 6
REMARK minimizedAffinity -8.08499146
REMARK  6 active torsions:
REMARK  status: ('A' for Active; 'I' for Inactive)
REMARK    1  A    between atoms: O1_2  and  C2_3 
REMARK    2  A    between atoms: C9_10  and  C10_11 
REMARK    3  A    between atoms: C13_15  and  C14_16 
REMARK    4  A    between atoms: C14_16  and  C15_17 
REMARK    5  A    between atoms: C15_17  and  C16_18 
REMARK    6  A    between atoms: C16_18  and  N2_19 
ROOT
HETATM    1  C10 UNL     1      -0.935   5.620  12.224  1.00  0.00     0.040 A 
HETATM    2  N1  UNL     1      -0.256   5.472  11.035  1.00  0.00    -0.359 N 
HETATM    3  C11 UNL     1       1.010   5.967  11.157  1.00  0.00     0.016 A 
HETATM    4  C12 UNL     1       1.170   6.449  12.435  1.00  0.00    -0.027 A 
HETATM    5  C13 UNL     1      -0.055   6.225  13.127  1.00  0.00    -0.023 A 
HETATM    6  C19 UNL     1       2.451   7.055  12.903  1.00  0.00     0.041 C 
HETATM    7  C20 UNL     1       3.361   7.421  11.714  1.00  0.00     0.005 C 
HETATM    8  C21 UNL     1       3.408   6.305  10.652  1.00  0.00     0.006 C 
HETATM    9  C22 UNL     1       2.017   6.003  10.064  1.00  0.00     0.057 C 
HETATM   10  H8  UNL     1      -0.634   5.062  10.186  1.00  0.00     0.166 HD
ENDROOT
BRANCH   1  11
HETATM   11  C9  UNL     1      -2.287   5.203  12.387  1.00  0.00     0.048 C 
HETATM   12  C8  UNL     1      -2.907   4.097  11.944  1.00  0.00     0.047 A 
HETATM   13  C6  UNL     1      -4.334   3.820  12.207  1.00  0.00     0.009 A 
HETATM   14  C23 UNL     1      -2.399   2.927  11.133  1.00  0.00     0.257 A 
HETATM   15  C5  UNL     1      -4.619   2.596  11.600  1.00  0.00     0.046 A 
HETATM   16  C7  UNL     1      -5.330   4.503  12.885  1.00  0.00     0.051 A 
HETATM   17  C4  UNL     1      -5.870   2.018  11.642  1.00  0.00     0.033 A 
HETATM   18  N3  UNL     1      -3.487   2.084  10.980  1.00  0.00    -0.322 N 
HETATM   19  C3  UNL     1      -6.878   2.706  12.327  1.00  0.00     0.039 A 
HETATM   20  C2  UNL     1      -6.615   3.943  12.945  1.00  0.00     0.069 A 
HETATM   21  H29 UNL     1      -3.433   1.215  10.472  1.00  0.00     0.169 HD
HETATM   22  O2  UNL     1      -1.281   2.737  10.693  1.00  0.00    -0.267 OA
BRANCH  20  23
HETATM   23  O1  UNL     1      -7.524   4.698  13.637  1.00  0.00    -0.356 OA
HETATM   24  C1  UNL     1      -8.419   5.496  12.873  1.00  0.00     0.210 C 
ENDBRANCH  20  23
ENDBRANCH   1  11
BRANCH   5  25
HETATM   25  C14 UNL     1      -0.328   6.584  14.557  1.00  0.00     0.043 C 
BRANCH  25  26
HETATM   26  C15 UNL     1      -1.178   7.851  14.684  1.00  0.00     0.035 C 
BRANCH  26  27
HETATM   27  C16 UNL     1      -2.284   7.660  15.730  1.00  0.00     0.271 C 
BRANCH  27  28
HETATM   28  N2  UNL     1      -2.354   8.755  16.714  1.00  0.00     0.080 N 
HETATM   29  C17 UNL     1      -1.112   9.528  16.773  1.00  0.00     0.309 C 
HETATM   30  C18 UNL     1      -3.474   9.644  16.394  1.00  0.00     0.309 C 
ENDBRANCH  27  28
ENDBRANCH  26  27
ENDBRANCH  25  26
ENDBRANCH   5  25
TORSDOF 6
ENDMDL
MODEL 7
REMARK minimizedAffinity -8.02017689
REMARK  6 active torsions:
REMARK  status: ('A' for Active; 'I' for Inactive)
REMARK    1  A    between atoms: O1_2  and  C2_3 
REMARK    2  A    between atoms: C9_10  and  C10_11 
REMARK    3  A    between atoms: C13_15  and  C14_16 
REMARK    4  A    between atoms: C14_16  and  C15_17 
REMARK    5  A    between atoms: C15_17  and  C16_18 
REMARK    6  A    between atoms: C16_18  and  N2_19 
ROOT
HETATM    1  C10 UNL     1      -1.875   5.773  13.816  1.00  0.00     0.040 A 
HETATM    2  N1  UNL     1      -1.635   6.430  15.002  1.00  0.00    -0.359 N 
HETATM    3  C11 UNL     1      -0.359   6.914  15.016  1.00  0.00     0.016 A 
HETATM    4  C12 UNL     1       0.251   6.574  13.831  1.00  0.00    -0.027 A 
HETATM    5  C13 UNL     1      -0.705   5.857  13.055  1.00  0.00    -0.023 A 
HETATM    6  C19 UNL     1       1.659   6.962  13.520  1.00  0.00     0.041 C 
HETATM    7  C20 UNL     1       2.410   7.398  14.794  1.00  0.00     0.005 C 
HETATM    8  C21 UNL     1       1.559   8.328  15.682  1.00  0.00     0.006 C 
HETATM    9  C22 UNL     1       0.257   7.652  16.150  1.00  0.00     0.057 C 
HETATM   10  H8  UNL     1      -2.299   6.538  15.762  1.00  0.00     0.166 HD
ENDROOT
BRANCH   1  11
HETATM   11  C9  UNL     1      -3.124   5.151  13.527  1.00  0.00     0.048 C 
HETATM   12  C8  UNL     1      -4.366   5.662  13.551  1.00  0.00     0.047 A 
HETATM   13  C6  UNL     1      -5.564   4.864  13.219  1.00  0.00     0.009 A 
HETATM   14  C23 UNL     1      -4.868   7.048  13.883  1.00  0.00     0.257 A 
HETATM   15  C5  UNL     1      -6.659   5.720  13.350  1.00  0.00     0.046 A 
HETATM   16  C7  UNL     1      -5.760   3.546  12.842  1.00  0.00     0.051 A 
HETATM   17  C4  UNL     1      -7.955   5.312  13.117  1.00  0.00     0.033 A 
HETATM   18  N3  UNL     1      -6.244   6.988  13.735  1.00  0.00    -0.322 N 
HETATM   19  C3  UNL     1      -8.155   3.980  12.734  1.00  0.00     0.039 A 
HETATM   20  C2  UNL     1      -7.067   3.099  12.597  1.00  0.00     0.069 A 
HETATM   21  H29 UNL     1      -6.842   7.783  13.896  1.00  0.00     0.169 HD
HETATM   22  O2  UNL     1      -4.227   8.027  14.215  1.00  0.00    -0.267 OA
BRANCH  20  23
HETATM   23  O1  UNL     1      -7.149   1.782  12.231  1.00  0.00    -0.356 OA
HETATM   24  C1  UNL     1      -6.179   1.304  11.308  1.00  0.00     0.210 C 
ENDBRANCH  20  23
ENDBRANCH   1  11
BRANCH   5  25
HETATM   25  C14 UNL     1      -0.473   5.302  11.681  1.00  0.00     0.043 C 
BRANCH  25  26
HETATM   26  C15 UNL     1       1.002   5.351  11.277  1.00  0.00     0.035 C 
BRANCH  26  27
HETATM   27  C16 UNL     1       1.207   6.291  10.082  1.00  0.00     0.271 C 
BRANCH  27  28
HETATM   28  N2  UNL     1       2.418   5.986   9.299  1.00  0.00     0.080 N 
HETATM   29  C17 UNL     1       2.541   6.835   8.113  1.00  0.00     0.309 C 
HETATM   30  C18 UNL     1       3.608   6.137  10.140  1.00  0.00     0.309 C 
ENDBRANCH  27  28
ENDBRANCH  26  27
ENDBRANCH  25  26
ENDBRANCH   5  25
TORSDOF 6
ENDMDL
MODEL 8
REMARK minimizedAffinity -7.94450045
REMARK  6 active torsions:
REMARK  status: ('A' for Active; 'I' for Inactive)
REMARK    1  A    between atoms: O1_2  and  C2_3 
REMARK    2  A    between atoms: C9_10  and  C10_11 
REMARK    3  A    between atoms: C13_15  and  C14_16 
REMARK    4  A    between atoms: C14_16  and  C15_17 
REMARK    5  A    between atoms: C15_17  and  C16_18 
REMARK    6  A    between atoms: C16_18  and  N2_19 
ROOT
HETATM    1  C10 UNL     1      -3.193   4.676  12.886  1.00  0.00     0.040 A 
HETATM    2  N1  UNL     1      -3.108   3.418  12.334  1.00  0.00    -0.359 N 
HETATM    3  C11 UNL     1      -4.359   2.902  12.155  1.00  0.00     0.016 A 
HETATM    4  C12 UNL     1      -5.279   3.825  12.595  1.00  0.00    -0.027 A 
HETATM    5  C13 UNL     1      -4.552   4.961  13.053  1.00  0.00    -0.023 A 
HETATM    6  C19 UNL     1      -6.750   3.575  12.531  1.00  0.00     0.041 C 
HETATM    7  C20 UNL     1      -7.052   2.080  12.313  1.00  0.00     0.005 C 
HETATM    8  C21 UNL     1      -6.142   1.454  11.237  1.00  0.00     0.006 C 
HETATM    9  C22 UNL     1      -4.651   1.550  11.608  1.00  0.00     0.057 C 
HETATM   10  H8  UNL     1      -2.247   2.934  12.096  1.00  0.00     0.166 HD
ENDROOT
BRANCH   1  11
HETATM   11  C9  UNL     1      -2.040   5.452  13.198  1.00  0.00     0.048 C 
HETATM   12  C8  UNL     1      -0.847   5.506  12.583  1.00  0.00     0.047 A 
HETATM   13  C6  UNL     1       0.253   6.377  13.046  1.00  0.00     0.009 A 
HETATM   14  C23 UNL     1      -0.317   4.780  11.368  1.00  0.00     0.257 A 
HETATM   15  C5  UNL     1       1.320   6.169  12.171  1.00  0.00     0.046 A 
HETATM   16  C7  UNL     1       0.385   7.271  14.096  1.00  0.00     0.051 A 
HETATM   17  C4  UNL     1       2.527   6.823  12.300  1.00  0.00     0.033 A 
HETATM   18  N3  UNL     1       0.978   5.240  11.197  1.00  0.00    -0.322 N 
HETATM   19  C3  UNL     1       2.662   7.727  13.360  1.00  0.00     0.039 A 
HETATM   20  C2  UNL     1       1.601   7.953  14.256  1.00  0.00     0.069 A 
HETATM   21  H29 UNL     1       1.574   4.918  10.452  1.00  0.00     0.169 HD
HETATM   22  O2  UNL     1      -0.882   3.961  10.667  1.00  0.00    -0.267 OA
BRANCH  20  23
HETATM   23  O1  UNL     1       1.626   8.811  15.322  1.00  0.00    -0.356 OA
HETATM   24  C1  UNL     1       0.479   8.838  16.161  1.00  0.00     0.210 C 
ENDBRANCH  20  23
ENDBRANCH   1  11
BRANCH   5  25
HETATM   25  C14 UNL     1      -5.154   6.216  13.610  1.00  0.00     0.043 C 
BRANCH  25  26
HETATM   26  C15 UNL     1      -6.670   6.273  13.404  1.00  0.00     0.035 C 
BRANCH  26  27
HETATM   27  C16 UNL     1      -7.337   7.101  14.510  1.00  0.00     0.271 C 
BRANCH  27  28
HETATM   28  N2  UNL     1      -8.651   6.576  14.922  1.00  0.00     0.080 N 
HETATM   29  C17 UNL     1      -9.209   7.308  16.060  1.00  0.00     0.309 C 
HETATM   30  C18 UNL     1      -9.586   6.628  13.795  1.00  0.00     0.309 C 
ENDBRANCH  27  28
ENDBRANCH  26  27
ENDBRANCH  25  26
ENDBRANCH   5  25
TORSDOF 6
ENDMDL
MODEL 9
REMARK minimizedAffinity -7.9015317
REMARK  6 active torsions:
REMARK  status: ('A' for Active; 'I' for Inactive)
REMARK    1  A    between atoms: O1_2  and  C2_3 
REMARK    2  A    between atoms: C9_10  and  C10_11 
REMARK    3  A    between atoms: C13_15  and  C14_16 
REMARK    4  A    between atoms: C14_16  and  C15_17 
REMARK    5  A    between atoms: C15_17  and  C16_18 
REMARK    6  A    between atoms: C16_18  and  N2_19 
ROOT
HETATM    1  C10 UNL     1      -5.465   5.824  13.661  1.00  0.00     0.040 A 
HETATM    2  N1  UNL     1      -4.597   5.069  12.905  1.00  0.00    -0.359 N 
HETATM    3  C11 UNL     1      -5.227   3.942  12.460  1.00  0.00     0.016 A 
HETATM    4  C12 UNL     1      -6.520   3.951  12.927  1.00  0.00    -0.027 A 
HETATM    5  C13 UNL     1      -6.687   5.147  13.684  1.00  0.00    -0.023 A 
HETATM    6  C19 UNL     1      -7.487   2.859  12.613  1.00  0.00     0.041 C 
HETATM    7  C20 UNL     1      -6.761   1.607  12.083  1.00  0.00     0.005 C 
HETATM    8  C21 UNL     1      -5.672   1.959  11.050  1.00  0.00     0.006 C 
HETATM    9  C22 UNL     1      -4.588   2.880  11.639  1.00  0.00     0.057 C 
HETATM   10  H8  UNL     1      -3.629   5.303  12.706  1.00  0.00     0.166 HD
ENDROOT
BRANCH   1  11
HETATM   11  C9  UNL     1      -5.076   7.052  14.270  1.00  0.00     0.048 C 
HETATM   12  C8  UNL     1      -3.987   7.344  15.000  1.00  0.00     0.047 A 
HETATM   13  C6  UNL     1      -3.739   8.688  15.562  1.00  0.00     0.009 A 
HETATM   14  C23 UNL     1      -2.814   6.493  15.425  1.00  0.00     0.257 A 
HETATM   15  C5  UNL     1      -2.527   8.612  16.250  1.00  0.00     0.046 A 
HETATM   16  C7  UNL     1      -4.437   9.883  15.525  1.00  0.00     0.051 A 
HETATM   17  C4  UNL     1      -1.975   9.691  16.908  1.00  0.00     0.033 A 
HETATM   18  N3  UNL     1      -1.995   7.332  16.163  1.00  0.00    -0.322 N 
HETATM   19  C3  UNL     1      -2.679  10.900  16.871  1.00  0.00     0.039 A 
HETATM   20  C2  UNL     1      -3.905  11.000  16.185  1.00  0.00     0.069 A 
HETATM   21  H29 UNL     1      -1.130   7.021  16.575  1.00  0.00     0.169 HD
HETATM   22  O2  UNL     1      -2.603   5.318  15.188  1.00  0.00    -0.267 OA
BRANCH  20  23
HETATM   23  O1  UNL     1      -4.673  12.129  16.086  1.00  0.00    -0.356 OA
HETATM   24  C1  UNL     1      -4.648  13.028  17.188  1.00  0.00     0.210 C 
ENDBRANCH  20  23
ENDBRANCH   1  11
BRANCH   5  25
HETATM   25  C14 UNL     1      -7.950   5.575  14.371  1.00  0.00     0.043 C 
BRANCH  25  26
HETATM   26  C15 UNL     1      -8.992   6.112  13.387  1.00  0.00     0.035 C 
BRANCH  26  27
HETATM   27  C16 UNL     1      -9.955   7.078  14.090  1.00  0.00     0.271 C 
BRANCH  27  28
HETATM   28  N2  UNL     1     -11.277   7.158  13.444  1.00  0.00     0.080 N 
HETATM   29  C17 UNL     1     -12.338   6.593  14.279  1.00  0.00     0.309 C 
HETATM   30  C18 UNL     1     -11.592   8.552  13.122  1.00  0.00     0.309 C 
ENDBRANCH  27  28
ENDBRANCH  26  27
ENDBRANCH  25  26
ENDBRANCH   5  25
TORSDOF 6
ENDMDL
