MODEL 1
REMARK minimizedAffinity -11.261117
REMARK CNNscore 0.72543031
REMARK CNNaffinity 8.0499506
REMARK  5 active torsions:
REMARK  status: ('A' for Active; 'I' for Inactive)
REMARK    1  A    between atoms: C3_3  and  C4_4 
REMARK    2  A    between atoms: C7_8  and  C8_9 
REMARK       I    between atoms: C8_9  and  N1_10 
REMARK    3  A    between atoms: C15_19  and  C16_20 
REMARK    4  A    between atoms: C16_20  and  O2_23 
REMARK    5  A    between atoms: C23_28  and  N3_29 
ROOT
HETATM    1  C4  UNL     1      -4.481   5.595  12.738  1.00  0.00     0.026 A 
HETATM    2  C5  UNL     1      -4.014   4.422  12.118  1.00  0.00     0.129 A 
HETATM    3  F1  UNL     1      -2.767   4.383  11.621  1.00  0.00    -0.205 F 
HETATM    4  C6  UNL     1      -4.793   3.278  11.996  1.00  0.00     0.062 A 
HETATM    5  C7  UNL     1      -6.099   3.257  12.491  1.00  0.00     0.062 A 
HETATM    6  C9  UNL     1      -6.563   4.419  13.136  1.00  0.00     0.060 A 
HETATM    7  N2  UNL     1      -7.789   4.654  13.729  1.00  0.00    -0.358 N 
HETATM    8  C10 UNL     1      -7.837   5.926  14.213  1.00  0.00     0.017 A 
HETATM    9  C11 UNL     1      -6.622   6.532  13.969  1.00  0.00    -0.022 A 
HETATM   10  C12 UNL     1      -5.796   5.586  13.276  1.00  0.00     0.014 A 
HETATM   11  C13 UNL     1      -6.356   7.945  14.374  1.00  0.00     0.042 C 
HETATM   12  C14 UNL     1      -7.402   8.445  15.392  1.00  0.00     0.013 C 
HETATM   13  C15 UNL     1      -8.856   8.067  14.984  1.00  0.00     0.025 C 
HETATM   14  C19 UNL     1      -9.011   6.524  14.908  1.00  0.00     0.065 C 
HETATM   15  H7  UNL     1      -8.523   3.954  13.779  1.00  0.00     0.166 HD
ENDROOT
BRANCH   1  16
HETATM   16  C3  UNL     1      -3.633   6.788  12.849  1.00  0.00    -0.014 A 
HETATM   17  C2  UNL     1      -2.213   6.724  12.823  1.00  0.00    -0.023 A 
HETATM   18  C1  UNL     1      -1.538   5.387  12.618  1.00  0.00     0.051 C 
HETATM   19  C23 UNL     1      -1.461   7.919  12.973  1.00  0.00     0.054 A 
HETATM   20  C22 UNL     1      -2.135   9.148  13.087  1.00  0.00     0.031 A 
HETATM   21  C21 UNL     1      -3.525   9.208  13.098  1.00  0.00     0.003 A 
HETATM   22  C20 UNL     1      -4.265   8.037  12.994  1.00  0.00     0.013 A 
BRANCH  19  23
HETATM   23  N3  UNL     1      -0.020   7.917  13.030  1.00  0.00    -0.229 N 
HETATM   24  C24 UNL     1       0.570   7.934  14.294  1.00  0.00     0.269 C 
HETATM   25  O3  UNL     1      -0.030   8.040  15.363  1.00  0.00    -0.267 OA
HETATM   26  C25 UNL     1       2.038   7.860  14.346  1.00  0.00     0.063 A 
HETATM   27  C26 UNL     1       2.672   7.727  15.597  1.00  0.00     0.020 A 
HETATM   28  C30 UNL     1       2.773   7.937  13.169  1.00  0.00     0.092 A 
HETATM   29  C27 UNL     1       4.059   7.664  15.682  1.00  0.00     0.004 A 
HETATM   30  C28 UNL     1       4.811   7.738  14.517  1.00  0.00     0.045 A 
HETATM   31  C29 UNL     1       4.173   7.873  13.282  1.00  0.00     0.144 A 
HETATM   32  F2  UNL     1       4.965   7.933  12.202  1.00  0.00    -0.204 F 
HETATM   33  N4  UNL     1       2.087   8.080  11.931  1.00  0.00    -0.300 N 
HETATM   34  C31 UNL     1       2.856   8.209  10.697  1.00  0.00     0.161 C 
HETATM   35  C32 UNL     1       0.694   8.064  11.834  1.00  0.00     0.336 C 
HETATM   36  O4  UNL     1       0.145   8.151  10.731  1.00  0.00    -0.246 OA
ENDBRANCH  19  23
ENDBRANCH   1  16
BRANCH   5  37
HETATM   37  C8  UNL     1      -6.993   2.074  12.381  1.00  0.00     0.251 C 
HETATM   38  N1  UNL     1      -6.620   1.062  11.541  1.00  0.00    -0.366 N 
HETATM   39  H5  UNL     1      -7.299   0.323  11.405  1.00  0.00     0.159 HD
HETATM   40  H6  UNL     1      -5.904   1.163  10.837  1.00  0.00     0.159 HD
HETATM   41  O1  UNL     1      -8.054   2.014  12.992  1.00  0.00    -0.268 OA
ENDBRANCH   5  37
BRANCH  13  42
HETATM   42  C16 UNL     1      -9.930   8.754  15.876  1.00  0.00     0.054 C 
HETATM   43  C17 UNL     1     -11.371   8.499  15.421  1.00  0.00     0.045 C 
HETATM   44  C18 UNL     1      -9.684  10.264  15.993  1.00  0.00     0.045 C 
BRANCH  42  45
HETATM   45  O2  UNL     1      -9.793   8.208  17.198  1.00  0.00    -0.390 OA
HETATM   46  H19 UNL     1     -10.472   8.613  17.766  1.00  0.00     0.210 HD
ENDBRANCH  42  45
ENDBRANCH  13  42
TORSDOF 5
ENDMDL
MODEL 2
REMARK minimizedAffinity -11.1766949
REMARK CNNscore 0.648018241
REMARK CNNaffinity 7.94659662
REMARK  5 active torsions:
REMARK  status: ('A' for Active; 'I' for Inactive)
REMARK    1  A    between atoms: C3_3  and  C4_4 
REMARK    2  A    between atoms: C7_8  and  C8_9 
REMARK       I    between atoms: C8_9  and  N1_10 
REMARK    3  A    between atoms: C15_19  and  C16_20 
REMARK    4  A    between atoms: C16_20  and  O2_23 
REMARK    5  A    between atoms: C23_28  and  N3_29 
ROOT
HETATM    1  C4  UNL     1      -4.513   5.579  12.780  1.00  0.00     0.026 A 
HETATM    2  C5  UNL     1      -4.055   4.406  12.153  1.00  0.00     0.129 A 
HETATM    3  F1  UNL     1      -2.806   4.358  11.662  1.00  0.00    -0.205 F 
HETATM    4  C6  UNL     1      -4.845   3.271  12.019  1.00  0.00     0.062 A 
HETATM    5  C7  UNL     1      -6.153   3.260  12.507  1.00  0.00     0.062 A 
HETATM    6  C9  UNL     1      -6.609   4.422  13.158  1.00  0.00     0.060 A 
HETATM    7  N2  UNL     1      -7.836   4.665  13.747  1.00  0.00    -0.358 N 
HETATM    8  C10 UNL     1      -7.873   5.933  14.240  1.00  0.00     0.017 A 
HETATM    9  C11 UNL     1      -6.650   6.529  14.007  1.00  0.00    -0.022 A 
HETATM   10  C12 UNL     1      -5.831   5.579  13.311  1.00  0.00     0.014 A 
HETATM   11  C13 UNL     1      -6.372   7.936  14.425  1.00  0.00     0.042 C 
HETATM   12  C14 UNL     1      -7.418   8.439  15.441  1.00  0.00     0.013 C 
HETATM   13  C15 UNL     1      -8.874   8.079  15.022  1.00  0.00     0.025 C 
HETATM   14  C19 UNL     1      -9.044   6.539  14.933  1.00  0.00     0.065 C 
HETATM   15  H7  UNL     1      -8.577   3.973  13.787  1.00  0.00     0.166 HD
ENDROOT
BRANCH   1  16
HETATM   16  C3  UNL     1      -3.653   6.762  12.905  1.00  0.00    -0.014 A 
HETATM   17  C2  UNL     1      -2.249   6.671  13.112  1.00  0.00    -0.023 A 
HETATM   18  C1  UNL     1      -1.597   5.308  13.152  1.00  0.00     0.051 C 
HETATM   19  C23 UNL     1      -1.490   7.862  13.260  1.00  0.00     0.054 A 
HETATM   20  C22 UNL     1      -2.133   9.107  13.141  1.00  0.00     0.031 A 
HETATM   21  C21 UNL     1      -3.504   9.193  12.925  1.00  0.00     0.003 A 
HETATM   22  C20 UNL     1      -4.258   8.030  12.821  1.00  0.00     0.013 A 
BRANCH  19  23
HETATM   23  N3  UNL     1      -0.078   7.841  13.546  1.00  0.00    -0.229 N 
HETATM   24  C24 UNL     1       0.794   7.745  12.462  1.00  0.00     0.269 C 
HETATM   25  O3  UNL     1       0.461   7.588  11.287  1.00  0.00    -0.267 OA
HETATM   26  C25 UNL     1       2.234   7.797  12.756  1.00  0.00     0.063 A 
HETATM   27  C26 UNL     1       3.149   7.851  11.686  1.00  0.00     0.020 A 
HETATM   28  C30 UNL     1       2.668   7.776  14.076  1.00  0.00     0.092 A 
HETATM   29  C27 UNL     1       4.518   7.891  11.930  1.00  0.00     0.004 A 
HETATM   30  C28 UNL     1       4.971   7.872  13.242  1.00  0.00     0.045 A 
HETATM   31  C29 UNL     1       4.056   7.815  14.296  1.00  0.00     0.144 A 
HETATM   32  F2  UNL     1       4.568   7.805  15.535  1.00  0.00    -0.204 F 
HETATM   33  N4  UNL     1       1.705   7.712  15.121  1.00  0.00    -0.300 N 
HETATM   34  C31 UNL     1       2.157   7.642  16.508  1.00  0.00     0.161 C 
HETATM   35  C32 UNL     1       0.329   7.752  14.884  1.00  0.00     0.336 C 
HETATM   36  O4  UNL     1      -0.467   7.734  15.828  1.00  0.00    -0.246 OA
ENDBRANCH  19  23
ENDBRANCH   1  16
BRANCH   5  37
HETATM   37  C8  UNL     1      -7.060   2.087  12.382  1.00  0.00     0.251 C 
HETATM   38  N1  UNL     1      -6.672   1.059  11.570  1.00  0.00    -0.366 N 
HETATM   39  H5  UNL     1      -7.356   0.327  11.421  1.00  0.00     0.159 HD
HETATM   40  H6  UNL     1      -5.931   1.140  10.890  1.00  0.00     0.159 HD
HETATM   41  O1  UNL     1      -8.142   2.051  12.957  1.00  0.00    -0.268 OA
ENDBRANCH   5  37
BRANCH  13  42
HETATM   42  C16 UNL     1      -9.945   8.771  15.914  1.00  0.00     0.054 C 
HETATM   43  C17 UNL     1     -11.386   8.534  15.449  1.00  0.00     0.045 C 
HETATM   44  C18 UNL     1      -9.685  10.277  16.044  1.00  0.00     0.045 C 
BRANCH  42  45
HETATM   45  O2  UNL     1      -9.821   8.213  17.232  1.00  0.00    -0.390 OA
HETATM   46  H19 UNL     1     -10.498   8.621  17.800  1.00  0.00     0.210 HD
ENDBRANCH  42  45
ENDBRANCH  13  42
TORSDOF 5
ENDMDL
MODEL 3
REMARK minimizedAffinity -10.1003103
REMARK CNNscore 0.632934928
REMARK CNNaffinity 8.10427952
REMARK  5 active torsions:
REMARK  status: ('A' for Active; 'I' for Inactive)
REMARK    1  A    between atoms: C3_3  and  C4_4 
REMARK    2  A    between atoms: C7_8  and  C8_9 
REMARK       I    between atoms: C8_9  and  N1_10 
REMARK    3  A    between atoms: C15_19  and  C16_20 
REMARK    4  A    between atoms: C16_20  and  O2_23 
REMARK    5  A    between atoms: C23_28  and  N3_29 
ROOT
HETATM    1  C4  UNL     1     -11.303   7.935  14.269  1.00  0.00     0.026 A 
HETATM    2  C5  UNL     1     -12.320   7.074  13.821  1.00  0.00     0.129 A 
HETATM    3  F1  UNL     1     -12.145   5.744  13.888  1.00  0.00    -0.205 F 
HETATM    4  C6  UNL     1     -13.524   7.539  13.306  1.00  0.00     0.062 A 
HETATM    5  C7  UNL     1     -13.766   8.911  13.207  1.00  0.00     0.062 A 
HETATM    6  C9  UNL     1     -12.761   9.779  13.679  1.00  0.00     0.060 A 
HETATM    7  N2  UNL     1     -12.754  11.160  13.720  1.00  0.00    -0.358 N 
HETATM    8  C10 UNL     1     -11.572  11.605  14.227  1.00  0.00     0.017 A 
HETATM    9  C11 UNL     1     -10.798  10.511  14.555  1.00  0.00    -0.022 A 
HETATM   10  C12 UNL     1     -11.540   9.334  14.207  1.00  0.00     0.014 A 
HETATM   11  C13 UNL     1      -9.428  10.665  15.132  1.00  0.00     0.042 C 
HETATM   12  C14 UNL     1      -9.194  12.099  15.651  1.00  0.00     0.013 C 
HETATM   13  C15 UNL     1      -9.687  13.182  14.648  1.00  0.00     0.025 C 
HETATM   14  C19 UNL     1     -11.214  13.040  14.407  1.00  0.00     0.065 C 
HETATM   15  H7  UNL     1     -13.537  11.728  13.410  1.00  0.00     0.166 HD
ENDROOT
BRANCH   1  16
HETATM   16  C3  UNL     1     -10.042   7.410  14.807  1.00  0.00    -0.014 A 
HETATM   17  C2  UNL     1      -9.088   6.730  14.000  1.00  0.00    -0.023 A 
HETATM   18  C1  UNL     1      -9.347   6.584  12.518  1.00  0.00     0.051 C 
HETATM   19  C23 UNL     1      -7.908   6.220  14.602  1.00  0.00     0.054 A 
HETATM   20  C22 UNL     1      -7.679   6.446  15.970  1.00  0.00     0.031 A 
HETATM   21  C21 UNL     1      -8.607   7.124  16.754  1.00  0.00     0.003 A 
HETATM   22  C20 UNL     1      -9.783   7.589  16.178  1.00  0.00     0.013 A 
BRANCH  19  23
HETATM   23  N3  UNL     1      -6.937   5.457  13.858  1.00  0.00    -0.229 N 
HETATM   24  C24 UNL     1      -7.278   4.149  13.513  1.00  0.00     0.269 C 
HETATM   25  O3  UNL     1      -8.300   3.560  13.863  1.00  0.00    -0.267 OA
HETATM   26  C25 UNL     1      -6.312   3.401  12.694  1.00  0.00     0.063 A 
HETATM   27  C26 UNL     1      -6.673   2.133  12.198  1.00  0.00     0.020 A 
HETATM   28  C30 UNL     1      -5.060   3.948  12.436  1.00  0.00     0.092 A 
HETATM   29  C27 UNL     1      -5.779   1.396  11.428  1.00  0.00     0.004 A 
HETATM   30  C28 UNL     1      -4.524   1.925  11.159  1.00  0.00     0.045 A 
HETATM   31  C29 UNL     1      -4.174   3.181  11.658  1.00  0.00     0.144 A 
HETATM   32  F2  UNL     1      -2.947   3.627  11.352  1.00  0.00    -0.204 F 
HETATM   33  N4  UNL     1      -4.739   5.227  12.967  1.00  0.00    -0.300 N 
HETATM   34  C31 UNL     1      -3.409   5.784  12.739  1.00  0.00     0.161 C 
HETATM   35  C32 UNL     1      -5.661   6.005  13.672  1.00  0.00     0.336 C 
HETATM   36  O4  UNL     1      -5.347   7.128  14.079  1.00  0.00    -0.246 OA
ENDBRANCH  19  23
ENDBRANCH   1  16
BRANCH   5  37
HETATM   37  C8  UNL     1     -15.022   9.480  12.651  1.00  0.00     0.251 C 
HETATM   38  N1  UNL     1     -15.879  10.109  13.510  1.00  0.00    -0.366 N 
HETATM   39  H5  UNL     1     -16.772  10.389  13.124  1.00  0.00     0.159 HD
HETATM   40  H6  UNL     1     -15.820  10.020  14.514  1.00  0.00     0.159 HD
HETATM   41  O1  UNL     1     -15.309   9.360  11.465  1.00  0.00    -0.268 OA
ENDBRANCH   5  37
BRANCH  13  42
HETATM   42  C16 UNL     1      -9.255  14.621  15.056  1.00  0.00     0.054 C 
HETATM   43  C17 UNL     1      -7.742  14.787  15.236  1.00  0.00     0.045 C 
HETATM   44  C18 UNL     1      -9.981  15.090  16.323  1.00  0.00     0.045 C 
BRANCH  42  45
HETATM   45  O2  UNL     1      -9.661  15.501  13.996  1.00  0.00    -0.390 OA
HETATM   46  H19 UNL     1      -9.381  16.404  14.225  1.00  0.00     0.210 HD
ENDBRANCH  42  45
ENDBRANCH  13  42
TORSDOF 5
ENDMDL
MODEL 4
REMARK minimizedAffinity -10.2941017
REMARK CNNscore 0.460400581
REMARK CNNaffinity 7.84904146
REMARK  5 active torsions:
REMARK  status: ('A' for Active; 'I' for Inactive)
REMARK    1  A    between atoms: C3_3  and  C4_4 
REMARK    2  A    between atoms: C7_8  and  C8_9 
REMARK       I    between atoms: C8_9  and  N1_10 
REMARK    3  A    between atoms: C15_19  and  C16_20 
REMARK    4  A    between atoms: C16_20  and  O2_23 
REMARK    5  A    between atoms: C23_28  and  N3_29 
ROOT
HETATM    1  C4  UNL     1     -11.278   7.886  14.191  1.00  0.00     0.026 A 
HETATM    2  C5  UNL     1     -12.295   7.048  13.700  1.00  0.00     0.129 A 
HETATM    3  F1  UNL     1     -12.141   5.715  13.752  1.00  0.00    -0.205 F 
HETATM    4  C6  UNL     1     -13.475   7.541  13.158  1.00  0.00     0.062 A 
HETATM    5  C7  UNL     1     -13.693   8.918  13.074  1.00  0.00     0.062 A 
HETATM    6  C9  UNL     1     -12.689   9.762  13.588  1.00  0.00     0.060 A 
HETATM    7  N2  UNL     1     -12.662  11.142  13.652  1.00  0.00    -0.358 N 
HETATM    8  C10 UNL     1     -11.488  11.561  14.200  1.00  0.00     0.017 A 
HETATM    9  C11 UNL     1     -10.741  10.450  14.533  1.00  0.00    -0.022 A 
HETATM   10  C12 UNL     1     -11.491   9.290  14.145  1.00  0.00     0.014 A 
HETATM   11  C13 UNL     1      -9.386  10.573  15.152  1.00  0.00     0.042 C 
HETATM   12  C14 UNL     1      -9.145  11.994  15.701  1.00  0.00     0.013 C 
HETATM   13  C15 UNL     1      -9.592  13.101  14.701  1.00  0.00     0.025 C 
HETATM   14  C19 UNL     1     -11.113  12.986  14.414  1.00  0.00     0.065 C 
HETATM   15  H7  UNL     1     -13.426  11.727  13.328  1.00  0.00     0.166 HD
ENDROOT
BRANCH   1  16
HETATM   16  C3  UNL     1     -10.041   7.333  14.757  1.00  0.00    -0.014 A 
HETATM   17  C2  UNL     1      -9.092   6.620  13.975  1.00  0.00    -0.023 A 
HETATM   18  C1  UNL     1      -9.328   6.465  12.490  1.00  0.00     0.051 C 
HETATM   19  C23 UNL     1      -7.937   6.084  14.602  1.00  0.00     0.054 A 
HETATM   20  C22 UNL     1      -7.726   6.318  15.973  1.00  0.00     0.031 A 
HETATM   21  C21 UNL     1      -8.649   7.029  16.732  1.00  0.00     0.003 A 
HETATM   22  C20 UNL     1      -9.802   7.520  16.131  1.00  0.00     0.013 A 
BRANCH  19  23
HETATM   23  N3  UNL     1      -6.973   5.287  13.884  1.00  0.00    -0.229 N 
HETATM   24  C24 UNL     1      -5.753   5.886  13.572  1.00  0.00     0.269 C 
HETATM   25  O3  UNL     1      -5.460   7.063  13.778  1.00  0.00    -0.267 OA
HETATM   26  C25 UNL     1      -4.749   5.045  12.904  1.00  0.00     0.063 A 
HETATM   27  C26 UNL     1      -3.453   5.559  12.699  1.00  0.00     0.020 A 
HETATM   28  C30 UNL     1      -5.095   3.770  12.473  1.00  0.00     0.092 A 
HETATM   29  C27 UNL     1      -2.483   4.794  12.061  1.00  0.00     0.004 A 
HETATM   30  C28 UNL     1      -2.809   3.516  11.625  1.00  0.00     0.045 A 
HETATM   31  C29 UNL     1      -4.097   3.017  11.829  1.00  0.00     0.144 A 
HETATM   32  F2  UNL     1      -4.336   1.775  11.384  1.00  0.00    -0.204 F 
HETATM   33  N4  UNL     1      -6.419   3.299  12.694  1.00  0.00    -0.300 N 
HETATM   34  C31 UNL     1      -6.802   1.979  12.201  1.00  0.00     0.161 C 
HETATM   35  C32 UNL     1      -7.373   4.033  13.404  1.00  0.00     0.336 C 
HETATM   36  O4  UNL     1      -8.497   3.563  13.605  1.00  0.00    -0.246 OA
ENDBRANCH  19  23
ENDBRANCH   1  16
BRANCH   5  37
HETATM   37  C8  UNL     1     -14.924   9.515  12.491  1.00  0.00     0.251 C 
HETATM   38  N1  UNL     1     -15.450   8.937  11.370  1.00  0.00    -0.366 N 
HETATM   39  H5  UNL     1     -16.221   9.428  10.936  1.00  0.00     0.159 HD
HETATM   40  H6  UNL     1     -14.941   8.281  10.796  1.00  0.00     0.159 HD
HETATM   41  O1  UNL     1     -15.438  10.519  12.972  1.00  0.00    -0.268 OA
ENDBRANCH   5  37
BRANCH  13  42
HETATM   42  C16 UNL     1      -9.151  14.526  15.144  1.00  0.00     0.054 C 
HETATM   43  C17 UNL     1      -9.393  15.607  14.085  1.00  0.00     0.045 C 
HETATM   44  C18 UNL     1      -7.681  14.551  15.581  1.00  0.00     0.045 C 
BRANCH  42  45
HETATM   45  O2  UNL     1      -9.933  14.871  16.298  1.00  0.00    -0.390 OA
HETATM   46  H19 UNL     1      -9.684  15.769  16.578  1.00  0.00     0.210 HD
ENDBRANCH  42  45
ENDBRANCH  13  42
TORSDOF 5
ENDMDL
MODEL 5
REMARK minimizedAffinity -10.8765726
REMARK CNNscore 0.449799001
REMARK CNNaffinity 7.89401817
REMARK  5 active torsions:
REMARK  status: ('A' for Active; 'I' for Inactive)
REMARK    1  A    between atoms: C3_3  and  C4_4 
REMARK    2  A    between atoms: C7_8  and  C8_9 
REMARK       I    between atoms: C8_9  and  N1_10 
REMARK    3  A    between atoms: C15_19  and  C16_20 
REMARK    4  A    between atoms: C16_20  and  O2_23 
REMARK    5  A    between atoms: C23_28  and  N3_29 
ROOT
HETATM    1  C4  UNL     1      -3.623   5.621  12.502  1.00  0.00     0.026 A 
HETATM    2  C5  UNL     1      -3.128   4.444  11.912  1.00  0.00     0.129 A 
HETATM    3  F1  UNL     1      -1.856   4.399  11.483  1.00  0.00    -0.205 F 
HETATM    4  C6  UNL     1      -3.903   3.302  11.752  1.00  0.00     0.062 A 
HETATM    5  C7  UNL     1      -5.234   3.287  12.176  1.00  0.00     0.062 A 
HETATM    6  C9  UNL     1      -5.728   4.454  12.791  1.00  0.00     0.060 A 
HETATM    7  N2  UNL     1      -6.984   4.695  13.316  1.00  0.00    -0.358 N 
HETATM    8  C10 UNL     1      -7.053   5.969  13.792  1.00  0.00     0.017 A 
HETATM    9  C11 UNL     1      -5.824   6.569  13.612  1.00  0.00    -0.022 A 
HETATM   10  C12 UNL     1      -4.966   5.618  12.968  1.00  0.00     0.014 A 
HETATM   11  C13 UNL     1      -5.576   7.984  14.026  1.00  0.00     0.042 C 
HETATM   12  C14 UNL     1      -6.673   8.491  14.984  1.00  0.00     0.013 C 
HETATM   13  C15 UNL     1      -8.104   8.116  14.499  1.00  0.00     0.025 C 
HETATM   14  C19 UNL     1      -8.261   6.574  14.420  1.00  0.00     0.065 C 
HETATM   15  H7  UNL     1      -7.722   3.998  13.328  1.00  0.00     0.166 HD
ENDROOT
BRANCH   1  16
HETATM   16  C3  UNL     1      -2.779   6.811  12.655  1.00  0.00    -0.014 A 
HETATM   17  C2  UNL     1      -1.358   6.754  12.611  1.00  0.00    -0.023 A 
HETATM   18  C1  UNL     1      -0.682   5.429  12.343  1.00  0.00     0.051 C 
HETATM   19  C23 UNL     1      -0.609   7.944  12.804  1.00  0.00     0.054 A 
HETATM   20  C22 UNL     1      -1.286   9.164  12.977  1.00  0.00     0.031 A 
HETATM   21  C21 UNL     1      -2.676   9.219  13.005  1.00  0.00     0.003 A 
HETATM   22  C20 UNL     1      -3.413   8.050  12.858  1.00  0.00     0.013 A 
BRANCH  19  23
HETATM   23  N3  UNL     1       0.832   7.945  12.847  1.00  0.00    -0.229 N 
HETATM   24  C24 UNL     1       1.436   7.934  14.104  1.00  0.00     0.269 C 
HETATM   25  O3  UNL     1       0.846   8.013  15.182  1.00  0.00    -0.267 OA
HETATM   26  C25 UNL     1       2.904   7.863  14.140  1.00  0.00     0.063 A 
HETATM   27  C26 UNL     1       3.551   7.703  15.381  1.00  0.00     0.020 A 
HETATM   28  C30 UNL     1       3.627   7.969  12.957  1.00  0.00     0.092 A 
HETATM   29  C27 UNL     1       4.939   7.642  15.450  1.00  0.00     0.004 A 
HETATM   30  C28 UNL     1       5.679   7.745  14.280  1.00  0.00     0.045 A 
HETATM   31  C29 UNL     1       5.028   7.907  13.055  1.00  0.00     0.144 A 
HETATM   32  F2  UNL     1       5.809   7.994  11.968  1.00  0.00    -0.204 F 
HETATM   33  N4  UNL     1       2.928   8.139  11.731  1.00  0.00    -0.300 N 
HETATM   34  C31 UNL     1       3.684   8.299  10.492  1.00  0.00     0.161 C 
HETATM   35  C32 UNL     1       1.534   8.121  11.647  1.00  0.00     0.336 C 
HETATM   36  O4  UNL     1       0.973   8.232  10.552  1.00  0.00    -0.246 OA
ENDBRANCH  19  23
ENDBRANCH   1  16
BRANCH   5  37
HETATM   37  C8  UNL     1      -6.126   2.107  12.021  1.00  0.00     0.251 C 
HETATM   38  N1  UNL     1      -5.811   1.185  11.063  1.00  0.00    -0.366 N 
HETATM   39  H5  UNL     1      -6.493   0.453  10.908  1.00  0.00     0.159 HD
HETATM   40  H6  UNL     1      -5.152   1.363  10.319  1.00  0.00     0.159 HD
HETATM   41  O1  UNL     1      -7.137   1.975  12.702  1.00  0.00    -0.268 OA
ENDBRANCH   5  37
BRANCH  13  42
HETATM   42  C16 UNL     1      -9.222   8.810  15.330  1.00  0.00     0.054 C 
HETATM   43  C17 UNL     1      -9.401   8.229  16.737  1.00  0.00     0.045 C 
HETATM   44  C18 UNL     1     -10.566   8.797  14.591  1.00  0.00     0.045 C 
BRANCH  42  45
HETATM   45  O2  UNL     1      -8.844  10.188  15.479  1.00  0.00    -0.390 OA
HETATM   46  H19 UNL     1      -9.523  10.634  16.014  1.00  0.00     0.210 HD
ENDBRANCH  42  45
ENDBRANCH  13  42
TORSDOF 5
ENDMDL
MODEL 6
REMARK minimizedAffinity -10.1697636
REMARK CNNscore 0.314061552
REMARK CNNaffinity 7.92392921
REMARK  5 active torsions:
REMARK  status: ('A' for Active; 'I' for Inactive)
REMARK    1  A    between atoms: C3_3  and  C4_4 
REMARK    2  A    between atoms: C7_8  and  C8_9 
REMARK       I    between atoms: C8_9  and  N1_10 
REMARK    3  A    between atoms: C15_19  and  C16_20 
REMARK    4  A    between atoms: C16_20  and  O2_23 
REMARK    5  A    between atoms: C23_28  and  N3_29 
ROOT
HETATM    1  C4  UNL     1      -6.688   5.621  13.416  1.00  0.00     0.026 A 
HETATM    2  C5  UNL     1      -7.544   4.685  12.808  1.00  0.00     0.129 A 
HETATM    3  F1  UNL     1      -8.869   4.904  12.796  1.00  0.00    -0.205 F 
HETATM    4  C6  UNL     1      -7.077   3.525  12.203  1.00  0.00     0.062 A 
HETATM    5  C7  UNL     1      -5.710   3.240  12.185  1.00  0.00     0.062 A 
HETATM    6  C9  UNL     1      -4.846   4.186  12.770  1.00  0.00     0.060 A 
HETATM    7  N2  UNL     1      -3.467   4.162  12.865  1.00  0.00    -0.358 N 
HETATM    8  C10 UNL     1      -3.027   5.263  13.534  1.00  0.00     0.017 A 
HETATM    9  C11 UNL     1      -4.119   6.042  13.858  1.00  0.00    -0.022 A 
HETATM   10  C12 UNL     1      -5.291   5.367  13.382  1.00  0.00     0.014 A 
HETATM   11  C13 UNL     1      -3.970   7.325  14.610  1.00  0.00     0.042 C 
HETATM   12  C14 UNL     1      -2.508   7.817  14.601  1.00  0.00     0.013 C 
HETATM   13  C15 UNL     1      -1.495   6.674  14.905  1.00  0.00     0.025 C 
HETATM   14  C19 UNL     1      -1.597   5.561  13.828  1.00  0.00     0.065 C 
HETATM   15  H7  UNL     1      -2.898   3.416  12.479  1.00  0.00     0.166 HD
ENDROOT
BRANCH   1  16
HETATM   16  C3  UNL     1      -7.214   6.837  14.048  1.00  0.00    -0.014 A 
HETATM   17  C2  UNL     1      -8.598   7.025  14.316  1.00  0.00    -0.023 A 
HETATM   18  C1  UNL     1      -9.569   5.913  13.992  1.00  0.00     0.051 C 
HETATM   19  C23 UNL     1      -9.034   8.245  14.896  1.00  0.00     0.054 A 
HETATM   20  C22 UNL     1      -8.083   9.220  15.247  1.00  0.00     0.031 A 
HETATM   21  C21 UNL     1      -6.728   9.027  14.996  1.00  0.00     0.003 A 
HETATM   22  C20 UNL     1      -6.301   7.852  14.390  1.00  0.00     0.013 A 
BRANCH  19  23
HETATM   23  N3  UNL     1     -10.429   8.531  15.125  1.00  0.00    -0.229 N 
HETATM   24  C24 UNL     1     -11.243   8.687  14.004  1.00  0.00     0.269 C 
HETATM   25  O3  UNL     1     -10.858   8.690  12.835  1.00  0.00    -0.267 OA
HETATM   26  C25 UNL     1     -12.676   8.907  14.245  1.00  0.00     0.063 A 
HETATM   27  C26 UNL     1     -13.560   8.925  13.148  1.00  0.00     0.020 A 
HETATM   28  C30 UNL     1     -13.133   9.108  15.543  1.00  0.00     0.092 A 
HETATM   29  C27 UNL     1     -14.921   9.141  13.341  1.00  0.00     0.004 A 
HETATM   30  C28 UNL     1     -15.396   9.342  14.630  1.00  0.00     0.045 A 
HETATM   31  C29 UNL     1     -14.512   9.326  15.711  1.00  0.00     0.144 A 
HETATM   32  F2  UNL     1     -15.046   9.523  16.925  1.00  0.00    -0.204 F 
HETATM   33  N4  UNL     1     -12.200   9.090  16.616  1.00  0.00    -0.300 N 
HETATM   34  C31 UNL     1     -12.668   9.348  17.976  1.00  0.00     0.161 C 
HETATM   35  C32 UNL     1     -10.847   8.796  16.436  1.00  0.00     0.336 C 
HETATM   36  O4  UNL     1     -10.084   8.752  17.406  1.00  0.00    -0.246 OA
ENDBRANCH  19  23
ENDBRANCH   1  16
BRANCH   5  37
HETATM   37  C8  UNL     1      -5.142   2.010  11.572  1.00  0.00     0.251 C 
HETATM   38  N1  UNL     1      -5.969   1.228  10.815  1.00  0.00    -0.366 N 
HETATM   39  H5  UNL     1      -5.584   0.345  10.502  1.00  0.00     0.159 HD
HETATM   40  H6  UNL     1      -6.974   1.311  10.830  1.00  0.00     0.159 HD
HETATM   41  O1  UNL     1      -3.977   1.678  11.763  1.00  0.00    -0.268 OA
ENDBRANCH   5  37
BRANCH  13  42
HETATM   42  C16 UNL     1      -0.045   7.196  15.121  1.00  0.00     0.054 C 
HETATM   43  C17 UNL     1       0.072   8.725  15.104  1.00  0.00     0.045 C 
HETATM   44  C18 UNL     1       0.930   6.591  14.104  1.00  0.00     0.045 C 
BRANCH  42  45
HETATM   45  O2  UNL     1       0.377   6.748  16.418  1.00  0.00    -0.390 OA
HETATM   46  H19 UNL     1       1.276   7.083  16.579  1.00  0.00     0.210 HD
ENDBRANCH  42  45
ENDBRANCH  13  42
TORSDOF 5
ENDMDL
MODEL 7
REMARK minimizedAffinity -11.1501875
REMARK CNNscore 0.281533718
REMARK CNNaffinity 7.6262002
REMARK  5 active torsions:
REMARK  status: ('A' for Active; 'I' for Inactive)
REMARK    1  A    between atoms: C3_3  and  C4_4 
REMARK    2  A    between atoms: C7_8  and  C8_9 
REMARK       I    between atoms: C8_9  and  N1_10 
REMARK    3  A    between atoms: C15_19  and  C16_20 
REMARK    4  A    between atoms: C16_20  and  O2_23 
REMARK    5  A    between atoms: C23_28  and  N3_29 
ROOT
HETATM    1  C4  UNL     1      -0.994   5.167  11.949  1.00  0.00     0.026 A 
HETATM    2  C5  UNL     1       0.106   4.398  11.529  1.00  0.00     0.129 A 
HETATM    3  F1  UNL     1       1.309   4.979  11.389  1.00  0.00    -0.205 F 
HETATM    4  C6  UNL     1       0.010   3.040  11.252  1.00  0.00     0.062 A 
HETATM    5  C7  UNL     1      -1.214   2.379  11.377  1.00  0.00     0.062 A 
HETATM    6  C9  UNL     1      -2.314   3.138  11.822  1.00  0.00     0.060 A 
HETATM    7  N2  UNL     1      -3.615   2.732  12.052  1.00  0.00    -0.358 N 
HETATM    8  C10 UNL     1      -4.371   3.792  12.449  1.00  0.00     0.017 A 
HETATM    9  C11 UNL     1      -3.561   4.906  12.515  1.00  0.00    -0.022 A 
HETATM   10  C12 UNL     1      -2.243   4.509  12.113  1.00  0.00     0.014 A 
HETATM   11  C13 UNL     1      -4.097   6.242  12.915  1.00  0.00     0.042 C 
HETATM   12  C14 UNL     1      -5.478   6.116  13.590  1.00  0.00     0.013 C 
HETATM   13  C15 UNL     1      -6.428   5.150  12.823  1.00  0.00     0.025 C 
HETATM   14  C19 UNL     1      -5.823   3.722  12.775  1.00  0.00     0.065 C 
HETATM   15  H7  UNL     1      -3.925   1.772  11.933  1.00  0.00     0.166 HD
ENDROOT
BRANCH   1  16
HETATM   16  C3  UNL     1      -0.859   6.600  12.232  1.00  0.00    -0.014 A 
HETATM   17  C2  UNL     1      -0.876   7.126  13.554  1.00  0.00    -0.023 A 
HETATM   18  C1  UNL     1      -0.983   6.174  14.724  1.00  0.00     0.051 C 
HETATM   19  C23 UNL     1      -0.777   8.529  13.745  1.00  0.00     0.054 A 
HETATM   20  C22 UNL     1      -0.605   9.366  12.629  1.00  0.00     0.031 A 
HETATM   21  C21 UNL     1      -0.574   8.848  11.338  1.00  0.00     0.003 A 
HETATM   22  C20 UNL     1      -0.713   7.479  11.143  1.00  0.00     0.013 A 
BRANCH  19  23
HETATM   23  N3  UNL     1      -0.863   9.133  15.051  1.00  0.00    -0.229 N 
HETATM   24  C24 UNL     1       0.322   9.263  15.776  1.00  0.00     0.269 C 
HETATM   25  O3  UNL     1       1.421   8.826  15.435  1.00  0.00    -0.267 OA
HETATM   26  C25 UNL     1       0.238   9.944  17.076  1.00  0.00     0.063 A 
HETATM   27  C26 UNL     1       1.426  10.229  17.777  1.00  0.00     0.020 A 
HETATM   28  C30 UNL     1      -1.006  10.282  17.597  1.00  0.00     0.092 A 
HETATM   29  C27 UNL     1       1.381  10.864  19.014  1.00  0.00     0.004 A 
HETATM   30  C28 UNL     1       0.148  11.210  19.551  1.00  0.00     0.045 A 
HETATM   31  C29 UNL     1      -1.024  10.921  18.850  1.00  0.00     0.144 A 
HETATM   32  F2  UNL     1      -2.176  11.291  19.429  1.00  0.00    -0.204 F 
HETATM   33  N4  UNL     1      -2.177   9.966  16.855  1.00  0.00    -0.300 N 
HETATM   34  C31 UNL     1      -3.488  10.276  17.419  1.00  0.00     0.161 C 
HETATM   35  C32 UNL     1      -2.133   9.400  15.579  1.00  0.00     0.336 C 
HETATM   36  O4  UNL     1      -3.178   9.181  14.957  1.00  0.00    -0.246 OA
ENDBRANCH  19  23
ENDBRANCH   1  16
BRANCH   5  37
HETATM   37  C8  UNL     1      -1.394   0.933  11.082  1.00  0.00     0.251 C 
HETATM   38  N1  UNL     1      -0.325   0.240  10.588  1.00  0.00    -0.366 N 
HETATM   39  H5  UNL     1      -0.507  -0.712  10.295  1.00  0.00     0.159 HD
HETATM   40  H6  UNL     1       0.497   0.688  10.209  1.00  0.00     0.159 HD
HETATM   41  O1  UNL     1      -2.476   0.377  11.237  1.00  0.00    -0.268 OA
ENDBRANCH   5  37
BRANCH  13  42
HETATM   42  C16 UNL     1      -7.888   5.188  13.362  1.00  0.00     0.054 C 
HETATM   43  C17 UNL     1      -8.906   5.742  12.358  1.00  0.00     0.045 C 
HETATM   44  C18 UNL     1      -7.983   5.967  14.679  1.00  0.00     0.045 C 
BRANCH  42  45
HETATM   45  O2  UNL     1      -8.265   3.833  13.654  1.00  0.00    -0.390 OA
HETATM   46  H19 UNL     1      -9.184   3.835  13.974  1.00  0.00     0.210 HD
ENDBRANCH  42  45
ENDBRANCH  13  42
TORSDOF 5
ENDMDL
MODEL 8
REMARK minimizedAffinity -8.38382435
REMARK CNNscore 0.278385878
REMARK CNNaffinity 7.87630796
REMARK  5 active torsions:
REMARK  status: ('A' for Active; 'I' for Inactive)
REMARK    1  A    between atoms: C3_3  and  C4_4 
REMARK    2  A    between atoms: C7_8  and  C8_9 
REMARK       I    between atoms: C8_9  and  N1_10 
REMARK    3  A    between atoms: C15_19  and  C16_20 
REMARK    4  A    between atoms: C16_20  and  O2_23 
REMARK    5  A    between atoms: C23_28  and  N3_29 
ROOT
HETATM    1  C4  UNL     1      -7.113   5.968  13.660  1.00  0.00     0.026 A 
HETATM    2  C5  UNL     1      -8.123   5.108  13.192  1.00  0.00     0.129 A 
HETATM    3  F1  UNL     1      -9.412   5.459  13.330  1.00  0.00    -0.205 F 
HETATM    4  C6  UNL     1      -7.848   3.893  12.579  1.00  0.00     0.062 A 
HETATM    5  C7  UNL     1      -6.527   3.471  12.408  1.00  0.00     0.062 A 
HETATM    6  C9  UNL     1      -5.511   4.339  12.852  1.00  0.00     0.060 A 
HETATM    7  N2  UNL     1      -4.139   4.179  12.783  1.00  0.00    -0.358 N 
HETATM    8  C10 UNL     1      -3.517   5.247  13.355  1.00  0.00     0.017 A 
HETATM    9  C11 UNL     1      -4.480   6.139  13.778  1.00  0.00    -0.022 A 
HETATM   10  C12 UNL     1      -5.762   5.573  13.470  1.00  0.00     0.014 A 
HETATM   11  C13 UNL     1      -4.118   7.418  14.460  1.00  0.00     0.042 C 
HETATM   12  C14 UNL     1      -2.627   7.760  14.260  1.00  0.00     0.013 C 
HETATM   13  C15 UNL     1      -1.700   6.529  14.483  1.00  0.00     0.025 C 
HETATM   14  C19 UNL     1      -2.040   5.406  13.466  1.00  0.00     0.065 C 
HETATM   15  H7  UNL     1      -3.697   3.370  12.359  1.00  0.00     0.166 HD
ENDROOT
BRANCH   1  16
HETATM   16  C3  UNL     1      -7.438   7.245  14.305  1.00  0.00    -0.014 A 
HETATM   17  C2  UNL     1      -8.734   7.542  14.808  1.00  0.00    -0.023 A 
HETATM   18  C1  UNL     1      -9.815   6.488  14.731  1.00  0.00     0.051 C 
HETATM   19  C23 UNL     1      -8.980   8.815  15.387  1.00  0.00     0.054 A 
HETATM   20  C22 UNL     1      -7.923   9.735  15.503  1.00  0.00     0.031 A 
HETATM   21  C21 UNL     1      -6.652   9.436  15.022  1.00  0.00     0.003 A 
HETATM   22  C20 UNL     1      -6.417   8.208  14.417  1.00  0.00     0.013 A 
BRANCH  19  23
HETATM   23  N3  UNL     1     -10.288   9.209  15.848  1.00  0.00    -0.229 N 
HETATM   24  C24 UNL     1     -10.584   8.994  17.194  1.00  0.00     0.269 C 
HETATM   25  O3  UNL     1      -9.858   8.416  18.003  1.00  0.00    -0.267 OA
HETATM   26  C25 UNL     1     -11.892   9.463  17.673  1.00  0.00     0.063 A 
HETATM   27  C26 UNL     1     -12.179   9.401  19.051  1.00  0.00     0.020 A 
HETATM   28  C30 UNL     1     -12.827   9.944  16.763  1.00  0.00     0.092 A 
HETATM   29  C27 UNL     1     -13.411   9.828  19.536  1.00  0.00     0.004 A 
HETATM   30  C28 UNL     1     -14.357  10.312  18.643  1.00  0.00     0.045 A 
HETATM   31  C29 UNL     1     -14.065  10.367  17.279  1.00  0.00     0.144 A 
HETATM   32  F2  UNL     1     -15.026  10.851  16.479  1.00  0.00    -0.204 F 
HETATM   33  N4  UNL     1     -12.494   9.978  15.381  1.00  0.00    -0.300 N 
HETATM   34  C31 UNL     1     -13.489  10.438  14.416  1.00  0.00     0.161 C 
HETATM   35  C32 UNL     1     -11.231   9.626  14.899  1.00  0.00     0.336 C 
HETATM   36  O4  UNL     1     -10.978   9.711  13.694  1.00  0.00    -0.246 OA
ENDBRANCH  19  23
ENDBRANCH   1  16
BRANCH   5  37
HETATM   37  C8  UNL     1      -6.160   2.175  11.777  1.00  0.00     0.251 C 
HETATM   38  N1  UNL     1      -6.980   1.103  11.986  1.00  0.00    -0.366 N 
HETATM   39  H5  UNL     1      -6.648   0.213  11.634  1.00  0.00     0.159 HD
HETATM   40  H6  UNL     1      -7.684   1.078  12.709  1.00  0.00     0.159 HD
HETATM   41  O1  UNL     1      -5.134   2.053  11.116  1.00  0.00    -0.268 OA
ENDBRANCH   5  37
BRANCH  13  42
HETATM   42  C16 UNL     1      -0.191   6.908  14.506  1.00  0.00     0.054 C 
HETATM   43  C17 UNL     1       0.728   5.830  13.920  1.00  0.00     0.045 C 
HETATM   44  C18 UNL     1       0.278   7.274  15.919  1.00  0.00     0.045 C 
BRANCH  42  45
HETATM   45  O2  UNL     1      -0.039   8.087  13.700  1.00  0.00    -0.390 OA
HETATM   46  H19 UNL     1       0.903   8.328  13.686  1.00  0.00     0.210 HD
ENDBRANCH  42  45
ENDBRANCH  13  42
TORSDOF 5
ENDMDL
MODEL 9
REMARK minimizedAffinity -10.9560194
REMARK CNNscore 0.252551287
REMARK CNNaffinity 7.5944171
REMARK  5 active torsions:
REMARK  status: ('A' for Active; 'I' for Inactive)
REMARK    1  A    between atoms: C3_3  and  C4_4 
REMARK    2  A    between atoms: C7_8  and  C8_9 
REMARK       I    between atoms: C8_9  and  N1_10 
REMARK    3  A    between atoms: C15_19  and  C16_20 
REMARK    4  A    between atoms: C16_20  and  O2_23 
REMARK    5  A    between atoms: C23_28  and  N3_29 
ROOT
HETATM    1  C4  UNL     1      -1.019   5.152  11.925  1.00  0.00     0.026 A 
HETATM    2  C5  UNL     1       0.090   4.400  11.499  1.00  0.00     0.129 A 
HETATM    3  F1  UNL     1       1.281   5.001  11.345  1.00  0.00    -0.205 F 
HETATM    4  C6  UNL     1       0.014   3.040  11.230  1.00  0.00     0.062 A 
HETATM    5  C7  UNL     1      -1.198   2.359  11.369  1.00  0.00     0.062 A 
HETATM    6  C9  UNL     1      -2.306   3.101  11.820  1.00  0.00     0.060 A 
HETATM    7  N2  UNL     1      -3.598   2.674  12.064  1.00  0.00    -0.358 N 
HETATM    8  C10 UNL     1      -4.368   3.723  12.463  1.00  0.00     0.017 A 
HETATM    9  C11 UNL     1      -3.576   4.851  12.516  1.00  0.00    -0.022 A 
HETATM   10  C12 UNL     1      -2.255   4.474  12.103  1.00  0.00     0.014 A 
HETATM   11  C13 UNL     1      -4.131   6.180  12.915  1.00  0.00     0.042 C 
HETATM   12  C14 UNL     1      -5.504   6.033  13.603  1.00  0.00     0.013 C 
HETATM   13  C15 UNL     1      -6.444   5.048  12.848  1.00  0.00     0.025 C 
HETATM   14  C19 UNL     1      -5.816   3.630  12.802  1.00  0.00     0.065 C 
HETATM   15  H7  UNL     1      -3.892   1.708  11.952  1.00  0.00     0.166 HD
ENDROOT
BRANCH   1  16
HETATM   16  C3  UNL     1      -0.906   6.589  12.201  1.00  0.00    -0.014 A 
HETATM   17  C2  UNL     1      -0.905   7.119  13.520  1.00  0.00    -0.023 A 
HETATM   18  C1  UNL     1      -0.968   6.171  14.696  1.00  0.00     0.051 C 
HETATM   19  C23 UNL     1      -0.829   8.525  13.705  1.00  0.00     0.054 A 
HETATM   20  C22 UNL     1      -0.698   9.361  12.582  1.00  0.00     0.031 A 
HETATM   21  C21 UNL     1      -0.684   8.838  11.293  1.00  0.00     0.003 A 
HETATM   22  C20 UNL     1      -0.801   7.467  11.105  1.00  0.00     0.013 A 
BRANCH  19  23
HETATM   23  N3  UNL     1      -0.899   9.133  15.010  1.00  0.00    -0.229 N 
HETATM   24  C24 UNL     1      -2.150   9.567  15.448  1.00  0.00     0.269 C 
HETATM   25  O3  UNL     1      -3.185   9.556  14.782  1.00  0.00    -0.267 OA
HETATM   26  C25 UNL     1      -2.226  10.120  16.808  1.00  0.00     0.063 A 
HETATM   27  C26 UNL     1      -3.488  10.436  17.349  1.00  0.00     0.020 A 
HETATM   28  C30 UNL     1      -1.057  10.336  17.530  1.00  0.00     0.092 A 
HETATM   29  C27 UNL     1      -3.594  10.970  18.629  1.00  0.00     0.004 A 
HETATM   30  C28 UNL     1      -2.438  11.192  19.366  1.00  0.00     0.045 A 
HETATM   31  C29 UNL     1      -1.192  10.879  18.821  1.00  0.00     0.144 A 
HETATM   32  F2  UNL     1      -0.122  11.116  19.594  1.00  0.00    -0.204 F 
HETATM   33  N4  UNL     1       0.193  10.009  16.937  1.00  0.00    -0.300 N 
HETATM   34  C31 UNL     1       1.426  10.278  17.672  1.00  0.00     0.161 C 
HETATM   35  C32 UNL     1       0.299   9.400  15.685  1.00  0.00     0.336 C 
HETATM   36  O4  UNL     1       1.407   9.098  15.230  1.00  0.00    -0.246 OA
ENDBRANCH  19  23
ENDBRANCH   1  16
BRANCH   5  37
HETATM   37  C8  UNL     1      -1.355   0.908  11.082  1.00  0.00     0.251 C 
HETATM   38  N1  UNL     1      -0.283   0.234  10.569  1.00  0.00    -0.366 N 
HETATM   39  H5  UNL     1      -0.453  -0.722  10.284  1.00  0.00     0.159 HD
HETATM   40  H6  UNL     1       0.523   0.696  10.173  1.00  0.00     0.159 HD
HETATM   41  O1  UNL     1      -2.423   0.333  11.260  1.00  0.00    -0.268 OA
ENDBRANCH   5  37
BRANCH  13  42
HETATM   42  C16 UNL     1      -7.900   5.064  13.401  1.00  0.00     0.054 C 
HETATM   43  C17 UNL     1      -8.902   5.779  12.488  1.00  0.00     0.045 C 
HETATM   44  C18 UNL     1      -7.962   5.666  14.810  1.00  0.00     0.045 C 
BRANCH  42  45
HETATM   45  O2  UNL     1      -8.322   3.696  13.515  1.00  0.00    -0.390 OA
HETATM   46  H19 UNL     1      -9.239   3.686  13.841  1.00  0.00     0.210 HD
ENDBRANCH  42  45
ENDBRANCH  13  42
TORSDOF 5
ENDMDL
