MODEL 1
REMARK minimizedAffinity -8.04412651
REMARK  10 active torsions:
REMARK  status: ('A' for Active; 'I' for Inactive)
REMARK    1  A    between atoms: C2_2  and  O1_3 
REMARK    2  A    between atoms: O1_3  and  C3_4 
REMARK    3  A    between atoms: C7_9  and  N1_10 
REMARK    4  A    between atoms: N1_10  and  C8_11 
REMARK    5  A    between atoms: C12_19  and  O2_20 
REMARK    6  A    between atoms: O2_20  and  C13_21 
REMARK    7  A    between atoms: C13_21  and  C14_22 
REMARK    8  A    between atoms: C14_22  and  C15_23 
REMARK    9  A    between atoms: C15_23  and  N4_24 
REMARK   10  A    between atoms: C20_30  and  O4_31 
ROOT
HETATM    1  C8  UNL     1      -1.630  52.397 -26.963  1.00  0.00     0.098 A 
HETATM    2  N2  UNL     1      -1.452  53.317 -27.928  1.00  0.00    -0.342 N 
ATOM      3  H2  UNL     1      -1.954  53.269 -28.815  1.00  0.00     0.167 HD
HETATM    4  C9  UNL     1      -0.587  54.298 -27.666  1.00  0.00     0.182 A 
HETATM    5  N3  UNL     1       0.132  54.439 -26.545  1.00  0.00    -0.351 N 
ATOM      6  H3  UNL     1       0.792  55.208 -26.427  1.00  0.00     0.166 HD
HETATM    7  C10 UNL     1      -0.056  53.524 -25.590  1.00  0.00     0.049 A 
HETATM    8  C11 UNL     1       0.667  53.646 -24.410  1.00  0.00     0.070 A 
HETATM    9  C12 UNL     1       0.526  52.737 -23.356  1.00  0.00     0.104 A 
HETATM   10  C20 UNL     1      -0.382  51.674 -23.482  1.00  0.00     0.102 A 
HETATM   11  C22 UNL     1      -1.110  51.536 -24.665  1.00  0.00     0.056 A 
HETATM   12  C23 UNL     1      -0.947  52.455 -25.733  1.00  0.00     0.032 A 
ENDROOT
BRANCH   1  13
HETATM   13  N1  UNL     1      -2.520  51.311 -27.209  1.00  0.00    -0.243 NA
HETATM   14  H8  UNL     1      -3.023  51.520 -28.067  1.00  0.00     0.135 HD
BRANCH  13  15
HETATM   15  C7  UNL     1      -3.386  50.761 -26.228  1.00  0.00     0.038 A 
HETATM   16  C6  UNL     1      -3.702  49.391 -26.168  1.00  0.00     0.055 A 
HETATM   17  C5  UNL     1      -4.528  48.900 -25.152  1.00  0.00     0.028 A 
HETATM   18 CL1  UNL     1      -3.166  48.266 -27.369  1.00  0.00    -0.082 Cl
HETATM   19  C4  UNL     1      -5.055  49.762 -24.185  1.00  0.00     0.038 A 
HETATM   20  C3  UNL     1      -4.761  51.122 -24.232  1.00  0.00     0.070 A 
HETATM   21  C24 UNL     1      -3.928  51.610 -25.248  1.00  0.00     0.062 A 
BRANCH  20  22
HETATM   22  O1  UNL     1      -5.198  52.078 -23.358  1.00  0.00    -0.351 OA
BRANCH  22  23
HETATM   23  C2  UNL     1      -4.362  52.452 -22.264  1.00  0.00     0.171 C 
HETATM   24  C1  UNL     1      -4.529  51.488 -21.102  1.00  0.00     0.034 C 
ENDBRANCH  22  23
ENDBRANCH  20  22
ENDBRANCH  13  15
ENDBRANCH   1  13
BRANCH  10  25
HETATM   25  O4  UNL     1      -0.474  50.823 -22.410  1.00  0.00    -0.353 OA
HETATM   26  C21 UNL     1      -1.483  49.823 -22.445  1.00  0.00     0.210 C 
ENDBRANCH  10  25
BRANCH   9  27
HETATM   27  O2  UNL     1       1.207  52.798 -22.170  1.00  0.00    -0.348 OA
BRANCH  27  28
HETATM   28  C13 UNL     1       1.289  54.023 -21.449  1.00  0.00     0.177 C 
BRANCH  28  29
HETATM   29  C14 UNL     1       0.582  53.954 -20.097  1.00  0.00     0.046 C 
BRANCH  29  30
HETATM   30  C15 UNL     1       0.825  52.684 -19.264  1.00  0.00     0.119 C 
BRANCH  30  31
HETATM   31  N4  UNL     1      -0.216  52.206 -18.360  1.00  0.00    -0.408 N 
HETATM   32  C16 UNL     1      -1.487  51.798 -18.963  1.00  0.00     0.143 C 
HETATM   33  C17 UNL     1      -1.802  50.310 -18.750  1.00  0.00     0.187 C 
HETATM   34  O3  UNL     1      -1.822  49.917 -17.371  1.00  0.00    -0.388 OA
HETATM   35  C18 UNL     1      -0.964  50.713 -16.538  1.00  0.00     0.187 C 
HETATM   36  C19 UNL     1       0.235  51.304 -17.296  1.00  0.00     0.143 C 
ENDBRANCH  30  31
ENDBRANCH  29  30
ENDBRANCH  28  29
ENDBRANCH  27  28
ENDBRANCH   9  27
TORSDOF 10
ENDMDL
MODEL 2
REMARK minimizedAffinity -7.84039354
REMARK  10 active torsions:
REMARK  status: ('A' for Active; 'I' for Inactive)
REMARK    1  A    between atoms: C2_2  and  O1_3 
REMARK    2  A    between atoms: O1_3  and  C3_4 
REMARK    3  A    between atoms: C7_9  and  N1_10 
REMARK    4  A    between atoms: N1_10  and  C8_11 
REMARK    5  A    between atoms: C12_19  and  O2_20 
REMARK    6  A    between atoms: O2_20  and  C13_21 
REMARK    7  A    between atoms: C13_21  and  C14_22 
REMARK    8  A    between atoms: C14_22  and  C15_23 
REMARK    9  A    between atoms: C15_23  and  N4_24 
REMARK   10  A    between atoms: C20_30  and  O4_31 
ROOT
HETATM    1  C8  UNL     1      -0.100  52.124 -20.999  1.00  0.00     0.098 A 
HETATM    2  N2  UNL     1       0.360  53.310 -21.440  1.00  0.00    -0.342 N 
ATOM      3  H2  UNL     1       0.231  53.610 -22.406  1.00  0.00     0.167 HD
HETATM    4  C9  UNL     1       0.992  54.073 -20.547  1.00  0.00     0.182 A 
HETATM    5  N3  UNL     1       1.227  53.763 -19.267  1.00  0.00    -0.351 N 
ATOM      6  H3  UNL     1       1.737  54.395 -18.649  1.00  0.00     0.166 HD
HETATM    7  C10 UNL     1       0.761  52.587 -18.837  1.00  0.00     0.049 A 
HETATM    8  C11 UNL     1       0.979  52.238 -17.510  1.00  0.00     0.070 A 
HETATM    9  C12 UNL     1       0.519  51.029 -16.976  1.00  0.00     0.104 A 
HETATM   10  C20 UNL     1      -0.197  50.143 -17.796  1.00  0.00     0.102 A 
HETATM   11  C22 UNL     1      -0.418  50.480 -19.133  1.00  0.00     0.056 A 
HETATM   12  C23 UNL     1       0.067  51.701 -19.667  1.00  0.00     0.032 A 
ENDROOT
BRANCH   1  13
HETATM   13  N1  UNL     1      -0.753  51.258 -21.924  1.00  0.00    -0.243 NA
HETATM   14  H8  UNL     1      -0.219  50.394 -21.960  1.00  0.00     0.135 HD
BRANCH  13  15
HETATM   15  C7  UNL     1      -1.170  51.657 -23.221  1.00  0.00     0.038 A 
HETATM   16  C6  UNL     1      -2.523  51.779 -23.587  1.00  0.00     0.055 A 
HETATM   17  C5  UNL     1      -2.873  52.217 -24.868  1.00  0.00     0.028 A 
HETATM   18 CL1  UNL     1      -3.811  51.324 -22.524  1.00  0.00    -0.082 Cl
HETATM   19  C4  UNL     1      -1.885  52.538 -25.804  1.00  0.00     0.038 A 
HETATM   20  C3  UNL     1      -0.540  52.417 -25.465  1.00  0.00     0.070 A 
HETATM   21  C24 UNL     1      -0.193  51.982 -24.179  1.00  0.00     0.062 A 
BRANCH  20  22
HETATM   22  O1  UNL     1       0.529  52.695 -26.270  1.00  0.00    -0.351 OA
BRANCH  22  23
HETATM   23  C2  UNL     1       1.078  51.654 -27.077  1.00  0.00     0.171 C 
HETATM   24  C1  UNL     1       2.556  51.463 -26.781  1.00  0.00     0.034 C 
ENDBRANCH  22  23
ENDBRANCH  20  22
ENDBRANCH  13  15
ENDBRANCH   1  13
BRANCH  10  25
HETATM   25  O4  UNL     1      -0.623  48.979 -17.208  1.00  0.00    -0.353 OA
HETATM   26  C21 UNL     1      -2.021  48.730 -17.172  1.00  0.00     0.210 C 
ENDBRANCH  10  25
BRANCH   9  27
HETATM   27  O2  UNL     1       0.701  50.624 -15.681  1.00  0.00    -0.348 OA
BRANCH  27  28
HETATM   28  C13 UNL     1       0.727  51.578 -14.625  1.00  0.00     0.177 C 
BRANCH  28  29
HETATM   29  C14 UNL     1      -0.568  51.593 -13.817  1.00  0.00     0.046 C 
BRANCH  29  30
HETATM   30  C15 UNL     1      -0.585  52.495 -12.571  1.00  0.00     0.119 C 
BRANCH  30  31
HETATM   31  N4  UNL     1      -1.706  52.416 -11.640  1.00  0.00    -0.408 N 
HETATM   32  C16 UNL     1      -1.645  53.268 -10.450  1.00  0.00     0.143 C 
HETATM   33  C17 UNL     1      -2.774  54.309 -10.399  1.00  0.00     0.187 C 
HETATM   34  O3  UNL     1      -4.088  53.737 -10.465  1.00  0.00    -0.388 OA
HETATM   35  C18 UNL     1      -4.133  52.495 -11.184  1.00  0.00     0.187 C 
HETATM   36  C19 UNL     1      -3.037  52.374 -12.254  1.00  0.00     0.143 C 
ENDBRANCH  30  31
ENDBRANCH  29  30
ENDBRANCH  28  29
ENDBRANCH  27  28
ENDBRANCH   9  27
TORSDOF 10
ENDMDL
MODEL 3
REMARK minimizedAffinity -7.76831102
REMARK  10 active torsions:
REMARK  status: ('A' for Active; 'I' for Inactive)
REMARK    1  A    between atoms: C2_2  and  O1_3 
REMARK    2  A    between atoms: O1_3  and  C3_4 
REMARK    3  A    between atoms: C7_9  and  N1_10 
REMARK    4  A    between atoms: N1_10  and  C8_11 
REMARK    5  A    between atoms: C12_19  and  O2_20 
REMARK    6  A    between atoms: O2_20  and  C13_21 
REMARK    7  A    between atoms: C13_21  and  C14_22 
REMARK    8  A    between atoms: C14_22  and  C15_23 
REMARK    9  A    between atoms: C15_23  and  N4_24 
REMARK   10  A    between atoms: C20_30  and  O4_31 
ROOT
HETATM    1  C8  UNL     1      -0.603  52.058 -20.535  1.00  0.00     0.098 A 
HETATM    2  N2  UNL     1       0.677  52.451 -20.675  1.00  0.00    -0.342 N 
ATOM      3  H2  UNL     1       1.266  52.656 -19.868  1.00  0.00     0.167 HD
HETATM    4  C9  UNL     1       1.136  52.556 -21.923  1.00  0.00     0.182 A 
HETATM    5  N3  UNL     1       0.440  52.327 -23.043  1.00  0.00    -0.351 N 
ATOM      6  H3  UNL     1       0.857  52.449 -23.966  1.00  0.00     0.166 HD
HETATM    7  C10 UNL     1      -0.827  51.932 -22.894  1.00  0.00     0.049 A 
HETATM    8  C11 UNL     1      -1.576  51.676 -24.036  1.00  0.00     0.070 A 
HETATM    9  C12 UNL     1      -2.908  51.251 -23.971  1.00  0.00     0.104 A 
HETATM   10  C20 UNL     1      -3.508  51.062 -22.716  1.00  0.00     0.102 A 
HETATM   11  C22 UNL     1      -2.769  51.321 -21.561  1.00  0.00     0.056 A 
HETATM   12  C23 UNL     1      -1.425  51.767 -21.640  1.00  0.00     0.032 A 
ENDROOT
BRANCH   1  13
HETATM   13  N1  UNL     1      -1.149  51.964 -19.222  1.00  0.00    -0.243 NA
HETATM   14  H8  UNL     1      -1.402  52.903 -18.930  1.00  0.00     0.135 HD
BRANCH  13  15
HETATM   15  C7  UNL     1      -0.537  51.245 -18.162  1.00  0.00     0.038 A 
HETATM   16  C6  UNL     1      -0.810  49.890 -17.898  1.00  0.00     0.055 A 
HETATM   17  C5  UNL     1      -0.145  49.223 -16.865  1.00  0.00     0.028 A 
HETATM   18 CL1  UNL     1      -2.022  49.007 -18.763  1.00  0.00    -0.082 Cl
HETATM   19  C4  UNL     1       0.798  49.891 -16.078  1.00  0.00     0.038 A 
HETATM   20  C3  UNL     1       1.078  51.234 -16.318  1.00  0.00     0.070 A 
HETATM   21  C24 UNL     1       0.412  51.898 -17.357  1.00  0.00     0.062 A 
BRANCH  20  22
HETATM   22  O1  UNL     1       1.971  52.011 -15.637  1.00  0.00    -0.351 OA
BRANCH  22  23
HETATM   23  C2  UNL     1       2.922  52.781 -16.372  1.00  0.00     0.171 C 
HETATM   24  C1  UNL     1       4.332  52.268 -16.136  1.00  0.00     0.034 C 
ENDBRANCH  22  23
ENDBRANCH  20  22
ENDBRANCH  13  15
ENDBRANCH   1  13
BRANCH  10  25
HETATM   25  O4  UNL     1      -4.814  50.640 -22.725  1.00  0.00    -0.353 OA
HETATM   26  C21 UNL     1      -5.087  49.327 -22.256  1.00  0.00     0.210 C 
ENDBRANCH  10  25
BRANCH   9  27
HETATM   27  O2  UNL     1      -3.700  50.984 -25.055  1.00  0.00    -0.348 OA
BRANCH  27  28
HETATM   28  C13 UNL     1      -3.603  49.733 -25.728  1.00  0.00     0.177 C 
BRANCH  28  29
HETATM   29  C14 UNL     1      -2.845  49.836 -27.049  1.00  0.00     0.046 C 
BRANCH  29  30
HETATM   30  C15 UNL     1      -2.505  51.256 -27.531  1.00  0.00     0.119 C 
BRANCH  30  31
HETATM   31  N4  UNL     1      -1.107  51.663 -27.641  1.00  0.00    -0.408 N 
HETATM   32  C16 UNL     1      -0.829  53.101 -27.631  1.00  0.00     0.143 C 
HETATM   33  C17 UNL     1       0.020  53.540 -26.428  1.00  0.00     0.187 C 
HETATM   34  O3  UNL     1       1.271  52.848 -26.323  1.00  0.00    -0.388 OA
HETATM   35  C18 UNL     1       1.240  51.525 -26.881  1.00  0.00     0.187 C 
HETATM   36  C19 UNL     1      -0.156  50.885 -26.841  1.00  0.00     0.143 C 
ENDBRANCH  30  31
ENDBRANCH  29  30
ENDBRANCH  28  29
ENDBRANCH  27  28
ENDBRANCH   9  27
TORSDOF 10
ENDMDL
MODEL 4
REMARK minimizedAffinity -7.75039005
REMARK  10 active torsions:
REMARK  status: ('A' for Active; 'I' for Inactive)
REMARK    1  A    between atoms: C2_2  and  O1_3 
REMARK    2  A    between atoms: O1_3  and  C3_4 
REMARK    3  A    between atoms: C7_9  and  N1_10 
REMARK    4  A    between atoms: N1_10  and  C8_11 
REMARK    5  A    between atoms: C12_19  and  O2_20 
REMARK    6  A    between atoms: O2_20  and  C13_21 
REMARK    7  A    between atoms: C13_21  and  C14_22 
REMARK    8  A    between atoms: C14_22  and  C15_23 
REMARK    9  A    between atoms: C15_23  and  N4_24 
REMARK   10  A    between atoms: C20_30  and  O4_31 
ROOT
HETATM    1  C8  UNL     1      -5.443  51.150 -23.228  1.00  0.00     0.098 A 
HETATM    2  N2  UNL     1      -6.678  50.677 -22.977  1.00  0.00    -0.342 N 
ATOM      3  H2  UNL     1      -7.392  50.627 -23.704  1.00  0.00     0.167 HD
HETATM    4  C9  UNL     1      -6.920  50.275 -21.728  1.00  0.00     0.182 A 
HETATM    5  N3  UNL     1      -6.060  50.316 -20.704  1.00  0.00    -0.351 N 
ATOM      6  H3  UNL     1      -6.327  50.008 -19.768  1.00  0.00     0.166 HD
HETATM    7  C10 UNL     1      -4.835  50.781 -20.964  1.00  0.00     0.049 A 
HETATM    8  C11 UNL     1      -3.913  50.829 -19.926  1.00  0.00     0.070 A 
HETATM    9  C12 UNL     1      -2.607  51.294 -20.113  1.00  0.00     0.104 A 
HETATM   10  C20 UNL     1      -2.204  51.714 -21.390  1.00  0.00     0.102 A 
HETATM   11  C22 UNL     1      -3.121  51.677 -22.441  1.00  0.00     0.056 A 
HETATM   12  C23 UNL     1      -4.447  51.218 -22.235  1.00  0.00     0.032 A 
ENDROOT
BRANCH   1  13
HETATM   13  N1  UNL     1      -5.147  51.622 -24.540  1.00  0.00    -0.243 NA
HETATM   14  H8  UNL     1      -5.981  51.492 -25.105  1.00  0.00     0.135 HD
BRANCH  13  15
HETATM   15  C7  UNL     1      -3.978  51.266 -25.263  1.00  0.00     0.038 A 
HETATM   16  C6  UNL     1      -3.669  49.939 -25.613  1.00  0.00     0.055 A 
HETATM   17  C5  UNL     1      -2.523  49.654 -26.362  1.00  0.00     0.028 A 
HETATM   18 CL1  UNL     1      -4.622  48.597 -25.078  1.00  0.00    -0.082 Cl
HETATM   19  C4  UNL     1      -1.668  50.681 -26.771  1.00  0.00     0.038 A 
HETATM   20  C3  UNL     1      -1.951  52.000 -26.429  1.00  0.00     0.070 A 
HETATM   21  C24 UNL     1      -3.103  52.283 -25.682  1.00  0.00     0.062 A 
BRANCH  20  22
HETATM   22  O1  UNL     1      -1.213  53.102 -26.759  1.00  0.00    -0.351 OA
BRANCH  22  23
HETATM   23  C2  UNL     1       0.208  52.988 -26.830  1.00  0.00     0.171 C 
HETATM   24  C1  UNL     1       0.640  52.422 -28.171  1.00  0.00     0.034 C 
ENDBRANCH  22  23
ENDBRANCH  20  22
ENDBRANCH  13  15
ENDBRANCH   1  13
BRANCH  10  25
HETATM   25  O4  UNL     1      -0.909  52.154 -21.504  1.00  0.00    -0.353 OA
HETATM   26  C21 UNL     1      -0.321  52.148 -22.798  1.00  0.00     0.210 C 
ENDBRANCH  10  25
BRANCH   9  27
HETATM   27  O2  UNL     1      -1.653  51.369 -19.134  1.00  0.00    -0.348 OA
BRANCH  27  28
HETATM   28  C13 UNL     1      -1.993  51.116 -17.775  1.00  0.00     0.177 C 
BRANCH  28  29
HETATM   29  C14 UNL     1      -0.862  50.442 -17.003  1.00  0.00     0.046 C 
BRANCH  29  30
HETATM   30  C15 UNL     1      -0.500  51.062 -15.643  1.00  0.00     0.119 C 
BRANCH  30  31
HETATM   31  N4  UNL     1       0.713  51.864 -15.518  1.00  0.00    -0.408 N 
HETATM   32  C16 UNL     1       1.426  51.799 -14.240  1.00  0.00     0.143 C 
HETATM   33  C17 UNL     1       2.841  51.216 -14.371  1.00  0.00     0.187 C 
HETATM   34  O3  UNL     1       3.671  51.922 -15.304  1.00  0.00    -0.388 OA
HETATM   35  C18 UNL     1       2.931  52.556 -16.359  1.00  0.00     0.187 C 
HETATM   36  C19 UNL     1       1.606  51.847 -16.680  1.00  0.00     0.143 C 
ENDBRANCH  30  31
ENDBRANCH  29  30
ENDBRANCH  28  29
ENDBRANCH  27  28
ENDBRANCH   9  27
TORSDOF 10
ENDMDL
MODEL 5
REMARK minimizedAffinity -7.62741899
REMARK  10 active torsions:
REMARK  status: ('A' for Active; 'I' for Inactive)
REMARK    1  A    between atoms: C2_2  and  O1_3 
REMARK    2  A    between atoms: O1_3  and  C3_4 
REMARK    3  A    between atoms: C7_9  and  N1_10 
REMARK    4  A    between atoms: N1_10  and  C8_11 
REMARK    5  A    between atoms: C12_19  and  O2_20 
REMARK    6  A    between atoms: O2_20  and  C13_21 
REMARK    7  A    between atoms: C13_21  and  C14_22 
REMARK    8  A    between atoms: C14_22  and  C15_23 
REMARK    9  A    between atoms: C15_23  and  N4_24 
REMARK   10  A    between atoms: C20_30  and  O4_31 
ROOT
HETATM    1  C8  UNL     1       0.259  52.401 -24.252  1.00  0.00     0.098 A 
HETATM    2  N2  UNL     1       0.669  53.532 -24.854  1.00  0.00    -0.342 N 
ATOM      3  H2  UNL     1       1.465  54.067 -24.507  1.00  0.00     0.167 HD
HETATM    4  C9  UNL     1      -0.019  53.918 -25.930  1.00  0.00     0.182 A 
HETATM    5  N3  UNL     1      -1.085  53.299 -26.451  1.00  0.00    -0.351 N 
ATOM      6  H3  UNL     1      -1.572  53.669 -27.268  1.00  0.00     0.166 HD
HETATM    7  C10 UNL     1      -1.480  52.173 -25.850  1.00  0.00     0.049 A 
HETATM    8  C11 UNL     1      -2.577  51.498 -26.371  1.00  0.00     0.070 A 
HETATM    9  C12 UNL     1      -3.053  50.309 -25.809  1.00  0.00     0.104 A 
HETATM   10  C20 UNL     1      -2.398  49.767 -24.692  1.00  0.00     0.102 A 
HETATM   11  C22 UNL     1      -1.298  50.437 -24.155  1.00  0.00     0.056 A 
HETATM   12  C23 UNL     1      -0.835  51.651 -24.724  1.00  0.00     0.032 A 
ENDROOT
BRANCH   1  13
HETATM   13  N1  UNL     1       0.942  51.965 -23.079  1.00  0.00    -0.243 NA
HETATM   14  H8  UNL     1       1.056  50.958 -23.150  1.00  0.00     0.135 HD
BRANCH  13  15
HETATM   15  C7  UNL     1       0.574  52.348 -21.762  1.00  0.00     0.038 A 
HETATM   16  C6  UNL     1       0.870  53.613 -21.222  1.00  0.00     0.055 A 
HETATM   17  C5  UNL     1       0.445  53.948 -19.933  1.00  0.00     0.028 A 
HETATM   18 CL1  UNL     1       1.829  54.778 -22.070  1.00  0.00    -0.082 Cl
HETATM   19  C4  UNL     1      -0.276  53.032 -19.161  1.00  0.00     0.038 A 
HETATM   20  C3  UNL     1      -0.572  51.772 -19.675  1.00  0.00     0.070 A 
HETATM   21  C24 UNL     1      -0.149  51.441 -20.969  1.00  0.00     0.062 A 
BRANCH  20  22
HETATM   22  O1  UNL     1      -1.267  50.780 -19.041  1.00  0.00    -0.351 OA
BRANCH  22  23
HETATM   23  C2  UNL     1      -1.224  50.704 -17.617  1.00  0.00     0.171 C 
HETATM   24  C1  UNL     1      -0.040  49.874 -17.154  1.00  0.00     0.034 C 
ENDBRANCH  22  23
ENDBRANCH  20  22
ENDBRANCH  13  15
ENDBRANCH   1  13
BRANCH  10  25
HETATM   25  O4  UNL     1      -2.913  48.597 -24.193  1.00  0.00    -0.353 OA
HETATM   26  C21 UNL     1      -3.593  48.652 -22.947  1.00  0.00     0.210 C 
ENDBRANCH  10  25
BRANCH   9  27
HETATM   27  O2  UNL     1      -4.127  49.597 -26.270  1.00  0.00    -0.348 OA
BRANCH  27  28
HETATM   28  C13 UNL     1      -3.932  48.445 -27.084  1.00  0.00     0.177 C 
BRANCH  28  29
HETATM   29  C14 UNL     1      -4.777  48.476 -28.355  1.00  0.00     0.046 C 
BRANCH  29  30
HETATM   30  C15 UNL     1      -6.108  47.705 -28.308  1.00  0.00     0.119 C 
BRANCH  30  31
HETATM   31  N4  UNL     1      -6.901  47.565 -29.525  1.00  0.00    -0.408 N 
HETATM   32  C16 UNL     1      -8.325  47.897 -29.434  1.00  0.00     0.143 C 
HETATM   33  C17 UNL     1      -8.722  49.084 -30.325  1.00  0.00     0.187 C 
HETATM   34  O3  UNL     1      -8.401  48.898 -31.710  1.00  0.00    -0.388 OA
HETATM   35  C18 UNL     1      -7.267  48.041 -31.922  1.00  0.00     0.187 C 
HETATM   36  C19 UNL     1      -6.270  48.057 -30.753  1.00  0.00     0.143 C 
ENDBRANCH  30  31
ENDBRANCH  29  30
ENDBRANCH  28  29
ENDBRANCH  27  28
ENDBRANCH   9  27
TORSDOF 10
ENDMDL
MODEL 6
REMARK minimizedAffinity -7.61225128
REMARK  10 active torsions:
REMARK  status: ('A' for Active; 'I' for Inactive)
REMARK    1  A    between atoms: C2_2  and  O1_3 
REMARK    2  A    between atoms: O1_3  and  C3_4 
REMARK    3  A    between atoms: C7_9  and  N1_10 
REMARK    4  A    between atoms: N1_10  and  C8_11 
REMARK    5  A    between atoms: C12_19  and  O2_20 
REMARK    6  A    between atoms: O2_20  and  C13_21 
REMARK    7  A    between atoms: C13_21  and  C14_22 
REMARK    8  A    between atoms: C14_22  and  C15_23 
REMARK    9  A    between atoms: C15_23  and  N4_24 
REMARK   10  A    between atoms: C20_30  and  O4_31 
ROOT
HETATM    1  C8  UNL     1      -3.287  52.174 -23.348  1.00  0.00     0.098 A 
HETATM    2  N2  UNL     1      -4.571  51.784 -23.449  1.00  0.00    -0.342 N 
ATOM      3  H2  UNL     1      -5.143  52.028 -24.257  1.00  0.00     0.167 HD
HETATM    4  C9  UNL     1      -5.057  51.063 -22.438  1.00  0.00     0.182 A 
HETATM    5  N3  UNL     1      -4.395  50.709 -21.330  1.00  0.00    -0.351 N 
ATOM      6  H3  UNL     1      -4.844  50.170 -20.588  1.00  0.00     0.166 HD
HETATM    7  C10 UNL     1      -3.119  51.094 -21.241  1.00  0.00     0.049 A 
HETATM    8  C11 UNL     1      -2.400  50.735 -20.108  1.00  0.00     0.070 A 
HETATM    9  C12 UNL     1      -1.057  51.091 -19.938  1.00  0.00     0.104 A 
HETATM   10  C20 UNL     1      -0.407  51.821 -20.945  1.00  0.00     0.102 A 
HETATM   11  C22 UNL     1      -1.120  52.194 -22.085  1.00  0.00     0.056 A 
HETATM   12  C23 UNL     1      -2.485  51.841 -22.239  1.00  0.00     0.032 A 
ENDROOT
BRANCH   1  13
HETATM   13  N1  UNL     1      -2.732  52.975 -24.388  1.00  0.00    -0.243 NA
HETATM   14  H8  UNL     1      -3.423  53.679 -24.630  1.00  0.00     0.135 HD
BRANCH  13  15
HETATM   15  C7  UNL     1      -2.111  52.444 -25.549  1.00  0.00     0.038 A 
HETATM   16  C6  UNL     1      -0.747  52.629 -25.840  1.00  0.00     0.055 A 
HETATM   17  C5  UNL     1      -0.183  52.046 -26.979  1.00  0.00     0.028 A 
HETATM   18 CL1  UNL     1       0.275  53.636 -24.873  1.00  0.00    -0.082 Cl
HETATM   19  C4  UNL     1      -0.964  51.275 -27.845  1.00  0.00     0.038 A 
HETATM   20  C3  UNL     1      -2.318  51.087 -27.579  1.00  0.00     0.070 A 
HETATM   21  C24 UNL     1      -2.879  51.668 -26.434  1.00  0.00     0.062 A 
BRANCH  20  22
HETATM   22  O1  UNL     1      -3.200  50.361 -28.329  1.00  0.00    -0.351 OA
BRANCH  22  23
HETATM   23  C2  UNL     1      -3.829  49.220 -27.747  1.00  0.00     0.171 C 
HETATM   24  C1  UNL     1      -2.907  48.543 -26.748  1.00  0.00     0.034 C 
ENDBRANCH  22  23
ENDBRANCH  20  22
ENDBRANCH  13  15
ENDBRANCH   1  13
BRANCH  10  25
HETATM   25  O4  UNL     1       0.910  52.133 -20.715  1.00  0.00    -0.353 OA
HETATM   26  C21 UNL     1       1.223  53.480 -20.390  1.00  0.00     0.210 C 
ENDBRANCH  10  25
BRANCH   9  27
HETATM   27  O2  UNL     1      -0.293  50.772 -18.847  1.00  0.00    -0.348 OA
BRANCH  27  28
HETATM   28  C13 UNL     1      -0.892  50.193 -17.692  1.00  0.00     0.177 C 
BRANCH  28  29
HETATM   29  C14 UNL     1       0.093  50.039 -16.536  1.00  0.00     0.046 C 
BRANCH  29  30
HETATM   30  C15 UNL     1       0.128  51.187 -15.513  1.00  0.00     0.119 C 
BRANCH  30  31
HETATM   31  N4  UNL     1       1.327  52.010 -15.395  1.00  0.00    -0.408 N 
HETATM   32  C16 UNL     1       2.239  51.707 -14.290  1.00  0.00     0.143 C 
HETATM   33  C17 UNL     1       3.627  51.251 -14.765  1.00  0.00     0.187 C 
HETATM   34  O3  UNL     1       4.279  52.192 -15.628  1.00  0.00    -0.388 OA
HETATM   35  C18 UNL     1       3.363  52.999 -16.386  1.00  0.00     0.187 C 
HETATM   36  C19 UNL     1       2.020  52.302 -16.653  1.00  0.00     0.143 C 
ENDBRANCH  30  31
ENDBRANCH  29  30
ENDBRANCH  28  29
ENDBRANCH  27  28
ENDBRANCH   9  27
TORSDOF 10
ENDMDL
MODEL 7
REMARK minimizedAffinity -7.52004766
REMARK  10 active torsions:
REMARK  status: ('A' for Active; 'I' for Inactive)
REMARK    1  A    between atoms: C2_2  and  O1_3 
REMARK    2  A    between atoms: O1_3  and  C3_4 
REMARK    3  A    between atoms: C7_9  and  N1_10 
REMARK    4  A    between atoms: N1_10  and  C8_11 
REMARK    5  A    between atoms: C12_19  and  O2_20 
REMARK    6  A    between atoms: O2_20  and  C13_21 
REMARK    7  A    between atoms: C13_21  and  C14_22 
REMARK    8  A    between atoms: C14_22  and  C15_23 
REMARK    9  A    between atoms: C15_23  and  N4_24 
REMARK   10  A    between atoms: C20_30  and  O4_31 
ROOT
HETATM    1  C8  UNL     1       0.107  52.247 -22.377  1.00  0.00     0.098 A 
HETATM    2  N2  UNL     1       0.644  53.304 -23.012  1.00  0.00    -0.342 N 
ATOM      3  H2  UNL     1       0.578  53.412 -24.025  1.00  0.00     0.167 HD
HETATM    4  C9  UNL     1       1.268  54.204 -22.251  1.00  0.00     0.182 A 
HETATM    5  N3  UNL     1       1.423  54.144 -20.923  1.00  0.00    -0.351 N 
ATOM      6  H3  UNL     1       1.933  54.865 -20.411  1.00  0.00     0.166 HD
HETATM    7  C10 UNL     1       0.881  53.094 -20.300  1.00  0.00     0.049 A 
HETATM    8  C11 UNL     1       1.015  53.005 -18.920  1.00  0.00     0.070 A 
HETATM    9  C12 UNL     1       0.472  51.944 -18.188  1.00  0.00     0.104 A 
HETATM   10  C20 UNL     1      -0.245  50.941 -18.861  1.00  0.00     0.102 A 
HETATM   11  C22 UNL     1      -0.382  51.015 -20.248  1.00  0.00     0.056 A 
HETATM   12  C23 UNL     1       0.187  52.088 -20.980  1.00  0.00     0.032 A 
ENDROOT
BRANCH   1  13
HETATM   13  N1  UNL     1      -0.540  51.241 -23.152  1.00  0.00    -0.243 NA
HETATM   14  H8  UNL     1       0.147  50.518 -23.346  1.00  0.00     0.135 HD
BRANCH  13  15
HETATM   15  C7  UNL     1      -1.334  51.514 -24.297  1.00  0.00     0.038 A 
HETATM   16  C6  UNL     1      -2.678  51.923 -24.217  1.00  0.00     0.055 A 
HETATM   17  C5  UNL     1      -3.397  52.219 -25.379  1.00  0.00     0.028 A 
HETATM   18 CL1  UNL     1      -3.530  52.005 -22.712  1.00  0.00    -0.082 Cl
HETATM   19  C4  UNL     1      -2.795  52.109 -26.635  1.00  0.00     0.038 A 
HETATM   20  C3  UNL     1      -1.468  51.697 -26.737  1.00  0.00     0.070 A 
HETATM   21  C24 UNL     1      -0.749  51.407 -25.570  1.00  0.00     0.062 A 
BRANCH  20  22
HETATM   22  O1  UNL     1      -0.751  51.548 -27.890  1.00  0.00    -0.351 OA
BRANCH  22  23
HETATM   23  C2  UNL     1       0.323  52.449 -28.160  1.00  0.00     0.171 C 
HETATM   24  C1  UNL     1       1.652  51.715 -28.183  1.00  0.00     0.034 C 
ENDBRANCH  22  23
ENDBRANCH  20  22
ENDBRANCH  13  15
ENDBRANCH   1  13
BRANCH  10  25
HETATM   25  O4  UNL     1      -0.755  49.933 -18.083  1.00  0.00    -0.353 OA
HETATM   26  C21 UNL     1      -1.577  48.962 -18.715  1.00  0.00     0.210 C 
ENDBRANCH  10  25
BRANCH   9  27
HETATM   27  O2  UNL     1       0.569  51.795 -16.831  1.00  0.00    -0.348 OA
BRANCH  27  28
HETATM   28  C13 UNL     1       1.436  52.634 -16.075  1.00  0.00     0.177 C 
BRANCH  28  29
HETATM   29  C14 UNL     1       2.671  51.894 -15.567  1.00  0.00     0.046 C 
BRANCH  29  30
HETATM   30  C15 UNL     1       2.593  51.342 -14.133  1.00  0.00     0.119 C 
BRANCH  30  31
HETATM   31  N4  UNL     1       3.143  50.022 -13.839  1.00  0.00    -0.408 N 
HETATM   32  C16 UNL     1       4.047  49.917 -12.692  1.00  0.00     0.143 C 
HETATM   33  C17 UNL     1       3.503  49.004 -11.581  1.00  0.00     0.187 C 
HETATM   34  O3  UNL     1       3.198  47.675 -12.025  1.00  0.00    -0.388 OA
HETATM   35  C18 UNL     1       2.831  47.608 -13.412  1.00  0.00     0.187 C 
HETATM   36  C19 UNL     1       2.196  48.906 -13.934  1.00  0.00     0.143 C 
ENDBRANCH  30  31
ENDBRANCH  29  30
ENDBRANCH  28  29
ENDBRANCH  27  28
ENDBRANCH   9  27
TORSDOF 10
ENDMDL
MODEL 8
REMARK minimizedAffinity -7.51033545
REMARK  10 active torsions:
REMARK  status: ('A' for Active; 'I' for Inactive)
REMARK    1  A    between atoms: C2_2  and  O1_3 
REMARK    2  A    between atoms: O1_3  and  C3_4 
REMARK    3  A    between atoms: C7_9  and  N1_10 
REMARK    4  A    between atoms: N1_10  and  C8_11 
REMARK    5  A    between atoms: C12_19  and  O2_20 
REMARK    6  A    between atoms: O2_20  and  C13_21 
REMARK    7  A    between atoms: C13_21  and  C14_22 
REMARK    8  A    between atoms: C14_22  and  C15_23 
REMARK    9  A    between atoms: C15_23  and  N4_24 
REMARK   10  A    between atoms: C20_30  and  O4_31 
ROOT
HETATM    1  C8  UNL     1      -0.761  50.717 -20.589  1.00  0.00     0.098 A 
HETATM    2  N2  UNL     1      -1.272  49.685 -21.285  1.00  0.00    -0.342 N 
ATOM      3  H2  UNL     1      -1.515  49.771 -22.272  1.00  0.00     0.167 HD
HETATM    4  C9  UNL     1      -1.446  48.543 -20.617  1.00  0.00     0.182 A 
HETATM    5  N3  UNL     1      -1.177  48.335 -19.323  1.00  0.00    -0.351 N 
ATOM      6  H3  UNL     1      -1.357  47.435 -18.877  1.00  0.00     0.166 HD
HETATM    7  C10 UNL     1      -0.663  49.363 -18.642  1.00  0.00     0.049 A 
HETATM    8  C11 UNL     1      -0.364  49.180 -17.298  1.00  0.00     0.070 A 
HETATM    9  C12 UNL     1       0.184  50.200 -16.513  1.00  0.00     0.104 A 
HETATM   10  C20 UNL     1       0.455  51.447 -17.099  1.00  0.00     0.102 A 
HETATM   11  C22 UNL     1       0.152  51.647 -18.447  1.00  0.00     0.056 A 
HETATM   12  C23 UNL     1      -0.417  50.609 -19.228  1.00  0.00     0.032 A 
ENDROOT
BRANCH   1  13
HETATM   13  N1  UNL     1      -0.588  51.968 -21.250  1.00  0.00    -0.243 NA
HETATM   14  H8  UNL     1      -1.096  52.666 -20.715  1.00  0.00     0.135 HD
BRANCH  13  15
HETATM   15  C7  UNL     1      -0.771  52.156 -22.645  1.00  0.00     0.038 A 
HETATM   16  C6  UNL     1      -2.040  52.269 -23.242  1.00  0.00     0.055 A 
HETATM   17  C5  UNL     1      -2.157  52.496 -24.617  1.00  0.00     0.028 A 
HETATM   18 CL1  UNL     1      -3.505  52.057 -22.345  1.00  0.00    -0.082 Cl
HETATM   19  C4  UNL     1      -1.017  52.610 -25.418  1.00  0.00     0.038 A 
HETATM   20  C3  UNL     1       0.248  52.493 -24.848  1.00  0.00     0.070 A 
HETATM   21  C24 UNL     1       0.361  52.271 -23.469  1.00  0.00     0.062 A 
BRANCH  20  22
HETATM   22  O1  UNL     1       1.445  52.585 -25.502  1.00  0.00    -0.351 OA
BRANCH  22  23
HETATM   23  C2  UNL     1       1.979  51.424 -26.136  1.00  0.00     0.171 C 
HETATM   24  C1  UNL     1       2.468  51.749 -27.536  1.00  0.00     0.034 C 
ENDBRANCH  22  23
ENDBRANCH  20  22
ENDBRANCH  13  15
ENDBRANCH   1  13
BRANCH  10  25
HETATM   25  O4  UNL     1       0.995  52.401 -16.274  1.00  0.00    -0.353 OA
HETATM   26  C21 UNL     1       2.364  52.734 -16.457  1.00  0.00     0.210 C 
ENDBRANCH  10  25
BRANCH   9  27
HETATM   27  O2  UNL     1       0.500  50.086 -15.186  1.00  0.00    -0.348 OA
BRANCH  27  28
HETATM   28  C13 UNL     1      -0.418  49.490 -14.276  1.00  0.00     0.177 C 
BRANCH  28  29
HETATM   29  C14 UNL     1      -1.461  50.481 -13.764  1.00  0.00     0.046 C 
BRANCH  29  30
HETATM   30  C15 UNL     1      -1.086  51.276 -12.502  1.00  0.00     0.119 C 
BRANCH  30  31
HETATM   31  N4  UNL     1      -1.862  52.457 -12.138  1.00  0.00    -0.408 N 
HETATM   32  C16 UNL     1      -3.298  52.425 -12.422  1.00  0.00     0.143 C 
HETATM   33  C17 UNL     1      -4.163  52.509 -11.155  1.00  0.00     0.187 C 
HETATM   34  O3  UNL     1      -3.898  53.668 -10.353  1.00  0.00    -0.388 OA
HETATM   35  C18 UNL     1      -2.551  54.150 -10.475  1.00  0.00     0.187 C 
HETATM   36  C19 UNL     1      -1.543  53.046 -10.834  1.00  0.00     0.143 C 
ENDBRANCH  30  31
ENDBRANCH  29  30
ENDBRANCH  28  29
ENDBRANCH  27  28
ENDBRANCH   9  27
TORSDOF 10
ENDMDL
MODEL 9
REMARK minimizedAffinity -7.48054838
REMARK  10 active torsions:
REMARK  status: ('A' for Active; 'I' for Inactive)
REMARK    1  A    between atoms: C2_2  and  O1_3 
REMARK    2  A    between atoms: O1_3  and  C3_4 
REMARK    3  A    between atoms: C7_9  and  N1_10 
REMARK    4  A    between atoms: N1_10  and  C8_11 
REMARK    5  A    between atoms: C12_19  and  O2_20 
REMARK    6  A    between atoms: O2_20  and  C13_21 
REMARK    7  A    between atoms: C13_21  and  C14_22 
REMARK    8  A    between atoms: C14_22  and  C15_23 
REMARK    9  A    between atoms: C15_23  and  N4_24 
REMARK   10  A    between atoms: C20_30  and  O4_31 
ROOT
HETATM    1  C8  UNL     1      -1.816  52.734 -25.117  1.00  0.00     0.098 A 
HETATM    2  N2  UNL     1      -1.095  53.295 -26.106  1.00  0.00    -0.342 N 
ATOM      3  H2  UNL     1      -1.496  53.472 -27.027  1.00  0.00     0.167 HD
HETATM    4  C9  UNL     1       0.169  53.608 -25.819  1.00  0.00     0.182 A 
HETATM    5  N3  UNL     1       0.790  53.399 -24.652  1.00  0.00    -0.351 N 
ATOM      6  H3  UNL     1       1.770  53.649 -24.516  1.00  0.00     0.166 HD
HETATM    7  C10 UNL     1       0.065  52.849 -23.674  1.00  0.00     0.049 A 
HETATM    8  C11 UNL     1       0.676  52.627 -22.446  1.00  0.00     0.070 A 
HETATM    9  C12 UNL     1      -0.012  52.062 -21.367  1.00  0.00     0.104 A 
HETATM   10  C20 UNL     1      -1.364  51.718 -21.517  1.00  0.00     0.102 A 
HETATM   11  C22 UNL     1      -1.988  51.930 -22.748  1.00  0.00     0.056 A 
HETATM   12  C23 UNL     1      -1.276  52.489 -23.840  1.00  0.00     0.032 A 
ENDROOT
BRANCH   1  13
HETATM   13  N1  UNL     1      -3.162  52.352 -25.385  1.00  0.00    -0.243 NA
HETATM   14  H8  UNL     1      -3.751  52.814 -24.698  1.00  0.00     0.135 HD
BRANCH  13  15
HETATM   15  C7  UNL     1      -3.576  51.010 -25.596  1.00  0.00     0.038 A 
HETATM   16  C6  UNL     1      -3.295  50.300 -26.778  1.00  0.00     0.055 A 
HETATM   17  C5  UNL     1      -3.692  48.966 -26.912  1.00  0.00     0.028 A 
HETATM   18 CL1  UNL     1      -2.530  51.043 -28.142  1.00  0.00    -0.082 Cl
HETATM   19  C4  UNL     1      -4.375  48.320 -25.877  1.00  0.00     0.038 A 
HETATM   20  C3  UNL     1      -4.670  49.008 -24.703  1.00  0.00     0.070 A 
HETATM   21  C24 UNL     1      -4.266  50.343 -24.570  1.00  0.00     0.062 A 
BRANCH  20  22
HETATM   22  O1  UNL     1      -5.325  48.509 -23.612  1.00  0.00    -0.351 OA
BRANCH  22  23
HETATM   23  C2  UNL     1      -4.731  48.650 -22.322  1.00  0.00     0.171 C 
HETATM   24  C1  UNL     1      -3.348  48.023 -22.291  1.00  0.00     0.034 C 
ENDBRANCH  22  23
ENDBRANCH  20  22
ENDBRANCH  13  15
ENDBRANCH   1  13
BRANCH  10  25
HETATM   25  O4  UNL     1      -1.979  51.173 -20.418  1.00  0.00    -0.353 OA
HETATM   26  C21 UNL     1      -3.383  51.347 -20.293  1.00  0.00     0.210 C 
ENDBRANCH  10  25
BRANCH   9  27
HETATM   27  O2  UNL     1       0.530  51.816 -20.133  1.00  0.00    -0.348 OA
BRANCH  27  28
HETATM   28  C13 UNL     1       0.810  52.890 -19.242  1.00  0.00     0.177 C 
BRANCH  28  29
HETATM   29  C14 UNL     1       0.609  52.505 -17.779  1.00  0.00     0.046 C 
BRANCH  29  30
HETATM   30  C15 UNL     1       1.885  52.248 -16.960  1.00  0.00     0.119 C 
BRANCH  30  31
HETATM   31  N4  UNL     1       1.815  52.231 -15.503  1.00  0.00    -0.408 N 
HETATM   32  C16 UNL     1       0.620  51.636 -14.899  1.00  0.00     0.143 C 
HETATM   33  C17 UNL     1       0.931  50.391 -14.054  1.00  0.00     0.187 C 
HETATM   34  O3  UNL     1       1.881  50.630 -13.006  1.00  0.00    -0.388 OA
HETATM   35  C18 UNL     1       2.808  51.685 -13.306  1.00  0.00     0.187 C 
HETATM   36  C19 UNL     1       3.055  51.863 -14.813  1.00  0.00     0.143 C 
ENDBRANCH  30  31
ENDBRANCH  29  30
ENDBRANCH  28  29
ENDBRANCH  27  28
ENDBRANCH   9  27
TORSDOF 10
ENDMDL
