MODEL 1
REMARK minimizedAffinity -9.45806313
REMARK  7 active torsions:
REMARK  status: ('A' for Active; 'I' for Inactive)
REMARK    1  A    between atoms: N1_2  and  S1_3 
REMARK    2  A    between atoms: S1_3  and  C2_6 
REMARK    3  A    between atoms: C9_13  and  C10_14 
REMARK    4  A    between atoms: C13_18  and  C14_19 
REMARK    5  A    between atoms: C14_19  and  C15_20 
REMARK    6  A    between atoms: C15_20  and  C16_21 
REMARK    7  A    between atoms: C16_21  and  N3_22 
ROOT
HETATM    1  C10 UNL     1      -0.750   5.522  12.254  1.00  0.00     0.040 A 
HETATM    2  N2  UNL     1       0.004   5.508  11.103  1.00  0.00    -0.359 N 
HETATM    3  C11 UNL     1       1.225   6.070  11.341  1.00  0.00     0.016 A 
HETATM    4  C12 UNL     1       1.275   6.467  12.657  1.00  0.00    -0.027 A 
HETATM    5  C13 UNL     1       0.032   6.106  13.253  1.00  0.00    -0.023 A 
HETATM    6  C21 UNL     1       2.484   7.113  13.250  1.00  0.00     0.041 C 
HETATM    7  C22 UNL     1       3.443   7.611  12.151  1.00  0.00     0.005 C 
HETATM    8  C23 UNL     1       3.627   6.573  11.029  1.00  0.00     0.006 C 
HETATM    9  C24 UNL     1       2.298   6.235  10.325  1.00  0.00     0.057 C 
HETATM   10  H9  UNL     1      -0.287   5.125  10.208  1.00  0.00     0.166 HD
ENDROOT
BRANCH   1  11
HETATM   11  C9  UNL     1      -2.079   5.014  12.300  1.00  0.00     0.048 C 
HETATM   12  C8  UNL     1      -2.563   3.832  11.887  1.00  0.00     0.047 A 
HETATM   13  C6  UNL     1      -3.983   3.456  12.031  1.00  0.00     0.008 A 
HETATM   14  C25 UNL     1      -1.882   2.646  11.244  1.00  0.00     0.257 A 
HETATM   15  C5  UNL     1      -4.100   2.148  11.547  1.00  0.00     0.046 A 
HETATM   16  C7  UNL     1      -5.098   4.123  12.509  1.00  0.00     0.040 A 
HETATM   17  C4  UNL     1      -5.296   1.457  11.532  1.00  0.00     0.032 A 
HETATM   18  N4  UNL     1      -2.871   1.688  11.094  1.00  0.00    -0.322 N 
HETATM   19  C3  UNL     1      -6.426   2.117  12.017  1.00  0.00     0.027 A 
HETATM   20  C2  UNL     1      -6.323   3.444  12.485  1.00  0.00     0.080 A 
HETATM   21  H32 UNL     1      -2.690   0.781  10.689  1.00  0.00     0.169 HD
HETATM   22  O4  UNL     1      -0.720   2.531  10.905  1.00  0.00    -0.267 OA
BRANCH  20  23
HETATM   23  S1  UNL     1      -7.786   4.265  13.077  1.00  0.00     0.258 S 
HETATM   24  O1  UNL     1      -8.934   3.482  12.679  1.00  0.00    -0.201 OA
HETATM   25  O2  UNL     1      -7.661   5.668  12.752  1.00  0.00    -0.201 OA
BRANCH  23  26
HETATM   26  N1  UNL     1      -7.618   4.137  14.734  1.00  0.00    -0.320 N 
HETATM   27  C1  UNL     1      -7.576   5.321  15.574  1.00  0.00     0.159 C 
HETATM   28  H4  UNL     1      -7.863   3.234  15.136  1.00  0.00     0.171 HD
ENDBRANCH  23  26
ENDBRANCH  20  23
ENDBRANCH   1  11
BRANCH   5  29
HETATM   29  C14 UNL     1      -0.336   6.310  14.692  1.00  0.00     0.043 C 
BRANCH  29  30
HETATM   30  C15 UNL     1      -0.900   7.707  14.968  1.00  0.00     0.035 C 
BRANCH  30  31
HETATM   31  C16 UNL     1      -2.167   7.613  15.827  1.00  0.00     0.273 C 
BRANCH  31  32
HETATM   32  N3  UNL     1      -3.251   8.457  15.308  1.00  0.00     0.092 N 
HETATM   33  C17 UNL     1      -2.912   9.135  14.037  1.00  0.00     0.298 C 
HETATM   34  C18 UNL     1      -3.591   8.518  12.802  1.00  0.00     0.198 C 
HETATM   35  O3  UNL     1      -5.022   8.506  12.890  1.00  0.00    -0.388 OA
HETATM   36  C19 UNL     1      -5.500   8.379  14.237  1.00  0.00     0.198 C 
HETATM   37  C20 UNL     1      -4.498   7.673  15.162  1.00  0.00     0.298 C 
ENDBRANCH  31  32
ENDBRANCH  30  31
ENDBRANCH  29  30
ENDBRANCH   5  29
TORSDOF 7
ENDMDL
MODEL 2
REMARK minimizedAffinity -9.31974125
REMARK  7 active torsions:
REMARK  status: ('A' for Active; 'I' for Inactive)
REMARK    1  A    between atoms: N1_2  and  S1_3 
REMARK    2  A    between atoms: S1_3  and  C2_6 
REMARK    3  A    between atoms: C9_13  and  C10_14 
REMARK    4  A    between atoms: C13_18  and  C14_19 
REMARK    5  A    between atoms: C14_19  and  C15_20 
REMARK    6  A    between atoms: C15_20  and  C16_21 
REMARK    7  A    between atoms: C16_21  and  N3_22 
ROOT
HETATM    1  C10 UNL     1      -0.969   6.381  13.446  1.00  0.00     0.040 A 
HETATM    2  N2  UNL     1      -0.283   6.295  14.637  1.00  0.00    -0.359 N 
HETATM    3  C11 UNL     1       0.873   7.017  14.559  1.00  0.00     0.016 A 
HETATM    4  C12 UNL     1       0.958   7.575  13.306  1.00  0.00    -0.027 A 
HETATM    5  C13 UNL     1      -0.218   7.194  12.595  1.00  0.00    -0.023 A 
HETATM    6  C21 UNL     1       2.103   8.440  12.894  1.00  0.00     0.041 C 
HETATM    7  C22 UNL     1       3.291   8.287  13.863  1.00  0.00     0.005 C 
HETATM    8  C23 UNL     1       2.843   8.296  15.336  1.00  0.00     0.006 C 
HETATM    9  C24 UNL     1       1.871   7.143  15.655  1.00  0.00     0.057 C 
HETATM   10  H9  UNL     1      -0.590   5.788  15.462  1.00  0.00     0.166 HD
ENDROOT
BRANCH   1  11
HETATM   11  C9  UNL     1      -2.207   5.712  13.230  1.00  0.00     0.048 C 
HETATM   12  C8  UNL     1      -2.475   4.608  12.516  1.00  0.00     0.047 A 
HETATM   13  C6  UNL     1      -3.831   4.033  12.412  1.00  0.00     0.008 A 
HETATM   14  C25 UNL     1      -1.575   3.700  11.710  1.00  0.00     0.257 A 
HETATM   15  C5  UNL     1      -3.712   2.869  11.644  1.00  0.00     0.046 A 
HETATM   16  C7  UNL     1      -5.067   4.425  12.896  1.00  0.00     0.040 A 
HETATM   17  C4  UNL     1      -4.787   2.055  11.343  1.00  0.00     0.032 A 
HETATM   18  N4  UNL     1      -2.396   2.686  11.244  1.00  0.00    -0.322 N 
HETATM   19  C3  UNL     1      -6.038   2.437  11.831  1.00  0.00     0.027 A 
HETATM   20  C2  UNL     1      -6.172   3.621  12.586  1.00  0.00     0.080 A 
HETATM   21  H32 UNL     1      -2.050   1.928  10.673  1.00  0.00     0.169 HD
HETATM   22  O4  UNL     1      -0.385   3.814  11.488  1.00  0.00    -0.267 OA
BRANCH  20  23
HETATM   23  S1  UNL     1      -7.783   4.091  13.175  1.00  0.00     0.258 S 
HETATM   24  O1  UNL     1      -8.720   3.056  12.798  1.00  0.00    -0.201 OA
HETATM   25  O2  UNL     1      -7.988   5.478  12.825  1.00  0.00    -0.201 OA
BRANCH  23  26
HETATM   26  N1  UNL     1      -7.585   4.036  14.833  1.00  0.00    -0.320 N 
HETATM   27  C1  UNL     1      -7.553   5.255  15.621  1.00  0.00     0.159 C 
HETATM   28  H4  UNL     1      -7.805   3.147  15.276  1.00  0.00     0.171 HD
ENDBRANCH  23  26
ENDBRANCH  20  23
ENDBRANCH   1  11
BRANCH   5  29
HETATM   29  C14 UNL     1      -0.567   7.618  11.200  1.00  0.00     0.043 C 
BRANCH  29  30
HETATM   30  C15 UNL     1       0.570   8.373  10.508  1.00  0.00     0.035 C 
BRANCH  30  31
HETATM   31  C16 UNL     1       0.627   8.009   9.018  1.00  0.00     0.273 C 
BRANCH  31  32
HETATM   32  N3  UNL     1       1.835   7.245   8.682  1.00  0.00     0.092 N 
HETATM   33  C17 UNL     1       3.036   8.091   8.502  1.00  0.00     0.298 C 
HETATM   34  C18 UNL     1       4.029   8.023   9.676  1.00  0.00     0.198 C 
HETATM   35  O3  UNL     1       4.500   6.695   9.941  1.00  0.00    -0.388 OA
HETATM   36  C19 UNL     1       3.533   5.683   9.625  1.00  0.00     0.198 C 
HETATM   37  C20 UNL     1       2.087   6.196   9.695  1.00  0.00     0.298 C 
ENDBRANCH  31  32
ENDBRANCH  30  31
ENDBRANCH  29  30
ENDBRANCH   5  29
TORSDOF 7
ENDMDL
MODEL 3
REMARK minimizedAffinity -9.22113132
REMARK  7 active torsions:
REMARK  status: ('A' for Active; 'I' for Inactive)
REMARK    1  A    between atoms: N1_2  and  S1_3 
REMARK    2  A    between atoms: S1_3  and  C2_6 
REMARK    3  A    between atoms: C9_13  and  C10_14 
REMARK    4  A    between atoms: C13_18  and  C14_19 
REMARK    5  A    between atoms: C14_19  and  C15_20 
REMARK    6  A    between atoms: C15_20  and  C16_21 
REMARK    7  A    between atoms: C16_21  and  N3_22 
ROOT
HETATM    1  C10 UNL     1      -3.112   4.635  12.012  1.00  0.00     0.040 A 
HETATM    2  N2  UNL     1      -3.542   3.398  11.587  1.00  0.00    -0.359 N 
HETATM    3  C11 UNL     1      -4.813   3.171  12.030  1.00  0.00     0.016 A 
HETATM    4  C12 UNL     1      -5.224   4.261  12.760  1.00  0.00    -0.027 A 
HETATM    5  C13 UNL     1      -4.158   5.208  12.739  1.00  0.00    -0.023 A 
HETATM    6  C21 UNL     1      -6.580   4.341  13.380  1.00  0.00     0.041 C 
HETATM    7  C22 UNL     1      -7.249   2.954  13.431  1.00  0.00     0.005 C 
HETATM    8  C23 UNL     1      -7.078   2.178  12.112  1.00  0.00     0.006 C 
HETATM    9  C24 UNL     1      -5.595   1.933  11.772  1.00  0.00     0.057 C 
HETATM   10  H9  UNL     1      -3.008   2.750  11.016  1.00  0.00     0.166 HD
ENDROOT
BRANCH   1  11
HETATM   11  C9  UNL     1      -1.814   5.135  11.712  1.00  0.00     0.048 C 
HETATM   12  C8  UNL     1      -0.839   5.546  12.538  1.00  0.00     0.047 A 
HETATM   13  C6  UNL     1       0.471   6.023  12.052  1.00  0.00     0.008 A 
HETATM   14  C25 UNL     1      -0.774   5.617  14.045  1.00  0.00     0.257 A 
HETATM   15  C5  UNL     1       1.238   6.307  13.188  1.00  0.00     0.046 A 
HETATM   16  C7  UNL     1       0.999   6.221  10.788  1.00  0.00     0.040 A 
HETATM   17  C4  UNL     1       2.537   6.772  13.119  1.00  0.00     0.032 A 
HETATM   18  N4  UNL     1       0.504   6.065  14.340  1.00  0.00    -0.322 N 
HETATM   19  C3  UNL     1       3.083   6.969  11.850  1.00  0.00     0.027 A 
HETATM   20  C2  UNL     1       2.311   6.709  10.699  1.00  0.00     0.080 A 
HETATM   21  H32 UNL     1       0.825   6.201  15.287  1.00  0.00     0.169 HD
HETATM   22  O4  UNL     1      -1.643   5.357  14.855  1.00  0.00    -0.267 OA
BRANCH  20  23
HETATM   23  S1  UNL     1       3.028   6.991   9.096  1.00  0.00     0.258 S 
HETATM   24  O1  UNL     1       3.686   5.774   8.677  1.00  0.00    -0.201 OA
HETATM   25  O2  UNL     1       3.716   8.261   9.143  1.00  0.00    -0.201 OA
BRANCH  23  26
HETATM   26  N1  UNL     1       1.677   7.209   8.137  1.00  0.00    -0.320 N 
HETATM   27  C1  UNL     1       1.783   7.210   6.688  1.00  0.00     0.159 C 
HETATM   28  H4  UNL     1       0.782   7.022   8.583  1.00  0.00     0.171 HD
ENDBRANCH  23  26
ENDBRANCH  20  23
ENDBRANCH   1  11
BRANCH   5  29
HETATM   29  C14 UNL     1      -4.188   6.566  13.373  1.00  0.00     0.043 C 
BRANCH  29  30
HETATM   30  C15 UNL     1      -5.562   7.234  13.280  1.00  0.00     0.035 C 
BRANCH  30  31
HETATM   31  C16 UNL     1      -5.605   8.497  14.150  1.00  0.00     0.273 C 
BRANCH  31  32
HETATM   32  N3  UNL     1      -6.492   8.340  15.310  1.00  0.00     0.092 N 
HETATM   33  C17 UNL     1      -7.893   8.730  15.036  1.00  0.00     0.298 C 
HETATM   34  C18 UNL     1      -8.853   7.538  14.879  1.00  0.00     0.198 C 
HETATM   35  O3  UNL     1      -8.883   6.681  16.028  1.00  0.00    -0.388 OA
HETATM   36  C19 UNL     1      -7.633   6.640  16.730  1.00  0.00     0.198 C 
HETATM   37  C20 UNL     1      -6.431   6.955  15.828  1.00  0.00     0.298 C 
ENDBRANCH  31  32
ENDBRANCH  30  31
ENDBRANCH  29  30
ENDBRANCH   5  29
TORSDOF 7
ENDMDL
MODEL 4
REMARK minimizedAffinity -9.18086338
REMARK  7 active torsions:
REMARK  status: ('A' for Active; 'I' for Inactive)
REMARK    1  A    between atoms: N1_2  and  S1_3 
REMARK    2  A    between atoms: S1_3  and  C2_6 
REMARK    3  A    between atoms: C9_13  and  C10_14 
REMARK    4  A    between atoms: C13_18  and  C14_19 
REMARK    5  A    between atoms: C14_19  and  C15_20 
REMARK    6  A    between atoms: C15_20  and  C16_21 
REMARK    7  A    between atoms: C16_21  and  N3_22 
ROOT
HETATM    1  C10 UNL     1      -7.565   6.284  13.704  1.00  0.00     0.040 A 
HETATM    2  N2  UNL     1      -8.814   6.082  13.162  1.00  0.00    -0.359 N 
HETATM    3  C11 UNL     1      -9.725   6.891  13.778  1.00  0.00     0.016 A 
HETATM    4  C12 UNL     1      -9.075   7.627  14.741  1.00  0.00    -0.027 A 
HETATM    5  C13 UNL     1      -7.698   7.264  14.691  1.00  0.00    -0.023 A 
HETATM    6  C21 UNL     1      -9.785   8.625  15.596  1.00  0.00     0.041 C 
HETATM    7  C22 UNL     1     -11.312   8.425  15.532  1.00  0.00     0.005 C 
HETATM    8  C23 UNL     1     -11.806   8.191  14.092  1.00  0.00     0.006 C 
HETATM    9  C24 UNL     1     -11.176   6.935  13.459  1.00  0.00     0.057 C 
HETATM   10  H9  UNL     1      -9.034   5.441  12.405  1.00  0.00     0.166 HD
ENDROOT
BRANCH   1  11
HETATM   11  C9  UNL     1      -6.419   5.563  13.268  1.00  0.00     0.048 C 
HETATM   12  C8  UNL     1      -6.310   4.293  12.846  1.00  0.00     0.047 A 
HETATM   13  C6  UNL     1      -5.030   3.704  12.406  1.00  0.00     0.008 A 
HETATM   14  C25 UNL     1      -7.346   3.206  12.684  1.00  0.00     0.257 A 
HETATM   15  C5  UNL     1      -5.314   2.399  11.988  1.00  0.00     0.046 A 
HETATM   16  C7  UNL     1      -3.732   4.185  12.355  1.00  0.00     0.040 A 
HETATM   17  C4  UNL     1      -4.349   1.540  11.499  1.00  0.00     0.032 A 
HETATM   18  N4  UNL     1      -6.664   2.122  12.153  1.00  0.00    -0.322 N 
HETATM   19  C3  UNL     1      -3.039   2.015  11.436  1.00  0.00     0.027 A 
HETATM   20  C2  UNL     1      -2.737   3.321  11.876  1.00  0.00     0.080 A 
HETATM   21  H32 UNL     1      -7.121   1.248  11.937  1.00  0.00     0.169 HD
HETATM   22  O4  UNL     1      -8.529   3.237  12.963  1.00  0.00    -0.267 OA
BRANCH  20  23
HETATM   23  S1  UNL     1      -1.053   3.889  11.804  1.00  0.00     0.258 S 
HETATM   24  O1  UNL     1      -0.928   4.786  10.676  1.00  0.00    -0.201 OA
HETATM   25  O2  UNL     1      -0.196   2.737  11.969  1.00  0.00    -0.201 OA
BRANCH  23  26
HETATM   26  N1  UNL     1      -0.924   4.792  13.204  1.00  0.00    -0.320 N 
HETATM   27  C1  UNL     1      -0.031   5.936  13.274  1.00  0.00     0.159 C 
HETATM   28  H4  UNL     1      -1.698   4.708  13.859  1.00  0.00     0.171 HD
ENDBRANCH  23  26
ENDBRANCH  20  23
ENDBRANCH   1  11
BRANCH   5  29
HETATM   29  C14 UNL     1      -6.610   7.855  15.538  1.00  0.00     0.043 C 
BRANCH  29  30
HETATM   30  C15 UNL     1      -5.567   8.617  14.716  1.00  0.00     0.035 C 
BRANCH  30  31
HETATM   31  C16 UNL     1      -4.546   9.292  15.641  1.00  0.00     0.273 C 
BRANCH  31  32
HETATM   32  N3  UNL     1      -3.167   9.112  15.166  1.00  0.00     0.092 N 
HETATM   33  C17 UNL     1      -3.048   8.136  14.061  1.00  0.00     0.298 C 
HETATM   34  C18 UNL     1      -2.817   8.780  12.682  1.00  0.00     0.198 C 
HETATM   35  O3  UNL     1      -1.644   9.601  12.631  1.00  0.00    -0.388 OA
HETATM   36  C19 UNL     1      -1.339  10.223  13.888  1.00  0.00     0.198 C 
HETATM   37  C20 UNL     1      -2.578  10.413  14.775  1.00  0.00     0.298 C 
ENDBRANCH  31  32
ENDBRANCH  30  31
ENDBRANCH  29  30
ENDBRANCH   5  29
TORSDOF 7
ENDMDL
MODEL 5
REMARK minimizedAffinity -9.16841602
REMARK  7 active torsions:
REMARK  status: ('A' for Active; 'I' for Inactive)
REMARK    1  A    between atoms: N1_2  and  S1_3 
REMARK    2  A    between atoms: S1_3  and  C2_6 
REMARK    3  A    between atoms: C9_13  and  C10_14 
REMARK    4  A    between atoms: C13_18  and  C14_19 
REMARK    5  A    between atoms: C14_19  and  C15_20 
REMARK    6  A    between atoms: C15_20  and  C16_21 
REMARK    7  A    between atoms: C16_21  and  N3_22 
ROOT
HETATM    1  C10 UNL     1      -2.868   4.329  12.231  1.00  0.00     0.040 A 
HETATM    2  N2  UNL     1      -2.993   3.023  11.815  1.00  0.00    -0.359 N 
HETATM    3  C11 UNL     1      -4.303   2.641  11.869  1.00  0.00     0.016 A 
HETATM    4  C12 UNL     1      -5.048   3.699  12.333  1.00  0.00    -0.027 A 
HETATM    5  C13 UNL     1      -4.150   4.785  12.548  1.00  0.00    -0.023 A 
HETATM    6  C21 UNL     1      -6.530   3.618  12.501  1.00  0.00     0.041 C 
HETATM    7  C22 UNL     1      -7.012   2.155  12.477  1.00  0.00     0.005 C 
HETATM    8  C23 UNL     1      -6.344   1.343  11.353  1.00  0.00     0.006 C 
HETATM    9  C24 UNL     1      -4.811   1.293  11.504  1.00  0.00     0.057 C 
HETATM   10  H9  UNL     1      -2.234   2.427  11.498  1.00  0.00     0.166 HD
ENDROOT
BRANCH   1  11
HETATM   11  C9  UNL     1      -1.610   4.992  12.295  1.00  0.00     0.048 C 
HETATM   12  C8  UNL     1      -0.994   5.568  13.338  1.00  0.00     0.047 A 
HETATM   13  C6  UNL     1       0.336   6.202  13.230  1.00  0.00     0.008 A 
HETATM   14  C25 UNL     1      -1.405   5.710  14.785  1.00  0.00     0.257 A 
HETATM   15  C5  UNL     1       0.676   6.636  14.516  1.00  0.00     0.046 A 
HETATM   16  C7  UNL     1       1.200   6.418  12.171  1.00  0.00     0.040 A 
HETATM   17  C4  UNL     1       1.867   7.274  14.803  1.00  0.00     0.032 A 
HETATM   18  N4  UNL     1      -0.344   6.342  15.411  1.00  0.00    -0.322 N 
HETATM   19  C3  UNL     1       2.750   7.491  13.745  1.00  0.00     0.027 A 
HETATM   20  C2  UNL     1       2.407   7.079  12.440  1.00  0.00     0.080 A 
HETATM   21  H32 UNL     1      -0.349   6.561  16.397  1.00  0.00     0.169 HD
HETATM   22  O4  UNL     1      -2.444   5.366  15.315  1.00  0.00    -0.267 OA
BRANCH  20  23
HETATM   23  S1  UNL     1       3.544   7.391  11.109  1.00  0.00     0.258 S 
HETATM   24  O1  UNL     1       4.148   8.686  11.327  1.00  0.00    -0.201 OA
HETATM   25  O2  UNL     1       2.874   7.053   9.874  1.00  0.00    -0.201 OA
BRANCH  23  26
HETATM   26  N1  UNL     1       4.712   6.223  11.360  1.00  0.00    -0.320 N 
HETATM   27  C1  UNL     1       6.102   6.590  11.568  1.00  0.00     0.159 C 
HETATM   28  H4  UNL     1       4.372   5.315  11.670  1.00  0.00     0.171 HD
ENDBRANCH  23  26
ENDBRANCH  20  23
ENDBRANCH   1  11
BRANCH   5  29
HETATM   29  C14 UNL     1      -4.537   6.158  13.012  1.00  0.00     0.043 C 
BRANCH  29  30
HETATM   30  C15 UNL     1      -6.027   6.272  13.343  1.00  0.00     0.035 C 
BRANCH  30  31
HETATM   31  C16 UNL     1      -6.227   6.479  14.850  1.00  0.00     0.273 C 
BRANCH  31  32
HETATM   32  N3  UNL     1      -7.648   6.527  15.218  1.00  0.00     0.092 N 
HETATM   33  C17 UNL     1      -7.999   7.692  16.059  1.00  0.00     0.298 C 
HETATM   34  C18 UNL     1      -8.759   8.799  15.307  1.00  0.00     0.198 C 
HETATM   35  O3  UNL     1      -9.981   8.341  14.712  1.00  0.00    -0.388 OA
HETATM   36  C19 UNL     1      -9.928   6.964  14.311  1.00  0.00     0.198 C 
HETATM   37  C20 UNL     1      -8.501   6.485  14.009  1.00  0.00     0.298 C 
ENDBRANCH  31  32
ENDBRANCH  30  31
ENDBRANCH  29  30
ENDBRANCH   5  29
TORSDOF 7
ENDMDL
MODEL 6
REMARK minimizedAffinity -8.97990799
REMARK  7 active torsions:
REMARK  status: ('A' for Active; 'I' for Inactive)
REMARK    1  A    between atoms: N1_2  and  S1_3 
REMARK    2  A    between atoms: S1_3  and  C2_6 
REMARK    3  A    between atoms: C9_13  and  C10_14 
REMARK    4  A    between atoms: C13_18  and  C14_19 
REMARK    5  A    between atoms: C14_19  and  C15_20 
REMARK    6  A    between atoms: C15_20  and  C16_21 
REMARK    7  A    between atoms: C16_21  and  N3_22 
ROOT
HETATM    1  C10 UNL     1      -6.685   4.987  12.875  1.00  0.00     0.040 A 
HETATM    2  N2  UNL     1      -6.830   3.705  12.394  1.00  0.00    -0.359 N 
HETATM    3  C11 UNL     1      -5.603   3.164  12.136  1.00  0.00     0.016 A 
HETATM    4  C12 UNL     1      -4.640   4.098  12.439  1.00  0.00    -0.027 A 
HETATM    5  C13 UNL     1      -5.315   5.254  12.929  1.00  0.00    -0.023 A 
HETATM    6  C21 UNL     1      -3.182   3.820  12.280  1.00  0.00     0.041 C 
HETATM    7  C22 UNL     1      -2.946   2.578  11.400  1.00  0.00     0.005 C 
HETATM    8  C23 UNL     1      -3.890   1.418  11.768  1.00  0.00     0.006 C 
HETATM    9  C24 UNL     1      -5.373   1.799  11.595  1.00  0.00     0.057 C 
HETATM   10  H9  UNL     1      -7.711   3.218  12.262  1.00  0.00     0.166 HD
ENDROOT
BRANCH   1  11
HETATM   11  C9  UNL     1      -7.799   5.803  13.217  1.00  0.00     0.048 C 
HETATM   12  C8  UNL     1      -8.137   6.349  14.396  1.00  0.00     0.047 A 
HETATM   13  C6  UNL     1      -9.333   7.197  14.570  1.00  0.00     0.008 A 
HETATM   14  C25 UNL     1      -7.465   6.295  15.747  1.00  0.00     0.257 A 
HETATM   15  C5  UNL     1      -9.326   7.626  15.902  1.00  0.00     0.046 A 
HETATM   16  C7  UNL     1     -10.353   7.585  13.719  1.00  0.00     0.040 A 
HETATM   17  C4  UNL     1     -10.300   8.452  16.430  1.00  0.00     0.032 A 
HETATM   18  N4  UNL     1      -8.234   7.096  16.575  1.00  0.00    -0.322 N 
HETATM   19  C3  UNL     1     -11.330   8.856  15.580  1.00  0.00     0.027 A 
HETATM   20  C2  UNL     1     -11.359   8.409  14.242  1.00  0.00     0.080 A 
HETATM   21  H32 UNL     1      -8.008   7.245  17.548  1.00  0.00     0.169 HD
HETATM   22  O4  UNL     1      -6.469   5.679  16.075  1.00  0.00    -0.267 OA
BRANCH  20  23
HETATM   23  S1  UNL     1     -12.698   8.923  13.189  1.00  0.00     0.258 S 
HETATM   24  O1  UNL     1     -12.139   9.350  11.926  1.00  0.00    -0.201 OA
HETATM   25  O2  UNL     1     -13.567   9.772  13.971  1.00  0.00    -0.201 OA
BRANCH  23  26
HETATM   26  N1  UNL     1     -13.520   7.491  12.937  1.00  0.00    -0.320 N 
HETATM   27  C1  UNL     1     -14.920   7.493  12.551  1.00  0.00     0.159 C 
HETATM   28  H4  UNL     1     -12.941   6.674  12.757  1.00  0.00     0.171 HD
ENDBRANCH  23  26
ENDBRANCH  20  23
ENDBRANCH   1  11
BRANCH   5  29
HETATM   29  C14 UNL     1      -4.652   6.506  13.422  1.00  0.00     0.043 C 
BRANCH  29  30
HETATM   30  C15 UNL     1      -3.126   6.451  13.310  1.00  0.00     0.035 C 
BRANCH  30  31
HETATM   31  C16 UNL     1      -2.573   7.811  12.864  1.00  0.00     0.273 C 
BRANCH  31  32
HETATM   32  N3  UNL     1      -1.114   7.785  12.693  1.00  0.00     0.092 N 
HETATM   33  C17 UNL     1      -0.576   6.432  12.429  1.00  0.00     0.298 C 
HETATM   34  C18 UNL     1      -0.165   6.199  10.965  1.00  0.00     0.198 C 
HETATM   35  O3  UNL     1       0.822   7.129  10.500  1.00  0.00    -0.388 OA
HETATM   36  C19 UNL     1       0.721   8.415  11.128  1.00  0.00     0.198 C 
HETATM   37  C20 UNL     1      -0.698   8.725  11.628  1.00  0.00     0.298 C 
ENDBRANCH  31  32
ENDBRANCH  30  31
ENDBRANCH  29  30
ENDBRANCH   5  29
TORSDOF 7
ENDMDL
MODEL 7
REMARK minimizedAffinity -8.85518646
REMARK  7 active torsions:
REMARK  status: ('A' for Active; 'I' for Inactive)
REMARK    1  A    between atoms: N1_2  and  S1_3 
REMARK    2  A    between atoms: S1_3  and  C2_6 
REMARK    3  A    between atoms: C9_13  and  C10_14 
REMARK    4  A    between atoms: C13_18  and  C14_19 
REMARK    5  A    between atoms: C14_19  and  C15_20 
REMARK    6  A    between atoms: C15_20  and  C16_21 
REMARK    7  A    between atoms: C16_21  and  N3_22 
ROOT
HETATM    1  C10 UNL     1      -0.626   5.883  12.070  1.00  0.00     0.040 A 
HETATM    2  N2  UNL     1      -0.058   5.610  10.847  1.00  0.00    -0.359 N 
HETATM    3  C11 UNL     1       1.244   6.023  10.836  1.00  0.00     0.016 A 
HETATM    4  C12 UNL     1       1.535   6.583  12.058  1.00  0.00    -0.027 A 
HETATM    5  C13 UNL     1       0.360   6.482  12.858  1.00  0.00    -0.023 A 
HETATM    6  C21 UNL     1       2.887   7.128  12.383  1.00  0.00     0.041 C 
HETATM    7  C22 UNL     1       3.724   7.335  11.106  1.00  0.00     0.005 C 
HETATM    8  C23 UNL     1       3.615   6.140  10.141  1.00  0.00     0.006 C 
HETATM    9  C24 UNL     1       2.166   5.899   9.676  1.00  0.00     0.057 C 
HETATM   10  H9  UNL     1      -0.522   5.154  10.066  1.00  0.00     0.166 HD
ENDROOT
BRANCH   1  11
HETATM   11  C9  UNL     1      -1.984   5.576  12.366  1.00  0.00     0.048 C 
HETATM   12  C8  UNL     1      -2.744   4.552  11.948  1.00  0.00     0.047 A 
HETATM   13  C6  UNL     1      -4.147   4.373  12.373  1.00  0.00     0.008 A 
HETATM   14  C25 UNL     1      -2.433   3.385  11.040  1.00  0.00     0.257 A 
HETATM   15  C5  UNL     1      -4.591   3.181  11.789  1.00  0.00     0.046 A 
HETATM   16  C7  UNL     1      -5.001   5.121  13.165  1.00  0.00     0.040 A 
HETATM   17  C4  UNL     1      -5.867   2.684  11.975  1.00  0.00     0.032 A 
HETATM   18  N4  UNL     1      -3.585   2.616  11.019  1.00  0.00    -0.322 N 
HETATM   19  C3  UNL     1      -6.735   3.426  12.777  1.00  0.00     0.027 A 
HETATM   20  C2  UNL     1      -6.304   4.641  13.351  1.00  0.00     0.080 A 
HETATM   21  H32 UNL     1      -3.656   1.761  10.486  1.00  0.00     0.169 HD
HETATM   22  O4  UNL     1      -1.407   3.150  10.432  1.00  0.00    -0.267 OA
BRANCH  20  23
HETATM   23  S1  UNL     1      -7.442   5.574  14.350  1.00  0.00     0.258 S 
HETATM   24  O1  UNL     1      -7.068   6.969  14.274  1.00  0.00    -0.201 OA
HETATM   25  O2  UNL     1      -7.584   4.884  15.612  1.00  0.00    -0.201 OA
BRANCH  23  26
HETATM   26  N1  UNL     1      -8.882   5.376  13.527  1.00  0.00    -0.320 N 
HETATM   27  C1  UNL     1      -9.803   6.486  13.356  1.00  0.00     0.159 C 
HETATM   28  H4  UNL     1      -8.929   4.573  12.903  1.00  0.00     0.171 HD
ENDBRANCH  23  26
ENDBRANCH  20  23
ENDBRANCH   1  11
BRANCH   5  29
HETATM   29  C14 UNL     1       0.237   6.927  14.285  1.00  0.00     0.043 C 
BRANCH  29  30
HETATM   30  C15 UNL     1      -1.081   7.651  14.569  1.00  0.00     0.035 C 
BRANCH  30  31
HETATM   31  C16 UNL     1      -1.146   8.089  16.038  1.00  0.00     0.273 C 
BRANCH  31  32
HETATM   32  N3  UNL     1      -0.885   9.526  16.198  1.00  0.00     0.092 N 
HETATM   33  C17 UNL     1      -2.006  10.262  16.823  1.00  0.00     0.298 C 
HETATM   34  C18 UNL     1      -1.756  10.649  18.291  1.00  0.00     0.198 C 
HETATM   35  O3  UNL     1      -0.585  11.457  18.471  1.00  0.00    -0.388 OA
HETATM   36  C19 UNL     1       0.443  11.176  17.510  1.00  0.00     0.198 C 
HETATM   37  C20 UNL     1       0.367   9.747  16.955  1.00  0.00     0.298 C 
ENDBRANCH  31  32
ENDBRANCH  30  31
ENDBRANCH  29  30
ENDBRANCH   5  29
TORSDOF 7
ENDMDL
MODEL 8
REMARK minimizedAffinity -8.80486107
REMARK  7 active torsions:
REMARK  status: ('A' for Active; 'I' for Inactive)
REMARK    1  A    between atoms: N1_2  and  S1_3 
REMARK    2  A    between atoms: S1_3  and  C2_6 
REMARK    3  A    between atoms: C9_13  and  C10_14 
REMARK    4  A    between atoms: C13_18  and  C14_19 
REMARK    5  A    between atoms: C14_19  and  C15_20 
REMARK    6  A    between atoms: C15_20  and  C16_21 
REMARK    7  A    between atoms: C16_21  and  N3_22 
ROOT
HETATM    1  C10 UNL     1      -6.810   4.757  12.803  1.00  0.00     0.040 A 
HETATM    2  N2  UNL     1      -6.962   3.487  12.294  1.00  0.00    -0.359 N 
HETATM    3  C11 UNL     1      -5.737   2.922  12.085  1.00  0.00     0.016 A 
HETATM    4  C12 UNL     1      -4.769   3.827  12.451  1.00  0.00    -0.027 A 
HETATM    5  C13 UNL     1      -5.439   4.991  12.928  1.00  0.00    -0.023 A 
HETATM    6  C21 UNL     1      -3.311   3.516  12.358  1.00  0.00     0.041 C 
HETATM    7  C22 UNL     1      -3.062   2.283  11.468  1.00  0.00     0.005 C 
HETATM    8  C23 UNL     1      -4.049   1.141  11.771  1.00  0.00     0.006 C 
HETATM    9  C24 UNL     1      -5.513   1.560  11.532  1.00  0.00     0.057 C 
HETATM   10  H9  UNL     1      -7.847   3.024  12.111  1.00  0.00     0.166 HD
ENDROOT
BRANCH   1  11
HETATM   11  C9  UNL     1      -7.921   5.595  13.105  1.00  0.00     0.048 C 
HETATM   12  C8  UNL     1      -8.285   6.155  14.269  1.00  0.00     0.047 A 
HETATM   13  C6  UNL     1      -9.471   7.024  14.400  1.00  0.00     0.008 A 
HETATM   14  C25 UNL     1      -7.655   6.101  15.641  1.00  0.00     0.257 A 
HETATM   15  C5  UNL     1      -9.498   7.463  15.729  1.00  0.00     0.046 A 
HETATM   16  C7  UNL     1     -10.458   7.423  13.516  1.00  0.00     0.040 A 
HETATM   17  C4  UNL     1     -10.473   8.310  16.221  1.00  0.00     0.032 A 
HETATM   18  N4  UNL     1      -8.435   6.921  16.439  1.00  0.00    -0.322 N 
HETATM   19  C3  UNL     1     -11.470   8.724  15.337  1.00  0.00     0.027 A 
HETATM   20  C2  UNL     1     -11.465   8.268  14.002  1.00  0.00     0.080 A 
HETATM   21  H32 UNL     1      -8.237   7.074  17.417  1.00  0.00     0.169 HD
HETATM   22  O4  UNL     1      -6.681   5.470  16.003  1.00  0.00    -0.267 OA
BRANCH  20  23
HETATM   23  S1  UNL     1     -12.763   8.796  12.905  1.00  0.00     0.258 S 
HETATM   24  O1  UNL     1     -13.689   7.697  12.741  1.00  0.00    -0.201 OA
HETATM   25  O2  UNL     1     -12.141   9.453  11.778  1.00  0.00    -0.201 OA
BRANCH  23  26
HETATM   26  N1  UNL     1     -13.521   9.986  13.801  1.00  0.00    -0.320 N 
HETATM   27  C1  UNL     1     -13.291  11.392  13.518  1.00  0.00     0.159 C 
HETATM   28  H4  UNL     1     -14.354   9.696  14.307  1.00  0.00     0.171 HD
ENDBRANCH  23  26
ENDBRANCH  20  23
ENDBRANCH   1  11
BRANCH   5  29
HETATM   29  C14 UNL     1      -4.772   6.217  13.474  1.00  0.00     0.043 C 
BRANCH  29  30
HETATM   30  C15 UNL     1      -3.245   6.111  13.475  1.00  0.00     0.035 C 
BRANCH  30  31
HETATM   31  C16 UNL     1      -2.673   6.599  14.812  1.00  0.00     0.273 C 
BRANCH  31  32
HETATM   32  N3  UNL     1      -1.677   7.663  14.633  1.00  0.00     0.092 N 
HETATM   33  C17 UNL     1      -1.288   7.873  13.221  1.00  0.00     0.298 C 
HETATM   34  C18 UNL     1      -1.894   9.138  12.588  1.00  0.00     0.198 C 
HETATM   35  O3  UNL     1      -1.551  10.340  13.290  1.00  0.00    -0.388 OA
HETATM   36  C19 UNL     1      -1.368  10.135  14.698  1.00  0.00     0.198 C 
HETATM   37  C20 UNL     1      -2.154   8.929  15.233  1.00  0.00     0.298 C 
ENDBRANCH  31  32
ENDBRANCH  30  31
ENDBRANCH  29  30
ENDBRANCH   5  29
TORSDOF 7
ENDMDL
MODEL 9
REMARK minimizedAffinity -8.78582573
REMARK  7 active torsions:
REMARK  status: ('A' for Active; 'I' for Inactive)
REMARK    1  A    between atoms: N1_2  and  S1_3 
REMARK    2  A    between atoms: S1_3  and  C2_6 
REMARK    3  A    between atoms: C9_13  and  C10_14 
REMARK    4  A    between atoms: C13_18  and  C14_19 
REMARK    5  A    between atoms: C14_19  and  C15_20 
REMARK    6  A    between atoms: C15_20  and  C16_21 
REMARK    7  A    between atoms: C16_21  and  N3_22 
ROOT
HETATM    1  C10 UNL     1      -3.529   4.796  12.202  1.00  0.00     0.040 A 
HETATM    2  N2  UNL     1      -4.111   3.654  11.698  1.00  0.00    -0.359 N 
HETATM    3  C11 UNL     1      -5.330   3.459  12.281  1.00  0.00     0.016 A 
HETATM    4  C12 UNL     1      -5.551   4.473  13.183  1.00  0.00    -0.027 A 
HETATM    5  C13 UNL     1      -4.422   5.340  13.127  1.00  0.00    -0.023 A 
HETATM    6  C21 UNL     1      -6.806   4.564  13.988  1.00  0.00     0.041 C 
HETATM    7  C22 UNL     1      -7.577   3.230  13.968  1.00  0.00     0.005 C 
HETATM    8  C23 UNL     1      -7.640   2.618  12.557  1.00  0.00     0.006 C 
HETATM    9  C24 UNL     1      -6.239   2.319  11.990  1.00  0.00     0.057 C 
HETATM   10  H9  UNL     1      -3.710   3.049  10.988  1.00  0.00     0.166 HD
ENDROOT
BRANCH   1  11
HETATM   11  C9  UNL     1      -2.242   5.241  11.788  1.00  0.00     0.048 C 
HETATM   12  C8  UNL     1      -1.165   5.560  12.522  1.00  0.00     0.047 A 
HETATM   13  C6  UNL     1       0.113   5.991  11.921  1.00  0.00     0.008 A 
HETATM   14  C25 UNL     1      -0.940   5.555  14.016  1.00  0.00     0.257 A 
HETATM   15  C5  UNL     1       1.009   6.179  12.980  1.00  0.00     0.046 A 
HETATM   16  C7  UNL     1       0.518   6.222  10.617  1.00  0.00     0.040 A 
HETATM   17  C4  UNL     1       2.318   6.579  12.794  1.00  0.00     0.032 A 
HETATM   18  N4  UNL     1       0.385   5.920  14.192  1.00  0.00    -0.322 N 
HETATM   19  C3  UNL     1       2.740   6.808  11.484  1.00  0.00     0.027 A 
HETATM   20  C2  UNL     1       1.838   6.644  10.411  1.00  0.00     0.080 A 
HETATM   21  H32 UNL     1       0.810   5.993  15.105  1.00  0.00     0.169 HD
HETATM   22  O4  UNL     1      -1.734   5.302  14.901  1.00  0.00    -0.267 OA
BRANCH  20  23
HETATM   23  S1  UNL     1       2.401   6.966   8.754  1.00  0.00     0.258 S 
HETATM   24  O1  UNL     1       2.708   5.698   8.130  1.00  0.00    -0.201 OA
HETATM   25  O2  UNL     1       3.361   8.044   8.820  1.00  0.00    -0.201 OA
BRANCH  23  26
HETATM   26  N1  UNL     1       1.029   7.585   8.029  1.00  0.00    -0.320 N 
HETATM   27  C1  UNL     1       0.246   8.622   8.677  1.00  0.00     0.159 C 
HETATM   28  H4  UNL     1       0.958   7.444   7.023  1.00  0.00     0.171 HD
ENDBRANCH  23  26
ENDBRANCH  20  23
ENDBRANCH   1  11
BRANCH   5  29
HETATM   29  C14 UNL     1      -4.256   6.607  13.914  1.00  0.00     0.043 C 
BRANCH  29  30
HETATM   30  C15 UNL     1      -4.575   7.859  13.094  1.00  0.00     0.035 C 
BRANCH  30  31
HETATM   31  C16 UNL     1      -4.328   9.123  13.928  1.00  0.00     0.273 C 
BRANCH  31  32
HETATM   32  N3  UNL     1      -3.049   9.068  14.648  1.00  0.00     0.092 N 
HETATM   33  C17 UNL     1      -1.918   9.637  13.884  1.00  0.00     0.298 C 
HETATM   34  C18 UNL     1      -1.466  11.023  14.376  1.00  0.00     0.198 C 
HETATM   35  O3  UNL     1      -1.074  11.033  15.755  1.00  0.00    -0.388 OA
HETATM   36  C19 UNL     1      -1.787  10.073  16.548  1.00  0.00     0.198 C 
HETATM   37  C20 UNL     1      -3.167   9.728  15.968  1.00  0.00     0.298 C 
ENDBRANCH  31  32
ENDBRANCH  30  31
ENDBRANCH  29  30
ENDBRANCH   5  29
TORSDOF 7
ENDMDL
