MODEL 1
REMARK minimizedAffinity -8.43667889
REMARK CNNscore 0.690781891
REMARK CNNaffinity 7.25154638
REMARK  13 active torsions:
REMARK  status: ('A' for Active; 'I' for Inactive)
REMARK    1  A    between atoms: O1_2  and  C2_3 
REMARK    2  A    between atoms: C6_7  and  C7_8 
REMARK    3  A    between atoms: N1_10  and  C9_11 
REMARK    4  A    between atoms: C12_14  and  C13_15 
REMARK    5  A    between atoms: C13_15  and  C14_16 
REMARK    6  A    between atoms: C14_16  and  O2_17 
REMARK    7  A    between atoms: O2_17  and  P1_18 
REMARK    8  A    between atoms: P1_18  and  O4_20 
REMARK    9  A    between atoms: P1_18  and  C15_21 
REMARK   10  A    between atoms: C15_21  and  P2_22 
REMARK   11  A    between atoms: P2_22  and  O6_24 
REMARK   12  A    between atoms: P2_22  and  O7_25 
REMARK   13  A    between atoms: C20_34  and  N4_35 
ROOT
HETATM    1  C7  UNL     1      -0.487  51.560 -23.058  1.00  0.00     0.007 A 
HETATM    2  C8  UNL     1      -0.570  51.082 -21.768  1.00  0.00     0.112 A 
HETATM    3  N1  UNL     1       0.111  51.936 -20.912  1.00  0.00    -0.307 N 
HETATM    4  C18 UNL     1       0.648  52.963 -21.696  1.00  0.00     0.127 A 
HETATM    5  N2  UNL     1       1.422  53.982 -21.268  1.00  0.00    -0.337 N 
ATOM      6  H2  UNL     1       1.698  54.111 -20.295  1.00  0.00     0.168 HD
HETATM    7  C19 UNL     1       1.791  54.806 -22.258  1.00  0.00     0.183 A 
HETATM    8  N3  UNL     1       1.485  54.724 -23.562  1.00  0.00    -0.343 N 
ATOM      9  H3  UNL     1       1.829  55.418 -24.226  1.00  0.00     0.167 HD
HETATM   10  C20 UNL     1       0.712  53.702 -23.968  1.00  0.00     0.093 A 
HETATM   11  C21 UNL     1       0.276  52.755 -23.024  1.00  0.00     0.059 A 
ENDROOT
BRANCH   3  12
HETATM   12  C9  UNL     1       0.213  51.757 -19.488  1.00  0.00     0.040 A 
HETATM   13  C10 UNL     1      -0.456  50.696 -18.854  1.00  0.00     0.030 A 
HETATM   14  C11 UNL     1      -0.365  50.516 -17.467  1.00  0.00     0.009 A 
HETATM   15  C12 UNL     1       0.387  51.392 -16.682  1.00  0.00    -0.056 A 
HETATM   16  C16 UNL     1       1.057  52.448 -17.308  1.00  0.00     0.009 A 
HETATM   17  C17 UNL     1       0.969  52.628 -18.695  1.00  0.00     0.030 A 
BRANCH  15  18
HETATM   18  C13 UNL     1       0.507  51.188 -15.195  1.00  0.00     0.065 C 
BRANCH  18  19
HETATM   19  C14 UNL     1       1.136  49.843 -14.850  1.00  0.00     0.182 C 
BRANCH  19  20
HETATM   20  O2  UNL     1       2.551  49.977 -14.857  1.00  0.00    -0.318 OA
BRANCH  20  21
HETATM   21  P1  UNL     1       3.333  49.685 -13.482  1.00  0.00     0.249 P 
HETATM   22  O3  UNL     1       4.807  49.491 -13.653  1.00  0.00    -0.653 OA
BRANCH  21  23
HETATM   23  O4  UNL     1       3.002  50.976 -12.596  1.00  0.00    -0.329 OA
HETATM   24  H14 UNL     1       3.553  51.753 -12.808  1.00  0.00     0.220 HD
ENDBRANCH  21  23
BRANCH  21  25
HETATM   25  C15 UNL     1       2.448  48.337 -12.749  1.00  0.00     0.249 C 
BRANCH  25  26
HETATM   26  P2  UNL     1       2.611  46.685 -13.363  1.00  0.00     0.247 P 
HETATM   27  O5  UNL     1       3.315  45.685 -12.509  1.00  0.00    -0.653 OA
BRANCH  26  28
HETATM   28  O6  UNL     1       1.161  46.213 -13.854  1.00  0.00    -0.329 OA
HETATM   29  H17 UNL     1       0.480  46.905 -13.937  1.00  0.00     0.220 HD
ENDBRANCH  26  28
BRANCH  26  30
HETATM   30  O7  UNL     1       3.323  46.868 -14.791  1.00  0.00    -0.329 OA
HETATM   31  H18 UNL     1       3.574  45.997 -15.159  1.00  0.00     0.220 HD
ENDBRANCH  26  30
ENDBRANCH  25  26
ENDBRANCH  21  25
ENDBRANCH  20  21
ENDBRANCH  19  20
ENDBRANCH  18  19
ENDBRANCH  15  18
ENDBRANCH   3  12
BRANCH   1  32
HETATM   32  C6  UNL     1      -1.098  50.872 -24.175  1.00  0.00    -0.021 A 
HETATM   33  C5  UNL     1      -0.587  51.031 -25.465  1.00  0.00     0.012 A 
HETATM   34  C4  UNL     1      -1.172  50.351 -26.532  1.00  0.00     0.004 A 
HETATM   35  C3  UNL     1      -2.267  49.510 -26.315  1.00  0.00     0.037 A 
HETATM   36  C2  UNL     1      -2.782  49.344 -25.028  1.00  0.00     0.069 A 
HETATM   37  C22 UNL     1      -2.194  50.029 -23.962  1.00  0.00     0.049 A 
BRANCH  36  38
HETATM   38  O1  UNL     1      -3.838  48.548 -24.680  1.00  0.00    -0.356 OA
HETATM   39  C1  UNL     1      -4.895  48.429 -25.627  1.00  0.00     0.210 C 
ENDBRANCH  36  38
ENDBRANCH   1  32
BRANCH  10  40
HETATM   40  N4  UNL     1       0.405  53.652 -25.321  1.00  0.00    -0.288 NA
HETATM   41  H22 UNL     1       0.177  52.737 -25.684  1.00  0.00     0.125 HD
HETATM   42  H23 UNL     1       1.057  54.205 -25.864  1.00  0.00     0.125 HD
ENDBRANCH  10  40
TORSDOF 13
ENDMDL
MODEL 2
REMARK minimizedAffinity -8.16570377
REMARK CNNscore 0.6191082
REMARK CNNaffinity 7.12838125
REMARK  13 active torsions:
REMARK  status: ('A' for Active; 'I' for Inactive)
REMARK    1  A    between atoms: O1_2  and  C2_3 
REMARK    2  A    between atoms: C6_7  and  C7_8 
REMARK    3  A    between atoms: N1_10  and  C9_11 
REMARK    4  A    between atoms: C12_14  and  C13_15 
REMARK    5  A    between atoms: C13_15  and  C14_16 
REMARK    6  A    between atoms: C14_16  and  O2_17 
REMARK    7  A    between atoms: O2_17  and  P1_18 
REMARK    8  A    between atoms: P1_18  and  O4_20 
REMARK    9  A    between atoms: P1_18  and  C15_21 
REMARK   10  A    between atoms: C15_21  and  P2_22 
REMARK   11  A    between atoms: P2_22  and  O6_24 
REMARK   12  A    between atoms: P2_22  and  O7_25 
REMARK   13  A    between atoms: C20_34  and  N4_35 
ROOT
HETATM    1  C7  UNL     1      -0.594  51.996 -23.467  1.00  0.00     0.007 A 
HETATM    2  C8  UNL     1      -0.894  51.121 -22.445  1.00  0.00     0.112 A 
HETATM    3  N1  UNL     1      -0.250  51.527 -21.284  1.00  0.00    -0.307 N 
HETATM    4  C18 UNL     1       0.486  52.673 -21.601  1.00  0.00     0.127 A 
HETATM    5  N2  UNL     1       1.296  53.366 -20.772  1.00  0.00    -0.337 N 
ATOM      6  H2  UNL     1       1.452  53.114 -19.796  1.00  0.00     0.168 HD
HETATM    7  C19 UNL     1       1.873  54.418 -21.367  1.00  0.00     0.183 A 
HETATM    8  N3  UNL     1       1.735  54.831 -22.636  1.00  0.00    -0.343 N 
ATOM      9  H3  UNL     1       2.231  55.654 -22.977  1.00  0.00     0.167 HD
HETATM   10  C20 UNL     1       0.923  54.128 -23.446  1.00  0.00     0.093 A 
HETATM   11  C21 UNL     1       0.274  52.987 -22.943  1.00  0.00     0.059 A 
ENDROOT
BRANCH   3  12
HETATM   12  C9  UNL     1      -0.354  50.859 -20.014  1.00  0.00     0.040 A 
HETATM   13  C10 UNL     1      -0.855  49.547 -19.938  1.00  0.00     0.030 A 
HETATM   14  C11 UNL     1      -0.964  48.891 -18.705  1.00  0.00     0.009 A 
HETATM   15  C12 UNL     1      -0.584  49.527 -17.522  1.00  0.00    -0.056 A 
HETATM   16  C16 UNL     1      -0.084  50.831 -17.591  1.00  0.00     0.009 A 
HETATM   17  C17 UNL     1       0.028  51.489 -18.823  1.00  0.00     0.030 A 
BRANCH  15  18
HETATM   18  C13 UNL     1      -0.678  48.817 -16.198  1.00  0.00     0.065 C 
BRANCH  18  19
HETATM   19  C14 UNL     1       0.653  48.816 -15.453  1.00  0.00     0.182 C 
BRANCH  19  20
HETATM   20  O2  UNL     1       1.066  47.472 -15.243  1.00  0.00    -0.318 OA
BRANCH  20  21
HETATM   21  P1  UNL     1       2.153  47.200 -14.089  1.00  0.00     0.249 P 
HETATM   22  O3  UNL     1       1.587  46.555 -12.864  1.00  0.00    -0.653 OA
BRANCH  21  23
HETATM   23  O4  UNL     1       3.225  46.259 -14.816  1.00  0.00    -0.329 OA
HETATM   24  H14 UNL     1       2.959  45.322 -14.864  1.00  0.00     0.220 HD
ENDBRANCH  21  23
BRANCH  21  25
HETATM   25  C15 UNL     1       2.945  48.767 -13.851  1.00  0.00     0.249 C 
BRANCH  25  26
HETATM   26  P2  UNL     1       3.108  49.483 -12.241  1.00  0.00     0.247 P 
HETATM   27  O5  UNL     1       4.256  49.050 -11.393  1.00  0.00    -0.653 OA
BRANCH  26  28
HETATM   28  O6  UNL     1       2.990  51.072 -12.411  1.00  0.00    -0.329 OA
HETATM   29  H17 UNL     1       2.665  51.397 -13.270  1.00  0.00     0.220 HD
ENDBRANCH  26  28
BRANCH  26  30
HETATM   30  O7  UNL     1       1.693  49.190 -11.539  1.00  0.00    -0.329 OA
HETATM   31  H18 UNL     1       1.726  49.437 -10.593  1.00  0.00     0.220 HD
ENDBRANCH  26  30
ENDBRANCH  25  26
ENDBRANCH  21  25
ENDBRANCH  20  21
ENDBRANCH  19  20
ENDBRANCH  18  19
ENDBRANCH  15  18
ENDBRANCH   3  12
BRANCH   1  32
HETATM   32  C6  UNL     1      -1.118  51.823 -24.806  1.00  0.00    -0.021 A 
HETATM   33  C5  UNL     1      -2.493  51.898 -25.038  1.00  0.00     0.012 A 
HETATM   34  C4  UNL     1      -2.986  51.746 -26.333  1.00  0.00     0.004 A 
HETATM   35  C3  UNL     1      -2.110  51.522 -27.399  1.00  0.00     0.037 A 
HETATM   36  C2  UNL     1      -0.734  51.448 -27.174  1.00  0.00     0.069 A 
HETATM   37  C22 UNL     1      -0.244  51.598 -25.874  1.00  0.00     0.049 A 
BRANCH  36  38
HETATM   38  O1  UNL     1       0.228  51.242 -28.124  1.00  0.00    -0.356 OA
HETATM   39  C1  UNL     1       1.482  51.884 -27.922  1.00  0.00     0.210 C 
ENDBRANCH  36  38
ENDBRANCH   1  32
BRANCH  10  40
HETATM   40  N4  UNL     1       0.794  54.588 -24.749  1.00  0.00    -0.288 NA
HETATM   41  H22 UNL     1       0.525  53.894 -25.434  1.00  0.00     0.125 HD
HETATM   42  H23 UNL     1       1.564  55.196 -25.000  1.00  0.00     0.125 HD
ENDBRANCH  10  40
TORSDOF 13
ENDMDL
MODEL 3
REMARK minimizedAffinity -8.09895039
REMARK CNNscore 0.55237639
REMARK CNNaffinity 7.02858734
REMARK  13 active torsions:
REMARK  status: ('A' for Active; 'I' for Inactive)
REMARK    1  A    between atoms: O1_2  and  C2_3 
REMARK    2  A    between atoms: C6_7  and  C7_8 
REMARK    3  A    between atoms: N1_10  and  C9_11 
REMARK    4  A    between atoms: C12_14  and  C13_15 
REMARK    5  A    between atoms: C13_15  and  C14_16 
REMARK    6  A    between atoms: C14_16  and  O2_17 
REMARK    7  A    between atoms: O2_17  and  P1_18 
REMARK    8  A    between atoms: P1_18  and  O4_20 
REMARK    9  A    between atoms: P1_18  and  C15_21 
REMARK   10  A    between atoms: C15_21  and  P2_22 
REMARK   11  A    between atoms: P2_22  and  O6_24 
REMARK   12  A    between atoms: P2_22  and  O7_25 
REMARK   13  A    between atoms: C20_34  and  N4_35 
ROOT
HETATM    1  C7  UNL     1      -0.647  52.072 -23.481  1.00  0.00     0.007 A 
HETATM    2  C8  UNL     1      -0.939  51.189 -22.464  1.00  0.00     0.112 A 
HETATM    3  N1  UNL     1      -0.262  51.567 -21.312  1.00  0.00    -0.307 N 
HETATM    4  C18 UNL     1       0.487  52.704 -21.630  1.00  0.00     0.127 A 
HETATM    5  N2  UNL     1       1.328  53.371 -20.811  1.00  0.00    -0.337 N 
ATOM      6  H2  UNL     1       1.501  53.103 -19.842  1.00  0.00     0.168 HD
HETATM    7  C19 UNL     1       1.911  54.420 -21.405  1.00  0.00     0.183 A 
HETATM    8  N3  UNL     1       1.752  54.853 -22.665  1.00  0.00    -0.343 N 
ATOM      9  H3  UNL     1       2.255  55.672 -23.006  1.00  0.00     0.167 HD
HETATM   10  C20 UNL     1       0.909  54.177 -23.466  1.00  0.00     0.093 A 
HETATM   11  C21 UNL     1       0.251  53.040 -22.964  1.00  0.00     0.059 A 
ENDROOT
BRANCH   3  12
HETATM   12  C9  UNL     1      -0.350  50.884 -20.050  1.00  0.00     0.040 A 
HETATM   13  C10 UNL     1      -0.831  49.564 -19.985  1.00  0.00     0.030 A 
HETATM   14  C11 UNL     1      -0.925  48.892 -18.760  1.00  0.00     0.009 A 
HETATM   15  C12 UNL     1      -0.548  49.521 -17.571  1.00  0.00    -0.056 A 
HETATM   16  C16 UNL     1      -0.067  50.833 -17.629  1.00  0.00     0.009 A 
HETATM   17  C17 UNL     1       0.029  51.506 -18.854  1.00  0.00     0.030 A 
BRANCH  15  18
HETATM   18  C13 UNL     1      -0.624  48.795 -16.255  1.00  0.00     0.065 C 
BRANCH  18  19
HETATM   19  C14 UNL     1       0.689  48.869 -15.483  1.00  0.00     0.182 C 
BRANCH  19  20
HETATM   20  O2  UNL     1       0.996  47.582 -14.964  1.00  0.00    -0.318 OA
BRANCH  20  21
HETATM   21  P1  UNL     1       1.974  47.506 -13.690  1.00  0.00     0.249 P 
HETATM   22  O3  UNL     1       3.397  47.850 -13.998  1.00  0.00    -0.653 OA
BRANCH  21  23
HETATM   23  O4  UNL     1       1.318  48.549 -12.668  1.00  0.00    -0.329 OA
HETATM   24  H14 UNL     1       1.542  49.480 -12.855  1.00  0.00     0.220 HD
ENDBRANCH  21  23
BRANCH  21  25
HETATM   25  C15 UNL     1       1.688  45.895 -13.010  1.00  0.00     0.249 C 
BRANCH  25  26
HETATM   26  P2  UNL     1       3.007  44.732 -12.810  1.00  0.00     0.247 P 
HETATM   27  O5  UNL     1       4.038  45.011 -11.770  1.00  0.00    -0.653 OA
BRANCH  26  28
HETATM   28  O6  UNL     1       2.346  43.277 -12.696  1.00  0.00    -0.329 OA
HETATM   29  H17 UNL     1       1.405  43.203 -12.937  1.00  0.00     0.220 HD
ENDBRANCH  26  28
BRANCH  26  30
HETATM   30  O7  UNL     1       3.647  44.613 -14.279  1.00  0.00    -0.329 OA
HETATM   31  H18 UNL     1       4.470  44.084 -14.249  1.00  0.00     0.220 HD
ENDBRANCH  26  30
ENDBRANCH  25  26
ENDBRANCH  21  25
ENDBRANCH  20  21
ENDBRANCH  19  20
ENDBRANCH  18  19
ENDBRANCH  15  18
ENDBRANCH   3  12
BRANCH   1  32
HETATM   32  C6  UNL     1      -1.203  51.927 -24.809  1.00  0.00    -0.021 A 
HETATM   33  C5  UNL     1      -2.577  52.071 -25.016  1.00  0.00     0.012 A 
HETATM   34  C4  UNL     1      -3.101  51.946 -26.302  1.00  0.00     0.004 A 
HETATM   35  C3  UNL     1      -2.257  51.678 -27.384  1.00  0.00     0.037 A 
HETATM   36  C2  UNL     1      -0.883  51.535 -27.184  1.00  0.00     0.069 A 
HETATM   37  C22 UNL     1      -0.362  51.659 -25.894  1.00  0.00     0.049 A 
BRANCH  36  38
HETATM   38  O1  UNL     1       0.049  51.281 -28.152  1.00  0.00    -0.356 OA
HETATM   39  C1  UNL     1       1.309  51.932 -28.021  1.00  0.00     0.210 C 
ENDBRANCH  36  38
ENDBRANCH   1  32
BRANCH  10  40
HETATM   40  N4  UNL     1       0.760  54.656 -24.759  1.00  0.00    -0.288 NA
HETATM   41  H22 UNL     1       0.463  53.977 -25.447  1.00  0.00     0.125 HD
HETATM   42  H23 UNL     1       1.534  55.254 -25.020  1.00  0.00     0.125 HD
ENDBRANCH  10  40
TORSDOF 13
ENDMDL
MODEL 4
REMARK minimizedAffinity -8.26094818
REMARK CNNscore 0.482230932
REMARK CNNaffinity 7.15962744
REMARK  13 active torsions:
REMARK  status: ('A' for Active; 'I' for Inactive)
REMARK    1  A    between atoms: O1_2  and  C2_3 
REMARK    2  A    between atoms: C6_7  and  C7_8 
REMARK    3  A    between atoms: N1_10  and  C9_11 
REMARK    4  A    between atoms: C12_14  and  C13_15 
REMARK    5  A    between atoms: C13_15  and  C14_16 
REMARK    6  A    between atoms: C14_16  and  O2_17 
REMARK    7  A    between atoms: O2_17  and  P1_18 
REMARK    8  A    between atoms: P1_18  and  O4_20 
REMARK    9  A    between atoms: P1_18  and  C15_21 
REMARK   10  A    between atoms: C15_21  and  P2_22 
REMARK   11  A    between atoms: P2_22  and  O6_24 
REMARK   12  A    between atoms: P2_22  and  O7_25 
REMARK   13  A    between atoms: C20_34  and  N4_35 
ROOT
HETATM    1  C7  UNL     1      -0.825  51.152 -22.509  1.00  0.00     0.007 A 
HETATM    2  C8  UNL     1      -0.751  50.767 -21.187  1.00  0.00     0.112 A 
HETATM    3  N1  UNL     1       0.036  51.669 -20.485  1.00  0.00    -0.307 N 
HETATM    4  C18 UNL     1       0.480  52.628 -21.401  1.00  0.00     0.127 A 
HETATM    5  N2  UNL     1       1.310  53.663 -21.147  1.00  0.00    -0.337 N 
ATOM      6  H2  UNL     1       1.704  53.856 -20.227  1.00  0.00     0.168 HD
HETATM    7  C19 UNL     1       1.560  54.408 -22.232  1.00  0.00     0.183 A 
HETATM    8  N3  UNL     1       1.095  54.238 -23.479  1.00  0.00    -0.343 N 
ATOM      9  H3  UNL     1       1.359  54.877 -24.229  1.00  0.00     0.167 HD
HETATM   10  C20 UNL     1       0.269  53.203 -23.712  1.00  0.00     0.093 A 
HETATM   11  C21 UNL     1      -0.054  52.333 -22.656  1.00  0.00     0.059 A 
ENDROOT
BRANCH   3  12
HETATM   12  C9  UNL     1       0.313  51.590 -19.075  1.00  0.00     0.040 A 
HETATM   13  C10 UNL     1       1.044  52.605 -18.435  1.00  0.00     0.030 A 
HETATM   14  C11 UNL     1       1.322  52.535 -17.064  1.00  0.00     0.009 A 
HETATM   15  C12 UNL     1       0.882  51.450 -16.302  1.00  0.00    -0.056 A 
HETATM   16  C16 UNL     1       0.153  50.438 -16.933  1.00  0.00     0.009 A 
HETATM   17  C17 UNL     1      -0.128  50.508 -18.304  1.00  0.00     0.030 A 
BRANCH  15  18
HETATM   18  C13 UNL     1       1.158  51.382 -14.823  1.00  0.00     0.065 C 
BRANCH  18  19
HETATM   19  C14 UNL     1       0.152  52.196 -14.016  1.00  0.00     0.182 C 
BRANCH  19  20
HETATM   20  O2  UNL     1      -0.511  51.336 -13.098  1.00  0.00    -0.318 OA
BRANCH  20  21
HETATM   21  P1  UNL     1      -0.763  51.889 -11.609  1.00  0.00     0.249 P 
HETATM   22  O3  UNL     1       0.489  52.263 -10.882  1.00  0.00    -0.653 OA
BRANCH  21  23
HETATM   23  O4  UNL     1      -1.713  53.155 -11.849  1.00  0.00    -0.329 OA
HETATM   24  H14 UNL     1      -1.236  53.959 -12.127  1.00  0.00     0.220 HD
ENDBRANCH  21  23
BRANCH  21  25
HETATM   25  C15 UNL     1      -1.771  50.649 -10.843  1.00  0.00     0.249 C 
BRANCH  25  26
HETATM   26  P2  UNL     1      -2.795  51.024  -9.449  1.00  0.00     0.247 P 
HETATM   27  O5  UNL     1      -2.748  50.105  -8.276  1.00  0.00    -0.653 OA
BRANCH  26  28
HETATM   28  O6  UNL     1      -2.550  52.564  -9.079  1.00  0.00    -0.329 OA
HETATM   29  H17 UNL     1      -2.072  53.102  -9.735  1.00  0.00     0.220 HD
ENDBRANCH  26  28
BRANCH  26  30
HETATM   30  O7  UNL     1      -4.272  51.137 -10.071  1.00  0.00    -0.329 OA
HETATM   31  H18 UNL     1      -4.935  51.218  -9.356  1.00  0.00     0.220 HD
ENDBRANCH  26  30
ENDBRANCH  25  26
ENDBRANCH  21  25
ENDBRANCH  20  21
ENDBRANCH  19  20
ENDBRANCH  18  19
ENDBRANCH  15  18
ENDBRANCH   3  12
BRANCH   1  32
HETATM   32  C6  UNL     1      -1.574  50.395 -23.489  1.00  0.00    -0.021 A 
HETATM   33  C5  UNL     1      -2.416  49.358 -23.085  1.00  0.00     0.012 A 
HETATM   34  C4  UNL     1      -3.145  48.646 -24.036  1.00  0.00     0.004 A 
HETATM   35  C3  UNL     1      -3.037  48.968 -25.392  1.00  0.00     0.037 A 
HETATM   36  C2  UNL     1      -2.199  50.005 -25.804  1.00  0.00     0.069 A 
HETATM   37  C22 UNL     1      -1.468  50.714 -24.847  1.00  0.00     0.049 A 
BRANCH  36  38
HETATM   38  O1  UNL     1      -2.008  50.424 -27.091  1.00  0.00    -0.356 OA
HETATM   39  C1  UNL     1      -2.571  51.682 -27.450  1.00  0.00     0.210 C 
ENDBRANCH  36  38
ENDBRANCH   1  32
BRANCH  10  40
HETATM   40  N4  UNL     1      -0.202  53.062 -25.009  1.00  0.00    -0.288 NA
HETATM   41  H22 UNL     1      -0.481  52.127 -25.275  1.00  0.00     0.125 HD
HETATM   42  H23 UNL     1       0.381  53.564 -25.667  1.00  0.00     0.125 HD
ENDBRANCH  10  40
TORSDOF 13
ENDMDL
MODEL 5
REMARK minimizedAffinity -8.46271801
REMARK CNNscore 0.406706005
REMARK CNNaffinity 7.07958364
REMARK  13 active torsions:
REMARK  status: ('A' for Active; 'I' for Inactive)
REMARK    1  A    between atoms: O1_2  and  C2_3 
REMARK    2  A    between atoms: C6_7  and  C7_8 
REMARK    3  A    between atoms: N1_10  and  C9_11 
REMARK    4  A    between atoms: C12_14  and  C13_15 
REMARK    5  A    between atoms: C13_15  and  C14_16 
REMARK    6  A    between atoms: C14_16  and  O2_17 
REMARK    7  A    between atoms: O2_17  and  P1_18 
REMARK    8  A    between atoms: P1_18  and  O4_20 
REMARK    9  A    between atoms: P1_18  and  C15_21 
REMARK   10  A    between atoms: C15_21  and  P2_22 
REMARK   11  A    between atoms: P2_22  and  O6_24 
REMARK   12  A    between atoms: P2_22  and  O7_25 
REMARK   13  A    between atoms: C20_34  and  N4_35 
ROOT
HETATM    1  C7  UNL     1      -0.675  51.899 -23.487  1.00  0.00     0.007 A 
HETATM    2  C8  UNL     1      -1.307  51.046 -22.608  1.00  0.00     0.112 A 
HETATM    3  N1  UNL     1      -0.970  51.387 -21.306  1.00  0.00    -0.307 N 
HETATM    4  C18 UNL     1      -0.087  52.470 -21.379  1.00  0.00     0.127 A 
HETATM    5  N2  UNL     1       0.521  53.085 -20.344  1.00  0.00    -0.337 N 
ATOM      6  H2  UNL     1       0.388  52.814 -19.370  1.00  0.00     0.168 HD
HETATM    7  C19 UNL     1       1.319  54.090 -20.731  1.00  0.00     0.183 A 
HETATM    8  N3  UNL     1       1.561  54.522 -21.978  1.00  0.00    -0.343 N 
ATOM      9  H3  UNL     1       2.194  55.304 -22.149  1.00  0.00     0.167 HD
HETATM   10  C20 UNL     1       0.945  53.897 -22.996  1.00  0.00     0.093 A 
HETATM   11  C21 UNL     1       0.096  52.810 -22.720  1.00  0.00     0.059 A 
ENDROOT
BRANCH   3  12
HETATM   12  C9  UNL     1      -1.465  50.721 -20.131  1.00  0.00     0.040 A 
HETATM   13  C10 UNL     1      -2.658  51.146 -19.521  1.00  0.00     0.030 A 
HETATM   14  C11 UNL     1      -3.146  50.507 -18.374  1.00  0.00     0.009 A 
HETATM   15  C12 UNL     1      -2.454  49.435 -17.806  1.00  0.00    -0.056 A 
HETATM   16  C16 UNL     1      -1.268  49.006 -18.409  1.00  0.00     0.009 A 
HETATM   17  C17 UNL     1      -0.779  49.643 -19.558  1.00  0.00     0.030 A 
BRANCH  15  18
HETATM   18  C13 UNL     1      -2.987  48.729 -16.587  1.00  0.00     0.065 C 
BRANCH  18  19
HETATM   19  C14 UNL     1      -2.165  49.038 -15.341  1.00  0.00     0.182 C 
BRANCH  19  20
HETATM   20  O2  UNL     1      -2.834  50.034 -14.578  1.00  0.00    -0.318 OA
BRANCH  20  21
HETATM   21  P1  UNL     1      -2.347  50.262 -13.063  1.00  0.00     0.249 P 
HETATM   22  O3  UNL     1      -3.170  49.533 -12.047  1.00  0.00    -0.653 OA
BRANCH  21  23
HETATM   23  O4  UNL     1      -0.834  49.742 -13.086  1.00  0.00    -0.329 OA
HETATM   24  H14 UNL     1      -0.748  48.772 -13.026  1.00  0.00     0.220 HD
ENDBRANCH  21  23
BRANCH  21  25
HETATM   25  C15 UNL     1      -2.267  52.022 -12.885  1.00  0.00     0.249 C 
BRANCH  25  26
HETATM   26  P2  UNL     1      -3.504  52.916 -11.988  1.00  0.00     0.247 P 
HETATM   27  O5  UNL     1      -4.452  52.141 -11.137  1.00  0.00    -0.653 OA
BRANCH  26  28
HETATM   28  O6  UNL     1      -2.765  54.110 -11.216  1.00  0.00    -0.329 OA
HETATM   29  H17 UNL     1      -1.847  54.299 -11.480  1.00  0.00     0.220 HD
ENDBRANCH  26  28
BRANCH  26  30
HETATM   30  O7  UNL     1      -4.265  53.768 -13.118  1.00  0.00    -0.329 OA
HETATM   31  H18 UNL     1      -5.055  54.204 -12.739  1.00  0.00     0.220 HD
ENDBRANCH  26  30
ENDBRANCH  25  26
ENDBRANCH  21  25
ENDBRANCH  20  21
ENDBRANCH  19  20
ENDBRANCH  18  19
ENDBRANCH  15  18
ENDBRANCH   3  12
BRANCH   1  32
HETATM   32  C6  UNL     1      -0.830  51.782 -24.921  1.00  0.00    -0.021 A 
HETATM   33  C5  UNL     1      -2.081  51.973 -25.511  1.00  0.00     0.012 A 
HETATM   34  C4  UNL     1      -2.217  51.873 -26.895  1.00  0.00     0.004 A 
HETATM   35  C3  UNL     1      -1.107  51.584 -27.693  1.00  0.00     0.037 A 
HETATM   36  C2  UNL     1       0.147  51.393 -27.110  1.00  0.00     0.069 A 
HETATM   37  C22 UNL     1       0.279  51.491 -25.722  1.00  0.00     0.049 A 
BRANCH  36  38
HETATM   38  O1  UNL     1       1.310  51.113 -27.773  1.00  0.00    -0.356 OA
HETATM   39  C1  UNL     1       2.501  51.705 -27.265  1.00  0.00     0.210 C 
ENDBRANCH  36  38
ENDBRANCH   1  32
BRANCH  10  40
HETATM   40  N4  UNL     1       1.208  54.375 -24.272  1.00  0.00    -0.288 NA
HETATM   41  H22 UNL     1       1.080  53.711 -25.023  1.00  0.00     0.125 HD
HETATM   42  H23 UNL     1       2.063  54.918 -24.289  1.00  0.00     0.125 HD
ENDBRANCH  10  40
TORSDOF 13
ENDMDL
MODEL 6
REMARK minimizedAffinity -7.91953802
REMARK CNNscore 0.355174124
REMARK CNNaffinity 6.5188961
REMARK  13 active torsions:
REMARK  status: ('A' for Active; 'I' for Inactive)
REMARK    1  A    between atoms: O1_2  and  C2_3 
REMARK    2  A    between atoms: C6_7  and  C7_8 
REMARK    3  A    between atoms: N1_10  and  C9_11 
REMARK    4  A    between atoms: C12_14  and  C13_15 
REMARK    5  A    between atoms: C13_15  and  C14_16 
REMARK    6  A    between atoms: C14_16  and  O2_17 
REMARK    7  A    between atoms: O2_17  and  P1_18 
REMARK    8  A    between atoms: P1_18  and  O4_20 
REMARK    9  A    between atoms: P1_18  and  C15_21 
REMARK   10  A    between atoms: C15_21  and  P2_22 
REMARK   11  A    between atoms: P2_22  and  O6_24 
REMARK   12  A    between atoms: P2_22  and  O7_25 
REMARK   13  A    between atoms: C20_34  and  N4_35 
ROOT
HETATM    1  C7  UNL     1      -0.851  50.969 -20.291  1.00  0.00     0.007 A 
HETATM    2  C8  UNL     1      -2.006  50.233 -20.446  1.00  0.00     0.112 A 
HETATM    3  N1  UNL     1      -2.397  50.255 -21.777  1.00  0.00    -0.307 N 
HETATM    4  C18 UNL     1      -1.469  51.045 -22.465  1.00  0.00     0.127 A 
HETATM    5  N2  UNL     1      -1.500  51.368 -23.775  1.00  0.00    -0.337 N 
ATOM      6  H2  UNL     1      -2.226  51.051 -24.417  1.00  0.00     0.168 HD
HETATM    7  C19 UNL     1      -0.476  52.149 -24.143  1.00  0.00     0.183 A 
HETATM    8  N3  UNL     1       0.524  52.618 -23.381  1.00  0.00    -0.343 N 
ATOM      9  H3  UNL     1       1.254  53.210 -23.778  1.00  0.00     0.167 HD
HETATM   10  C20 UNL     1       0.538  52.285 -22.078  1.00  0.00     0.093 A 
HETATM   11  C21 UNL     1      -0.498  51.484 -21.565  1.00  0.00     0.059 A 
ENDROOT
BRANCH   3  12
HETATM   12  C9  UNL     1      -3.548  49.573 -22.304  1.00  0.00     0.040 A 
HETATM   13  C10 UNL     1      -3.602  49.209 -23.661  1.00  0.00     0.030 A 
HETATM   14  C11 UNL     1      -4.721  48.548 -24.184  1.00  0.00     0.009 A 
HETATM   15  C12 UNL     1      -5.813  48.242 -23.369  1.00  0.00    -0.056 A 
HETATM   16  C16 UNL     1      -5.765  48.600 -22.019  1.00  0.00     0.009 A 
HETATM   17  C17 UNL     1      -4.646  49.259 -21.493  1.00  0.00     0.030 A 
BRANCH  15  18
HETATM   18  C13 UNL     1      -7.008  47.511 -23.922  1.00  0.00     0.065 C 
BRANCH  18  19
HETATM   19  C14 UNL     1      -7.980  48.452 -24.625  1.00  0.00     0.182 C 
BRANCH  19  20
HETATM   20  O2  UNL     1      -8.989  47.683 -25.267  1.00  0.00    -0.318 OA
BRANCH  20  21
HETATM   21  P1  UNL     1     -10.010  48.458 -26.238  1.00  0.00     0.249 P 
HETATM   22  O3  UNL     1     -11.451  48.194 -25.936  1.00  0.00    -0.653 OA
BRANCH  21  23
HETATM   23  O4  UNL     1      -9.627  49.996 -26.014  1.00  0.00    -0.329 OA
HETATM   24  H14 UNL     1     -10.012  50.385 -25.207  1.00  0.00     0.220 HD
ENDBRANCH  21  23
BRANCH  21  25
HETATM   25  C15 UNL     1      -9.465  48.042 -27.872  1.00  0.00     0.249 C 
BRANCH  25  26
HETATM   26  P2  UNL     1      -8.911  46.409 -28.271  1.00  0.00     0.247 P 
HETATM   27  O5  UNL     1      -9.887  45.287 -28.152  1.00  0.00    -0.653 OA
BRANCH  26  28
HETATM   28  O6  UNL     1      -8.183  46.487 -29.697  1.00  0.00    -0.329 OA
HETATM   29  H17 UNL     1      -7.975  47.377 -30.033  1.00  0.00     0.220 HD
ENDBRANCH  26  28
BRANCH  26  30
HETATM   30  O7  UNL     1      -7.625  46.194 -27.333  1.00  0.00    -0.329 OA
HETATM   31  H18 UNL     1      -7.317  45.266 -27.387  1.00  0.00     0.220 HD
ENDBRANCH  26  30
ENDBRANCH  25  26
ENDBRANCH  21  25
ENDBRANCH  20  21
ENDBRANCH  19  20
ENDBRANCH  18  19
ENDBRANCH  15  18
ENDBRANCH   3  12
BRANCH   1  32
HETATM   32  C6  UNL     1      -0.209  51.134 -19.005  1.00  0.00    -0.021 A 
HETATM   33  C5  UNL     1       0.430  52.334 -18.686  1.00  0.00     0.012 A 
HETATM   34  C4  UNL     1       1.032  52.488 -17.438  1.00  0.00     0.004 A 
HETATM   35  C3  UNL     1       0.996  51.448 -16.505  1.00  0.00     0.037 A 
HETATM   36  C2  UNL     1       0.356  50.247 -16.816  1.00  0.00     0.069 A 
HETATM   37  C22 UNL     1      -0.243  50.095 -18.069  1.00  0.00     0.049 A 
BRANCH  36  38
HETATM   38  O1  UNL     1       0.243  49.158 -15.996  1.00  0.00    -0.356 OA
HETATM   39  C1  UNL     1      -0.996  48.457 -16.023  1.00  0.00     0.210 C 
ENDBRANCH  36  38
ENDBRANCH   1  32
BRANCH  10  40
HETATM   40  N4  UNL     1       1.591  52.778 -21.320  1.00  0.00    -0.288 NA
HETATM   41  H22 UNL     1       1.413  52.865 -20.329  1.00  0.00     0.125 HD
HETATM   42  H23 UNL     1       2.028  53.571 -21.773  1.00  0.00     0.125 HD
ENDBRANCH  10  40
TORSDOF 13
ENDMDL
MODEL 7
REMARK minimizedAffinity -7.95588589
REMARK CNNscore 0.332395077
REMARK CNNaffinity 6.68740845
REMARK  13 active torsions:
REMARK  status: ('A' for Active; 'I' for Inactive)
REMARK    1  A    between atoms: O1_2  and  C2_3 
REMARK    2  A    between atoms: C6_7  and  C7_8 
REMARK    3  A    between atoms: N1_10  and  C9_11 
REMARK    4  A    between atoms: C12_14  and  C13_15 
REMARK    5  A    between atoms: C13_15  and  C14_16 
REMARK    6  A    between atoms: C14_16  and  O2_17 
REMARK    7  A    between atoms: O2_17  and  P1_18 
REMARK    8  A    between atoms: P1_18  and  O4_20 
REMARK    9  A    between atoms: P1_18  and  C15_21 
REMARK   10  A    between atoms: C15_21  and  P2_22 
REMARK   11  A    between atoms: P2_22  and  O6_24 
REMARK   12  A    between atoms: P2_22  and  O7_25 
REMARK   13  A    between atoms: C20_34  and  N4_35 
ROOT
HETATM    1  C7  UNL     1      -0.106  51.972 -23.870  1.00  0.00     0.007 A 
HETATM    2  C8  UNL     1      -0.826  50.918 -23.352  1.00  0.00     0.112 A 
HETATM    3  N1  UNL     1      -0.834  50.997 -21.966  1.00  0.00    -0.307 N 
HETATM    4  C18 UNL     1      -0.079  52.121 -21.614  1.00  0.00     0.127 A 
HETATM    5  N2  UNL     1       0.207  52.540 -20.363  1.00  0.00    -0.337 N 
ATOM      6  H2  UNL     1      -0.115  52.063 -19.522  1.00  0.00     0.168 HD
HETATM    7  C19 UNL     1       0.959  53.649 -20.345  1.00  0.00     0.183 A 
HETATM    8  N3  UNL     1       1.432  54.347 -21.390  1.00  0.00    -0.343 N 
ATOM      9  H3  UNL     1       2.000  55.182 -21.249  1.00  0.00     0.167 HD
HETATM   10  C20 UNL     1       1.135  53.914 -22.628  1.00  0.00     0.093 A 
HETATM   11  C21 UNL     1       0.367  52.746 -22.779  1.00  0.00     0.059 A 
ENDROOT
BRANCH   3  12
HETATM   12  C9  UNL     1      -1.510  50.071 -21.097  1.00  0.00     0.040 A 
HETATM   13  C10 UNL     1      -2.879  50.226 -20.817  1.00  0.00     0.030 A 
HETATM   14  C11 UNL     1      -3.545  49.333 -19.969  1.00  0.00     0.009 A 
HETATM   15  C12 UNL     1      -2.861  48.269 -19.375  1.00  0.00    -0.056 A 
HETATM   16  C16 UNL     1      -1.500  48.109 -19.651  1.00  0.00     0.009 A 
HETATM   17  C17 UNL     1      -0.832  49.001 -20.501  1.00  0.00     0.030 A 
BRANCH  15  18
HETATM   18  C13 UNL     1      -3.578  47.293 -18.481  1.00  0.00     0.065 C 
BRANCH  18  19
HETATM   19  C14 UNL     1      -4.773  47.929 -17.780  1.00  0.00     0.182 C 
BRANCH  19  20
HETATM   20  O2  UNL     1      -5.563  46.906 -17.189  1.00  0.00    -0.318 OA
BRANCH  20  21
HETATM   21  P1  UNL     1      -7.099  46.791 -17.652  1.00  0.00     0.249 P 
HETATM   22  O3  UNL     1      -7.769  45.525 -17.219  1.00  0.00    -0.653 OA
BRANCH  21  23
HETATM   23  O4  UNL     1      -7.776  48.080 -16.985  1.00  0.00    -0.329 OA
HETATM   24  H14 UNL     1      -7.994  47.968 -16.041  1.00  0.00     0.220 HD
ENDBRANCH  21  23
BRANCH  21  25
HETATM   25  C15 UNL     1      -7.058  47.096 -19.396  1.00  0.00     0.249 C 
BRANCH  25  26
HETATM   26  P2  UNL     1      -7.804  48.539 -20.099  1.00  0.00     0.247 P 
HETATM   27  O5  UNL     1      -7.120  49.849 -19.904  1.00  0.00    -0.653 OA
BRANCH  26  28
HETATM   28  O6  UNL     1      -8.144  48.204 -21.628  1.00  0.00    -0.329 OA
HETATM   29  H17 UNL     1      -8.091  47.269 -21.894  1.00  0.00     0.220 HD
ENDBRANCH  26  28
BRANCH  26  30
HETATM   30  O7  UNL     1      -9.294  48.539 -19.496  1.00  0.00    -0.329 OA
HETATM   31  H18 UNL     1      -9.752  49.373 -19.725  1.00  0.00     0.220 HD
ENDBRANCH  26  30
ENDBRANCH  25  26
ENDBRANCH  21  25
ENDBRANCH  20  21
ENDBRANCH  19  20
ENDBRANCH  18  19
ENDBRANCH  15  18
ENDBRANCH   3  12
BRANCH   1  32
HETATM   32  C6  UNL     1       0.083  52.150 -25.294  1.00  0.00    -0.021 A 
HETATM   33  C5  UNL     1       0.601  51.111 -26.069  1.00  0.00     0.012 A 
HETATM   34  C4  UNL     1       0.765  51.286 -27.443  1.00  0.00     0.004 A 
HETATM   35  C3  UNL     1       0.411  52.496 -28.046  1.00  0.00     0.037 A 
HETATM   36  C2  UNL     1      -0.110  53.539 -27.277  1.00  0.00     0.069 A 
HETATM   37  C22 UNL     1      -0.270  53.360 -25.900  1.00  0.00     0.049 A 
BRANCH  36  38
HETATM   38  O1  UNL     1      -0.501  54.764 -27.740  1.00  0.00    -0.356 OA
HETATM   39  C1  UNL     1      -0.038  55.903 -27.022  1.00  0.00     0.210 C 
ENDBRANCH  36  38
ENDBRANCH   1  32
BRANCH  10  40
HETATM   40  N4  UNL     1       1.630  54.664 -23.685  1.00  0.00    -0.288 NA
HETATM   41  H22 UNL     1       1.748  54.167 -24.557  1.00  0.00     0.125 HD
HETATM   42  H23 UNL     1       2.402  55.248 -23.389  1.00  0.00     0.125 HD
ENDBRANCH  10  40
TORSDOF 13
ENDMDL
MODEL 8
REMARK minimizedAffinity -10.0648546
REMARK CNNscore 0.318709761
REMARK CNNaffinity 6.54990578
REMARK  13 active torsions:
REMARK  status: ('A' for Active; 'I' for Inactive)
REMARK    1  A    between atoms: O1_2  and  C2_3 
REMARK    2  A    between atoms: C6_7  and  C7_8 
REMARK    3  A    between atoms: N1_10  and  C9_11 
REMARK    4  A    between atoms: C12_14  and  C13_15 
REMARK    5  A    between atoms: C13_15  and  C14_16 
REMARK    6  A    between atoms: C14_16  and  O2_17 
REMARK    7  A    between atoms: O2_17  and  P1_18 
REMARK    8  A    between atoms: P1_18  and  O4_20 
REMARK    9  A    between atoms: P1_18  and  C15_21 
REMARK   10  A    between atoms: C15_21  and  P2_22 
REMARK   11  A    between atoms: P2_22  and  O6_24 
REMARK   12  A    between atoms: P2_22  and  O7_25 
REMARK   13  A    between atoms: C20_34  and  N4_35 
ROOT
HETATM    1  C7  UNL     1      -0.484  52.396 -23.603  1.00  0.00     0.007 A 
HETATM    2  C8  UNL     1      -1.312  51.354 -23.960  1.00  0.00     0.112 A 
HETATM    3  N1  UNL     1      -1.639  51.459 -25.304  1.00  0.00    -0.307 N 
HETATM    4  C18 UNL     1      -1.012  52.612 -25.791  1.00  0.00     0.127 A 
HETATM    5  N2  UNL     1      -1.103  53.112 -27.041  1.00  0.00    -0.337 N 
ATOM      6  H2  UNL     1      -1.655  52.680 -27.782  1.00  0.00     0.168 HD
HETATM    7  C19 UNL     1      -0.393  54.236 -27.205  1.00  0.00     0.183 A 
HETATM    8  N3  UNL     1       0.359  54.880 -26.300  1.00  0.00    -0.343 N 
ATOM      9  H3  UNL     1       0.857  55.736 -26.545  1.00  0.00     0.167 HD
HETATM   10  C20 UNL     1       0.438  54.366 -25.060  1.00  0.00     0.093 A 
HETATM   11  C21 UNL     1      -0.281  53.196 -24.756  1.00  0.00     0.059 A 
ENDROOT
BRANCH   3  12
HETATM   12  C9  UNL     1      -2.470  50.529 -26.021  1.00  0.00     0.040 A 
HETATM   13  C10 UNL     1      -2.773  50.742 -27.376  1.00  0.00     0.030 A 
HETATM   14  C11 UNL     1      -3.585  49.844 -28.081  1.00  0.00     0.009 A 
HETATM   15  C12 UNL     1      -4.118  48.718 -27.450  1.00  0.00    -0.056 A 
HETATM   16  C16 UNL     1      -3.818  48.499 -26.102  1.00  0.00     0.009 A 
HETATM   17  C17 UNL     1      -3.005  49.396 -25.396  1.00  0.00     0.030 A 
BRANCH  15  18
HETATM   18  C13 UNL     1      -4.971  47.737 -28.209  1.00  0.00     0.065 C 
BRANCH  18  19
HETATM   19  C14 UNL     1      -6.450  48.105 -28.156  1.00  0.00     0.182 C 
BRANCH  19  20
HETATM   20  O2  UNL     1      -7.107  47.254 -27.226  1.00  0.00    -0.318 OA
BRANCH  20  21
HETATM   21  P1  UNL     1      -8.445  46.509 -27.715  1.00  0.00     0.249 P 
HETATM   22  O3  UNL     1      -8.267  45.699 -28.960  1.00  0.00    -0.653 OA
BRANCH  21  23
HETATM   23  O4  UNL     1      -8.829  45.593 -26.459  1.00  0.00    -0.329 OA
HETATM   24  H14 UNL     1      -8.320  44.763 -26.406  1.00  0.00     0.220 HD
ENDBRANCH  21  23
BRANCH  21  25
HETATM   25  C15 UNL     1      -9.664  47.793 -27.786  1.00  0.00     0.249 C 
BRANCH  25  26
HETATM   26  P2  UNL     1     -10.286  48.557 -26.316  1.00  0.00     0.247 P 
HETATM   27  O5  UNL     1     -10.276  47.763 -25.054  1.00  0.00    -0.653 OA
BRANCH  26  28
HETATM   28  O6  UNL     1      -9.579  49.989 -26.187  1.00  0.00    -0.329 OA
HETATM   29  H17 UNL     1      -9.099  50.313 -26.971  1.00  0.00     0.220 HD
ENDBRANCH  26  28
BRANCH  26  30
HETATM   30  O7  UNL     1     -11.766  49.033 -26.720  1.00  0.00    -0.329 OA
HETATM   31  H18 UNL     1     -12.245  49.358 -25.931  1.00  0.00     0.220 HD
ENDBRANCH  26  30
ENDBRANCH  25  26
ENDBRANCH  21  25
ENDBRANCH  20  21
ENDBRANCH  19  20
ENDBRANCH  18  19
ENDBRANCH  15  18
ENDBRANCH   3  12
BRANCH   1  32
HETATM   32  C6  UNL     1       0.017  52.555 -22.254  1.00  0.00    -0.021 A 
HETATM   33  C5  UNL     1       0.990  53.516 -21.974  1.00  0.00     0.012 A 
HETATM   34  C4  UNL     1       1.454  53.671 -20.668  1.00  0.00     0.004 A 
HETATM   35  C3  UNL     1       0.948  52.871 -19.641  1.00  0.00     0.037 A 
HETATM   36  C2  UNL     1      -0.026  51.909 -19.914  1.00  0.00     0.069 A 
HETATM   37  C22 UNL     1      -0.487  51.754 -21.224  1.00  0.00     0.049 A 
BRANCH  36  38
HETATM   38  O1  UNL     1      -0.607  51.069 -19.004  1.00  0.00    -0.356 OA
HETATM   39  C1  UNL     1      -0.241  51.245 -17.639  1.00  0.00     0.210 C 
ENDBRANCH  36  38
ENDBRANCH   1  32
BRANCH  10  40
HETATM   40  N4  UNL     1       1.232  55.050 -24.151  1.00  0.00    -0.288 NA
HETATM   41  H22 UNL     1       1.000  54.914 -23.177  1.00  0.00     0.125 HD
HETATM   42  H23 UNL     1       1.389  56.005 -24.449  1.00  0.00     0.125 HD
ENDBRANCH  10  40
TORSDOF 13
ENDMDL
MODEL 9
REMARK minimizedAffinity -8.16254044
REMARK CNNscore 0.316663295
REMARK CNNaffinity 6.70966291
REMARK  13 active torsions:
REMARK  status: ('A' for Active; 'I' for Inactive)
REMARK    1  A    between atoms: O1_2  and  C2_3 
REMARK    2  A    between atoms: C6_7  and  C7_8 
REMARK    3  A    between atoms: N1_10  and  C9_11 
REMARK    4  A    between atoms: C12_14  and  C13_15 
REMARK    5  A    between atoms: C13_15  and  C14_16 
REMARK    6  A    between atoms: C14_16  and  O2_17 
REMARK    7  A    between atoms: O2_17  and  P1_18 
REMARK    8  A    between atoms: P1_18  and  O4_20 
REMARK    9  A    between atoms: P1_18  and  C15_21 
REMARK   10  A    between atoms: C15_21  and  P2_22 
REMARK   11  A    between atoms: P2_22  and  O6_24 
REMARK   12  A    between atoms: P2_22  and  O7_25 
REMARK   13  A    between atoms: C20_34  and  N4_35 
ROOT
HETATM    1  C7  UNL     1      -0.654  51.951 -23.742  1.00  0.00     0.007 A 
HETATM    2  C8  UNL     1      -0.932  51.087 -22.705  1.00  0.00     0.112 A 
HETATM    3  N1  UNL     1      -0.292  51.523 -21.553  1.00  0.00    -0.307 N 
HETATM    4  C18 UNL     1       0.420  52.679 -21.890  1.00  0.00     0.127 A 
HETATM    5  N2  UNL     1       1.220  53.400 -21.076  1.00  0.00    -0.337 N 
ATOM      6  H2  UNL     1       1.384  53.167 -20.097  1.00  0.00     0.168 HD
HETATM    7  C19 UNL     1       1.774  54.454 -21.690  1.00  0.00     0.183 A 
HETATM    8  N3  UNL     1       1.623  54.844 -22.965  1.00  0.00    -0.343 N 
ATOM      9  H3  UNL     1       2.102  55.671 -23.321  1.00  0.00     0.167 HD
HETATM   10  C20 UNL     1       0.822  54.113 -23.760  1.00  0.00     0.093 A 
HETATM   11  C21 UNL     1       0.197  52.967 -23.237  1.00  0.00     0.059 A 
ENDROOT
BRANCH   3  12
HETATM   12  C9  UNL     1      -0.379  50.874 -20.272  1.00  0.00     0.040 A 
HETATM   13  C10 UNL     1      -0.050  51.571 -19.096  1.00  0.00     0.030 A 
HETATM   14  C11 UNL     1      -0.127  50.946 -17.845  1.00  0.00     0.009 A 
HETATM   15  C12 UNL     1      -0.528  49.612 -17.738  1.00  0.00    -0.056 A 
HETATM   16  C16 UNL     1      -0.859  48.915 -18.903  1.00  0.00     0.009 A 
HETATM   17  C17 UNL     1      -0.784  49.539 -20.156  1.00  0.00     0.030 A 
BRANCH  15  18
HETATM   18  C13 UNL     1      -0.636  48.944 -16.393  1.00  0.00     0.065 C 
BRANCH  18  19
HETATM   19  C14 UNL     1       0.497  49.352 -15.458  1.00  0.00     0.182 C 
BRANCH  19  20
HETATM   20  O2  UNL     1       0.093  50.491 -14.709  1.00  0.00    -0.318 OA
BRANCH  20  21
HETATM   21  P1  UNL     1       1.247  51.386 -14.035  1.00  0.00     0.249 P 
HETATM   22  O3  UNL     1       2.548  51.352 -14.773  1.00  0.00    -0.653 OA
BRANCH  21  23
HETATM   23  O4  UNL     1       0.607  52.853 -14.024  1.00  0.00    -0.329 OA
HETATM   24  H14 UNL     1       0.670  53.318 -14.880  1.00  0.00     0.220 HD
ENDBRANCH  21  23
BRANCH  21  25
HETATM   25  C15 UNL     1       1.292  50.849 -12.348  1.00  0.00     0.249 C 
BRANCH  25  26
HETATM   26  P2  UNL     1      -0.185  50.717 -11.382  1.00  0.00     0.247 P 
HETATM   27  O5  UNL     1      -0.122  51.107  -9.945  1.00  0.00    -0.653 OA
BRANCH  26  28
HETATM   28  O6  UNL     1      -1.357  51.443 -12.201  1.00  0.00    -0.329 OA
HETATM   29  H17 UNL     1      -1.170  51.661 -13.132  1.00  0.00     0.220 HD
ENDBRANCH  26  28
BRANCH  26  30
HETATM   30  O7  UNL     1      -0.641  49.189 -11.575  1.00  0.00    -0.329 OA
HETATM   31  H18 UNL     1      -1.385  48.979 -10.975  1.00  0.00     0.220 HD
ENDBRANCH  26  30
ENDBRANCH  25  26
ENDBRANCH  21  25
ENDBRANCH  20  21
ENDBRANCH  19  20
ENDBRANCH  18  19
ENDBRANCH  15  18
ENDBRANCH   3  12
BRANCH   1  32
HETATM   32  C6  UNL     1      -1.179  51.747 -25.075  1.00  0.00    -0.021 A 
HETATM   33  C5  UNL     1      -2.556  51.645 -25.281  1.00  0.00     0.012 A 
HETATM   34  C4  UNL     1      -3.053  51.465 -26.571  1.00  0.00     0.004 A 
HETATM   35  C3  UNL     1      -2.178  51.388 -27.658  1.00  0.00     0.037 A 
HETATM   36  C2  UNL     1      -0.800  51.491 -27.460  1.00  0.00     0.069 A 
HETATM   37  C22 UNL     1      -0.306  51.669 -26.165  1.00  0.00     0.049 A 
BRANCH  36  38
HETATM   38  O1  UNL     1       0.160  51.440 -28.433  1.00  0.00    -0.356 OA
HETATM   39  C1  UNL     1       1.483  51.805 -28.054  1.00  0.00     0.210 C 
ENDBRANCH  36  38
ENDBRANCH   1  32
BRANCH  10  40
HETATM   40  N4  UNL     1       0.680  54.549 -25.070  1.00  0.00    -0.288 NA
HETATM   41  H22 UNL     1       0.422  53.839 -25.742  1.00  0.00     0.125 HD
HETATM   42  H23 UNL     1       1.436  55.168 -25.334  1.00  0.00     0.125 HD
ENDBRANCH  10  40
TORSDOF 13
ENDMDL
