MODEL 1
REMARK minimizedAffinity -10.9626207
REMARK  8 active torsions:
REMARK  status: ('A' for Active; 'I' for Inactive)
REMARK    1  A    between atoms: C6_9  and  C7_10 
REMARK    2  A    between atoms: C9_12  and  N3_13 
REMARK    3  A    between atoms: N3_13  and  C10_14 
REMARK    4  A    between atoms: C10_14  and  C11_15 
REMARK    5  A    between atoms: C10_14  and  C12_17 
REMARK    6  A    between atoms: C11_15  and  O1_16 
REMARK    7  A    between atoms: C19_26  and  C20_27 
REMARK    8  A    between atoms: C25_33  and  O2_34 
ROOT
HETATM    1  C7  UNL     1      -2.753   5.990  12.740  1.00  0.00     0.004 A 
HETATM    2  C8  UNL     1      -1.468   6.320  12.258  1.00  0.00     0.045 A 
HETATM    3  C9  UNL     1      -0.795   7.483  12.645  1.00  0.00     0.045 A 
HETATM    4  C18 UNL     1      -1.449   8.249  13.600  1.00  0.00     0.117 A 
HETATM    5  N4  UNL     1      -2.683   7.991  14.103  1.00  0.00    -0.362 N 
ATOM      6  H4  UNL     1      -3.104   8.604  14.802  1.00  0.00     0.165 HD
HETATM    7  C19 UNL     1      -3.344   6.887  13.646  1.00  0.00     0.056 A 
ENDROOT
BRANCH   1   8
HETATM    8  C6  UNL     1      -3.362   4.719  12.314  1.00  0.00    -0.023 A 
HETATM    9  C5  UNL     1      -2.600   3.752  11.634  1.00  0.00     0.014 A 
HETATM   10  C4  UNL     1      -3.148   2.531  11.219  1.00  0.00     0.033 A 
HETATM   11  C3  UNL     1      -4.497   2.313  11.502  1.00  0.00     0.060 A 
HETATM   12  N2  UNL     1      -5.321   1.251  11.242  1.00  0.00    -0.300 N 
HETATM   13  C27 UNL     1      -5.293   3.239  12.159  1.00  0.00     0.016 A 
HETATM   14  N1  UNL     1      -6.582   1.413  11.677  1.00  0.00    -0.304 N 
HETATM   15  H4  UNL     1      -5.083   0.386  10.771  1.00  0.00     0.187 HD
HETATM   16  C2  UNL     1      -6.574   2.628  12.239  1.00  0.00     0.034 A 
ATOM     17  H1  UNL     1      -7.362   0.762  11.597  1.00  0.00     0.186 HD
HETATM   18  C1  UNL     1      -7.806   3.181  12.849  1.00  0.00     0.070 C 
HETATM   19  C26 UNL     1      -4.725   4.461  12.568  1.00  0.00     0.028 A 
ENDBRANCH   1   8
BRANCH   7  20
HETATM   20  C20 UNL     1      -4.695   6.736  14.240  1.00  0.00     0.025 A 
HETATM   21  C21 UNL     1      -5.863   7.052  13.517  1.00  0.00     0.020 A 
HETATM   22  C22 UNL     1      -7.133   6.873  14.073  1.00  0.00     0.043 A 
HETATM   23  C23 UNL     1      -7.255   6.390  15.370  1.00  0.00     0.119 A 
HETATM   24  F1  UNL     1      -8.473   6.218  15.898  1.00  0.00    -0.206 F 
HETATM   25  C24 UNL     1      -6.131   6.098  16.127  1.00  0.00     0.079 A 
HETATM   26  C25 UNL     1      -4.869   6.288  15.568  1.00  0.00     0.081 A 
BRANCH  26  27
HETATM   27  O2  UNL     1      -3.800   6.024  16.386  1.00  0.00    -0.360 OA
HETATM   28  H22 UNL     1      -3.027   6.475  15.981  1.00  0.00     0.217 HD
ENDBRANCH  26  27
ENDBRANCH   7  20
BRANCH   3  29
HETATM   29  N3  UNL     1       0.495   7.699  12.164  1.00  0.00    -0.378 N 
HETATM   30  H8  UNL     1       1.040   8.272  12.805  1.00  0.00     0.160 HD
BRANCH  29  31
HETATM   31  C10 UNL     1       1.291   6.632  11.536  1.00  0.00     0.138 C 
BRANCH  31  32
HETATM   32  C11 UNL     1       0.672   5.224  11.763  1.00  0.00     0.194 C 
BRANCH  32  33
HETATM   33  O1  UNL     1       1.342   4.162  11.080  1.00  0.00    -0.399 OA
HETATM   34  H12 UNL     1       2.229   4.083  11.471  1.00  0.00     0.209 HD
ENDBRANCH  32  33
ENDBRANCH  31  32
BRANCH  31  35
HETATM   35  C12 UNL     1       1.459   6.920  10.045  1.00  0.00    -0.034 A 
HETATM   36  C13 UNL     1       2.433   6.226   9.308  1.00  0.00     0.009 A 
HETATM   37  C14 UNL     1       2.594   6.460   7.941  1.00  0.00     0.001 A 
HETATM   38  C15 UNL     1       1.783   7.387   7.290  1.00  0.00     0.000 A 
HETATM   39  C16 UNL     1       0.811   8.083   8.003  1.00  0.00     0.001 A 
HETATM   40  C17 UNL     1       0.649   7.851   9.370  1.00  0.00     0.009 A 
ENDBRANCH  31  35
ENDBRANCH  29  31
ENDBRANCH   3  29
TORSDOF 8
ENDMDL
MODEL 2
REMARK minimizedAffinity -10.8926373
REMARK  8 active torsions:
REMARK  status: ('A' for Active; 'I' for Inactive)
REMARK    1  A    between atoms: C6_9  and  C7_10 
REMARK    2  A    between atoms: C9_12  and  N3_13 
REMARK    3  A    between atoms: N3_13  and  C10_14 
REMARK    4  A    between atoms: C10_14  and  C11_15 
REMARK    5  A    between atoms: C10_14  and  C12_17 
REMARK    6  A    between atoms: C11_15  and  O1_16 
REMARK    7  A    between atoms: C19_26  and  C20_27 
REMARK    8  A    between atoms: C25_33  and  O2_34 
ROOT
HETATM    1  C7  UNL     1      -0.846   5.225  12.234  1.00  0.00     0.004 A 
HETATM    2  C8  UNL     1       0.470   5.064  11.752  1.00  0.00     0.045 A 
HETATM    3  C9  UNL     1       1.480   5.999  11.996  1.00  0.00     0.045 A 
HETATM    4  C18 UNL     1       1.114   7.059  12.814  1.00  0.00     0.117 A 
HETATM    5  N4  UNL     1      -0.132   7.275  13.308  1.00  0.00    -0.362 N 
ATOM      6  H4  UNL     1      -0.329   8.081  13.902  1.00  0.00     0.165 HD
HETATM    7  C19 UNL     1      -1.113   6.381  12.987  1.00  0.00     0.056 A 
ENDROOT
BRANCH   1   8
HETATM    8  C6  UNL     1      -1.831   4.162  11.969  1.00  0.00    -0.023 A 
HETATM    9  C5  UNL     1      -1.417   2.904  11.496  1.00  0.00     0.014 A 
HETATM   10  C4  UNL     1      -2.327   1.871  11.238  1.00  0.00     0.033 A 
HETATM   11  C3  UNL     1      -3.677   2.144  11.463  1.00  0.00     0.060 A 
HETATM   12  N2  UNL     1      -4.799   1.373  11.316  1.00  0.00    -0.300 N 
HETATM   13  C27 UNL     1      -4.136   3.372  11.918  1.00  0.00     0.016 A 
HETATM   14  N1  UNL     1      -5.943   1.998  11.638  1.00  0.00    -0.304 N 
HETATM   15  H4  UNL     1      -4.849   0.412  10.999  1.00  0.00     0.187 HD
HETATM   16  C2  UNL     1      -5.547   3.223  12.007  1.00  0.00     0.034 A 
ATOM     17  H1  UNL     1      -6.892   1.626  11.609  1.00  0.00     0.186 HD
HETATM   18  C1  UNL     1      -6.540   4.233  12.444  1.00  0.00     0.070 C 
HETATM   19  C26 UNL     1      -3.206   4.399  12.171  1.00  0.00     0.028 A 
ENDBRANCH   1   8
BRANCH   7  20
HETATM   20  C20 UNL     1      -2.435   6.748  13.553  1.00  0.00     0.025 A 
HETATM   21  C21 UNL     1      -3.283   7.675  12.916  1.00  0.00     0.020 A 
HETATM   22  C22 UNL     1      -4.542   7.988  13.439  1.00  0.00     0.043 A 
HETATM   23  C23 UNL     1      -4.965   7.388  14.618  1.00  0.00     0.119 A 
HETATM   24  F1  UNL     1      -6.172   7.688  15.113  1.00  0.00    -0.206 F 
HETATM   25  C24 UNL     1      -4.148   6.495  15.294  1.00  0.00     0.079 A 
HETATM   26  C25 UNL     1      -2.892   6.196  14.770  1.00  0.00     0.081 A 
BRANCH  26  27
HETATM   27  O2  UNL     1      -2.116   5.342  15.512  1.00  0.00    -0.360 OA
HETATM   28  H22 UNL     1      -1.194   5.463  15.195  1.00  0.00     0.217 HD
ENDBRANCH  26  27
ENDBRANCH   7  20
BRANCH   3  29
HETATM   29  N3  UNL     1       2.766   5.729  11.531  1.00  0.00    -0.378 N 
HETATM   30  H8  UNL     1       2.828   4.798  11.125  1.00  0.00     0.160 HD
BRANCH  29  31
HETATM   31  C10 UNL     1       3.563   6.724  10.795  1.00  0.00     0.138 C 
BRANCH  31  32
HETATM   32  C11 UNL     1       5.077   6.372  10.779  1.00  0.00     0.194 C 
BRANCH  32  33
HETATM   33  O1  UNL     1       5.371   5.022  10.414  1.00  0.00    -0.399 OA
HETATM   34  H12 UNL     1       5.105   4.911   9.486  1.00  0.00     0.209 HD
ENDBRANCH  32  33
ENDBRANCH  31  32
BRANCH  31  35
HETATM   35  C12 UNL     1       3.023   6.872   9.373  1.00  0.00    -0.034 A 
HETATM   36  C13 UNL     1       2.572   8.126   8.927  1.00  0.00     0.009 A 
HETATM   37  C14 UNL     1       2.090   8.289   7.626  1.00  0.00     0.001 A 
HETATM   38  C15 UNL     1       2.054   7.204   6.753  1.00  0.00     0.000 A 
HETATM   39  C16 UNL     1       2.499   5.955   7.177  1.00  0.00     0.001 A 
HETATM   40  C17 UNL     1       2.980   5.789   8.476  1.00  0.00     0.009 A 
ENDBRANCH  31  35
ENDBRANCH  29  31
ENDBRANCH   3  29
TORSDOF 8
ENDMDL
MODEL 3
REMARK minimizedAffinity -10.4835472
REMARK  8 active torsions:
REMARK  status: ('A' for Active; 'I' for Inactive)
REMARK    1  A    between atoms: C6_9  and  C7_10 
REMARK    2  A    between atoms: C9_12  and  N3_13 
REMARK    3  A    between atoms: N3_13  and  C10_14 
REMARK    4  A    between atoms: C10_14  and  C11_15 
REMARK    5  A    between atoms: C10_14  and  C12_17 
REMARK    6  A    between atoms: C11_15  and  O1_16 
REMARK    7  A    between atoms: C19_26  and  C20_27 
REMARK    8  A    between atoms: C25_33  and  O2_34 
ROOT
HETATM    1  C7  UNL     1      -2.363   5.470  12.718  1.00  0.00     0.004 A 
HETATM    2  C8  UNL     1      -1.015   5.890  12.721  1.00  0.00     0.045 A 
HETATM    3  C9  UNL     1       0.021   5.094  12.225  1.00  0.00     0.045 A 
HETATM    4  C18 UNL     1      -0.380   3.894  11.655  1.00  0.00     0.117 A 
HETATM    5  N4  UNL     1      -1.655   3.429  11.620  1.00  0.00    -0.362 N 
ATOM      6  H4  UNL     1      -1.876   2.533  11.187  1.00  0.00     0.165 HD
HETATM    7  C19 UNL     1      -2.633   4.198  12.183  1.00  0.00     0.056 A 
ENDROOT
BRANCH   1   8
HETATM    8  C6  UNL     1      -3.393   6.397  13.216  1.00  0.00    -0.023 A 
HETATM    9  C5  UNL     1      -3.462   7.717  12.736  1.00  0.00     0.014 A 
HETATM   10  C4  UNL     1      -4.431   8.622  13.186  1.00  0.00     0.033 A 
HETATM   11  C3  UNL     1      -5.332   8.160  14.147  1.00  0.00     0.060 A 
HETATM   12  N2  UNL     1      -6.378   8.773  14.783  1.00  0.00    -0.300 N 
HETATM   13  C27 UNL     1      -5.298   6.872  14.661  1.00  0.00     0.016 A 
HETATM   14  N1  UNL     1      -7.024   7.989  15.662  1.00  0.00    -0.304 N 
HETATM   15  H4  UNL     1      -6.703   9.725  14.660  1.00  0.00     0.187 HD
HETATM   16  C2  UNL     1      -6.369   6.823  15.595  1.00  0.00     0.034 A 
ATOM     17  H1  UNL     1      -7.827   8.227  16.244  1.00  0.00     0.186 HD
HETATM   18  C1  UNL     1      -6.790   5.676  16.433  1.00  0.00     0.070 C 
HETATM   19  C26 UNL     1      -4.316   5.976  14.196  1.00  0.00     0.028 A 
ENDBRANCH   1   8
BRANCH   7  20
HETATM   20  C20 UNL     1      -3.974   3.566  12.117  1.00  0.00     0.025 A 
HETATM   21  C21 UNL     1      -5.141   4.262  12.487  1.00  0.00     0.020 A 
HETATM   22  C22 UNL     1      -6.404   3.670  12.390  1.00  0.00     0.043 A 
HETATM   23  C23 UNL     1      -6.517   2.363  11.933  1.00  0.00     0.119 A 
HETATM   24  F1  UNL     1      -7.728   1.800  11.838  1.00  0.00    -0.206 F 
HETATM   25  C24 UNL     1      -5.391   1.631  11.589  1.00  0.00     0.079 A 
HETATM   26  C25 UNL     1      -4.136   2.227  11.698  1.00  0.00     0.081 A 
BRANCH  26  27
HETATM   27  O2  UNL     1      -3.061   1.433  11.386  1.00  0.00    -0.360 OA
HETATM   28  H22 UNL     1      -2.276   1.866  11.787  1.00  0.00     0.217 HD
ENDBRANCH  26  27
ENDBRANCH   7  20
BRANCH   3  29
HETATM   29  N3  UNL     1       1.315   5.613  12.215  1.00  0.00    -0.378 N 
HETATM   30  H8  UNL     1       1.985   4.936  11.858  1.00  0.00     0.160 HD
BRANCH  29  31
HETATM   31  C10 UNL     1       1.608   6.988  11.779  1.00  0.00     0.138 C 
BRANCH  31  32
HETATM   32  C11 UNL     1       2.893   7.556  12.445  1.00  0.00     0.194 C 
BRANCH  32  33
HETATM   33  O1  UNL     1       3.139   7.078  13.770  1.00  0.00    -0.399 OA
HETATM   34  H12 UNL     1       3.322   6.126  13.703  1.00  0.00     0.209 HD
ENDBRANCH  32  33
ENDBRANCH  31  32
BRANCH  31  35
HETATM   35  C12 UNL     1       1.718   7.037  10.255  1.00  0.00    -0.034 A 
HETATM   36  C13 UNL     1       1.006   8.013   9.538  1.00  0.00     0.009 A 
HETATM   37  C14 UNL     1       1.103   8.088   8.146  1.00  0.00     0.001 A 
HETATM   38  C15 UNL     1       1.913   7.191   7.453  1.00  0.00     0.000 A 
HETATM   39  C16 UNL     1       2.627   6.219   8.147  1.00  0.00     0.001 A 
HETATM   40  C17 UNL     1       2.531   6.142   9.538  1.00  0.00     0.009 A 
ENDBRANCH  31  35
ENDBRANCH  29  31
ENDBRANCH   3  29
TORSDOF 8
ENDMDL
MODEL 4
REMARK minimizedAffinity -10.4658623
REMARK  8 active torsions:
REMARK  status: ('A' for Active; 'I' for Inactive)
REMARK    1  A    between atoms: C6_9  and  C7_10 
REMARK    2  A    between atoms: C9_12  and  N3_13 
REMARK    3  A    between atoms: N3_13  and  C10_14 
REMARK    4  A    between atoms: C10_14  and  C11_15 
REMARK    5  A    between atoms: C10_14  and  C12_17 
REMARK    6  A    between atoms: C11_15  and  O1_16 
REMARK    7  A    between atoms: C19_26  and  C20_27 
REMARK    8  A    between atoms: C25_33  and  O2_34 
ROOT
HETATM    1  C7  UNL     1      -2.393   5.711  12.785  1.00  0.00     0.004 A 
HETATM    2  C8  UNL     1      -1.044   5.857  12.396  1.00  0.00     0.045 A 
HETATM    3  C9  UNL     1      -0.261   6.945  12.791  1.00  0.00     0.045 A 
HETATM    4  C18 UNL     1      -0.883   7.833  13.659  1.00  0.00     0.117 A 
HETATM    5  N4  UNL     1      -2.174   7.753  14.070  1.00  0.00    -0.362 N 
ATOM      6  H4  UNL     1      -2.566   8.446  14.708  1.00  0.00     0.165 HD
HETATM    7  C19 UNL     1      -2.933   6.718  13.604  1.00  0.00     0.056 A 
ENDROOT
BRANCH   1   8
HETATM    8  C6  UNL     1      -3.124   4.505  12.361  1.00  0.00    -0.023 A 
HETATM    9  C5  UNL     1      -2.456   3.457  11.701  1.00  0.00     0.014 A 
HETATM   10  C4  UNL     1      -3.121   2.295  11.289  1.00  0.00     0.033 A 
HETATM   11  C3  UNL     1      -4.490   2.220  11.553  1.00  0.00     0.060 A 
HETATM   12  N2  UNL     1      -5.416   1.247  11.289  1.00  0.00    -0.300 N 
HETATM   13  C27 UNL     1      -5.195   3.232  12.189  1.00  0.00     0.016 A 
HETATM   14  N1  UNL     1      -6.659   1.543  11.703  1.00  0.00    -0.304 N 
HETATM   15  H4  UNL     1      -5.261   0.357  10.830  1.00  0.00     0.187 HD
HETATM   16  C2  UNL     1      -6.534   2.757  12.254  1.00  0.00     0.034 A 
ATOM     17  H1  UNL     1      -7.501   0.975  11.617  1.00  0.00     0.186 HD
HETATM   18  C1  UNL     1      -7.711   3.441  12.840  1.00  0.00     0.070 C 
HETATM   19  C26 UNL     1      -4.510   4.392  12.596  1.00  0.00     0.028 A 
ENDBRANCH   1   8
BRANCH   7  20
HETATM   20  C20 UNL     1      -4.333   6.763  14.092  1.00  0.00     0.025 A 
HETATM   21  C21 UNL     1      -5.388   7.221  13.277  1.00  0.00     0.020 A 
HETATM   22  C22 UNL     1      -6.709   7.228  13.734  1.00  0.00     0.043 A 
HETATM   23  C23 UNL     1      -6.995   6.790  15.020  1.00  0.00     0.119 A 
HETATM   24  F1  UNL     1      -8.262   6.796  15.453  1.00  0.00    -0.206 F 
HETATM   25  C24 UNL     1      -5.983   6.362  15.866  1.00  0.00     0.079 A 
HETATM   26  C25 UNL     1      -4.668   6.367  15.406  1.00  0.00     0.081 A 
BRANCH  26  27
HETATM   27  O2  UNL     1      -3.711   5.975  16.307  1.00  0.00    -0.360 OA
HETATM   28  H22 UNL     1      -2.854   6.309  15.959  1.00  0.00     0.217 HD
ENDBRANCH  26  27
ENDBRANCH   7  20
BRANCH   3  29
HETATM   29  N3  UNL     1       1.079   6.978  12.408  1.00  0.00    -0.378 N 
HETATM   30  H8  UNL     1       1.361   6.106  11.965  1.00  0.00     0.160 HD
BRANCH  29  31
HETATM   31  C10 UNL     1       1.690   8.159  11.779  1.00  0.00     0.138 C 
BRANCH  31  32
HETATM   32  C11 UNL     1       3.154   8.388  12.251  1.00  0.00     0.194 C 
BRANCH  32  33
HETATM   33  O1  UNL     1       3.733   7.285  12.951  1.00  0.00    -0.399 OA
HETATM   34  H12 UNL     1       3.814   6.552  12.317  1.00  0.00     0.209 HD
ENDBRANCH  32  33
ENDBRANCH  31  32
BRANCH  31  35
HETATM   35  C12 UNL     1       1.623   8.030  10.258  1.00  0.00    -0.034 A 
HETATM   36  C13 UNL     1       2.756   7.602   9.545  1.00  0.00     0.009 A 
HETATM   37  C14 UNL     1       2.714   7.461   8.156  1.00  0.00     0.001 A 
HETATM   38  C15 UNL     1       1.540   7.741   7.460  1.00  0.00     0.000 A 
HETATM   39  C16 UNL     1       0.407   8.164   8.150  1.00  0.00     0.001 A 
HETATM   40  C17 UNL     1       0.447   8.307   9.538  1.00  0.00     0.009 A 
ENDBRANCH  31  35
ENDBRANCH  29  31
ENDBRANCH   3  29
TORSDOF 8
ENDMDL
MODEL 5
REMARK minimizedAffinity -10.3472176
REMARK  8 active torsions:
REMARK  status: ('A' for Active; 'I' for Inactive)
REMARK    1  A    between atoms: C6_9  and  C7_10 
REMARK    2  A    between atoms: C9_12  and  N3_13 
REMARK    3  A    between atoms: N3_13  and  C10_14 
REMARK    4  A    between atoms: C10_14  and  C11_15 
REMARK    5  A    between atoms: C10_14  and  C12_17 
REMARK    6  A    between atoms: C11_15  and  O1_16 
REMARK    7  A    between atoms: C19_26  and  C20_27 
REMARK    8  A    between atoms: C25_33  and  O2_34 
ROOT
HETATM    1  C7  UNL     1      -7.691   5.955  13.916  1.00  0.00     0.004 A 
HETATM    2  C8  UNL     1      -9.088   5.930  14.110  1.00  0.00     0.045 A 
HETATM    3  C9  UNL     1      -9.784   6.991  14.697  1.00  0.00     0.045 A 
HETATM    4  C18 UNL     1      -9.012   8.103  15.002  1.00  0.00     0.117 A 
HETATM    5  N4  UNL     1      -7.667   8.192  14.842  1.00  0.00    -0.362 N 
ATOM      6  H4  UNL     1      -7.163   9.044  15.093  1.00  0.00     0.165 HD
HETATM    7  C19 UNL     1      -7.008   7.109  14.337  1.00  0.00     0.056 A 
ENDROOT
BRANCH   1   8
HETATM    8  C6  UNL     1      -7.051   4.811  13.243  1.00  0.00    -0.023 A 
HETATM    9  C5  UNL     1      -7.774   3.631  12.994  1.00  0.00     0.014 A 
HETATM   10  C4  UNL     1      -7.197   2.527  12.353  1.00  0.00     0.033 A 
HETATM   11  C3  UNL     1      -5.858   2.642  11.975  1.00  0.00     0.060 A 
HETATM   12  N2  UNL     1      -5.012   1.769  11.345  1.00  0.00    -0.300 N 
HETATM   13  C27 UNL     1      -5.099   3.779  12.210  1.00  0.00     0.016 A 
HETATM   14  N1  UNL     1      -3.773   2.248  11.150  1.00  0.00    -0.304 N 
HETATM   15  H4  UNL     1      -5.222   0.832  11.021  1.00  0.00     0.187 HD
HETATM   16  C2  UNL     1      -3.816   3.477  11.678  1.00  0.00     0.034 A 
ATOM     17  H1  UNL     1      -2.982   1.782  10.704  1.00  0.00     0.186 HD
HETATM   18  C1  UNL     1      -2.616   4.347  11.657  1.00  0.00     0.070 C 
HETATM   19  C26 UNL     1      -5.697   4.878  12.856  1.00  0.00     0.028 A 
ENDBRANCH   1   8
BRANCH   7  20
HETATM   20  C20 UNL     1      -5.541   7.315  14.248  1.00  0.00     0.025 A 
HETATM   21  C21 UNL     1      -4.951   7.993  13.163  1.00  0.00     0.020 A 
HETATM   22  C22 UNL     1      -3.572   8.212  13.106  1.00  0.00     0.043 A 
HETATM   23  C23 UNL     1      -2.757   7.742  14.128  1.00  0.00     0.119 A 
HETATM   24  F1  UNL     1      -1.437   7.957  14.070  1.00  0.00    -0.206 F 
HETATM   25  C24 UNL     1      -3.292   7.041  15.197  1.00  0.00     0.079 A 
HETATM   26  C25 UNL     1      -4.668   6.819  15.242  1.00  0.00     0.081 A 
BRANCH  26  27
HETATM   27  O2  UNL     1      -5.126   6.080  16.303  1.00  0.00    -0.360 OA
HETATM   28  H22 UNL     1      -6.019   5.760  16.048  1.00  0.00     0.217 HD
ENDBRANCH  26  27
ENDBRANCH   7  20
BRANCH   3  29
HETATM   29  N3  UNL     1     -11.172   6.905  14.796  1.00  0.00    -0.378 N 
HETATM   30  H8  UNL     1     -11.472   6.839  15.766  1.00  0.00     0.160 HD
BRANCH  29  31
HETATM   31  C10 UNL     1     -12.073   7.730  13.976  1.00  0.00     0.138 C 
BRANCH  31  32
HETATM   32  C11 UNL     1     -11.475   8.042  12.575  1.00  0.00     0.194 C 
BRANCH  32  33
HETATM   33  O1  UNL     1     -11.614   9.402  12.157  1.00  0.00    -0.399 OA
HETATM   34  H12 UNL     1     -11.074   9.944  12.757  1.00  0.00     0.209 HD
ENDBRANCH  32  33
ENDBRANCH  31  32
BRANCH  31  35
HETATM   35  C12 UNL     1     -13.432   7.043  13.847  1.00  0.00    -0.034 A 
HETATM   36  C13 UNL     1     -13.733   5.939  14.661  1.00  0.00     0.009 A 
HETATM   37  C14 UNL     1     -14.975   5.305  14.573  1.00  0.00     0.001 A 
HETATM   38  C15 UNL     1     -15.933   5.766  13.674  1.00  0.00     0.000 A 
HETATM   39  C16 UNL     1     -15.653   6.861  12.860  1.00  0.00     0.001 A 
HETATM   40  C17 UNL     1     -14.413   7.496  12.946  1.00  0.00     0.009 A 
ENDBRANCH  31  35
ENDBRANCH  29  31
ENDBRANCH   3  29
TORSDOF 8
ENDMDL
MODEL 6
REMARK minimizedAffinity -10.3230371
REMARK  8 active torsions:
REMARK  status: ('A' for Active; 'I' for Inactive)
REMARK    1  A    between atoms: C6_9  and  C7_10 
REMARK    2  A    between atoms: C9_12  and  N3_13 
REMARK    3  A    between atoms: N3_13  and  C10_14 
REMARK    4  A    between atoms: C10_14  and  C11_15 
REMARK    5  A    between atoms: C10_14  and  C12_17 
REMARK    6  A    between atoms: C11_15  and  O1_16 
REMARK    7  A    between atoms: C19_26  and  C20_27 
REMARK    8  A    between atoms: C25_33  and  O2_34 
ROOT
HETATM    1  C7  UNL     1      -1.051   6.107  11.675  1.00  0.00     0.004 A 
HETATM    2  C8  UNL     1       0.031   6.483  10.851  1.00  0.00     0.045 A 
HETATM    3  C9  UNL     1       0.601   7.758  10.893  1.00  0.00     0.045 A 
HETATM    4  C18 UNL     1       0.078   8.603  11.862  1.00  0.00     0.117 A 
HETATM    5  N4  UNL     1      -0.961   8.307  12.685  1.00  0.00    -0.362 N 
ATOM      6  H4  UNL     1      -1.295   8.982  13.373  1.00  0.00     0.165 HD
HETATM    7  C19 UNL     1      -1.544   7.078  12.563  1.00  0.00     0.056 A 
ENDROOT
BRANCH   1   8
HETATM    8  C6  UNL     1      -1.554   4.725  11.595  1.00  0.00    -0.023 A 
HETATM    9  C5  UNL     1      -0.662   3.642  11.500  1.00  0.00     0.014 A 
HETATM   10  C4  UNL     1      -1.107   2.316  11.427  1.00  0.00     0.033 A 
HETATM   11  C3  UNL     1      -2.487   2.109  11.442  1.00  0.00     0.060 A 
HETATM   12  N2  UNL     1      -3.236   0.964  11.387  1.00  0.00    -0.300 N 
HETATM   13  C27 UNL     1      -3.408   3.143  11.522  1.00  0.00     0.016 A 
HETATM   14  N1  UNL     1      -4.562   1.172  11.427  1.00  0.00    -0.304 N 
HETATM   15  H4  UNL     1      -2.901   0.010  11.323  1.00  0.00     0.187 HD
HETATM   16  C2  UNL     1      -4.677   2.503  11.508  1.00  0.00     0.034 A 
ATOM     17  H1  UNL     1      -5.308   0.477  11.401  1.00  0.00     0.186 HD
HETATM   18  C1  UNL     1      -6.014   3.140  11.574  1.00  0.00     0.070 C 
HETATM   19  C26 UNL     1      -2.941   4.470  11.595  1.00  0.00     0.028 A 
ENDBRANCH   1   8
BRANCH   7  20
HETATM   20  C20 UNL     1      -2.690   6.890  13.487  1.00  0.00     0.025 A 
HETATM   21  C21 UNL     1      -4.001   7.258  13.127  1.00  0.00     0.020 A 
HETATM   22  C22 UNL     1      -5.080   7.045  13.990  1.00  0.00     0.043 A 
HETATM   23  C23 UNL     1      -4.860   6.473  15.237  1.00  0.00     0.119 A 
HETATM   24  F1  UNL     1      -5.897   6.268  16.060  1.00  0.00    -0.206 F 
HETATM   25  C24 UNL     1      -3.582   6.126  15.644  1.00  0.00     0.079 A 
HETATM   26  C25 UNL     1      -2.511   6.351  14.780  1.00  0.00     0.081 A 
BRANCH  26  27
HETATM   27  O2  UNL     1      -1.268   6.028  15.262  1.00  0.00    -0.360 OA
HETATM   28  H22 UNL     1      -0.622   6.504  14.695  1.00  0.00     0.217 HD
ENDBRANCH  26  27
ENDBRANCH   7  20
BRANCH   3  29
HETATM   29  N3  UNL     1       1.704   8.023  10.084  1.00  0.00    -0.378 N 
HETATM   30  H8  UNL     1       2.178   8.878  10.368  1.00  0.00     0.160 HD
BRANCH  29  31
HETATM   31  C10 UNL     1       2.639   6.970   9.656  1.00  0.00     0.138 C 
BRANCH  31  32
HETATM   32  C11 UNL     1       2.683   6.813   8.110  1.00  0.00     0.194 C 
BRANCH  32  33
HETATM   33  O1  UNL     1       2.702   5.461   7.649  1.00  0.00    -0.399 OA
HETATM   34  H12 UNL     1       1.848   5.063   7.890  1.00  0.00     0.209 HD
ENDBRANCH  32  33
ENDBRANCH  31  32
BRANCH  31  35
HETATM   35  C12 UNL     1       4.033   7.255  10.215  1.00  0.00    -0.034 A 
HETATM   36  C13 UNL     1       4.769   6.218  10.810  1.00  0.00     0.009 A 
HETATM   37  C14 UNL     1       6.052   6.451  11.313  1.00  0.00     0.001 A 
HETATM   38  C15 UNL     1       6.616   7.721  11.226  1.00  0.00     0.000 A 
HETATM   39  C16 UNL     1       5.902   8.761  10.638  1.00  0.00     0.001 A 
HETATM   40  C17 UNL     1       4.620   8.531  10.136  1.00  0.00     0.009 A 
ENDBRANCH  31  35
ENDBRANCH  29  31
ENDBRANCH   3  29
TORSDOF 8
ENDMDL
MODEL 7
REMARK minimizedAffinity -9.95322418
REMARK  8 active torsions:
REMARK  status: ('A' for Active; 'I' for Inactive)
REMARK    1  A    between atoms: C6_9  and  C7_10 
REMARK    2  A    between atoms: C9_12  and  N3_13 
REMARK    3  A    between atoms: N3_13  and  C10_14 
REMARK    4  A    between atoms: C10_14  and  C11_15 
REMARK    5  A    between atoms: C10_14  and  C12_17 
REMARK    6  A    between atoms: C11_15  and  O1_16 
REMARK    7  A    between atoms: C19_26  and  C20_27 
REMARK    8  A    between atoms: C25_33  and  O2_34 
ROOT
HETATM    1  C7  UNL     1      -3.415   6.082  14.367  1.00  0.00     0.004 A 
HETATM    2  C8  UNL     1      -2.006   6.045  14.293  1.00  0.00     0.045 A 
HETATM    3  C9  UNL     1      -1.191   6.889  15.053  1.00  0.00     0.045 A 
HETATM    4  C18 UNL     1      -1.866   7.711  15.945  1.00  0.00     0.117 A 
HETATM    5  N4  UNL     1      -3.215   7.797  16.066  1.00  0.00    -0.362 N 
ATOM      6  H4  UNL     1      -3.643   8.429  16.743  1.00  0.00     0.165 HD
HETATM    7  C19 UNL     1      -3.983   7.013  15.254  1.00  0.00     0.056 A 
ENDROOT
BRANCH   1   8
HETATM    8  C6  UNL     1      -4.190   5.120  13.565  1.00  0.00    -0.023 A 
HETATM    9  C5  UNL     1      -5.554   5.339  13.305  1.00  0.00     0.014 A 
HETATM   10  C4  UNL     1      -6.318   4.446  12.542  1.00  0.00     0.033 A 
HETATM   11  C3  UNL     1      -5.668   3.313  12.052  1.00  0.00     0.060 A 
HETATM   12  N2  UNL     1      -6.112   2.266  11.290  1.00  0.00    -0.300 N 
HETATM   13  C27 UNL     1      -4.327   3.046  12.291  1.00  0.00     0.016 A 
HETATM   14  N1  UNL     1      -5.172   1.347  11.015  1.00  0.00    -0.304 N 
HETATM   15  H4  UNL     1      -7.047   2.122  10.925  1.00  0.00     0.187 HD
HETATM   16  C2  UNL     1      -4.077   1.815  11.625  1.00  0.00     0.034 A 
ATOM     17  H1  UNL     1      -5.271   0.491  10.469  1.00  0.00     0.186 HD
HETATM   18  C1  UNL     1      -2.799   1.068  11.553  1.00  0.00     0.070 C 
HETATM   19  C26 UNL     1      -3.576   3.955  13.061  1.00  0.00     0.028 A 
ENDBRANCH   1   8
BRANCH   7  20
HETATM   20  C20 UNL     1      -5.438   7.226  15.452  1.00  0.00     0.025 A 
HETATM   21  C21 UNL     1      -6.225   6.326  16.197  1.00  0.00     0.020 A 
HETATM   22  C22 UNL     1      -7.588   6.553  16.408  1.00  0.00     0.043 A 
HETATM   23  C23 UNL     1      -8.189   7.680  15.863  1.00  0.00     0.119 A 
HETATM   24  F1  UNL     1      -9.495   7.896  16.070  1.00  0.00    -0.206 F 
HETATM   25  C24 UNL     1      -7.459   8.575  15.096  1.00  0.00     0.079 A 
HETATM   26  C25 UNL     1      -6.103   8.335  14.883  1.00  0.00     0.081 A 
BRANCH  26  27
HETATM   27  O2  UNL     1      -5.450   9.233  14.079  1.00  0.00    -0.360 OA
HETATM   28  H22 UNL     1      -4.625   8.788  13.784  1.00  0.00     0.217 HD
ENDBRANCH  26  27
ENDBRANCH   7  20
BRANCH   3  29
HETATM   29  N3  UNL     1       0.192   6.744  14.959  1.00  0.00    -0.378 N 
HETATM   30  H8  UNL     1       0.453   5.779  14.771  1.00  0.00     0.160 HD
BRANCH  29  31
HETATM   31  C10 UNL     1       1.040   7.712  14.244  1.00  0.00     0.138 C 
BRANCH  31  32
HETATM   32  C11 UNL     1       2.519   7.663  14.719  1.00  0.00     0.194 C 
BRANCH  32  33
HETATM   33  O1  UNL     1       2.806   6.635  15.670  1.00  0.00    -0.399 OA
HETATM   34  H12 UNL     1       2.687   5.783  15.218  1.00  0.00     0.209 HD
ENDBRANCH  32  33
ENDBRANCH  31  32
BRANCH  31  35
HETATM   35  C12 UNL     1       0.942   7.473  12.738  1.00  0.00    -0.034 A 
HETATM   36  C13 UNL     1       1.549   6.340  12.173  1.00  0.00     0.009 A 
HETATM   37  C14 UNL     1       1.459   6.092  10.800  1.00  0.00     0.001 A 
HETATM   38  C15 UNL     1       0.761   6.971   9.976  1.00  0.00     0.000 A 
HETATM   39  C16 UNL     1       0.152   8.099  10.519  1.00  0.00     0.001 A 
HETATM   40  C17 UNL     1       0.241   8.349  11.889  1.00  0.00     0.009 A 
ENDBRANCH  31  35
ENDBRANCH  29  31
ENDBRANCH   3  29
TORSDOF 8
ENDMDL
MODEL 8
REMARK minimizedAffinity -9.8723526
REMARK  8 active torsions:
REMARK  status: ('A' for Active; 'I' for Inactive)
REMARK    1  A    between atoms: C6_9  and  C7_10 
REMARK    2  A    between atoms: C9_12  and  N3_13 
REMARK    3  A    between atoms: N3_13  and  C10_14 
REMARK    4  A    between atoms: C10_14  and  C11_15 
REMARK    5  A    between atoms: C10_14  and  C12_17 
REMARK    6  A    between atoms: C11_15  and  O1_16 
REMARK    7  A    between atoms: C19_26  and  C20_27 
REMARK    8  A    between atoms: C25_33  and  O2_34 
ROOT
HETATM    1  C7  UNL     1      -2.618   5.812  12.728  1.00  0.00     0.004 A 
HETATM    2  C8  UNL     1      -1.308   6.057  12.263  1.00  0.00     0.045 A 
HETATM    3  C9  UNL     1      -0.582   7.195  12.624  1.00  0.00     0.045 A 
HETATM    4  C18 UNL     1      -1.213   8.028  13.539  1.00  0.00     0.117 A 
HETATM    5  N4  UNL     1      -2.469   7.852  14.024  1.00  0.00    -0.362 N 
ATOM      6  H4  UNL     1      -2.870   8.510  14.693  1.00  0.00     0.165 HD
HETATM    7  C19 UNL     1      -3.178   6.769  13.590  1.00  0.00     0.056 A 
ENDROOT
BRANCH   1   8
HETATM    8  C6  UNL     1      -3.285   4.560  12.332  1.00  0.00    -0.023 A 
HETATM    9  C5  UNL     1      -2.558   3.521  11.723  1.00  0.00     0.014 A 
HETATM   10  C4  UNL     1      -3.161   2.317  11.339  1.00  0.00     0.033 A 
HETATM   11  C3  UNL     1      -4.530   2.189  11.578  1.00  0.00     0.060 A 
HETATM   12  N2  UNL     1      -5.406   1.167  11.330  1.00  0.00    -0.300 N 
HETATM   13  C27 UNL     1      -5.293   3.188  12.164  1.00  0.00     0.016 A 
HETATM   14  N1  UNL     1      -6.669   1.420  11.709  1.00  0.00    -0.304 N 
HETATM   15  H4  UNL     1      -5.202   0.269  10.906  1.00  0.00     0.187 HD
HETATM   16  C2  UNL     1      -6.610   2.656  12.219  1.00  0.00     0.034 A 
ATOM     17  H1  UNL     1      -7.484   0.811  11.626  1.00  0.00     0.186 HD
HETATM   18  C1  UNL     1      -7.829   3.306  12.757  1.00  0.00     0.070 C 
HETATM   19  C26 UNL     1      -4.669   4.392  12.543  1.00  0.00     0.028 A 
ENDBRANCH   1   8
BRANCH   7  20
HETATM   20  C20 UNL     1      -4.547   6.710  14.160  1.00  0.00     0.025 A 
HETATM   21  C21 UNL     1      -5.680   7.077  13.408  1.00  0.00     0.020 A 
HETATM   22  C22 UNL     1      -6.969   6.985  13.943  1.00  0.00     0.043 A 
HETATM   23  C23 UNL     1      -7.143   6.537  15.246  1.00  0.00     0.119 A 
HETATM   24  F1  UNL     1      -8.379   6.448  15.753  1.00  0.00    -0.206 F 
HETATM   25  C24 UNL     1      -6.053   6.197  16.031  1.00  0.00     0.079 A 
HETATM   26  C25 UNL     1      -4.771   6.301  15.494  1.00  0.00     0.081 A 
BRANCH  26  27
HETATM   27  O2  UNL     1      -3.735   5.993  16.338  1.00  0.00    -0.360 OA
HETATM   28  H22 UNL     1      -2.929   6.389  15.939  1.00  0.00     0.217 HD
ENDBRANCH  26  27
ENDBRANCH   7  20
BRANCH   3  29
HETATM   29  N3  UNL     1       0.726   7.327  12.164  1.00  0.00    -0.378 N 
HETATM   30  H8  UNL     1       0.756   7.442  11.154  1.00  0.00     0.160 HD
BRANCH  29  31
HETATM   31  C10 UNL     1       1.727   8.152  12.860  1.00  0.00     0.138 C 
BRANCH  31  32
HETATM   32  C11 UNL     1       1.918   7.721  14.342  1.00  0.00     0.194 C 
BRANCH  32  33
HETATM   33  O1  UNL     1       2.054   6.312  14.540  1.00  0.00    -0.399 OA
HETATM   34  H12 UNL     1       2.887   6.041  14.119  1.00  0.00     0.209 HD
ENDBRANCH  32  33
ENDBRANCH  31  32
BRANCH  31  35
HETATM   35  C12 UNL     1       3.055   8.105  12.104  1.00  0.00    -0.034 A 
HETATM   36  C13 UNL     1       3.943   9.189  12.191  1.00  0.00     0.009 A 
HETATM   37  C14 UNL     1       5.169   9.162  11.522  1.00  0.00     0.001 A 
HETATM   38  C15 UNL     1       5.526   8.051  10.760  1.00  0.00     0.000 A 
HETATM   39  C16 UNL     1       4.659   6.966  10.665  1.00  0.00     0.001 A 
HETATM   40  C17 UNL     1       3.433   6.991  11.332  1.00  0.00     0.009 A 
ENDBRANCH  31  35
ENDBRANCH  29  31
ENDBRANCH   3  29
TORSDOF 8
ENDMDL
MODEL 9
REMARK minimizedAffinity -9.81470776
REMARK  8 active torsions:
REMARK  status: ('A' for Active; 'I' for Inactive)
REMARK    1  A    between atoms: C6_9  and  C7_10 
REMARK    2  A    between atoms: C9_12  and  N3_13 
REMARK    3  A    between atoms: N3_13  and  C10_14 
REMARK    4  A    between atoms: C10_14  and  C11_15 
REMARK    5  A    between atoms: C10_14  and  C12_17 
REMARK    6  A    between atoms: C11_15  and  O1_16 
REMARK    7  A    between atoms: C19_26  and  C20_27 
REMARK    8  A    between atoms: C25_33  and  O2_34 
ROOT
HETATM    1  C7  UNL     1      -1.686   5.707  13.047  1.00  0.00     0.004 A 
HETATM    2  C8  UNL     1      -0.293   5.733  12.822  1.00  0.00     0.045 A 
HETATM    3  C9  UNL     1       0.531   6.749  13.314  1.00  0.00     0.045 A 
HETATM    4  C18 UNL     1      -0.110   7.689  14.110  1.00  0.00     0.117 A 
HETATM    5  N4  UNL     1      -1.442   7.725  14.366  1.00  0.00    -0.362 N 
ATOM      6  H4  UNL     1      -1.845   8.451  14.959  1.00  0.00     0.165 HD
HETATM    7  C19 UNL     1      -2.228   6.759  13.805  1.00  0.00     0.056 A 
ENDROOT
BRANCH   1   8
HETATM    8  C6  UNL     1      -2.464   4.569  12.530  1.00  0.00    -0.023 A 
HETATM    9  C5  UNL     1      -1.825   3.502  11.874  1.00  0.00     0.014 A 
HETATM   10  C4  UNL     1      -2.535   2.403  11.375  1.00  0.00     0.033 A 
HETATM   11  C3  UNL     1      -3.920   2.412  11.547  1.00  0.00     0.060 A 
HETATM   12  N2  UNL     1      -4.888   1.514  11.187  1.00  0.00    -0.300 N 
HETATM   13  C27 UNL     1      -4.599   3.446  12.176  1.00  0.00     0.016 A 
HETATM   14  N1  UNL     1      -6.134   1.879  11.531  1.00  0.00    -0.304 N 
HETATM   15  H4  UNL     1      -4.762   0.632  10.704  1.00  0.00     0.187 HD
HETATM   16  C2  UNL     1      -5.967   3.061  12.136  1.00  0.00     0.034 A 
ATOM     17  H1  UNL     1      -7.004   1.373  11.369  1.00  0.00     0.186 HD
HETATM   18  C1  UNL     1      -7.133   3.803  12.672  1.00  0.00     0.070 C 
HETATM   19  C26 UNL     1      -3.867   4.543  12.671  1.00  0.00     0.028 A 
ENDBRANCH   1   8
BRANCH   7  20
HETATM   20  C20 UNL     1      -3.667   6.928  14.125  1.00  0.00     0.025 A 
HETATM   21  C21 UNL     1      -4.561   7.539  13.223  1.00  0.00     0.020 A 
HETATM   22  C22 UNL     1      -5.922   7.663  13.519  1.00  0.00     0.043 A 
HETATM   23  C23 UNL     1      -6.408   7.191  14.731  1.00  0.00     0.119 A 
HETATM   24  F1  UNL     1      -7.712   7.310  15.009  1.00  0.00    -0.206 F 
HETATM   25  C24 UNL     1      -5.557   6.614  15.661  1.00  0.00     0.079 A 
HETATM   26  C25 UNL     1      -4.201   6.502  15.362  1.00  0.00     0.081 A 
BRANCH  26  27
HETATM   27  O2  UNL     1      -3.408   5.964  16.343  1.00  0.00    -0.360 OA
HETATM   28  H22 UNL     1      -2.486   6.222  16.122  1.00  0.00     0.217 HD
ENDBRANCH  26  27
ENDBRANCH   7  20
BRANCH   3  29
HETATM   29  N3  UNL     1       1.904   6.663  13.092  1.00  0.00    -0.378 N 
HETATM   30  H8  UNL     1       2.301   5.837  13.533  1.00  0.00     0.160 HD
BRANCH  29  31
HETATM   31  C10 UNL     1       2.510   6.957  11.784  1.00  0.00     0.138 C 
BRANCH  31  32
HETATM   32  C11 UNL     1       1.954   8.267  11.158  1.00  0.00     0.194 C 
BRANCH  32  33
HETATM   33  O1  UNL     1       2.028   9.413  12.009  1.00  0.00    -0.399 OA
HETATM   34  H12 UNL     1       2.970   9.611  12.143  1.00  0.00     0.209 HD
ENDBRANCH  32  33
ENDBRANCH  31  32
BRANCH  31  35
HETATM   35  C12 UNL     1       4.031   7.022  11.921  1.00  0.00    -0.034 A 
HETATM   36  C13 UNL     1       4.603   7.657  13.035  1.00  0.00     0.009 A 
HETATM   37  C14 UNL     1       5.990   7.714  13.190  1.00  0.00     0.001 A 
HETATM   38  C15 UNL     1       6.824   7.136  12.235  1.00  0.00     0.000 A 
HETATM   39  C16 UNL     1       6.275   6.501  11.125  1.00  0.00     0.001 A 
HETATM   40  C17 UNL     1       4.889   6.443  10.968  1.00  0.00     0.009 A 
ENDBRANCH  31  35
ENDBRANCH  29  31
ENDBRANCH   3  29
TORSDOF 8
ENDMDL
