MODEL 1
REMARK minimizedAffinity -8.55472088
REMARK  7 active torsions:
REMARK  status: ('A' for Active; 'I' for Inactive)
REMARK    1  A    between atoms: C1_2  and  O2_3 
REMARK    2  A    between atoms: C1_2  and  C9_12 
REMARK    3  A    between atoms: O2_3  and  C2_4 
REMARK    4  A    between atoms: C2_4  and  C3_5 
REMARK    5  A    between atoms: C3_5  and  N1_6 
REMARK    6  A    between atoms: N2_20  and  C17_21 
REMARK    7  A    between atoms: C17_21  and  C18_22 
ROOT
HETATM    1  C9  UNL     1      -3.243  51.144 -23.428  1.00  0.00     0.112 A 
HETATM    2  C10 UNL     1      -2.143  51.514 -22.668  1.00  0.00     0.050 A 
HETATM    3  C11 UNL     1      -1.643  50.375 -21.991  1.00  0.00    -0.007 A 
HETATM    4  C12 UNL     1      -0.554  50.164 -21.122  1.00  0.00     0.014 A 
HETATM    5  C13 UNL     1      -0.315  48.883 -20.616  1.00  0.00     0.001 A 
HETATM    6  C14 UNL     1      -1.142  47.822 -20.966  1.00  0.00     0.002 A 
HETATM    7  C15 UNL     1      -2.229  48.010 -21.825  1.00  0.00     0.030 A 
HETATM    8  C16 UNL     1      -2.465  49.302 -22.330  1.00  0.00     0.045 A 
HETATM    9  N2  UNL     1      -3.457  49.796 -23.168  1.00  0.00    -0.337 N 
ENDROOT
BRANCH   1  10
HETATM   10  C1  UNL     1      -4.034  51.973 -24.315  1.00  0.00     0.310 C 
HETATM   11  O1  UNL     1      -5.252  52.090 -24.299  1.00  0.00    -0.258 OA
BRANCH  10  12
HETATM   12  O2  UNL     1      -3.215  52.604 -25.202  1.00  0.00    -0.315 OA
BRANCH  12  13
HETATM   13  C2  UNL     1      -3.057  51.921 -26.454  1.00  0.00     0.209 C 
BRANCH  13  14
HETATM   14  C3  UNL     1      -1.950  52.601 -27.281  1.00  0.00     0.299 C 
BRANCH  14  15
HETATM   15  N1  UNL     1      -0.774  51.750 -27.555  1.00  0.00     0.090 N 
HETATM   16  C4  UNL     1       0.328  52.499 -28.184  1.00  0.00     0.272 C 
HETATM   17  C5  UNL     1       1.663  51.765 -28.074  1.00  0.00     0.030 C 
HETATM   18  C6  UNL     1       2.078  51.578 -26.615  1.00  0.00     0.003 C 
HETATM   19  C7  UNL     1       0.877  51.555 -25.671  1.00  0.00     0.030 C 
HETATM   20  C8  UNL     1      -0.362  50.992 -26.362  1.00  0.00     0.272 C 
ENDBRANCH  14  15
ENDBRANCH  13  14
ENDBRANCH  12  13
ENDBRANCH  10  12
ENDBRANCH   1  10
BRANCH   9  21
HETATM   21  C17 UNL     1      -4.567  48.995 -23.688  1.00  0.00     0.168 C 
BRANCH  21  22
HETATM   22  C18 UNL     1      -4.396  48.659 -25.151  1.00  0.00    -0.040 A 
HETATM   23  C19 UNL     1      -3.129  48.661 -25.756  1.00  0.00     0.009 A 
HETATM   24  C20 UNL     1      -2.986  48.361 -27.112  1.00  0.00     0.001 A 
HETATM   25  C21 UNL     1      -4.106  48.062 -27.883  1.00  0.00     0.000 A 
HETATM   26  C22 UNL     1      -5.370  48.063 -27.301  1.00  0.00     0.001 A 
HETATM   27  C23 UNL     1      -5.515  48.364 -25.944  1.00  0.00     0.009 A 
ENDBRANCH  21  22
ENDBRANCH   9  21
TORSDOF 7
ENDMDL
MODEL 2
REMARK minimizedAffinity -8.39675426
REMARK  7 active torsions:
REMARK  status: ('A' for Active; 'I' for Inactive)
REMARK    1  A    between atoms: C1_2  and  O2_3 
REMARK    2  A    between atoms: C1_2  and  C9_12 
REMARK    3  A    between atoms: O2_3  and  C2_4 
REMARK    4  A    between atoms: C2_4  and  C3_5 
REMARK    5  A    between atoms: C3_5  and  N1_6 
REMARK    6  A    between atoms: N2_20  and  C17_21 
REMARK    7  A    between atoms: C17_21  and  C18_22 
ROOT
HETATM    1  C9  UNL     1      -0.950  52.119 -24.287  1.00  0.00     0.112 A 
HETATM    2  C10 UNL     1       0.426  51.944 -24.276  1.00  0.00     0.050 A 
HETATM    3  C11 UNL     1       0.893  51.859 -25.610  1.00  0.00    -0.007 A 
HETATM    4  C12 UNL     1       2.172  51.707 -26.182  1.00  0.00     0.014 A 
HETATM    5  C13 UNL     1       2.304  51.667 -27.573  1.00  0.00     0.001 A 
HETATM    6  C14 UNL     1       1.185  51.776 -28.390  1.00  0.00     0.002 A 
HETATM    7  C15 UNL     1      -0.094  51.925 -27.843  1.00  0.00     0.030 A 
HETATM    8  C16 UNL     1      -0.221  51.964 -26.443  1.00  0.00     0.045 A 
HETATM    9  N2  UNL     1      -1.335  52.078 -25.621  1.00  0.00    -0.337 N 
ENDROOT
BRANCH   1  10
HETATM   10  C1  UNL     1      -1.835  52.304 -23.154  1.00  0.00     0.310 C 
HETATM   11  O1  UNL     1      -3.004  52.661 -23.202  1.00  0.00    -0.258 OA
BRANCH  10  12
HETATM   12  O2  UNL     1      -1.161  52.037 -22.001  1.00  0.00    -0.315 OA
BRANCH  12  13
HETATM   13  C2  UNL     1      -1.811  51.092 -21.138  1.00  0.00     0.209 C 
BRANCH  13  14
HETATM   14  C3  UNL     1      -1.663  51.539 -19.672  1.00  0.00     0.299 C 
BRANCH  14  15
HETATM   15  N1  UNL     1      -0.303  51.391 -19.116  1.00  0.00     0.090 N 
HETATM   16  C4  UNL     1       0.222  52.655 -18.570  1.00  0.00     0.272 C 
HETATM   17  C5  UNL     1       1.403  52.431 -17.627  1.00  0.00     0.030 C 
HETATM   18  C6  UNL     1       0.997  51.599 -16.412  1.00  0.00     0.003 C 
HETATM   19  C7  UNL     1      -0.196  50.690 -16.705  1.00  0.00     0.030 C 
HETATM   20  C8  UNL     1      -0.222  50.266 -18.171  1.00  0.00     0.272 C 
ENDBRANCH  14  15
ENDBRANCH  13  14
ENDBRANCH  12  13
ENDBRANCH  10  12
ENDBRANCH   1  10
BRANCH   9  21
HETATM   21  C17 UNL     1      -2.714  52.137 -26.111  1.00  0.00     0.168 C 
BRANCH  21  22
HETATM   22  C18 UNL     1      -3.296  50.763 -26.351  1.00  0.00    -0.040 A 
HETATM   23  C19 UNL     1      -3.347  50.209 -27.640  1.00  0.00     0.009 A 
HETATM   24  C20 UNL     1      -3.899  48.943 -27.850  1.00  0.00     0.001 A 
HETATM   25  C21 UNL     1      -4.412  48.219 -26.778  1.00  0.00     0.000 A 
HETATM   26  C22 UNL     1      -4.376  48.757 -25.494  1.00  0.00     0.001 A 
HETATM   27  C23 UNL     1      -3.825  50.023 -25.283  1.00  0.00     0.009 A 
ENDBRANCH  21  22
ENDBRANCH   9  21
TORSDOF 7
ENDMDL
MODEL 3
REMARK minimizedAffinity -8.39531994
REMARK  7 active torsions:
REMARK  status: ('A' for Active; 'I' for Inactive)
REMARK    1  A    between atoms: C1_2  and  O2_3 
REMARK    2  A    between atoms: C1_2  and  C9_12 
REMARK    3  A    between atoms: O2_3  and  C2_4 
REMARK    4  A    between atoms: C2_4  and  C3_5 
REMARK    5  A    between atoms: C3_5  and  N1_6 
REMARK    6  A    between atoms: N2_20  and  C17_21 
REMARK    7  A    between atoms: C17_21  and  C18_22 
ROOT
HETATM    1  C9  UNL     1      -2.983  49.517 -26.307  1.00  0.00     0.112 A 
HETATM    2  C10 UNL     1      -3.175  48.480 -25.404  1.00  0.00     0.050 A 
HETATM    3  C11 UNL     1      -2.728  48.891 -24.125  1.00  0.00    -0.007 A 
HETATM    4  C12 UNL     1      -2.704  48.270 -22.861  1.00  0.00     0.014 A 
HETATM    5  C13 UNL     1      -2.194  48.966 -21.761  1.00  0.00     0.001 A 
HETATM    6  C14 UNL     1      -1.712  50.261 -21.909  1.00  0.00     0.002 A 
HETATM    7  C15 UNL     1      -1.725  50.895 -23.155  1.00  0.00     0.030 A 
HETATM    8  C16 UNL     1      -2.239  50.190 -24.258  1.00  0.00     0.045 A 
HETATM    9  N2  UNL     1      -2.362  50.537 -25.597  1.00  0.00    -0.337 N 
ENDROOT
BRANCH   1  10
HETATM   10  C1  UNL     1      -3.340  49.554 -27.711  1.00  0.00     0.310 C 
HETATM   11  O1  UNL     1      -3.295  50.535 -28.441  1.00  0.00    -0.258 OA
BRANCH  10  12
HETATM   12  O2  UNL     1      -3.761  48.321 -28.108  1.00  0.00    -0.315 OA
BRANCH  12  13
HETATM   13  C2  UNL     1      -5.169  48.228 -28.364  1.00  0.00     0.209 C 
BRANCH  13  14
HETATM   14  C3  UNL     1      -5.415  48.093 -29.878  1.00  0.00     0.299 C 
BRANCH  14  15
HETATM   15  N1  UNL     1      -6.737  47.541 -30.242  1.00  0.00     0.090 N 
HETATM   16  C4  UNL     1      -7.663  47.498 -29.098  1.00  0.00     0.272 C 
HETATM   17  C5  UNL     1      -9.118  47.350 -29.538  1.00  0.00     0.030 C 
HETATM   18  C6  UNL     1      -9.569  48.540 -30.384  1.00  0.00     0.003 C 
HETATM   19  C7  UNL     1      -8.402  49.213 -31.103  1.00  0.00     0.030 C 
HETATM   20  C8  UNL     1      -7.297  48.211 -31.426  1.00  0.00     0.272 C 
ENDBRANCH  14  15
ENDBRANCH  13  14
ENDBRANCH  12  13
ENDBRANCH  10  12
ENDBRANCH   1  10
BRANCH   9  21
HETATM   21  C17 UNL     1      -1.889  51.801 -26.165  1.00  0.00     0.168 C 
BRANCH  21  22
HETATM   22  C18 UNL     1      -0.442  51.732 -26.594  1.00  0.00    -0.040 A 
HETATM   23  C19 UNL     1       0.593  51.626 -25.650  1.00  0.00     0.009 A 
HETATM   24  C20 UNL     1       1.928  51.576 -26.058  1.00  0.00     0.001 A 
HETATM   25  C21 UNL     1       2.246  51.636 -27.412  1.00  0.00     0.000 A 
HETATM   26  C22 UNL     1       1.232  51.748 -28.360  1.00  0.00     0.001 A 
HETATM   27  C23 UNL     1      -0.103  51.800 -27.953  1.00  0.00     0.009 A 
ENDBRANCH  21  22
ENDBRANCH   9  21
TORSDOF 7
ENDMDL
MODEL 4
REMARK minimizedAffinity -8.31882286
REMARK  7 active torsions:
REMARK  status: ('A' for Active; 'I' for Inactive)
REMARK    1  A    between atoms: C1_2  and  O2_3 
REMARK    2  A    between atoms: C1_2  and  C9_12 
REMARK    3  A    between atoms: O2_3  and  C2_4 
REMARK    4  A    between atoms: C2_4  and  C3_5 
REMARK    5  A    between atoms: C3_5  and  N1_6 
REMARK    6  A    between atoms: N2_20  and  C17_21 
REMARK    7  A    between atoms: C17_21  and  C18_22 
ROOT
HETATM    1  C9  UNL     1      -3.329  51.761 -23.245  1.00  0.00     0.112 A 
HETATM    2  C10 UNL     1      -4.639  51.573 -22.829  1.00  0.00     0.050 A 
HETATM    3  C11 UNL     1      -4.643  50.779 -21.656  1.00  0.00    -0.007 A 
HETATM    4  C12 UNL     1      -5.665  50.306 -20.809  1.00  0.00     0.014 A 
HETATM    5  C13 UNL     1      -5.331  49.531 -19.694  1.00  0.00     0.001 A 
HETATM    6  C14 UNL     1      -4.003  49.227 -19.419  1.00  0.00     0.002 A 
HETATM    7  C15 UNL     1      -2.974  49.685 -20.248  1.00  0.00     0.030 A 
HETATM    8  C16 UNL     1      -3.316  50.464 -21.369  1.00  0.00     0.045 A 
HETATM    9  N2  UNL     1      -2.536  51.032 -22.368  1.00  0.00    -0.337 N 
ENDROOT
BRANCH   1  10
HETATM   10  C1  UNL     1      -2.854  52.547 -24.366  1.00  0.00     0.310 C 
HETATM   11  O1  UNL     1      -1.935  53.355 -24.344  1.00  0.00    -0.258 OA
BRANCH  10  12
HETATM   12  O2  UNL     1      -3.603  52.268 -25.469  1.00  0.00    -0.315 OA
BRANCH  12  13
HETATM   13  C2  UNL     1      -3.022  51.298 -26.353  1.00  0.00     0.209 C 
BRANCH  13  14
HETATM   14  C3  UNL     1      -2.143  52.008 -27.398  1.00  0.00     0.299 C 
BRANCH  14  15
HETATM   15  N1  UNL     1      -0.834  51.367 -27.642  1.00  0.00     0.090 N 
HETATM   16  C4  UNL     1       0.139  52.289 -28.251  1.00  0.00     0.272 C 
HETATM   17  C5  UNL     1       1.576  51.791 -28.107  1.00  0.00     0.030 C 
HETATM   18  C6  UNL     1       1.984  51.681 -26.639  1.00  0.00     0.003 C 
HETATM   19  C7  UNL     1       0.783  51.458 -25.721  1.00  0.00     0.030 C 
HETATM   20  C8  UNL     1      -0.327  50.692 -26.436  1.00  0.00     0.272 C 
ENDBRANCH  14  15
ENDBRANCH  13  14
ENDBRANCH  12  13
ENDBRANCH  10  12
ENDBRANCH   1  10
BRANCH   9  21
HETATM   21  C17 UNL     1      -1.084  50.868 -22.471  1.00  0.00     0.168 C 
BRANCH  21  22
HETATM   22  C18 UNL     1      -0.331  51.922 -21.695  1.00  0.00    -0.040 A 
HETATM   23  C19 UNL     1      -0.564  52.124 -20.325  1.00  0.00     0.009 A 
HETATM   24  C20 UNL     1       0.129  53.111 -19.621  1.00  0.00     0.001 A 
HETATM   25  C21 UNL     1       1.060  53.913 -20.278  1.00  0.00     0.000 A 
HETATM   26  C22 UNL     1       1.297  53.730 -21.637  1.00  0.00     0.001 A 
HETATM   27  C23 UNL     1       0.603  52.744 -22.343  1.00  0.00     0.009 A 
ENDBRANCH  21  22
ENDBRANCH   9  21
TORSDOF 7
ENDMDL
MODEL 5
REMARK minimizedAffinity -8.29123974
REMARK  7 active torsions:
REMARK  status: ('A' for Active; 'I' for Inactive)
REMARK    1  A    between atoms: C1_2  and  O2_3 
REMARK    2  A    between atoms: C1_2  and  C9_12 
REMARK    3  A    between atoms: O2_3  and  C2_4 
REMARK    4  A    between atoms: C2_4  and  C3_5 
REMARK    5  A    between atoms: C3_5  and  N1_6 
REMARK    6  A    between atoms: N2_20  and  C17_21 
REMARK    7  A    between atoms: C17_21  and  C18_22 
ROOT
HETATM    1  C9  UNL     1      -2.840  51.597 -23.804  1.00  0.00     0.112 A 
HETATM    2  C10 UNL     1      -2.167  52.765 -24.133  1.00  0.00     0.050 A 
HETATM    3  C11 UNL     1      -1.179  52.472 -25.105  1.00  0.00    -0.007 A 
HETATM    4  C12 UNL     1      -0.240  53.259 -25.801  1.00  0.00     0.014 A 
HETATM    5  C13 UNL     1       0.613  52.654 -26.729  1.00  0.00     0.001 A 
HETATM    6  C14 UNL     1       0.537  51.287 -26.968  1.00  0.00     0.002 A 
HETATM    7  C15 UNL     1      -0.386  50.487 -26.287  1.00  0.00     0.030 A 
HETATM    8  C16 UNL     1      -1.241  51.102 -25.353  1.00  0.00     0.045 A 
HETATM    9  N2  UNL     1      -2.225  50.581 -24.523  1.00  0.00    -0.337 N 
ENDROOT
BRANCH   1  10
HETATM   10  C1  UNL     1      -3.956  51.438 -22.893  1.00  0.00     0.310 C 
HETATM   11  O1  UNL     1      -5.102  51.139 -23.201  1.00  0.00    -0.258 OA
BRANCH  10  12
HETATM   12  O2  UNL     1      -3.546  51.694 -21.619  1.00  0.00    -0.315 OA
BRANCH  12  13
HETATM   13  C2  UNL     1      -2.726  50.667 -21.042  1.00  0.00     0.209 C 
BRANCH  13  14
HETATM   14  C3  UNL     1      -1.995  51.220 -19.805  1.00  0.00     0.299 C 
BRANCH  14  15
HETATM   15  N1  UNL     1      -0.541  51.415 -19.983  1.00  0.00     0.090 N 
HETATM   16  C4  UNL     1      -0.157  51.522 -21.401  1.00  0.00     0.272 C 
HETATM   17  C5  UNL     1       1.226  52.144 -21.579  1.00  0.00     0.030 C 
HETATM   18  C6  UNL     1       1.271  53.572 -21.035  1.00  0.00     0.003 C 
HETATM   19  C7  UNL     1       0.238  53.803 -19.934  1.00  0.00     0.030 C 
HETATM   20  C8  UNL     1      -0.037  52.521 -19.153  1.00  0.00     0.272 C 
ENDBRANCH  14  15
ENDBRANCH  13  14
ENDBRANCH  12  13
ENDBRANCH  10  12
ENDBRANCH   1  10
BRANCH   9  21
HETATM   21  C17 UNL     1      -2.548  49.155 -24.426  1.00  0.00     0.168 C 
BRANCH  21  22
HETATM   22  C18 UNL     1      -3.564  48.726 -25.459  1.00  0.00    -0.040 A 
HETATM   23  C19 UNL     1      -3.225  48.629 -26.817  1.00  0.00     0.009 A 
HETATM   24  C20 UNL     1      -4.176  48.244 -27.764  1.00  0.00     0.001 A 
HETATM   25  C21 UNL     1      -5.479  47.957 -27.367  1.00  0.00     0.000 A 
HETATM   26  C22 UNL     1      -5.834  48.056 -26.024  1.00  0.00     0.001 A 
HETATM   27  C23 UNL     1      -4.883  48.442 -25.076  1.00  0.00     0.009 A 
ENDBRANCH  21  22
ENDBRANCH   9  21
TORSDOF 7
ENDMDL
MODEL 6
REMARK minimizedAffinity -8.26296043
REMARK  7 active torsions:
REMARK  status: ('A' for Active; 'I' for Inactive)
REMARK    1  A    between atoms: C1_2  and  O2_3 
REMARK    2  A    between atoms: C1_2  and  C9_12 
REMARK    3  A    between atoms: O2_3  and  C2_4 
REMARK    4  A    between atoms: C2_4  and  C3_5 
REMARK    5  A    between atoms: C3_5  and  N1_6 
REMARK    6  A    between atoms: N2_20  and  C17_21 
REMARK    7  A    between atoms: C17_21  and  C18_22 
ROOT
HETATM    1  C9  UNL     1      -1.816  50.592 -23.761  1.00  0.00     0.112 A 
HETATM    2  C10 UNL     1      -2.642  49.478 -23.766  1.00  0.00     0.050 A 
HETATM    3  C11 UNL     1      -3.137  49.274 -25.077  1.00  0.00    -0.007 A 
HETATM    4  C12 UNL     1      -3.978  48.304 -25.657  1.00  0.00     0.014 A 
HETATM    5  C13 UNL     1      -4.277  48.378 -27.021  1.00  0.00     0.001 A 
HETATM    6  C14 UNL     1      -3.750  49.398 -27.803  1.00  0.00     0.002 A 
HETATM    7  C15 UNL     1      -2.915  50.373 -27.248  1.00  0.00     0.030 A 
HETATM    8  C16 UNL     1      -2.618  50.294 -25.875  1.00  0.00     0.045 A 
HETATM    9  N2  UNL     1      -1.853  51.109 -25.049  1.00  0.00    -0.337 N 
ENDROOT
BRANCH   1  10
HETATM   10  C1  UNL     1      -1.059  51.136 -22.650  1.00  0.00     0.310 C 
HETATM   11  O1  UNL     1      -0.562  52.252 -22.593  1.00  0.00    -0.258 OA
BRANCH  10  12
HETATM   12  O2  UNL     1      -0.960  50.201 -21.664  1.00  0.00    -0.315 OA
BRANCH  12  13
HETATM   13  C2  UNL     1      -1.868  50.392 -20.570  1.00  0.00     0.209 C 
BRANCH  13  14
HETATM   14  C3  UNL     1      -1.318  49.700 -19.310  1.00  0.00     0.299 C 
BRANCH  14  15
HETATM   15  N1  UNL     1      -1.028  50.611 -18.183  1.00  0.00     0.090 N 
HETATM   16  C4  UNL     1       0.105  50.147 -17.363  1.00  0.00     0.272 C 
HETATM   17  C5  UNL     1       0.680  51.261 -16.490  1.00  0.00     0.030 C 
HETATM   18  C6  UNL     1       1.231  52.406 -17.338  1.00  0.00     0.003 C 
HETATM   19  C7  UNL     1       0.548  52.498 -18.701  1.00  0.00     0.030 C 
HETATM   20  C8  UNL     1      -0.895  52.006 -18.632  1.00  0.00     0.272 C 
ENDBRANCH  14  15
ENDBRANCH  13  14
ENDBRANCH  12  13
ENDBRANCH  10  12
ENDBRANCH   1  10
BRANCH   9  21
HETATM   21  C17 UNL     1      -1.195  52.340 -25.492  1.00  0.00     0.168 C 
BRANCH  21  22
HETATM   22  C18 UNL     1       0.075  52.066 -26.263  1.00  0.00    -0.040 A 
HETATM   23  C19 UNL     1       1.265  51.715 -25.606  1.00  0.00     0.009 A 
HETATM   24  C20 UNL     1       2.435  51.477 -26.330  1.00  0.00     0.001 A 
HETATM   25  C21 UNL     1       2.434  51.592 -27.717  1.00  0.00     0.000 A 
HETATM   26  C22 UNL     1       1.264  51.947 -28.383  1.00  0.00     0.001 A 
HETATM   27  C23 UNL     1       0.092  52.186 -27.660  1.00  0.00     0.009 A 
ENDBRANCH  21  22
ENDBRANCH   9  21
TORSDOF 7
ENDMDL
MODEL 7
REMARK minimizedAffinity -8.20571804
REMARK  7 active torsions:
REMARK  status: ('A' for Active; 'I' for Inactive)
REMARK    1  A    between atoms: C1_2  and  O2_3 
REMARK    2  A    between atoms: C1_2  and  C9_12 
REMARK    3  A    between atoms: O2_3  and  C2_4 
REMARK    4  A    between atoms: C2_4  and  C3_5 
REMARK    5  A    between atoms: C3_5  and  N1_6 
REMARK    6  A    between atoms: N2_20  and  C17_21 
REMARK    7  A    between atoms: C17_21  and  C18_22 
ROOT
HETATM    1  C9  UNL     1      -2.192  52.102 -24.945  1.00  0.00     0.112 A 
HETATM    2  C10 UNL     1      -2.047  52.581 -26.239  1.00  0.00     0.050 A 
HETATM    3  C11 UNL     1      -0.747  52.268 -26.706  1.00  0.00    -0.007 A 
HETATM    4  C12 UNL     1      -0.076  52.485 -27.926  1.00  0.00     0.014 A 
HETATM    5  C13 UNL     1       1.238  52.032 -28.079  1.00  0.00     0.001 A 
HETATM    6  C14 UNL     1       1.882  51.371 -27.039  1.00  0.00     0.002 A 
HETATM    7  C15 UNL     1       1.235  51.147 -25.820  1.00  0.00     0.030 A 
HETATM    8  C16 UNL     1      -0.087  51.606 -25.671  1.00  0.00     0.045 A 
HETATM    9  N2  UNL     1      -0.965  51.553 -24.596  1.00  0.00    -0.337 N 
ENDROOT
BRANCH   1  10
HETATM   10  C1  UNL     1      -3.369  52.156 -24.102  1.00  0.00     0.310 C 
HETATM   11  O1  UNL     1      -3.443  52.679 -22.998  1.00  0.00    -0.258 OA
BRANCH  10  12
HETATM   12  O2  UNL     1      -4.400  51.509 -24.715  1.00  0.00    -0.315 OA
BRANCH  12  13
HETATM   13  C2  UNL     1      -4.939  50.409 -23.968  1.00  0.00     0.209 C 
BRANCH  13  14
HETATM   14  C3  UNL     1      -3.936  49.242 -23.963  1.00  0.00     0.299 C 
BRANCH  14  15
HETATM   15  N1  UNL     1      -4.025  48.346 -25.135  1.00  0.00     0.090 N 
HETATM   16  C4  UNL     1      -5.360  48.364 -25.756  1.00  0.00     0.272 C 
HETATM   17  C5  UNL     1      -5.343  47.805 -27.178  1.00  0.00     0.030 C 
HETATM   18  C6  UNL     1      -4.454  48.643 -28.096  1.00  0.00     0.003 C 
HETATM   19  C7  UNL     1      -3.354  49.372 -27.328  1.00  0.00     0.030 C 
HETATM   20  C8  UNL     1      -2.930  48.589 -26.088  1.00  0.00     0.272 C 
ENDBRANCH  14  15
ENDBRANCH  13  14
ENDBRANCH  12  13
ENDBRANCH  10  12
ENDBRANCH   1  10
BRANCH   9  21
HETATM   21  C17 UNL     1      -0.623  51.000 -23.283  1.00  0.00     0.168 C 
BRANCH  21  22
HETATM   22  C18 UNL     1      -0.081  52.051 -22.342  1.00  0.00    -0.040 A 
HETATM   23  C19 UNL     1       0.737  53.093 -22.807  1.00  0.00     0.009 A 
HETATM   24  C20 UNL     1       1.242  54.051 -21.925  1.00  0.00     0.001 A 
HETATM   25  C21 UNL     1       0.942  53.976 -20.568  1.00  0.00     0.000 A 
HETATM   26  C22 UNL     1       0.138  52.945 -20.089  1.00  0.00     0.001 A 
HETATM   27  C23 UNL     1      -0.367  51.986 -20.970  1.00  0.00     0.009 A 
ENDBRANCH  21  22
ENDBRANCH   9  21
TORSDOF 7
ENDMDL
MODEL 8
REMARK minimizedAffinity -8.19130039
REMARK  7 active torsions:
REMARK  status: ('A' for Active; 'I' for Inactive)
REMARK    1  A    between atoms: C1_2  and  O2_3 
REMARK    2  A    between atoms: C1_2  and  C9_12 
REMARK    3  A    between atoms: O2_3  and  C2_4 
REMARK    4  A    between atoms: C2_4  and  C3_5 
REMARK    5  A    between atoms: C3_5  and  N1_6 
REMARK    6  A    between atoms: N2_20  and  C17_21 
REMARK    7  A    between atoms: C17_21  and  C18_22 
ROOT
HETATM    1  C9  UNL     1      -1.899  51.616 -25.875  1.00  0.00     0.112 A 
HETATM    2  C10 UNL     1      -1.542  51.857 -27.194  1.00  0.00     0.050 A 
HETATM    3  C11 UNL     1      -0.135  51.761 -27.318  1.00  0.00    -0.007 A 
HETATM    4  C12 UNL     1       0.754  51.885 -28.404  1.00  0.00     0.014 A 
HETATM    5  C13 UNL     1       2.126  51.721 -28.194  1.00  0.00     0.001 A 
HETATM    6  C14 UNL     1       2.615  51.436 -26.924  1.00  0.00     0.002 A 
HETATM    7  C15 UNL     1       1.751  51.311 -25.832  1.00  0.00     0.030 A 
HETATM    8  C16 UNL     1       0.371  51.479 -26.050  1.00  0.00     0.045 A 
HETATM    9  N2  UNL     1      -0.711  51.437 -25.179  1.00  0.00    -0.337 N 
ENDROOT
BRANCH   1  10
HETATM   10  C1  UNL     1      -3.232  51.564 -25.308  1.00  0.00     0.310 C 
HETATM   11  O1  UNL     1      -3.962  52.521 -25.089  1.00  0.00    -0.258 OA
BRANCH  10  12
HETATM   12  O2  UNL     1      -3.558  50.271 -25.028  1.00  0.00    -0.315 OA
BRANCH  12  13
HETATM   13  C2  UNL     1      -4.521  50.116 -23.976  1.00  0.00     0.209 C 
BRANCH  13  14
HETATM   14  C3  UNL     1      -3.857  50.403 -22.617  1.00  0.00     0.299 C 
BRANCH  14  15
HETATM   15  N1  UNL     1      -3.487  49.200 -21.843  1.00  0.00     0.090 N 
HETATM   16  C4  UNL     1      -2.669  48.258 -22.626  1.00  0.00     0.272 C 
HETATM   17  C5  UNL     1      -1.934  47.255 -21.739  1.00  0.00     0.030 C 
HETATM   18  C6  UNL     1      -0.958  47.957 -20.795  1.00  0.00     0.003 C 
HETATM   19  C7  UNL     1      -1.377  49.394 -20.493  1.00  0.00     0.030 C 
HETATM   20  C8  UNL     1      -2.895  49.551 -20.543  1.00  0.00     0.272 C 
ENDBRANCH  14  15
ENDBRANCH  13  14
ENDBRANCH  12  13
ENDBRANCH  10  12
ENDBRANCH   1  10
BRANCH   9  21
HETATM   21  C17 UNL     1      -0.594  51.241 -23.732  1.00  0.00     0.168 C 
BRANCH  21  22
HETATM   22  C18 UNL     1       0.177  52.354 -23.063  1.00  0.00    -0.040 A 
HETATM   23  C19 UNL     1       0.597  52.248 -21.728  1.00  0.00     0.009 A 
HETATM   24  C20 UNL     1       1.298  53.290 -21.116  1.00  0.00     0.001 A 
HETATM   25  C21 UNL     1       1.582  54.452 -21.828  1.00  0.00     0.000 A 
HETATM   26  C22 UNL     1       1.166  54.576 -23.150  1.00  0.00     0.001 A 
HETATM   27  C23 UNL     1       0.464  53.535 -23.763  1.00  0.00     0.009 A 
ENDBRANCH  21  22
ENDBRANCH   9  21
TORSDOF 7
ENDMDL
MODEL 9
REMARK minimizedAffinity -8.02423096
REMARK  7 active torsions:
REMARK  status: ('A' for Active; 'I' for Inactive)
REMARK    1  A    between atoms: C1_2  and  O2_3 
REMARK    2  A    between atoms: C1_2  and  C9_12 
REMARK    3  A    between atoms: O2_3  and  C2_4 
REMARK    4  A    between atoms: C2_4  and  C3_5 
REMARK    5  A    between atoms: C3_5  and  N1_6 
REMARK    6  A    between atoms: N2_20  and  C17_21 
REMARK    7  A    between atoms: C17_21  and  C18_22 
ROOT
HETATM    1  C9  UNL     1      -2.940  51.399 -23.896  1.00  0.00     0.112 A 
HETATM    2  C10 UNL     1      -2.318  52.607 -24.178  1.00  0.00     0.050 A 
HETATM    3  C11 UNL     1      -1.384  52.414 -25.225  1.00  0.00    -0.007 A 
HETATM    4  C12 UNL     1      -0.509  53.277 -25.914  1.00  0.00     0.014 A 
HETATM    5  C13 UNL     1       0.300  52.766 -26.933  1.00  0.00     0.001 A 
HETATM    6  C14 UNL     1       0.245  51.418 -27.268  1.00  0.00     0.002 A 
HETATM    7  C15 UNL     1      -0.614  50.545 -26.595  1.00  0.00     0.030 A 
HETATM    8  C16 UNL     1      -1.426  51.064 -25.569  1.00  0.00     0.045 A 
HETATM    9  N2  UNL     1      -2.344  50.455 -24.724  1.00  0.00    -0.337 N 
ENDROOT
BRANCH   1  10
HETATM   10  C1  UNL     1      -3.994  51.141 -22.936  1.00  0.00     0.310 C 
HETATM   11  O1  UNL     1      -5.175  50.954 -23.194  1.00  0.00    -0.258 OA
BRANCH  10  12
HETATM   12  O2  UNL     1      -3.477  51.156 -21.676  1.00  0.00    -0.315 OA
BRANCH  12  13
HETATM   13  C2  UNL     1      -2.679  50.011 -21.347  1.00  0.00     0.209 C 
BRANCH  13  14
HETATM   14  C3  UNL     1      -1.489  50.441 -20.469  1.00  0.00     0.299 C 
BRANCH  14  15
HETATM   15  N1  UNL     1      -1.098  51.859 -20.610  1.00  0.00     0.090 N 
HETATM   16  C4  UNL     1      -0.638  52.444 -19.339  1.00  0.00     0.272 C 
HETATM   17  C5  UNL     1       0.159  53.730 -19.550  1.00  0.00     0.030 C 
HETATM   18  C6  UNL     1       1.427  53.473 -20.363  1.00  0.00     0.003 C 
HETATM   19  C7  UNL     1       1.293  52.255 -21.274  1.00  0.00     0.030 C 
HETATM   20  C8  UNL     1      -0.153  52.053 -21.721  1.00  0.00     0.272 C 
ENDBRANCH  14  15
ENDBRANCH  13  14
ENDBRANCH  12  13
ENDBRANCH  10  12
ENDBRANCH   1  10
BRANCH   9  21
HETATM   21  C17 UNL     1      -2.624  49.018 -24.714  1.00  0.00     0.168 C 
BRANCH  21  22
HETATM   22  C18 UNL     1      -3.703  48.637 -25.701  1.00  0.00    -0.040 A 
HETATM   23  C19 UNL     1      -5.000  48.312 -25.273  1.00  0.00     0.009 A 
HETATM   24  C20 UNL     1      -5.985  47.950 -26.194  1.00  0.00     0.001 A 
HETATM   25  C21 UNL     1      -5.686  47.901 -27.553  1.00  0.00     0.000 A 
HETATM   26  C22 UNL     1      -4.403  48.213 -27.993  1.00  0.00     0.001 A 
HETATM   27  C23 UNL     1      -3.416  48.575 -27.072  1.00  0.00     0.009 A 
ENDBRANCH  21  22
ENDBRANCH   9  21
TORSDOF 7
ENDMDL
