MODEL 1
REMARK minimizedAffinity -8.70936012
REMARK  6 active torsions:
REMARK  status: ('A' for Active; 'I' for Inactive)
REMARK    1  A    between atoms: O1_2  and  C2_3 
REMARK    2  A    between atoms: C4_5  and  N1_6 
REMARK    3  A    between atoms: N1_6  and  C5_7 
REMARK    4  A    between atoms: C11_16  and  O2_17 
REMARK    5  A    between atoms: O2_17  and  C12_18 
REMARK    6  A    between atoms: C18_25  and  O3_26 
ROOT
HETATM    1  C5  UNL     1      -1.164  52.583 -23.850  1.00  0.00     0.067 A 
HETATM    2  C6  UNL     1      -0.015  53.331 -24.152  1.00  0.00     0.087 A 
HETATM    3  C7  UNL     1       0.106  54.159 -25.309  1.00  0.00     0.103 C 
HETATM    4  N2  UNL     1       0.202  54.854 -26.234  1.00  0.00    -0.191 NA
HETATM    5  C8  UNL     1       1.038  53.290 -23.256  1.00  0.00     0.113 A 
HETATM    6  N3  UNL     1       1.019  52.604 -22.093  1.00  0.00    -0.364 N 
ATOM      7  H3  UNL     1       1.825  52.612 -21.468  1.00  0.00     0.165 HD
HETATM    8  C9  UNL     1      -0.087  51.913 -21.777  1.00  0.00     0.047 A 
HETATM    9  C10 UNL     1      -0.108  51.223 -20.574  1.00  0.00     0.070 A 
HETATM   10  C11 UNL     1      -1.217  50.477 -20.166  1.00  0.00     0.104 A 
HETATM   11  C18 UNL     1      -2.345  50.416 -20.998  1.00  0.00     0.102 A 
HETATM   12  C20 UNL     1      -2.339  51.112 -22.209  1.00  0.00     0.055 A 
HETATM   13  C21 UNL     1      -1.218  51.872 -22.617  1.00  0.00     0.022 A 
ENDROOT
BRANCH   1  14
HETATM   14  N1  UNL     1      -2.342  52.625 -24.664  1.00  0.00    -0.353 N 
HETATM   15  H5  UNL     1      -2.422  53.556 -25.073  1.00  0.00     0.166 HD
BRANCH  14  16
HETATM   16  C4  UNL     1      -2.794  51.614 -25.555  1.00  0.00     0.057 A 
HETATM   17  C3  UNL     1      -3.350  50.444 -25.001  1.00  0.00     0.069 A 
HETATM   18  C2  UNL     1      -3.827  49.407 -25.813  1.00  0.00     0.092 A 
HETATM   19  C24 UNL     1      -3.704  49.516 -27.203  1.00  0.00     0.069 A 
HETATM   20  C23 UNL     1      -3.137  50.654 -27.774  1.00  0.00     0.052 A 
HETATM   21 CL2  UNL     1      -4.243  48.259 -28.258  1.00  0.00    -0.081 Cl
HETATM   22  C22 UNL     1      -2.684  51.695 -26.960  1.00  0.00     0.062 A 
HETATM   23 CL1  UNL     1      -1.933  53.034 -27.762  1.00  0.00    -0.082 Cl
BRANCH  18  24
HETATM   24  O1  UNL     1      -4.368  48.251 -25.313  1.00  0.00    -0.354 OA
HETATM   25  C1  UNL     1      -5.589  48.396 -24.596  1.00  0.00     0.210 C 
ENDBRANCH  18  24
ENDBRANCH  14  16
ENDBRANCH   1  14
BRANCH  11  26
HETATM   26  O3  UNL     1      -3.398  49.664 -20.540  1.00  0.00    -0.353 OA
HETATM   27  C19 UNL     1      -4.645  50.319 -20.354  1.00  0.00     0.210 C 
ENDBRANCH  11  26
BRANCH  10  28
HETATM   28  O2  UNL     1      -1.302  49.772 -18.993  1.00  0.00    -0.343 OA
BRANCH  28  29
HETATM   29  C12 UNL     1      -0.977  50.398 -17.748  1.00  0.00     0.132 C 
HETATM   30  C13 UNL     1      -0.160  51.679 -17.982  1.00  0.00     0.062 C 
HETATM   31  C14 UNL     1       0.902  51.919 -16.907  1.00  0.00     0.274 C 
HETATM   32  N4  UNL     1       0.421  51.444 -15.611  1.00  0.00     0.084 N 
HETATM   33  C15 UNL     1       1.279  51.893 -14.517  1.00  0.00     0.309 C 
HETATM   34  C16 UNL     1       0.268  49.980 -15.592  1.00  0.00     0.274 C 
HETATM   35  C17 UNL     1      -0.147  49.396 -16.945  1.00  0.00     0.062 C 
ENDBRANCH  28  29
ENDBRANCH  10  28
TORSDOF 6
ENDMDL
MODEL 2
REMARK minimizedAffinity -8.55747414
REMARK  6 active torsions:
REMARK  status: ('A' for Active; 'I' for Inactive)
REMARK    1  A    between atoms: O1_2  and  C2_3 
REMARK    2  A    between atoms: C4_5  and  N1_6 
REMARK    3  A    between atoms: N1_6  and  C5_7 
REMARK    4  A    between atoms: C11_16  and  O2_17 
REMARK    5  A    between atoms: O2_17  and  C12_18 
REMARK    6  A    between atoms: C18_25  and  O3_26 
ROOT
HETATM    1  C5  UNL     1      -2.445  50.583 -21.803  1.00  0.00     0.067 A 
HETATM    2  C6  UNL     1      -3.041  49.343 -21.525  1.00  0.00     0.087 A 
HETATM    3  C7  UNL     1      -3.900  48.659 -22.438  1.00  0.00     0.103 C 
HETATM    4  N2  UNL     1      -4.578  48.085 -23.185  1.00  0.00    -0.191 NA
HETATM    5  C8  UNL     1      -2.745  48.738 -20.317  1.00  0.00     0.113 A 
HETATM    6  N3  UNL     1      -1.892  49.248 -19.402  1.00  0.00    -0.364 N 
ATOM      7  H3  UNL     1      -1.710  48.755 -18.528  1.00  0.00     0.165 HD
HETATM    8  C9  UNL     1      -1.291  50.416 -19.670  1.00  0.00     0.047 A 
HETATM    9  C10 UNL     1      -0.403  50.927 -18.734  1.00  0.00     0.070 A 
HETATM   10  C11 UNL     1       0.267  52.137 -18.931  1.00  0.00     0.104 A 
HETATM   11  C18 UNL     1       0.035  52.865 -20.109  1.00  0.00     0.102 A 
HETATM   12  C20 UNL     1      -0.850  52.358 -21.062  1.00  0.00     0.055 A 
HETATM   13  C21 UNL     1      -1.523  51.130 -20.864  1.00  0.00     0.022 A 
ENDROOT
BRANCH   1  14
HETATM   14  N1  UNL     1      -2.614  51.252 -23.057  1.00  0.00    -0.353 N 
HETATM   15  H5  UNL     1      -3.129  52.119 -22.897  1.00  0.00     0.166 HD
BRANCH  14  16
HETATM   16  C4  UNL     1      -1.638  51.399 -24.081  1.00  0.00     0.057 A 
HETATM   17  C3  UNL     1      -0.776  52.511 -24.018  1.00  0.00     0.069 A 
HETATM   18  C2  UNL     1       0.217  52.720 -24.984  1.00  0.00     0.092 A 
HETATM   19  C24 UNL     1       0.323  51.830 -26.059  1.00  0.00     0.069 A 
HETATM   20  C23 UNL     1      -0.533  50.734 -26.154  1.00  0.00     0.052 A 
HETATM   21 CL2  UNL     1       1.505  52.049 -27.299  1.00  0.00    -0.081 Cl
HETATM   22  C22 UNL     1      -1.507  50.518 -25.177  1.00  0.00     0.062 A 
HETATM   23 CL1  UNL     1      -2.566  49.170 -25.422  1.00  0.00    -0.082 Cl
BRANCH  18  24
HETATM   24  O1  UNL     1       1.071  53.792 -24.963  1.00  0.00    -0.354 OA
HETATM   25  C1  UNL     1       0.460  55.075 -25.063  1.00  0.00     0.210 C 
ENDBRANCH  18  24
ENDBRANCH  14  16
ENDBRANCH   1  14
BRANCH  11  26
HETATM   26  O3  UNL     1       0.723  54.046 -20.238  1.00  0.00    -0.353 OA
HETATM   27  C19 UNL     1       1.507  54.227 -21.409  1.00  0.00     0.210 C 
ENDBRANCH  11  26
BRANCH  10  28
HETATM   28  O2  UNL     1       1.152  52.699 -18.048  1.00  0.00    -0.343 OA
BRANCH  28  29
HETATM   29  C12 UNL     1       1.674  51.930 -16.960  1.00  0.00     0.132 C 
HETATM   30  C13 UNL     1       0.670  51.885 -15.797  1.00  0.00     0.062 C 
HETATM   31  C14 UNL     1       1.343  51.900 -14.422  1.00  0.00     0.274 C 
HETATM   32  N4  UNL     1       2.612  51.177 -14.476  1.00  0.00     0.084 N 
HETATM   33  C15 UNL     1       3.153  50.934 -13.141  1.00  0.00     0.309 C 
HETATM   34  C16 UNL     1       3.595  51.869 -15.324  1.00  0.00     0.274 C 
HETATM   35  C17 UNL     1       2.963  52.613 -16.503  1.00  0.00     0.062 C 
ENDBRANCH  28  29
ENDBRANCH  10  28
TORSDOF 6
ENDMDL
MODEL 3
REMARK minimizedAffinity -8.51999569
REMARK  6 active torsions:
REMARK  status: ('A' for Active; 'I' for Inactive)
REMARK    1  A    between atoms: O1_2  and  C2_3 
REMARK    2  A    between atoms: C4_5  and  N1_6 
REMARK    3  A    between atoms: N1_6  and  C5_7 
REMARK    4  A    between atoms: C11_16  and  O2_17 
REMARK    5  A    between atoms: O2_17  and  C12_18 
REMARK    6  A    between atoms: C18_25  and  O3_26 
ROOT
HETATM    1  C5  UNL     1      -0.431  51.889 -24.801  1.00  0.00     0.067 A 
HETATM    2  C6  UNL     1       0.206  51.353 -25.932  1.00  0.00     0.087 A 
HETATM    3  C7  UNL     1       1.592  51.540 -26.220  1.00  0.00     0.103 C 
HETATM    4  N2  UNL     1       2.723  51.666 -26.447  1.00  0.00    -0.191 NA
HETATM    5  C8  UNL     1      -0.547  50.568 -26.788  1.00  0.00     0.113 A 
HETATM    6  N3  UNL     1      -1.846  50.258 -26.587  1.00  0.00    -0.364 N 
ATOM      7  H3  UNL     1      -2.351  49.672 -27.251  1.00  0.00     0.165 HD
HETATM    8  C9  UNL     1      -2.456  50.738 -25.493  1.00  0.00     0.047 A 
HETATM    9  C10 UNL     1      -3.786  50.402 -25.283  1.00  0.00     0.070 A 
HETATM   10  C11 UNL     1      -4.499  50.857 -24.171  1.00  0.00     0.104 A 
HETATM   11  C18 UNL     1      -3.857  51.685 -23.237  1.00  0.00     0.102 A 
HETATM   12  C20 UNL     1      -2.516  52.023 -23.433  1.00  0.00     0.055 A 
HETATM   13  C21 UNL     1      -1.794  51.556 -24.555  1.00  0.00     0.022 A 
ENDROOT
BRANCH   1  14
HETATM   14  N1  UNL     1       0.275  52.641 -23.808  1.00  0.00    -0.353 N 
HETATM   15  H5  UNL     1       0.144  53.635 -23.998  1.00  0.00     0.166 HD
BRANCH  14  16
HETATM   16  C4  UNL     1       0.323  52.371 -22.413  1.00  0.00     0.057 A 
HETATM   17  C3  UNL     1      -0.263  51.176 -21.951  1.00  0.00     0.069 A 
HETATM   18  C2  UNL     1      -0.249  50.834 -20.592  1.00  0.00     0.092 A 
HETATM   19  C24 UNL     1       0.318  51.722 -19.670  1.00  0.00     0.069 A 
HETATM   20  C23 UNL     1       0.885  52.920 -20.101  1.00  0.00     0.052 A 
HETATM   21 CL2  UNL     1       0.339  51.374 -17.978  1.00  0.00    -0.081 Cl
HETATM   22  C22 UNL     1       0.887  53.246 -21.459  1.00  0.00     0.062 A 
HETATM   23 CL1  UNL     1       1.552  54.787 -21.885  1.00  0.00    -0.082 Cl
BRANCH  18  24
HETATM   24  O1  UNL     1      -0.813  49.685 -20.102  1.00  0.00    -0.354 OA
HETATM   25  C1  UNL     1      -1.014  48.639 -21.046  1.00  0.00     0.210 C 
ENDBRANCH  18  24
ENDBRANCH  14  16
ENDBRANCH   1  14
BRANCH  11  26
HETATM   26  O3  UNL     1      -4.615  52.099 -22.170  1.00  0.00    -0.353 OA
HETATM   27  C19 UNL     1      -4.348  51.512 -20.904  1.00  0.00     0.210 C 
ENDBRANCH  11  26
BRANCH  10  28
HETATM   28  O2  UNL     1      -5.812  50.567 -23.906  1.00  0.00    -0.343 OA
BRANCH  28  29
HETATM   29  C12 UNL     1      -6.169  49.315 -23.310  1.00  0.00     0.132 C 
HETATM   30  C13 UNL     1      -6.443  48.258 -24.391  1.00  0.00     0.062 C 
HETATM   31  C14 UNL     1      -7.568  47.291 -24.015  1.00  0.00     0.274 C 
HETATM   32  N4  UNL     1      -7.561  47.049 -22.574  1.00  0.00     0.084 N 
HETATM   33  C15 UNL     1      -8.434  45.936 -22.208  1.00  0.00     0.309 C 
HETATM   34  C16 UNL     1      -7.911  48.262 -21.818  1.00  0.00     0.274 C 
HETATM   35  C17 UNL     1      -7.436  49.553 -22.488  1.00  0.00     0.062 C 
ENDBRANCH  28  29
ENDBRANCH  10  28
TORSDOF 6
ENDMDL
MODEL 4
REMARK minimizedAffinity -8.47451973
REMARK  6 active torsions:
REMARK  status: ('A' for Active; 'I' for Inactive)
REMARK    1  A    between atoms: O1_2  and  C2_3 
REMARK    2  A    between atoms: C4_5  and  N1_6 
REMARK    3  A    between atoms: N1_6  and  C5_7 
REMARK    4  A    between atoms: C11_16  and  O2_17 
REMARK    5  A    between atoms: O2_17  and  C12_18 
REMARK    6  A    between atoms: C18_25  and  O3_26 
ROOT
HETATM    1  C5  UNL     1       0.020  52.215 -23.172  1.00  0.00     0.067 A 
HETATM    2  C6  UNL     1       0.589  53.200 -23.994  1.00  0.00     0.087 A 
HETATM    3  C7  UNL     1       0.450  53.220 -25.415  1.00  0.00     0.103 C 
HETATM    4  N2  UNL     1       0.320  53.256 -26.568  1.00  0.00    -0.191 NA
HETATM    5  C8  UNL     1       1.289  54.227 -23.385  1.00  0.00     0.113 A 
HETATM    6  N3  UNL     1       1.429  54.360 -22.048  1.00  0.00    -0.364 N 
ATOM      7  H3  UNL     1       1.954  55.140 -21.654  1.00  0.00     0.165 HD
HETATM    8  C9  UNL     1       0.861  53.442 -21.251  1.00  0.00     0.047 A 
HETATM    9  C10 UNL     1       0.994  53.593 -19.879  1.00  0.00     0.070 A 
HETATM   10  C11 UNL     1       0.436  52.686 -18.975  1.00  0.00     0.104 A 
HETATM   11  C18 UNL     1      -0.279  51.582 -19.466  1.00  0.00     0.102 A 
HETATM   12  C20 UNL     1      -0.427  51.423 -20.846  1.00  0.00     0.055 A 
HETATM   13  C21 UNL     1       0.134  52.347 -21.759  1.00  0.00     0.022 A 
ENDROOT
BRANCH   1  14
HETATM   14  N1  UNL     1      -0.795  51.159 -23.693  1.00  0.00    -0.353 N 
HETATM   15  H5  UNL     1      -0.296  50.277 -23.581  1.00  0.00     0.166 HD
BRANCH  14  16
HETATM   16  C4  UNL     1      -2.197  51.000 -23.513  1.00  0.00     0.057 A 
HETATM   17  C3  UNL     1      -2.638  50.132 -22.496  1.00  0.00     0.069 A 
HETATM   18  C2  UNL     1      -4.003  49.930 -22.250  1.00  0.00     0.092 A 
HETATM   19  C24 UNL     1      -4.945  50.567 -23.065  1.00  0.00     0.069 A 
HETATM   20  C23 UNL     1      -4.532  51.415 -24.092  1.00  0.00     0.052 A 
HETATM   21 CL2  UNL     1      -6.642  50.335 -22.834  1.00  0.00    -0.081 Cl
HETATM   22  C22 UNL     1      -3.171  51.630 -24.318  1.00  0.00     0.062 A 
HETATM   23 CL1  UNL     1      -2.760  52.643 -25.661  1.00  0.00    -0.082 Cl
BRANCH  18  24
HETATM   24  O1  UNL     1      -4.473  49.089 -21.275  1.00  0.00    -0.354 OA
HETATM   25  C1  UNL     1      -4.828  49.704 -20.041  1.00  0.00     0.210 C 
ENDBRANCH  18  24
ENDBRANCH  14  16
ENDBRANCH   1  14
BRANCH  11  26
HETATM   26  O3  UNL     1      -0.798  50.728 -18.526  1.00  0.00    -0.353 OA
HETATM   27  C19 UNL     1      -2.136  50.950 -18.101  1.00  0.00     0.210 C 
ENDBRANCH  11  26
BRANCH  10  28
HETATM   28  O2  UNL     1       0.532  52.773 -17.610  1.00  0.00    -0.343 OA
BRANCH  28  29
HETATM   29  C12 UNL     1       1.461  51.950 -16.898  1.00  0.00     0.132 C 
HETATM   30  C13 UNL     1       0.810  51.365 -15.635  1.00  0.00     0.062 C 
HETATM   31  C14 UNL     1       1.780  51.249 -14.456  1.00  0.00     0.274 C 
HETATM   32  N4  UNL     1       3.123  50.938 -14.940  1.00  0.00     0.084 N 
HETATM   33  C15 UNL     1       4.016  50.556 -13.849  1.00  0.00     0.309 C 
HETATM   34  C16 UNL     1       3.691  52.051 -15.719  1.00  0.00     0.274 C 
HETATM   35  C17 UNL     1       2.641  52.839 -16.505  1.00  0.00     0.062 C 
ENDBRANCH  28  29
ENDBRANCH  10  28
TORSDOF 6
ENDMDL
MODEL 5
REMARK minimizedAffinity -8.39999008
REMARK  6 active torsions:
REMARK  status: ('A' for Active; 'I' for Inactive)
REMARK    1  A    between atoms: O1_2  and  C2_3 
REMARK    2  A    between atoms: C4_5  and  N1_6 
REMARK    3  A    between atoms: N1_6  and  C5_7 
REMARK    4  A    between atoms: C11_16  and  O2_17 
REMARK    5  A    between atoms: O2_17  and  C12_18 
REMARK    6  A    between atoms: C18_25  and  O3_26 
ROOT
HETATM    1  C5  UNL     1      -3.280  48.790 -25.643  1.00  0.00     0.067 A 
HETATM    2  C6  UNL     1      -3.532  48.702 -24.265  1.00  0.00     0.087 A 
HETATM    3  C7  UNL     1      -2.589  49.088 -23.264  1.00  0.00     0.103 C 
HETATM    4  N2  UNL     1      -1.837  49.423 -22.445  1.00  0.00    -0.191 NA
HETATM    5  C8  UNL     1      -4.778  48.256 -23.861  1.00  0.00     0.113 A 
HETATM    6  N3  UNL     1      -5.779  47.931 -24.708  1.00  0.00    -0.364 N 
ATOM      7  H3  UNL     1      -6.679  47.609 -24.353  1.00  0.00     0.165 HD
HETATM    8  C9  UNL     1      -5.561  48.042 -26.027  1.00  0.00     0.047 A 
HETATM    9  C10 UNL     1      -6.597  47.723 -26.892  1.00  0.00     0.070 A 
HETATM   10  C11 UNL     1      -6.458  47.809 -28.279  1.00  0.00     0.104 A 
HETATM   11  C18 UNL     1      -5.232  48.227 -28.821  1.00  0.00     0.102 A 
HETATM   12  C20 UNL     1      -4.183  48.558 -27.960  1.00  0.00     0.055 A 
HETATM   13  C21 UNL     1      -4.328  48.476 -26.556  1.00  0.00     0.022 A 
ENDROOT
BRANCH   1  14
HETATM   14  N1  UNL     1      -2.058  49.321 -26.167  1.00  0.00    -0.353 N 
HETATM   15  H5  UNL     1      -1.986  49.060 -27.151  1.00  0.00     0.166 HD
BRANCH  14  16
HETATM   16  C4  UNL     1      -1.519  50.613 -25.920  1.00  0.00     0.057 A 
HETATM   17  C3  UNL     1      -0.119  50.767 -25.979  1.00  0.00     0.069 A 
HETATM   18  C2  UNL     1       0.488  52.011 -25.758  1.00  0.00     0.092 A 
HETATM   19  C24 UNL     1      -0.311  53.110 -25.424  1.00  0.00     0.069 A 
HETATM   20  C23 UNL     1      -1.696  52.978 -25.339  1.00  0.00     0.052 A 
HETATM   21 CL2  UNL     1       0.378  54.663 -25.109  1.00  0.00    -0.081 Cl
HETATM   22  C22 UNL     1      -2.297  51.741 -25.582  1.00  0.00     0.062 A 
HETATM   23 CL1  UNL     1      -4.016  51.663 -25.383  1.00  0.00    -0.082 Cl
BRANCH  18  24
HETATM   24  O1  UNL     1       1.844  52.201 -25.799  1.00  0.00    -0.354 OA
HETATM   25  C1  UNL     1       2.527  51.577 -26.882  1.00  0.00     0.210 C 
ENDBRANCH  18  24
ENDBRANCH  14  16
ENDBRANCH   1  14
BRANCH  11  26
HETATM   26  O3  UNL     1      -5.162  48.286 -30.190  1.00  0.00    -0.353 OA
HETATM   27  C19 UNL     1      -4.924  47.073 -30.891  1.00  0.00     0.210 C 
ENDBRANCH  11  26
BRANCH  10  28
HETATM   28  O2  UNL     1      -7.439  47.507 -29.189  1.00  0.00    -0.343 OA
BRANCH  28  29
HETATM   29  C12 UNL     1      -8.780  47.264 -28.751  1.00  0.00     0.132 C 
HETATM   30  C13 UNL     1      -9.103  45.762 -28.801  1.00  0.00     0.062 C 
HETATM   31  C14 UNL     1     -10.551  45.472 -29.203  1.00  0.00     0.274 C 
HETATM   32  N4  UNL     1     -11.435  46.515 -28.685  1.00  0.00     0.084 N 
HETATM   33  C15 UNL     1     -12.842  46.143 -28.811  1.00  0.00     0.309 C 
HETATM   34  C16 UNL     1     -11.175  47.814 -29.325  1.00  0.00     0.274 C 
HETATM   35  C17 UNL     1      -9.706  48.023 -29.701  1.00  0.00     0.062 C 
ENDBRANCH  28  29
ENDBRANCH  10  28
TORSDOF 6
ENDMDL
MODEL 6
REMARK minimizedAffinity -8.35095406
REMARK  6 active torsions:
REMARK  status: ('A' for Active; 'I' for Inactive)
REMARK    1  A    between atoms: O1_2  and  C2_3 
REMARK    2  A    between atoms: C4_5  and  N1_6 
REMARK    3  A    between atoms: N1_6  and  C5_7 
REMARK    4  A    between atoms: C11_16  and  O2_17 
REMARK    5  A    between atoms: O2_17  and  C12_18 
REMARK    6  A    between atoms: C18_25  and  O3_26 
ROOT
HETATM    1  C5  UNL     1       0.450  52.115 -21.599  1.00  0.00     0.067 A 
HETATM    2  C6  UNL     1       0.905  53.443 -21.603  1.00  0.00     0.087 A 
HETATM    3  C7  UNL     1       1.242  54.159 -22.792  1.00  0.00     0.103 C 
HETATM    4  N2  UNL     1       1.494  54.755 -23.756  1.00  0.00    -0.191 NA
HETATM    5  C8  UNL     1       0.992  54.101 -20.389  1.00  0.00     0.113 A 
HETATM    6  N3  UNL     1       0.634  53.559 -19.205  1.00  0.00    -0.364 N 
ATOM      7  H3  UNL     1       0.717  54.093 -18.340  1.00  0.00     0.165 HD
HETATM    8  C9  UNL     1       0.166  52.302 -19.193  1.00  0.00     0.047 A 
HETATM    9  C10 UNL     1      -0.216  51.756 -17.976  1.00  0.00     0.070 A 
HETATM   10  C11 UNL     1      -0.713  50.454 -17.871  1.00  0.00     0.104 A 
HETATM   11  C18 UNL     1      -0.828  49.669 -19.029  1.00  0.00     0.102 A 
HETATM   12  C20 UNL     1      -0.454  50.210 -20.261  1.00  0.00     0.055 A 
HETATM   13  C21 UNL     1       0.043  51.530 -20.366  1.00  0.00     0.022 A 
ENDROOT
BRANCH   1  14
HETATM   14  N1  UNL     1       0.240  51.373 -22.806  1.00  0.00    -0.353 N 
HETATM   15  H5  UNL     1      -0.276  50.523 -22.580  1.00  0.00     0.166 HD
BRANCH  14  16
HETATM   16  C4  UNL     1      -0.136  51.900 -24.073  1.00  0.00     0.057 A 
HETATM   17  C3  UNL     1       0.840  51.936 -25.089  1.00  0.00     0.069 A 
HETATM   18  C2  UNL     1       0.544  52.431 -26.366  1.00  0.00     0.092 A 
HETATM   19  C24 UNL     1      -0.733  52.943 -26.621  1.00  0.00     0.069 A 
HETATM   20  C23 UNL     1      -1.708  52.937 -25.625  1.00  0.00     0.052 A 
HETATM   21 CL2  UNL     1      -1.151  53.596 -28.165  1.00  0.00    -0.081 Cl
HETATM   22  C22 UNL     1      -1.415  52.423 -24.360  1.00  0.00     0.062 A 
HETATM   23 CL1  UNL     1      -2.670  52.525 -23.172  1.00  0.00    -0.082 Cl
BRANCH  18  24
HETATM   24  O1  UNL     1       1.466  52.490 -27.379  1.00  0.00    -0.354 OA
HETATM   25  C1  UNL     1       2.623  51.677 -27.215  1.00  0.00     0.210 C 
ENDBRANCH  18  24
ENDBRANCH  14  16
ENDBRANCH   1  14
BRANCH  11  26
HETATM   26  O3  UNL     1      -1.321  48.400 -18.855  1.00  0.00    -0.353 OA
HETATM   27  C19 UNL     1      -1.781  47.708 -20.008  1.00  0.00     0.210 C 
ENDBRANCH  11  26
BRANCH  10  28
HETATM   28  O2  UNL     1      -1.105  49.853 -16.703  1.00  0.00    -0.343 OA
BRANCH  28  29
HETATM   29  C12 UNL     1      -1.407  50.645 -15.549  1.00  0.00     0.132 C 
HETATM   30  C13 UNL     1      -0.972  49.922 -14.265  1.00  0.00     0.062 C 
HETATM   31  C14 UNL     1      -1.920  50.164 -13.088  1.00  0.00     0.274 C 
HETATM   32  N4  UNL     1      -2.470  51.517 -13.156  1.00  0.00     0.084 N 
HETATM   33  C15 UNL     1      -3.160  51.883 -11.921  1.00  0.00     0.309 C 
HETATM   34  C16 UNL     1      -3.351  51.686 -14.322  1.00  0.00     0.274 C 
HETATM   35  C17 UNL     1      -2.921  50.858 -15.534  1.00  0.00     0.062 C 
ENDBRANCH  28  29
ENDBRANCH  10  28
TORSDOF 6
ENDMDL
MODEL 7
REMARK minimizedAffinity -8.28209496
REMARK  6 active torsions:
REMARK  status: ('A' for Active; 'I' for Inactive)
REMARK    1  A    between atoms: O1_2  and  C2_3 
REMARK    2  A    between atoms: C4_5  and  N1_6 
REMARK    3  A    between atoms: N1_6  and  C5_7 
REMARK    4  A    between atoms: C11_16  and  O2_17 
REMARK    5  A    between atoms: O2_17  and  C12_18 
REMARK    6  A    between atoms: C18_25  and  O3_26 
ROOT
HETATM    1  C5  UNL     1      -1.840  52.099 -23.694  1.00  0.00     0.067 A 
HETATM    2  C6  UNL     1      -0.747  52.492 -24.483  1.00  0.00     0.087 A 
HETATM    3  C7  UNL     1      -0.860  52.878 -25.853  1.00  0.00     0.103 C 
HETATM    4  N2  UNL     1      -0.949  53.217 -26.960  1.00  0.00    -0.191 NA
HETATM    5  C8  UNL     1       0.499  52.544 -23.883  1.00  0.00     0.113 A 
HETATM    6  N3  UNL     1       0.724  52.274 -22.579  1.00  0.00    -0.364 N 
ATOM      7  H3  UNL     1       1.665  52.331 -22.189  1.00  0.00     0.165 HD
HETATM    8  C9  UNL     1      -0.318  51.930 -21.808  1.00  0.00     0.047 A 
HETATM    9  C10 UNL     1      -0.083  51.670 -20.465  1.00  0.00     0.070 A 
HETATM   10  C11 UNL     1      -1.109  51.304 -19.590  1.00  0.00     0.104 A 
HETATM   11  C18 UNL     1      -2.420  51.191 -20.080  1.00  0.00     0.102 A 
HETATM   12  C20 UNL     1      -2.670  51.457 -21.428  1.00  0.00     0.055 A 
HETATM   13  C21 UNL     1      -1.632  51.833 -22.311  1.00  0.00     0.022 A 
ENDROOT
BRANCH   1  14
HETATM   14  N1  UNL     1      -3.183  52.096 -24.192  1.00  0.00    -0.353 N 
HETATM   15  H5  UNL     1      -3.225  52.694 -25.018  1.00  0.00     0.166 HD
BRANCH  14  16
HETATM   16  C4  UNL     1      -4.042  50.969 -24.311  1.00  0.00     0.057 A 
HETATM   17  C3  UNL     1      -5.258  50.988 -23.599  1.00  0.00     0.069 A 
HETATM   18  C2  UNL     1      -6.163  49.920 -23.673  1.00  0.00     0.092 A 
HETATM   19  C24 UNL     1      -5.828  48.792 -24.430  1.00  0.00     0.069 A 
HETATM   20  C23 UNL     1      -4.621  48.741 -25.125  1.00  0.00     0.052 A 
HETATM   21 CL2  UNL     1      -6.885  47.429 -24.535  1.00  0.00    -0.081 Cl
HETATM   22  C22 UNL     1      -3.733  49.818 -25.067  1.00  0.00     0.062 A 
HETATM   23 CL1  UNL     1      -2.230  49.629 -25.907  1.00  0.00    -0.082 Cl
BRANCH  18  24
HETATM   24  O1  UNL     1      -7.352  49.897 -22.991  1.00  0.00    -0.354 OA
HETATM   25  C1  UNL     1      -7.273  49.536 -21.616  1.00  0.00     0.210 C 
ENDBRANCH  18  24
ENDBRANCH  14  16
ENDBRANCH   1  14
BRANCH  11  26
HETATM   26  O3  UNL     1      -3.379  50.825 -19.169  1.00  0.00    -0.353 OA
HETATM   27  C19 UNL     1      -4.180  49.692 -19.474  1.00  0.00     0.210 C 
ENDBRANCH  11  26
BRANCH  10  28
HETATM   28  O2  UNL     1      -0.946  51.031 -18.256  1.00  0.00    -0.343 OA
BRANCH  28  29
HETATM   29  C12 UNL     1       0.360  51.048 -17.670  1.00  0.00     0.132 C 
HETATM   30  C13 UNL     1       0.378  50.241 -16.362  1.00  0.00     0.062 C 
HETATM   31  C14 UNL     1       1.298  50.843 -15.297  1.00  0.00     0.274 C 
HETATM   32  N4  UNL     1       2.462  51.460 -15.931  1.00  0.00     0.084 N 
HETATM   33  C15 UNL     1       3.490  51.805 -14.952  1.00  0.00     0.309 C 
HETATM   34  C16 UNL     1       2.084  52.635 -16.733  1.00  0.00     0.274 C 
HETATM   35  C17 UNL     1       0.703  52.509 -17.380  1.00  0.00     0.062 C 
ENDBRANCH  28  29
ENDBRANCH  10  28
TORSDOF 6
ENDMDL
MODEL 8
REMARK minimizedAffinity -8.27627945
REMARK  6 active torsions:
REMARK  status: ('A' for Active; 'I' for Inactive)
REMARK    1  A    between atoms: O1_2  and  C2_3 
REMARK    2  A    between atoms: C4_5  and  N1_6 
REMARK    3  A    between atoms: N1_6  and  C5_7 
REMARK    4  A    between atoms: C11_16  and  O2_17 
REMARK    5  A    between atoms: O2_17  and  C12_18 
REMARK    6  A    between atoms: C18_25  and  O3_26 
ROOT
HETATM    1  C5  UNL     1       0.280  52.077 -21.968  1.00  0.00     0.067 A 
HETATM    2  C6  UNL     1       0.801  53.298 -22.425  1.00  0.00     0.087 A 
HETATM    3  C7  UNL     1       0.810  53.687 -23.799  1.00  0.00     0.103 C 
HETATM    4  N2  UNL     1       0.798  54.020 -24.911  1.00  0.00    -0.191 NA
HETATM    5  C8  UNL     1       1.294  54.185 -21.484  1.00  0.00     0.113 A 
HETATM    6  N3  UNL     1       1.274  53.966 -20.152  1.00  0.00    -0.364 N 
ATOM      7  H3  UNL     1       1.650  54.657 -19.504  1.00  0.00     0.165 HD
HETATM    8  C9  UNL     1       0.748  52.817 -19.701  1.00  0.00     0.047 A 
HETATM    9  C10 UNL     1       0.716  52.604 -18.330  1.00  0.00     0.070 A 
HETATM   10  C11 UNL     1       0.188  51.436 -17.774  1.00  0.00     0.104 A 
HETATM   11  C18 UNL     1      -0.324  50.442 -18.623  1.00  0.00     0.102 A 
HETATM   12  C20 UNL     1      -0.304  50.648 -20.004  1.00  0.00     0.055 A 
HETATM   13  C21 UNL     1       0.226  51.833 -20.566  1.00  0.00     0.022 A 
ENDROOT
BRANCH   1  14
HETATM   14  N1  UNL     1      -0.334  51.128 -22.847  1.00  0.00    -0.353 N 
HETATM   15  H5  UNL     1       0.125  50.225 -22.722  1.00  0.00     0.166 HD
BRANCH  14  16
HETATM   16  C4  UNL     1      -1.725  50.983 -23.104  1.00  0.00     0.057 A 
HETATM   17  C3  UNL     1      -2.615  51.116 -22.020  1.00  0.00     0.069 A 
HETATM   18  C2  UNL     1      -4.000  50.997 -22.194  1.00  0.00     0.092 A 
HETATM   19  C24 UNL     1      -4.505  50.691 -23.463  1.00  0.00     0.069 A 
HETATM   20  C23 UNL     1      -3.642  50.534 -24.547  1.00  0.00     0.052 A 
HETATM   21 CL2  UNL     1      -6.200  50.500 -23.738  1.00  0.00    -0.081 Cl
HETATM   22  C22 UNL     1      -2.264  50.676 -24.372  1.00  0.00     0.062 A 
HETATM   23 CL1  UNL     1      -1.273  50.392 -25.764  1.00  0.00    -0.082 Cl
BRANCH  18  24
HETATM   24  O1  UNL     1      -4.898  51.112 -21.165  1.00  0.00    -0.354 OA
HETATM   25  C1  UNL     1      -5.093  49.943 -20.377  1.00  0.00     0.210 C 
ENDBRANCH  18  24
ENDBRANCH  14  16
ENDBRANCH   1  14
BRANCH  11  26
HETATM   26  O3  UNL     1      -0.825  49.320 -18.012  1.00  0.00    -0.353 OA
HETATM   27  C19 UNL     1      -1.649  48.461 -18.787  1.00  0.00     0.210 C 
ENDBRANCH  11  26
BRANCH  10  28
HETATM   28  O2  UNL     1       0.128  51.162 -16.432  1.00  0.00    -0.343 OA
BRANCH  28  29
HETATM   29  C12 UNL     1       1.282  50.669 -15.743  1.00  0.00     0.132 C 
HETATM   30  C13 UNL     1       0.889  49.572 -14.741  1.00  0.00     0.062 C 
HETATM   31  C14 UNL     1       1.727  49.599 -13.461  1.00  0.00     0.274 C 
HETATM   32  N4  UNL     1       3.093  50.022 -13.764  1.00  0.00     0.084 N 
HETATM   33  C15 UNL     1       3.991  49.805 -12.632  1.00  0.00     0.309 C 
HETATM   34  C16 UNL     1       3.141  51.423 -14.212  1.00  0.00     0.274 C 
HETATM   35  C17 UNL     1       1.900  51.852 -14.998  1.00  0.00     0.062 C 
ENDBRANCH  28  29
ENDBRANCH  10  28
TORSDOF 6
ENDMDL
MODEL 9
REMARK minimizedAffinity -8.26089382
REMARK  6 active torsions:
REMARK  status: ('A' for Active; 'I' for Inactive)
REMARK    1  A    between atoms: O1_2  and  C2_3 
REMARK    2  A    between atoms: C4_5  and  N1_6 
REMARK    3  A    between atoms: N1_6  and  C5_7 
REMARK    4  A    between atoms: C11_16  and  O2_17 
REMARK    5  A    between atoms: O2_17  and  C12_18 
REMARK    6  A    between atoms: C18_25  and  O3_26 
ROOT
HETATM    1  C5  UNL     1      -4.558  50.953 -22.887  1.00  0.00     0.067 A 
HETATM    2  C6  UNL     1      -5.662  50.245 -22.386  1.00  0.00     0.087 A 
HETATM    3  C7  UNL     1      -6.780  49.858 -23.185  1.00  0.00     0.103 C 
HETATM    4  N2  UNL     1      -7.680  49.518 -23.834  1.00  0.00    -0.191 NA
HETATM    5  C8  UNL     1      -5.640  49.869 -21.054  1.00  0.00     0.113 A 
HETATM    6  N3  UNL     1      -4.610  50.111 -20.215  1.00  0.00    -0.364 N 
ATOM      7  H3  UNL     1      -4.648  49.808 -19.241  1.00  0.00     0.165 HD
HETATM    8  C9  UNL     1      -3.536  50.758 -20.691  1.00  0.00     0.047 A 
HETATM    9  C10 UNL     1      -2.474  50.990 -19.828  1.00  0.00     0.070 A 
HETATM   10  C11 UNL     1      -1.317  51.656 -20.239  1.00  0.00     0.104 A 
HETATM   11  C18 UNL     1      -1.222  52.113 -21.563  1.00  0.00     0.102 A 
HETATM   12  C20 UNL     1      -2.281  51.879 -22.443  1.00  0.00     0.055 A 
HETATM   13  C21 UNL     1      -3.449  51.199 -22.027  1.00  0.00     0.022 A 
ENDROOT
BRANCH   1  14
HETATM   14  N1  UNL     1      -4.440  51.312 -24.268  1.00  0.00    -0.353 N 
HETATM   15  H5  UNL     1      -4.948  52.184 -24.422  1.00  0.00     0.166 HD
BRANCH  14  16
HETATM   16  C4  UNL     1      -3.268  51.234 -25.069  1.00  0.00     0.057 A 
HETATM   17  C3  UNL     1      -2.677  52.441 -25.495  1.00  0.00     0.069 A 
HETATM   18  C2  UNL     1      -1.515  52.447 -26.278  1.00  0.00     0.092 A 
HETATM   19  C24 UNL     1      -0.960  51.229 -26.686  1.00  0.00     0.069 A 
HETATM   20  C23 UNL     1      -1.539  50.023 -26.295  1.00  0.00     0.052 A 
HETATM   21 CL2  UNL     1       0.453  51.169 -27.679  1.00  0.00    -0.081 Cl
HETATM   22  C22 UNL     1      -2.684  50.022 -25.496  1.00  0.00     0.062 A 
HETATM   23 CL1  UNL     1      -3.368  48.475 -25.123  1.00  0.00    -0.082 Cl
BRANCH  18  24
HETATM   24  O1  UNL     1      -0.914  53.598 -26.718  1.00  0.00    -0.354 OA
HETATM   25  C1  UNL     1      -1.181  53.961 -28.068  1.00  0.00     0.210 C 
ENDBRANCH  18  24
ENDBRANCH  14  16
ENDBRANCH   1  14
BRANCH  11  26
HETATM   26  O3  UNL     1      -0.061  52.762 -21.899  1.00  0.00    -0.353 OA
HETATM   27  C19 UNL     1       0.539  52.435 -23.145  1.00  0.00     0.210 C 
ENDBRANCH  11  26
BRANCH  10  28
HETATM   28  O2  UNL     1      -0.235  51.920 -19.439  1.00  0.00    -0.343 OA
BRANCH  28  29
HETATM   29  C12 UNL     1      -0.253  51.553 -18.055  1.00  0.00     0.132 C 
HETATM   30  C13 UNL     1       0.860  52.282 -17.286  1.00  0.00     0.062 C 
HETATM   31  C14 UNL     1       1.482  51.430 -16.177  1.00  0.00     0.274 C 
HETATM   32  N4  UNL     1       0.467  50.561 -15.583  1.00  0.00     0.084 N 
HETATM   33  C15 UNL     1       0.946  49.933 -14.354  1.00  0.00     0.309 C 
HETATM   34  C16 UNL     1      -0.009  49.550 -16.539  1.00  0.00     0.274 C 
HETATM   35  C17 UNL     1      -0.023  50.043 -17.988  1.00  0.00     0.062 C 
ENDBRANCH  28  29
ENDBRANCH  10  28
TORSDOF 6
ENDMDL
