MODEL 1
REMARK minimizedAffinity -10.0429544
REMARK CNNscore 0.303968161
REMARK CNNaffinity 6.90154219
REMARK  5 active torsions:
REMARK  status: ('A' for Active; 'I' for Inactive)
REMARK    1  A    between atoms: O1_1  and  C1_2 
REMARK    2  A    between atoms: C5_6  and  N1_7 
REMARK    3  A    between atoms: N1_7  and  C6_8 
REMARK    4  A    between atoms: C7_11  and  C8_12 
REMARK    5  A    between atoms: C9_13  and  C10_14 
ROOT
HETATM    1  C6  UNL     1      -0.154  52.112 -23.224  1.00  0.00     0.119 A 
HETATM    2  N2  UNL     1      -1.255  51.437 -23.595  1.00  0.00    -0.328 N 
ATOM      3  H2  UNL     1      -1.434  51.213 -24.573  1.00  0.00     0.169 HD
HETATM    4  C7  UNL     1      -2.108  51.071 -22.630  1.00  0.00     0.107 A 
HETATM    5  N3  UNL     1      -1.955  51.320 -21.324  1.00  0.00    -0.342 N 
ATOM      6  H3  UNL     1      -2.648  51.016 -20.640  1.00  0.00     0.167 HD
HETATM    7  C17 UNL     1      -0.856  51.982 -20.957  1.00  0.00     0.047 A 
HETATM    8  C18 UNL     1      -0.666  52.252 -19.606  1.00  0.00     0.030 A 
HETATM    9  C19 UNL     1       0.462  52.931 -19.139  1.00  0.00     0.002 A 
HETATM   10  C20 UNL     1       1.436  53.348 -20.036  1.00  0.00     0.001 A 
HETATM   11  C21 UNL     1       1.269  53.088 -21.396  1.00  0.00     0.017 A 
HETATM   12  C22 UNL     1       0.115  52.412 -21.873  1.00  0.00     0.035 A 
ENDROOT
BRANCH   4  13
HETATM   13  C8  UNL     1      -3.310  50.326 -23.008  1.00  0.00     0.049 C 
HETATM   14  C9  UNL     1      -3.394  49.511 -24.071  1.00  0.00     0.016 C 
BRANCH  14  15
HETATM   15  C10 UNL     1      -4.627  48.786 -24.415  1.00  0.00    -0.016 A 
HETATM   16  C11 UNL     1      -5.503  48.419 -23.378  1.00  0.00     0.052 A 
HETATM   17  C12 UNL     1      -6.650  47.724 -23.701  1.00  0.00     0.105 A 
HETATM   18  C13 UNL     1      -6.951  47.387 -25.000  1.00  0.00     0.106 A 
HETATM   19  O3  UNL     1      -7.594  47.295 -22.821  1.00  0.00    -0.323 OA
HETATM   20  C14 UNL     1      -6.120  47.719 -26.048  1.00  0.00     0.059 A 
HETATM   21  O2  UNL     1      -8.124  46.707 -25.098  1.00  0.00    -0.323 OA
HETATM   22  C15 UNL     1      -4.945  48.422 -25.748  1.00  0.00     0.024 A 
HETATM   23 BR1  UNL     1      -3.814  48.872 -27.211  1.00  0.00    -0.050 Br
HETATM   24  C16 UNL     1      -8.527  46.651 -23.712  1.00  0.00     0.352 A 
ENDBRANCH  14  15
ENDBRANCH   4  13
BRANCH   1  25
HETATM   25  N1  UNL     1       0.760  52.557 -24.221  1.00  0.00    -0.342 N 
HETATM   26  H5  UNL     1       1.159  53.439 -23.916  1.00  0.00     0.167 HD
BRANCH  25  27
HETATM   27  C5  UNL     1       0.608  52.517 -25.627  1.00  0.00     0.036 A 
HETATM   28  C4  UNL     1       1.484  51.810 -26.462  1.00  0.00     0.029 A 
HETATM   29  C3  UNL     1       1.344  51.843 -27.854  1.00  0.00     0.005 A 
HETATM   30  C2  UNL     1       0.334  52.606 -28.433  1.00  0.00     0.036 A 
HETATM   31  C1  UNL     1      -0.514  53.343 -27.619  1.00  0.00     0.067 A 
HETATM   32  C23 UNL     1      -0.380  53.315 -26.230  1.00  0.00     0.066 A 
BRANCH  31  33
HETATM   33  O1  UNL     1      -1.479  54.095 -28.225  1.00  0.00    -0.361 OA
HETATM   34  H1  UNL     1      -1.993  54.554 -27.543  1.00  0.00     0.217 HD
ENDBRANCH  31  33
ENDBRANCH  25  27
ENDBRANCH   1  25
TORSDOF 5
ENDMDL
MODEL 2
REMARK minimizedAffinity -8.23878574
REMARK CNNscore 0.240348175
REMARK CNNaffinity 6.58125448
REMARK  5 active torsions:
REMARK  status: ('A' for Active; 'I' for Inactive)
REMARK    1  A    between atoms: O1_1  and  C1_2 
REMARK    2  A    between atoms: C5_6  and  N1_7 
REMARK    3  A    between atoms: N1_7  and  C6_8 
REMARK    4  A    between atoms: C7_11  and  C8_12 
REMARK    5  A    between atoms: C9_13  and  C10_14 
ROOT
HETATM    1  C6  UNL     1      -1.076  51.107 -20.628  1.00  0.00     0.119 A 
HETATM    2  N2  UNL     1      -0.583  51.191 -19.381  1.00  0.00    -0.328 N 
ATOM      3  H2  UNL     1      -0.291  52.085 -18.987  1.00  0.00     0.169 HD
HETATM    4  C7  UNL     1      -0.490  50.057 -18.676  1.00  0.00     0.107 A 
HETATM    5  N3  UNL     1      -0.850  48.843 -19.110  1.00  0.00    -0.342 N 
ATOM      6  H3  UNL     1      -0.748  48.016 -18.522  1.00  0.00     0.167 HD
HETATM    7  C17 UNL     1      -1.348  48.763 -20.346  1.00  0.00     0.047 A 
HETATM    8  C18 UNL     1      -1.734  47.516 -20.824  1.00  0.00     0.030 A 
HETATM    9  C19 UNL     1      -2.274  47.348 -22.101  1.00  0.00     0.002 A 
HETATM   10  C20 UNL     1      -2.444  48.451 -22.928  1.00  0.00     0.001 A 
HETATM   11  C21 UNL     1      -2.065  49.712 -22.471  1.00  0.00     0.017 A 
HETATM   12  C22 UNL     1      -1.502  49.881 -21.178  1.00  0.00     0.035 A 
ENDROOT
BRANCH   4  13
HETATM   13  C8  UNL     1       0.034  50.125 -17.312  1.00  0.00     0.049 C 
HETATM   14  C9  UNL     1       0.808  51.116 -16.844  1.00  0.00     0.016 C 
BRANCH  14  15
HETATM   15  C10 UNL     1       1.317  51.139 -15.465  1.00  0.00    -0.016 A 
HETATM   16  C11 UNL     1       0.549  50.532 -14.455  1.00  0.00     0.052 A 
HETATM   17  C12 UNL     1       1.020  50.570 -13.159  1.00  0.00     0.105 A 
HETATM   18  C13 UNL     1       2.210  51.180 -12.838  1.00  0.00     0.106 A 
HETATM   19  O3  UNL     1       0.400  50.036 -12.073  1.00  0.00    -0.323 OA
HETATM   20  C14 UNL     1       2.992  51.793 -13.792  1.00  0.00     0.059 A 
HETATM   21  O2  UNL     1       2.487  51.102 -11.509  1.00  0.00    -0.323 OA
HETATM   22  C15 UNL     1       2.537  51.774 -15.117  1.00  0.00     0.024 A 
HETATM   23 BR1  UNL     1       3.634  52.625 -16.418  1.00  0.00    -0.050 Br
HETATM   24  C16 UNL     1       1.336  50.377 -11.029  1.00  0.00     0.352 A 
ENDBRANCH  14  15
ENDBRANCH   4  13
BRANCH   1  25
HETATM   25  N1  UNL     1      -1.155  52.282 -21.428  1.00  0.00    -0.342 N 
HETATM   26  H5  UNL     1      -1.927  52.847 -21.090  1.00  0.00     0.167 HD
BRANCH  25  27
HETATM   27  C5  UNL     1      -1.005  52.396 -22.831  1.00  0.00     0.036 A 
HETATM   28  C4  UNL     1      -2.099  52.467 -23.704  1.00  0.00     0.029 A 
HETATM   29  C3  UNL     1      -1.918  52.514 -25.090  1.00  0.00     0.005 A 
HETATM   30  C2  UNL     1      -0.635  52.469 -25.626  1.00  0.00     0.036 A 
HETATM   31  C1  UNL     1       0.455  52.358 -24.774  1.00  0.00     0.067 A 
HETATM   32  C23 UNL     1       0.282  52.309 -23.390  1.00  0.00     0.066 A 
BRANCH  31  33
HETATM   33  O1  UNL     1       1.697  52.296 -25.338  1.00  0.00    -0.361 OA
HETATM   34  H1  UNL     1       2.357  52.218 -24.632  1.00  0.00     0.217 HD
ENDBRANCH  31  33
ENDBRANCH  25  27
ENDBRANCH   1  25
TORSDOF 5
ENDMDL
MODEL 3
REMARK minimizedAffinity -8.01262665
REMARK CNNscore 0.236132249
REMARK CNNaffinity 6.72628927
REMARK  5 active torsions:
REMARK  status: ('A' for Active; 'I' for Inactive)
REMARK    1  A    between atoms: O1_1  and  C1_2 
REMARK    2  A    between atoms: C5_6  and  N1_7 
REMARK    3  A    between atoms: N1_7  and  C6_8 
REMARK    4  A    between atoms: C7_11  and  C8_12 
REMARK    5  A    between atoms: C9_13  and  C10_14 
ROOT
HETATM    1  C6  UNL     1      -1.168  50.509 -22.221  1.00  0.00     0.119 A 
HETATM    2  N2  UNL     1      -1.184  50.629 -20.883  1.00  0.00    -0.328 N 
ATOM      3  H2  UNL     1      -1.639  49.932 -20.294  1.00  0.00     0.169 HD
HETATM    4  C7  UNL     1      -0.579  51.699 -20.352  1.00  0.00     0.107 A 
HETATM    5  N3  UNL     1       0.043  52.662 -21.044  1.00  0.00    -0.342 N 
ATOM      6  H3  UNL     1       0.481  53.456 -20.577  1.00  0.00     0.167 HD
HETATM    7  C17 UNL     1       0.066  52.535 -22.373  1.00  0.00     0.047 A 
HETATM    8  C18 UNL     1       0.708  53.516 -23.120  1.00  0.00     0.030 A 
HETATM    9  C19 UNL     1       0.785  53.453 -24.514  1.00  0.00     0.002 A 
HETATM   10  C20 UNL     1       0.216  52.381 -25.187  1.00  0.00     0.001 A 
HETATM   11  C21 UNL     1      -0.433  51.384 -24.460  1.00  0.00     0.017 A 
HETATM   12  C22 UNL     1      -0.525  51.455 -23.045  1.00  0.00     0.035 A 
ENDROOT
BRANCH   4  13
HETATM   13  C8  UNL     1      -0.574  51.847 -18.896  1.00  0.00     0.049 C 
HETATM   14  C9  UNL     1      -0.046  50.955 -18.045  1.00  0.00     0.016 C 
BRANCH  14  15
HETATM   15  C10 UNL     1      -0.069  51.144 -16.587  1.00  0.00    -0.016 A 
HETATM   16  C11 UNL     1      -1.169  50.650 -15.862  1.00  0.00     0.052 A 
HETATM   17  C12 UNL     1      -1.197  50.845 -14.496  1.00  0.00     0.105 A 
HETATM   18  C13 UNL     1      -0.185  51.502 -13.837  1.00  0.00     0.106 A 
HETATM   19  O3  UNL     1      -2.184  50.433 -13.656  1.00  0.00    -0.323 OA
HETATM   20  C14 UNL     1       0.908  52.009 -14.505  1.00  0.00     0.059 A 
HETATM   21  O2  UNL     1      -0.409  51.583 -12.498  1.00  0.00    -0.323 OA
HETATM   22  C15 UNL     1       0.962  51.830 -15.894  1.00  0.00     0.024 A 
HETATM   23 BR1  UNL     1       2.481  52.537 -16.796  1.00  0.00    -0.050 Br
HETATM   24  C16 UNL     1      -1.679  50.905 -12.390  1.00  0.00     0.352 A 
ENDBRANCH  14  15
ENDBRANCH   4  13
BRANCH   1  25
HETATM   25  N1  UNL     1      -1.834  49.408 -22.830  1.00  0.00    -0.342 N 
HETATM   26  H5  UNL     1      -2.171  49.704 -23.741  1.00  0.00     0.167 HD
BRANCH  25  27
HETATM   27  C5  UNL     1      -2.716  48.479 -22.229  1.00  0.00     0.036 A 
HETATM   28  C4  UNL     1      -2.263  47.347 -21.537  1.00  0.00     0.029 A 
HETATM   29  C3  UNL     1      -3.162  46.412 -21.011  1.00  0.00     0.005 A 
HETATM   30  C2  UNL     1      -4.531  46.587 -21.189  1.00  0.00     0.036 A 
HETATM   31  C1  UNL     1      -4.989  47.682 -21.907  1.00  0.00     0.067 A 
HETATM   32  C23 UNL     1      -4.099  48.617 -22.437  1.00  0.00     0.066 A 
BRANCH  31  33
HETATM   33  O1  UNL     1      -6.338  47.808 -22.079  1.00  0.00    -0.361 OA
HETATM   34  H1  UNL     1      -6.514  48.609 -22.596  1.00  0.00     0.217 HD
ENDBRANCH  31  33
ENDBRANCH  25  27
ENDBRANCH   1  25
TORSDOF 5
ENDMDL
MODEL 4
REMARK minimizedAffinity -9.5187397
REMARK CNNscore 0.23443462
REMARK CNNaffinity 6.64393854
REMARK  5 active torsions:
REMARK  status: ('A' for Active; 'I' for Inactive)
REMARK    1  A    between atoms: O1_1  and  C1_2 
REMARK    2  A    between atoms: C5_6  and  N1_7 
REMARK    3  A    between atoms: N1_7  and  C6_8 
REMARK    4  A    between atoms: C7_11  and  C8_12 
REMARK    5  A    between atoms: C9_13  and  C10_14 
ROOT
HETATM    1  C6  UNL     1      -0.732  50.994 -24.510  1.00  0.00     0.119 A 
HETATM    2  N2  UNL     1      -1.983  50.506 -24.576  1.00  0.00    -0.328 N 
ATOM      3  H2  UNL     1      -2.523  50.321 -23.731  1.00  0.00     0.169 HD
HETATM    4  C7  UNL     1      -2.491  50.273 -25.792  1.00  0.00     0.107 A 
HETATM    5  N3  UNL     1      -1.858  50.487 -26.952  1.00  0.00    -0.342 N 
ATOM      6  H3  UNL     1      -2.302  50.282 -27.846  1.00  0.00     0.167 HD
HETATM    7  C17 UNL     1      -0.620  50.981 -26.884  1.00  0.00     0.047 A 
HETATM    8  C18 UNL     1       0.064  51.217 -28.072  1.00  0.00     0.030 A 
HETATM    9  C19 UNL     1       1.358  51.742 -28.088  1.00  0.00     0.002 A 
HETATM   10  C20 UNL     1       1.993  52.049 -26.892  1.00  0.00     0.001 A 
HETATM   11  C21 UNL     1       1.328  51.821 -25.688  1.00  0.00     0.017 A 
HETATM   12  C22 UNL     1       0.018  51.273 -25.670  1.00  0.00     0.035 A 
ENDROOT
BRANCH   4  13
HETATM   13  C8  UNL     1      -3.855  49.751 -25.889  1.00  0.00     0.049 C 
HETATM   14  C9  UNL     1      -4.173  48.548 -26.393  1.00  0.00     0.016 C 
BRANCH  14  15
HETATM   15  C10 UNL     1      -5.560  48.068 -26.476  1.00  0.00    -0.016 A 
HETATM   16  C11 UNL     1      -6.296  47.926 -25.285  1.00  0.00     0.052 A 
HETATM   17  C12 UNL     1      -7.591  47.459 -25.364  1.00  0.00     0.105 A 
HETATM   18  C13 UNL     1      -8.171  47.133 -26.567  1.00  0.00     0.106 A 
HETATM   19  O3  UNL     1      -8.430  47.264 -24.312  1.00  0.00    -0.323 OA
HETATM   20  C14 UNL     1      -7.489  47.248 -27.758  1.00  0.00     0.059 A 
HETATM   21  O2  UNL     1      -9.450  46.695 -26.421  1.00  0.00    -0.323 OA
HETATM   22  C15 UNL     1      -6.169  47.717 -27.708  1.00  0.00     0.024 A 
HETATM   23 BR1  UNL     1      -5.245  47.870 -29.365  1.00  0.00    -0.050 Br
HETATM   24  C16 UNL     1      -9.608  46.779 -24.989  1.00  0.00     0.352 A 
ENDBRANCH  14  15
ENDBRANCH   4  13
BRANCH   1  25
HETATM   25  N1  UNL     1      -0.137  51.219 -23.237  1.00  0.00    -0.342 N 
HETATM   26  H5  UNL     1      -0.749  50.832 -22.526  1.00  0.00     0.167 HD
BRANCH  25  27
HETATM   27  C5  UNL     1       0.523  52.382 -22.773  1.00  0.00     0.036 A 
HETATM   28  C4  UNL     1       0.959  52.525 -21.449  1.00  0.00     0.029 A 
HETATM   29  C3  UNL     1       1.551  53.713 -21.005  1.00  0.00     0.005 A 
HETATM   30  C2  UNL     1       1.694  54.786 -21.878  1.00  0.00     0.036 A 
HETATM   31  C1  UNL     1       1.229  54.671 -23.181  1.00  0.00     0.067 A 
HETATM   32  C23 UNL     1       0.637  53.490 -23.630  1.00  0.00     0.066 A 
BRANCH  31  33
HETATM   33  O1  UNL     1       1.369  55.753 -24.002  1.00  0.00    -0.361 OA
HETATM   34  H1  UNL     1       1.002  55.535 -24.873  1.00  0.00     0.217 HD
ENDBRANCH  31  33
ENDBRANCH  25  27
ENDBRANCH   1  25
TORSDOF 5
ENDMDL
MODEL 5
REMARK minimizedAffinity -9.79181671
REMARK CNNscore 0.229118332
REMARK CNNaffinity 6.73174238
REMARK  5 active torsions:
REMARK  status: ('A' for Active; 'I' for Inactive)
REMARK    1  A    between atoms: O1_1  and  C1_2 
REMARK    2  A    between atoms: C5_6  and  N1_7 
REMARK    3  A    between atoms: N1_7  and  C6_8 
REMARK    4  A    between atoms: C7_11  and  C8_12 
REMARK    5  A    between atoms: C9_13  and  C10_14 
ROOT
HETATM    1  C6  UNL     1      -0.227  52.185 -23.108  1.00  0.00     0.119 A 
HETATM    2  N2  UNL     1      -1.338  51.528 -23.482  1.00  0.00    -0.328 N 
ATOM      3  H2  UNL     1      -1.531  51.333 -24.464  1.00  0.00     0.169 HD
HETATM    4  C7  UNL     1      -2.180  51.139 -22.517  1.00  0.00     0.107 A 
HETATM    5  N3  UNL     1      -2.007  51.349 -21.206  1.00  0.00    -0.342 N 
ATOM      6  H3  UNL     1      -2.692  51.030 -20.521  1.00  0.00     0.167 HD
HETATM    7  C17 UNL     1      -0.899  51.994 -20.836  1.00  0.00     0.047 A 
HETATM    8  C18 UNL     1      -0.689  52.224 -19.481  1.00  0.00     0.030 A 
HETATM    9  C19 UNL     1       0.450  52.882 -19.010  1.00  0.00     0.002 A 
HETATM   10  C20 UNL     1       1.414  53.319 -19.908  1.00  0.00     0.001 A 
HETATM   11  C21 UNL     1       1.226  53.100 -21.272  1.00  0.00     0.017 A 
HETATM   12  C22 UNL     1       0.062  52.444 -21.753  1.00  0.00     0.035 A 
ENDROOT
BRANCH   4  13
HETATM   13  C8  UNL     1      -3.391  50.412 -22.899  1.00  0.00     0.049 C 
HETATM   14  C9  UNL     1      -3.424  49.110 -23.223  1.00  0.00     0.016 C 
BRANCH  14  15
HETATM   15  C10 UNL     1      -4.666  48.422 -23.606  1.00  0.00    -0.016 A 
HETATM   16  C11 UNL     1      -5.075  48.472 -24.951  1.00  0.00     0.052 A 
HETATM   17  C12 UNL     1      -6.250  47.842 -25.305  1.00  0.00     0.105 A 
HETATM   18  C13 UNL     1      -7.019  47.173 -24.383  1.00  0.00     0.106 A 
HETATM   19  O3  UNL     1      -6.782  47.799 -26.556  1.00  0.00    -0.323 OA
HETATM   20  C14 UNL     1      -6.664  47.103 -23.053  1.00  0.00     0.059 A 
HETATM   21  O2  UNL     1      -8.131  46.623 -24.940  1.00  0.00    -0.323 OA
HETATM   22  C15 UNL     1      -5.476  47.738 -22.664  1.00  0.00     0.024 A 
HETATM   23 BR1  UNL     1      -5.004  47.627 -20.824  1.00  0.00    -0.050 Br
HETATM   24  C16 UNL     1      -7.976  47.025 -26.318  1.00  0.00     0.352 A 
ENDBRANCH  14  15
ENDBRANCH   4  13
BRANCH   1  25
HETATM   25  N1  UNL     1       0.675  52.654 -24.104  1.00  0.00    -0.342 N 
HETATM   26  H5  UNL     1       0.985  53.583 -23.842  1.00  0.00     0.167 HD
BRANCH  25  27
HETATM   27  C5  UNL     1       0.573  52.520 -25.509  1.00  0.00     0.036 A 
HETATM   28  C4  UNL     1       1.427  51.696 -26.254  1.00  0.00     0.029 A 
HETATM   29  C3  UNL     1       1.341  51.636 -27.649  1.00  0.00     0.005 A 
HETATM   30  C2  UNL     1       0.410  52.420 -28.323  1.00  0.00     0.036 A 
HETATM   31  C1  UNL     1      -0.414  53.271 -27.600  1.00  0.00     0.067 A 
HETATM   32  C23 UNL     1      -0.333  53.337 -26.208  1.00  0.00     0.066 A 
BRANCH  31  33
HETATM   33  O1  UNL     1      -1.300  54.040 -28.298  1.00  0.00    -0.361 OA
HETATM   34  H1  UNL     1      -1.805  54.582 -27.672  1.00  0.00     0.217 HD
ENDBRANCH  31  33
ENDBRANCH  25  27
ENDBRANCH   1  25
TORSDOF 5
ENDMDL
MODEL 6
REMARK minimizedAffinity -9.88358402
REMARK CNNscore 0.208052367
REMARK CNNaffinity 6.61358023
REMARK  5 active torsions:
REMARK  status: ('A' for Active; 'I' for Inactive)
REMARK    1  A    between atoms: O1_1  and  C1_2 
REMARK    2  A    between atoms: C5_6  and  N1_7 
REMARK    3  A    between atoms: N1_7  and  C6_8 
REMARK    4  A    between atoms: C7_11  and  C8_12 
REMARK    5  A    between atoms: C9_13  and  C10_14 
ROOT
HETATM    1  C6  UNL     1      -2.519  49.625 -25.011  1.00  0.00     0.119 A 
HETATM    2  N2  UNL     1      -1.938  50.084 -23.889  1.00  0.00    -0.328 N 
ATOM      3  H2  UNL     1      -1.015  50.518 -23.911  1.00  0.00     0.169 HD
HETATM    4  C7  UNL     1      -2.616  49.948 -22.743  1.00  0.00     0.107 A 
HETATM    5  N3  UNL     1      -3.829  49.395 -22.620  1.00  0.00    -0.342 N 
ATOM      6  H3  UNL     1      -4.289  49.318 -21.714  1.00  0.00     0.167 HD
HETATM    7  C17 UNL     1      -4.408  48.949 -23.737  1.00  0.00     0.047 A 
HETATM    8  C18 UNL     1      -5.669  48.371 -23.643  1.00  0.00     0.030 A 
HETATM    9  C19 UNL     1      -6.348  47.890 -24.765  1.00  0.00     0.002 A 
HETATM   10  C20 UNL     1      -5.762  47.989 -26.020  1.00  0.00     0.001 A 
HETATM   11  C21 UNL     1      -4.498  48.564 -26.140  1.00  0.00     0.017 A 
HETATM   12  C22 UNL     1      -3.801  49.041 -24.998  1.00  0.00     0.035 A 
ENDROOT
BRANCH   4  13
HETATM   13  C8  UNL     1      -2.008  50.449 -21.510  1.00  0.00     0.049 C 
HETATM   14  C9  UNL     1      -0.753  50.915 -21.417  1.00  0.00     0.016 C 
BRANCH  14  15
HETATM   15  C10 UNL     1      -0.183  51.403 -20.153  1.00  0.00    -0.016 A 
HETATM   16  C11 UNL     1      -0.484  50.710 -18.966  1.00  0.00     0.052 A 
HETATM   17  C12 UNL     1       0.038  51.181 -17.779  1.00  0.00     0.105 A 
HETATM   18  C13 UNL     1       0.836  52.299 -17.732  1.00  0.00     0.106 A 
HETATM   19  O3  UNL     1      -0.159  50.630 -16.552  1.00  0.00    -0.323 OA
HETATM   20  C14 UNL     1       1.153  53.015 -18.866  1.00  0.00     0.059 A 
HETATM   21  O2  UNL     1       1.244  52.588 -16.467  1.00  0.00    -0.323 OA
HETATM   22  C15 UNL     1       0.633  52.562 -20.086  1.00  0.00     0.024 A 
HETATM   23 BR1  UNL     1       1.084  53.564 -21.640  1.00  0.00    -0.050 Br
HETATM   24  C16 UNL     1       0.608  51.527 -15.723  1.00  0.00     0.352 A 
ENDBRANCH  14  15
ENDBRANCH   4  13
BRANCH   1  25
HETATM   25  N1  UNL     1      -1.816  49.711 -26.246  1.00  0.00    -0.342 N 
HETATM   26  H5  UNL     1      -1.291  48.853 -26.375  1.00  0.00     0.167 HD
BRANCH  25  27
HETATM   27  C5  UNL     1      -1.126  50.824 -26.783  1.00  0.00     0.036 A 
HETATM   28  C4  UNL     1       0.270  50.944 -26.733  1.00  0.00     0.029 A 
HETATM   29  C3  UNL     1       0.917  52.087 -27.215  1.00  0.00     0.005 A 
HETATM   30  C2  UNL     1       0.171  53.140 -27.736  1.00  0.00     0.036 A 
HETATM   31  C1  UNL     1      -1.213  53.050 -27.754  1.00  0.00     0.067 A 
HETATM   32  C23 UNL     1      -1.866  51.914 -27.273  1.00  0.00     0.066 A 
BRANCH  31  33
HETATM   33  O1  UNL     1      -1.911  54.113 -28.254  1.00  0.00    -0.361 OA
HETATM   34  H1  UNL     1      -2.859  53.916 -28.204  1.00  0.00     0.217 HD
ENDBRANCH  31  33
ENDBRANCH  25  27
ENDBRANCH   1  25
TORSDOF 5
ENDMDL
MODEL 7
REMARK minimizedAffinity -9.74039173
REMARK CNNscore 0.204149187
REMARK CNNaffinity 6.60754204
REMARK  5 active torsions:
REMARK  status: ('A' for Active; 'I' for Inactive)
REMARK    1  A    between atoms: O1_1  and  C1_2 
REMARK    2  A    between atoms: C5_6  and  N1_7 
REMARK    3  A    between atoms: N1_7  and  C6_8 
REMARK    4  A    between atoms: C7_11  and  C8_12 
REMARK    5  A    between atoms: C9_13  and  C10_14 
ROOT
HETATM    1  C6  UNL     1      -0.670  50.959 -24.712  1.00  0.00     0.119 A 
HETATM    2  N2  UNL     1      -1.919  50.491 -24.878  1.00  0.00    -0.328 N 
ATOM      3  H2  UNL     1      -2.517  50.283 -24.079  1.00  0.00     0.169 HD
HETATM    4  C7  UNL     1      -2.348  50.309 -26.133  1.00  0.00     0.107 A 
HETATM    5  N3  UNL     1      -1.636  50.556 -27.240  1.00  0.00    -0.342 N 
ATOM      6  H3  UNL     1      -2.022  50.390 -28.169  1.00  0.00     0.167 HD
HETATM    7  C17 UNL     1      -0.399  51.029 -27.072  1.00  0.00     0.047 A 
HETATM    8  C18 UNL     1       0.364  51.299 -28.202  1.00  0.00     0.030 A 
HETATM    9  C19 UNL     1       1.663  51.806 -28.114  1.00  0.00     0.002 A 
HETATM   10  C20 UNL     1       2.220  52.060 -26.868  1.00  0.00     0.001 A 
HETATM   11  C21 UNL     1       1.474  51.798 -25.720  1.00  0.00     0.017 A 
HETATM   12  C22 UNL     1       0.160  51.269 -25.808  1.00  0.00     0.035 A 
ENDROOT
BRANCH   4  13
HETATM   13  C8  UNL     1      -3.708  49.811 -26.340  1.00  0.00     0.049 C 
HETATM   14  C9  UNL     1      -4.028  48.515 -26.483  1.00  0.00     0.016 C 
BRANCH  14  15
HETATM   15  C10 UNL     1      -5.410  48.061 -26.695  1.00  0.00    -0.016 A 
HETATM   16  C11 UNL     1      -5.842  47.808 -28.009  1.00  0.00     0.052 A 
HETATM   17  C12 UNL     1      -7.144  47.399 -28.207  1.00  0.00     0.105 A 
HETATM   18  C13 UNL     1      -8.019  47.235 -27.159  1.00  0.00     0.106 A 
HETATM   19  O3  UNL     1      -7.714  47.117 -29.409  1.00  0.00    -0.323 OA
HETATM   20  C14 UNL     1      -7.645  47.478 -25.855  1.00  0.00     0.059 A 
HETATM   21  O2  UNL     1      -9.248  46.827 -27.572  1.00  0.00    -0.323 OA
HETATM   22  C15 UNL     1      -6.327  47.899 -25.625  1.00  0.00     0.024 A 
HETATM   23 BR1  UNL     1      -5.832  48.226 -23.817  1.00  0.00    -0.050 Br
HETATM   24  C16 UNL     1      -9.049  46.755 -29.000  1.00  0.00     0.352 A 
ENDBRANCH  14  15
ENDBRANCH   4  13
BRANCH   1  25
HETATM   25  N1  UNL     1      -0.158  51.128 -23.394  1.00  0.00    -0.342 N 
HETATM   26  H5  UNL     1      -0.821  50.725 -22.741  1.00  0.00     0.167 HD
BRANCH  25  27
HETATM   27  C5  UNL     1       0.484  52.264 -22.845  1.00  0.00     0.036 A 
HETATM   28  C4  UNL     1       0.873  52.335 -21.501  1.00  0.00     0.029 A 
HETATM   29  C3  UNL     1       1.447  53.497 -20.973  1.00  0.00     0.005 A 
HETATM   30  C2  UNL     1       1.620  54.616 -21.781  1.00  0.00     0.036 A 
HETATM   31  C1  UNL     1       1.201  54.571 -23.103  1.00  0.00     0.067 A 
HETATM   32  C23 UNL     1       0.626  53.417 -23.636  1.00  0.00     0.066 A 
BRANCH  31  33
HETATM   33  O1  UNL     1       1.368  55.696 -23.859  1.00  0.00    -0.361 OA
HETATM   34  H1  UNL     1       1.033  55.526 -24.753  1.00  0.00     0.217 HD
ENDBRANCH  31  33
ENDBRANCH  25  27
ENDBRANCH   1  25
TORSDOF 5
ENDMDL
MODEL 8
REMARK minimizedAffinity -9.83642101
REMARK CNNscore 0.177296504
REMARK CNNaffinity 6.69055223
REMARK  5 active torsions:
REMARK  status: ('A' for Active; 'I' for Inactive)
REMARK    1  A    between atoms: O1_1  and  C1_2 
REMARK    2  A    between atoms: C5_6  and  N1_7 
REMARK    3  A    between atoms: N1_7  and  C6_8 
REMARK    4  A    between atoms: C7_11  and  C8_12 
REMARK    5  A    between atoms: C9_13  and  C10_14 
ROOT
HETATM    1  C6  UNL     1      -1.215  51.513 -23.876  1.00  0.00     0.119 A 
HETATM    2  N2  UNL     1      -0.563  51.534 -22.702  1.00  0.00    -0.328 N 
ATOM      3  H2  UNL     1       0.120  52.261 -22.489  1.00  0.00     0.169 HD
HETATM    4  C7  UNL     1      -0.843  50.565 -21.822  1.00  0.00     0.107 A 
HETATM    5  N3  UNL     1      -1.723  49.574 -22.013  1.00  0.00    -0.342 N 
ATOM      6  H3  UNL     1      -1.886  48.863 -21.302  1.00  0.00     0.167 HD
HETATM    7  C17 UNL     1      -2.377  49.561 -23.177  1.00  0.00     0.047 A 
HETATM    8  C18 UNL     1      -3.300  48.546 -23.404  1.00  0.00     0.030 A 
HETATM    9  C19 UNL     1      -4.033  48.466 -24.591  1.00  0.00     0.002 A 
HETATM   10  C20 UNL     1      -3.852  49.424 -25.579  1.00  0.00     0.001 A 
HETATM   11  C21 UNL     1      -2.932  50.451 -25.374  1.00  0.00     0.017 A 
HETATM   12  C22 UNL     1      -2.176  50.525 -24.175  1.00  0.00     0.035 A 
ENDROOT
BRANCH   4  13
HETATM   13  C8  UNL     1      -0.153  50.573 -20.532  1.00  0.00     0.049 C 
HETATM   14  C9  UNL     1      -0.581  51.235 -19.446  1.00  0.00     0.016 C 
BRANCH  14  15
HETATM   15  C10 UNL     1       0.150  51.218 -18.170  1.00  0.00    -0.016 A 
HETATM   16  C11 UNL     1       1.173  52.162 -17.969  1.00  0.00     0.052 A 
HETATM   17  C12 UNL     1       1.870  52.133 -16.779  1.00  0.00     0.105 A 
HETATM   18  C13 UNL     1       1.588  51.213 -15.797  1.00  0.00     0.106 A 
HETATM   19  O3  UNL     1       2.884  52.970 -16.432  1.00  0.00    -0.323 OA
HETATM   20  C14 UNL     1       0.600  50.265 -15.951  1.00  0.00     0.059 A 
HETATM   21  O2  UNL     1       2.388  51.359 -14.707  1.00  0.00    -0.323 OA
HETATM   22  C15 UNL     1      -0.122  50.268 -17.153  1.00  0.00     0.024 A 
HETATM   23 BR1  UNL     1      -1.483  48.951 -17.343  1.00  0.00    -0.050 Br
HETATM   24  C16 UNL     1       3.209  52.474 -15.116  1.00  0.00     0.352 A 
ENDBRANCH  14  15
ENDBRANCH   4  13
BRANCH   1  25
HETATM   25  N1  UNL     1      -0.918  52.500 -24.858  1.00  0.00    -0.342 N 
HETATM   26  H5  UNL     1      -1.777  52.990 -25.087  1.00  0.00     0.167 HD
BRANCH  25  27
HETATM   27  C5  UNL     1      -0.072  52.385 -25.986  1.00  0.00     0.036 A 
HETATM   28  C4  UNL     1      -0.513  52.645 -27.291  1.00  0.00     0.029 A 
HETATM   29  C3  UNL     1       0.330  52.458 -28.392  1.00  0.00     0.005 A 
HETATM   30  C2  UNL     1       1.626  51.986 -28.203  1.00  0.00     0.036 A 
HETATM   31  C1  UNL     1       2.060  51.686 -26.920  1.00  0.00     0.067 A 
HETATM   32  C23 UNL     1       1.224  51.868 -25.817  1.00  0.00     0.066 A 
BRANCH  31  33
HETATM   33  O1  UNL     1       3.330  51.204 -26.777  1.00  0.00    -0.361 OA
HETATM   34  H1  UNL     1       3.498  51.037 -25.837  1.00  0.00     0.217 HD
ENDBRANCH  31  33
ENDBRANCH  25  27
ENDBRANCH   1  25
TORSDOF 5
ENDMDL
MODEL 9
REMARK minimizedAffinity -9.4458437
REMARK CNNscore 0.171568662
REMARK CNNaffinity 6.22797585
REMARK  5 active torsions:
REMARK  status: ('A' for Active; 'I' for Inactive)
REMARK    1  A    between atoms: O1_1  and  C1_2 
REMARK    2  A    between atoms: C5_6  and  N1_7 
REMARK    3  A    between atoms: N1_7  and  C6_8 
REMARK    4  A    between atoms: C7_11  and  C8_12 
REMARK    5  A    between atoms: C9_13  and  C10_14 
ROOT
HETATM    1  C6  UNL     1      -0.610  52.175 -23.253  1.00  0.00     0.119 A 
HETATM    2  N2  UNL     1      -1.467  51.147 -23.377  1.00  0.00    -0.328 N 
ATOM      3  H2  UNL     1      -1.884  50.911 -24.277  1.00  0.00     0.169 HD
HETATM    4  C7  UNL     1      -1.753  50.445 -22.273  1.00  0.00     0.107 A 
HETATM    5  N3  UNL     1      -1.253  50.680 -21.054  1.00  0.00    -0.342 N 
ATOM      6  H3  UNL     1      -1.517  50.109 -20.251  1.00  0.00     0.167 HD
HETATM    7  C17 UNL     1      -0.395  51.696 -20.935  1.00  0.00     0.047 A 
HETATM    8  C18 UNL     1       0.144  51.963 -19.682  1.00  0.00     0.030 A 
HETATM    9  C19 UNL     1       1.056  53.001 -19.475  1.00  0.00     0.002 A 
HETATM   10  C20 UNL     1       1.453  53.793 -20.544  1.00  0.00     0.001 A 
HETATM   11  C21 UNL     1       0.927  53.544 -21.811  1.00  0.00     0.017 A 
HETATM   12  C22 UNL     1      -0.012  52.499 -22.019  1.00  0.00     0.035 A 
ENDROOT
BRANCH   4  13
HETATM   13  C8  UNL     1      -2.675  49.315 -22.385  1.00  0.00     0.049 C 
HETATM   14  C9  UNL     1      -3.837  49.216 -21.721  1.00  0.00     0.016 C 
BRANCH  14  15
HETATM   15  C10 UNL     1      -4.731  48.056 -21.860  1.00  0.00    -0.016 A 
HETATM   16  C11 UNL     1      -4.433  46.886 -21.138  1.00  0.00     0.052 A 
HETATM   17  C12 UNL     1      -5.263  45.794 -21.285  1.00  0.00     0.105 A 
HETATM   18  C13 UNL     1      -6.362  45.825 -22.110  1.00  0.00     0.106 A 
HETATM   19  O3  UNL     1      -5.113  44.594 -20.663  1.00  0.00    -0.323 OA
HETATM   20  C14 UNL     1      -6.690  46.945 -22.843  1.00  0.00     0.059 A 
HETATM   21  O2  UNL     1      -7.042  44.648 -22.108  1.00  0.00    -0.323 OA
HETATM   22  C15 UNL     1      -5.862  48.069 -22.717  1.00  0.00     0.024 A 
HETATM   23 BR1  UNL     1      -6.334  49.606 -23.735  1.00  0.00    -0.050 Br
HETATM   24  C16 UNL     1      -6.245  43.870 -21.189  1.00  0.00     0.352 A 
ENDBRANCH  14  15
ENDBRANCH   4  13
BRANCH   1  25
HETATM   25  N1  UNL     1      -0.310  52.973 -24.393  1.00  0.00    -0.342 N 
HETATM   26  H5  UNL     1      -1.023  53.690 -24.476  1.00  0.00     0.167 HD
BRANCH  25  27
HETATM   27  C5  UNL     1       0.148  52.548 -25.663  1.00  0.00     0.036 A 
HETATM   28  C4  UNL     1      -0.718  52.332 -26.744  1.00  0.00     0.029 A 
HETATM   29  C3  UNL     1      -0.242  51.849 -27.968  1.00  0.00     0.005 A 
HETATM   30  C2  UNL     1       1.109  51.553 -28.120  1.00  0.00     0.036 A 
HETATM   31  C1  UNL     1       1.969  51.724 -27.044  1.00  0.00     0.067 A 
HETATM   32  C23 UNL     1       1.501  52.204 -25.820  1.00  0.00     0.066 A 
BRANCH  31  33
HETATM   33  O1  UNL     1       3.284  51.402 -27.227  1.00  0.00    -0.361 OA
HETATM   34  H1  UNL     1       3.764  51.567 -26.400  1.00  0.00     0.217 HD
ENDBRANCH  31  33
ENDBRANCH  25  27
ENDBRANCH   1  25
TORSDOF 5
ENDMDL
