MODEL 1
REMARK minimizedAffinity -8.99990273
REMARK CNNscore 0.393427461
REMARK CNNaffinity 7.24342108
REMARK  8 active torsions:
REMARK  status: ('A' for Active; 'I' for Inactive)
REMARK    1  A    between atoms: N2_5  and  C4_6 
REMARK    2  A    between atoms: C4_6  and  C5_7 
REMARK    3  A    between atoms: C8_10  and  N3_11 
REMARK       I    between atoms: N3_11  and  C9_12 
REMARK    4  A    between atoms: C9_12  and  C10_14 
REMARK    5  A    between atoms: C14_19  and  C15_20 
REMARK    6  A    between atoms: C16_21  and  C17_22 
REMARK    7  A    between atoms: C20_27  and  N5_28 
REMARK    8  A    between atoms: C28_37  and  C29_38 
ROOT
HETATM    1  C10 UNL     1       1.495  51.332 -15.216  1.00  0.00     0.033 A 
HETATM    2  C11 UNL     1       0.586  50.293 -14.985  1.00  0.00     0.019 A 
HETATM    3  C12 UNL     1      -0.312  49.915 -15.985  1.00  0.00     0.026 A 
HETATM    4  C13 UNL     1      -0.293  50.565 -17.223  1.00  0.00     0.052 A 
HETATM    5 CL1  UNL     1      -1.421  50.039 -18.424  1.00  0.00    -0.083 Cl
HETATM    6  C14 UNL     1       0.627  51.596 -17.467  1.00  0.00     0.040 A 
HETATM    7  C26 UNL     1       1.522  51.980 -16.459  1.00  0.00     0.039 A 
ENDROOT
BRANCH   1   8
HETATM    8  C9  UNL     1       2.454  51.684 -14.134  1.00  0.00     0.256 C 
HETATM    9  N3  UNL     1       1.869  52.044 -12.933  1.00  0.00    -0.323 N 
HETATM   10  H12 UNL     1       0.863  51.953 -12.864  1.00  0.00     0.169 HD
HETATM   11  O1  UNL     1       3.649  51.601 -14.383  1.00  0.00    -0.267 OA
BRANCH   9  12
HETATM   12  C8  UNL     1       2.533  52.438 -11.752  1.00  0.00     0.035 A 
HETATM   13  C7  UNL     1       2.619  51.650 -10.610  1.00  0.00     0.030 A 
HETATM   14  C6  UNL     1       3.301  52.111  -9.479  1.00  0.00     0.012 A 
HETATM   15  C5  UNL     1       3.910  53.376  -9.460  1.00  0.00    -0.015 A 
HETATM   16  C28 UNL     1       3.823  54.193 -10.609  1.00  0.00     0.058 A 
HETATM   17  C27 UNL     1       3.141  53.699 -11.745  1.00  0.00     0.046 A 
BRANCH  15  18
HETATM   18  C4  UNL     1       4.645  53.810  -8.206  1.00  0.00     0.311 C 
BRANCH  18  19
HETATM   19  N2  UNL     1       3.874  54.764  -7.406  1.00  0.00     0.096 N 
HETATM   20  C3  UNL     1       2.476  54.333  -7.255  1.00  0.00     0.303 C 
HETATM   21  C2  UNL     1       1.599  55.355  -6.481  1.00  0.00     0.302 C 
HETATM   22  N1  UNL     1       2.341  56.266  -5.591  1.00  0.00     0.087 N 
HETATM   23  C1  UNL     1       1.473  56.850  -4.576  1.00  0.00     0.310 C 
HETATM   24  C31 UNL     1       3.506  55.593  -5.008  1.00  0.00     0.302 C 
HETATM   25  C30 UNL     1       4.474  55.011  -6.076  1.00  0.00     0.303 C 
ENDBRANCH  18  19
ENDBRANCH  15  18
BRANCH  16  26
HETATM   26  C29 UNL     1       4.455  55.568 -10.691  1.00  0.00     0.418 C 
HETATM   27  F1  UNL     1       4.413  56.067 -11.967  1.00  0.00    -0.166 F 
HETATM   28  F2  UNL     1       3.836  56.520  -9.936  1.00  0.00    -0.166 F 
HETATM   29  F3  UNL     1       5.771  55.582 -10.353  1.00  0.00    -0.166 F 
ENDBRANCH  16  26
ENDBRANCH   9  12
ENDBRANCH   1   8
BRANCH   6  30
HETATM   30  C15 UNL     1       0.700  52.253 -18.739  1.00  0.00    -0.060 C 
HETATM   31  C16 UNL     1       0.789  52.747 -19.831  1.00  0.00    -0.060 C 
BRANCH  31  32
HETATM   32  C17 UNL     1       0.920  53.264 -21.155  1.00  0.00     0.035 A 
HETATM   33  C18 UNL     1       1.545  54.475 -21.402  1.00  0.00     0.108 A 
HETATM   34  N4  UNL     1       1.698  54.994 -22.637  1.00  0.00    -0.372 N 
HETATM   35  C19 UNL     1       1.197  54.257 -23.667  1.00  0.00     0.116 A 
ATOM     36  H4  UNL     1       2.163  55.888 -22.791  1.00  0.00     0.164 HD
HETATM   37  C20 UNL     1       0.531  53.028 -23.558  1.00  0.00     0.047 A 
HETATM   38  C25 UNL     1       0.413  52.548 -22.246  1.00  0.00     0.052 A 
BRANCH  37  39
HETATM   39  N5  UNL     1       0.028  52.337 -24.646  1.00  0.00    -0.376 N 
HETATM   40  C21 UNL     1       0.897  51.775 -25.696  1.00  0.00     0.149 C 
HETATM   41  C22 UNL     1       0.107  51.610 -27.006  1.00  0.00     0.187 C 
HETATM   42  O2  UNL     1      -1.037  50.753 -26.891  1.00  0.00    -0.388 OA
HETATM   43  C23 UNL     1      -1.612  50.743 -25.577  1.00  0.00     0.187 C 
HETATM   44  C24 UNL     1      -1.410  52.050 -24.792  1.00  0.00     0.149 C 
ENDBRANCH  37  39
ENDBRANCH  31  32
ENDBRANCH   6  30
TORSDOF 8
ENDMDL
MODEL 2
REMARK minimizedAffinity -9.20332718
REMARK CNNscore 0.36490941
REMARK CNNaffinity 7.47506285
REMARK  8 active torsions:
REMARK  status: ('A' for Active; 'I' for Inactive)
REMARK    1  A    between atoms: N2_5  and  C4_6 
REMARK    2  A    between atoms: C4_6  and  C5_7 
REMARK    3  A    between atoms: C8_10  and  N3_11 
REMARK       I    between atoms: N3_11  and  C9_12 
REMARK    4  A    between atoms: C9_12  and  C10_14 
REMARK    5  A    between atoms: C14_19  and  C15_20 
REMARK    6  A    between atoms: C16_21  and  C17_22 
REMARK    7  A    between atoms: C20_27  and  N5_28 
REMARK    8  A    between atoms: C28_37  and  C29_38 
ROOT
HETATM    1  C10 UNL     1      -0.059  52.432 -21.157  1.00  0.00     0.033 A 
HETATM    2  C11 UNL     1       0.790  53.132 -22.021  1.00  0.00     0.019 A 
HETATM    3  C12 UNL     1       0.672  52.968 -23.403  1.00  0.00     0.026 A 
HETATM    4  C13 UNL     1      -0.306  52.115 -23.923  1.00  0.00     0.052 A 
HETATM    5 CL1  UNL     1      -0.411  51.967 -25.643  1.00  0.00    -0.083 Cl
HETATM    6  C14 UNL     1      -1.173  51.424 -23.063  1.00  0.00     0.040 A 
HETATM    7  C26 UNL     1      -1.046  51.583 -21.677  1.00  0.00     0.039 A 
ENDROOT
BRANCH   1   8
HETATM    8  C9  UNL     1       0.082  52.658 -19.693  1.00  0.00     0.256 C 
HETATM    9  N3  UNL     1       0.257  51.509 -18.942  1.00  0.00    -0.323 N 
HETATM   10  H12 UNL     1       0.362  50.639 -19.447  1.00  0.00     0.169 HD
HETATM   11  O1  UNL     1       0.060  53.813 -19.291  1.00  0.00    -0.267 OA
BRANCH   9  12
HETATM   12  C8  UNL     1       0.399  51.427 -17.541  1.00  0.00     0.035 A 
HETATM   13  C7  UNL     1      -0.645  51.136 -16.669  1.00  0.00     0.030 A 
HETATM   14  C6  UNL     1      -0.421  51.067 -15.291  1.00  0.00     0.012 A 
HETATM   15  C5  UNL     1       0.855  51.292 -14.747  1.00  0.00    -0.015 A 
HETATM   16  C28 UNL     1       1.923  51.599 -15.618  1.00  0.00     0.058 A 
HETATM   17  C27 UNL     1       1.675  51.648 -17.009  1.00  0.00     0.046 A 
BRANCH  15  18
HETATM   18  C4  UNL     1       1.032  51.190 -13.244  1.00  0.00     0.311 C 
BRANCH  18  19
HETATM   19  N2  UNL     1       0.484  52.347 -12.534  1.00  0.00     0.096 N 
HETATM   20  C3  UNL     1      -0.776  52.014 -11.855  1.00  0.00     0.303 C 
HETATM   21  C2  UNL     1      -1.437  53.233 -11.154  1.00  0.00     0.302 C 
HETATM   22  N1  UNL     1      -0.515  54.330 -10.812  1.00  0.00     0.087 N 
HETATM   23  C1  UNL     1      -1.070  55.194  -9.777  1.00  0.00     0.310 C 
HETATM   24  C31 UNL     1       0.808  53.810 -10.454  1.00  0.00     0.302 C 
HETATM   25  C30 UNL     1       1.441  52.930 -11.568  1.00  0.00     0.303 C 
ENDBRANCH  18  19
ENDBRANCH  15  18
BRANCH  16  26
HETATM   26  C29 UNL     1       3.337  51.848 -15.130  1.00  0.00     0.418 C 
HETATM   27  F1  UNL     1       4.177  52.172 -16.163  1.00  0.00    -0.166 F 
HETATM   28  F2  UNL     1       3.457  52.890 -14.258  1.00  0.00    -0.166 F 
HETATM   29  F3  UNL     1       3.907  50.764 -14.541  1.00  0.00    -0.166 F 
ENDBRANCH  16  26
ENDBRANCH   9  12
ENDBRANCH   1   8
BRANCH   6  30
HETATM   30  C15 UNL     1      -2.213  50.575 -23.566  1.00  0.00    -0.060 C 
HETATM   31  C16 UNL     1      -3.129  49.897 -23.947  1.00  0.00    -0.060 C 
BRANCH  31  32
HETATM   32  C17 UNL     1      -4.266  49.136 -24.356  1.00  0.00     0.035 A 
HETATM   33  C18 UNL     1      -5.186  48.659 -23.439  1.00  0.00     0.108 A 
HETATM   34  N4  UNL     1      -6.277  47.945 -23.784  1.00  0.00    -0.372 N 
HETATM   35  C19 UNL     1      -6.444  47.703 -25.113  1.00  0.00     0.116 A 
ATOM     36  H4  UNL     1      -6.941  47.606 -23.088  1.00  0.00     0.164 HD
HETATM   37  C20 UNL     1      -5.585  48.113 -26.144  1.00  0.00     0.047 A 
HETATM   38  C25 UNL     1      -4.475  48.853 -25.712  1.00  0.00     0.052 A 
BRANCH  37  39
HETATM   39  N5  UNL     1      -5.802  47.818 -27.477  1.00  0.00    -0.376 N 
HETATM   40  C21 UNL     1      -4.813  48.124 -28.526  1.00  0.00     0.149 C 
HETATM   41  C22 UNL     1      -5.509  48.250 -29.892  1.00  0.00     0.187 C 
HETATM   42  O2  UNL     1      -6.213  47.069 -30.298  1.00  0.00    -0.388 OA
HETATM   43  C23 UNL     1      -6.699  46.289 -29.197  1.00  0.00     0.187 C 
HETATM   44  C24 UNL     1      -7.011  47.108 -27.933  1.00  0.00     0.149 C 
ENDBRANCH  37  39
ENDBRANCH  31  32
ENDBRANCH   6  30
TORSDOF 8
ENDMDL
MODEL 3
REMARK minimizedAffinity -8.44342804
REMARK CNNscore 0.303544044
REMARK CNNaffinity 6.93490934
REMARK  8 active torsions:
REMARK  status: ('A' for Active; 'I' for Inactive)
REMARK    1  A    between atoms: N2_5  and  C4_6 
REMARK    2  A    between atoms: C4_6  and  C5_7 
REMARK    3  A    between atoms: C8_10  and  N3_11 
REMARK       I    between atoms: N3_11  and  C9_12 
REMARK    4  A    between atoms: C9_12  and  C10_14 
REMARK    5  A    between atoms: C14_19  and  C15_20 
REMARK    6  A    between atoms: C16_21  and  C17_22 
REMARK    7  A    between atoms: C20_27  and  N5_28 
REMARK    8  A    between atoms: C28_37  and  C29_38 
ROOT
HETATM    1  C10 UNL     1       0.432  52.205 -19.494  1.00  0.00     0.033 A 
HETATM    2  C11 UNL     1       1.157  53.332 -19.896  1.00  0.00     0.019 A 
HETATM    3  C12 UNL     1       1.202  53.689 -21.245  1.00  0.00     0.026 A 
HETATM    4  C13 UNL     1       0.509  52.930 -22.192  1.00  0.00     0.052 A 
HETATM    5 CL1  UNL     1       0.592  53.434 -23.844  1.00  0.00    -0.083 Cl
HETATM    6  C14 UNL     1      -0.236  51.809 -21.793  1.00  0.00     0.040 A 
HETATM    7  C26 UNL     1      -0.272  51.447 -20.440  1.00  0.00     0.039 A 
ENDROOT
BRANCH   1   8
HETATM    8  C9  UNL     1       0.386  51.876 -18.043  1.00  0.00     0.256 C 
HETATM    9  N3  UNL     1       1.480  52.308 -17.315  1.00  0.00    -0.323 N 
HETATM   10  H12 UNL     1       2.162  52.878 -17.800  1.00  0.00     0.169 HD
HETATM   11  O1  UNL     1      -0.603  51.290 -17.623  1.00  0.00    -0.267 OA
BRANCH   9  12
HETATM   12  C8  UNL     1       1.707  52.120 -15.935  1.00  0.00     0.035 A 
HETATM   13  C7  UNL     1       2.957  51.870 -15.380  1.00  0.00     0.030 A 
HETATM   14  C6  UNL     1       3.100  51.701 -13.999  1.00  0.00     0.012 A 
HETATM   15  C5  UNL     1       1.993  51.773 -13.137  1.00  0.00    -0.015 A 
HETATM   16  C28 UNL     1       0.716  52.016 -13.686  1.00  0.00     0.058 A 
HETATM   17  C27 UNL     1       0.598  52.199 -15.083  1.00  0.00     0.046 A 
BRANCH  15  18
HETATM   18  C4  UNL     1       2.220  51.593 -11.648  1.00  0.00     0.311 C 
BRANCH  18  19
HETATM   19  N2  UNL     1       2.122  50.192 -11.231  1.00  0.00     0.096 N 
HETATM   20  C3  UNL     1       3.451  49.602 -11.013  1.00  0.00     0.303 C 
HETATM   21  C2  UNL     1       3.401  48.094 -10.647  1.00  0.00     0.302 C 
HETATM   22  N1  UNL     1       2.127  47.636 -10.065  1.00  0.00     0.087 N 
HETATM   23  C1  UNL     1       2.291  46.387  -9.330  1.00  0.00     0.310 C 
HETATM   24  C31 UNL     1       1.519  48.688  -9.245  1.00  0.00     0.302 C 
HETATM   25  C30 UNL     1       1.284  50.012 -10.025  1.00  0.00     0.303 C 
ENDBRANCH  18  19
ENDBRANCH  15  18
BRANCH  16  26
HETATM   26  C29 UNL     1      -0.537  52.122 -12.839  1.00  0.00     0.418 C 
HETATM   27  F1  UNL     1      -0.846  50.927 -12.243  1.00  0.00    -0.166 F 
HETATM   28  F2  UNL     1      -0.446  53.003 -11.803  1.00  0.00    -0.166 F 
HETATM   29  F3  UNL     1      -1.647  52.454 -13.551  1.00  0.00    -0.166 F 
ENDBRANCH  16  26
ENDBRANCH   9  12
ENDBRANCH   1   8
BRANCH   6  30
HETATM   30  C15 UNL     1      -0.992  51.035 -22.733  1.00  0.00    -0.060 C 
HETATM   31  C16 UNL     1      -1.663  50.441 -23.534  1.00  0.00    -0.060 C 
BRANCH  31  32
HETATM   32  C17 UNL     1      -2.498  49.804 -24.502  1.00  0.00     0.035 A 
HETATM   33  C18 UNL     1      -2.135  49.729 -25.836  1.00  0.00     0.108 A 
HETATM   34  N4  UNL     1      -2.889  49.129 -26.778  1.00  0.00    -0.372 N 
HETATM   35  C19 UNL     1      -4.062  48.582 -26.355  1.00  0.00     0.116 A 
ATOM     36  H4  UNL     1      -2.598  49.087 -27.755  1.00  0.00     0.164 HD
HETATM   37  C20 UNL     1      -4.557  48.599 -25.042  1.00  0.00     0.047 A 
HETATM   38  C25 UNL     1      -3.718  49.235 -24.116  1.00  0.00     0.052 A 
BRANCH  37  39
HETATM   39  N5  UNL     1      -5.768  48.039 -24.679  1.00  0.00    -0.376 N 
HETATM   40  C21 UNL     1      -6.137  47.798 -23.273  1.00  0.00     0.149 C 
HETATM   41  C22 UNL     1      -7.195  46.684 -23.186  1.00  0.00     0.187 C 
HETATM   42  O2  UNL     1      -8.403  46.969 -23.904  1.00  0.00    -0.388 OA
HETATM   43  C23 UNL     1      -8.203  47.825 -25.037  1.00  0.00     0.187 C 
HETATM   44  C24 UNL     1      -6.806  47.712 -25.673  1.00  0.00     0.149 C 
ENDBRANCH  37  39
ENDBRANCH  31  32
ENDBRANCH   6  30
TORSDOF 8
ENDMDL
MODEL 4
REMARK minimizedAffinity -9.22698689
REMARK CNNscore 0.148467317
REMARK CNNaffinity 6.82613754
REMARK  8 active torsions:
REMARK  status: ('A' for Active; 'I' for Inactive)
REMARK    1  A    between atoms: N2_5  and  C4_6 
REMARK    2  A    between atoms: C4_6  and  C5_7 
REMARK    3  A    between atoms: C8_10  and  N3_11 
REMARK       I    between atoms: N3_11  and  C9_12 
REMARK    4  A    between atoms: C9_12  and  C10_14 
REMARK    5  A    between atoms: C14_19  and  C15_20 
REMARK    6  A    between atoms: C16_21  and  C17_22 
REMARK    7  A    between atoms: C20_27  and  N5_28 
REMARK    8  A    between atoms: C28_37  and  C29_38 
ROOT
HETATM    1  C10 UNL     1      -0.569  51.072 -21.653  1.00  0.00     0.033 A 
HETATM    2  C11 UNL     1       0.116  52.191 -22.140  1.00  0.00     0.019 A 
HETATM    3  C12 UNL     1      -0.083  52.616 -23.455  1.00  0.00     0.026 A 
HETATM    4  C13 UNL     1      -0.980  51.931 -24.282  1.00  0.00     0.052 A 
HETATM    5 CL1  UNL     1      -1.193  52.516 -25.895  1.00  0.00    -0.083 Cl
HETATM    6  C14 UNL     1      -1.684  50.819 -23.794  1.00  0.00     0.040 A 
HETATM    7  C26 UNL     1      -1.475  50.390 -22.477  1.00  0.00     0.039 A 
ENDROOT
BRANCH   1   8
HETATM    8  C9  UNL     1      -0.349  50.671 -20.237  1.00  0.00     0.256 C 
HETATM    9  N3  UNL     1       0.113  51.681 -19.412  1.00  0.00    -0.323 N 
HETATM   10  H12 UNL     1       0.177  52.610 -19.810  1.00  0.00     0.169 HD
HETATM   11  O1  UNL     1      -0.616  49.518 -19.924  1.00  0.00    -0.267 OA
BRANCH   9  12
HETATM   12  C8  UNL     1       0.421  51.579 -18.039  1.00  0.00     0.035 A 
HETATM   13  C7  UNL     1      -0.438  51.038 -17.089  1.00  0.00     0.030 A 
HETATM   14  C6  UNL     1      -0.056  50.968 -15.745  1.00  0.00     0.012 A 
HETATM   15  C5  UNL     1       1.195  51.441 -15.317  1.00  0.00    -0.015 A 
HETATM   16  C28 UNL     1       2.074  52.002 -16.268  1.00  0.00     0.058 A 
HETATM   17  C27 UNL     1       1.672  52.049 -17.623  1.00  0.00     0.046 A 
BRANCH  15  18
HETATM   18  C4  UNL     1       1.551  51.323 -13.847  1.00  0.00     0.311 C 
BRANCH  18  19
HETATM   19  N2  UNL     1       0.785  52.245 -13.007  1.00  0.00     0.096 N 
HETATM   20  C3  UNL     1      -0.427  51.607 -12.474  1.00  0.00     0.303 C 
HETATM   21  C2  UNL     1      -1.315  52.572 -11.643  1.00  0.00     0.302 C 
HETATM   22  N1  UNL     1      -0.610  53.735 -11.075  1.00  0.00     0.087 N 
HETATM   23  C1  UNL     1      -1.347  54.317  -9.960  1.00  0.00     0.310 C 
HETATM   24  C31 UNL     1       0.766  53.384 -10.711  1.00  0.00     0.302 C 
HETATM   25  C30 UNL     1       1.587  52.812 -11.901  1.00  0.00     0.303 C 
ENDBRANCH  18  19
ENDBRANCH  15  18
BRANCH  16  26
HETATM   26  C29 UNL     1       3.448  52.531 -15.907  1.00  0.00     0.418 C 
HETATM   27  F1  UNL     1       3.598  52.662 -14.551  1.00  0.00    -0.166 F 
HETATM   28  F2  UNL     1       4.481  51.724 -16.283  1.00  0.00    -0.166 F 
HETATM   29  F3  UNL     1       3.703  53.768 -16.408  1.00  0.00    -0.166 F 
ENDBRANCH  16  26
ENDBRANCH   9  12
ENDBRANCH   1   8
BRANCH   6  30
HETATM   30  C15 UNL     1      -2.641  50.122 -24.602  1.00  0.00    -0.060 C 
HETATM   31  C16 UNL     1      -3.403  49.548 -25.332  1.00  0.00    -0.060 C 
BRANCH  31  32
HETATM   32  C17 UNL     1      -4.256  48.875 -26.260  1.00  0.00     0.035 A 
HETATM   33  C18 UNL     1      -3.929  48.771 -27.601  1.00  0.00     0.108 A 
HETATM   34  N4  UNL     1      -4.701  48.137 -28.506  1.00  0.00    -0.372 N 
HETATM   35  C19 UNL     1      -5.853  47.586 -28.036  1.00  0.00     0.116 A 
ATOM     36  H4  UNL     1      -4.436  48.074 -29.489  1.00  0.00     0.164 HD
HETATM   37  C20 UNL     1      -6.312  47.629 -26.711  1.00  0.00     0.047 A 
HETATM   38  C25 UNL     1      -5.456  48.300 -25.825  1.00  0.00     0.052 A 
BRANCH  37  39
HETATM   39  N5  UNL     1      -7.505  47.063 -26.300  1.00  0.00    -0.376 N 
HETATM   40  C21 UNL     1      -8.658  46.906 -27.204  1.00  0.00     0.149 C 
HETATM   41  C22 UNL     1      -9.962  46.824 -26.392  1.00  0.00     0.187 C 
HETATM   42  O2  UNL     1      -9.999  45.738 -25.456  1.00  0.00    -0.388 OA
HETATM   43  C23 UNL     1      -8.703  45.360 -24.971  1.00  0.00     0.187 C 
HETATM   44  C24 UNL     1      -7.681  46.510 -24.945  1.00  0.00     0.149 C 
ENDBRANCH  37  39
ENDBRANCH  31  32
ENDBRANCH   6  30
TORSDOF 8
ENDMDL
MODEL 5
REMARK minimizedAffinity -8.99318218
REMARK CNNscore 0.142859653
REMARK CNNaffinity 6.80779791
REMARK  8 active torsions:
REMARK  status: ('A' for Active; 'I' for Inactive)
REMARK    1  A    between atoms: N2_5  and  C4_6 
REMARK    2  A    between atoms: C4_6  and  C5_7 
REMARK    3  A    between atoms: C8_10  and  N3_11 
REMARK       I    between atoms: N3_11  and  C9_12 
REMARK    4  A    between atoms: C9_12  and  C10_14 
REMARK    5  A    between atoms: C14_19  and  C15_20 
REMARK    6  A    between atoms: C16_21  and  C17_22 
REMARK    7  A    between atoms: C20_27  and  N5_28 
REMARK    8  A    between atoms: C28_37  and  C29_38 
ROOT
HETATM    1  C10 UNL     1      -0.051  50.740 -16.185  1.00  0.00     0.033 A 
HETATM    2  C11 UNL     1      -0.610  49.529 -15.763  1.00  0.00     0.019 A 
HETATM    3  C12 UNL     1      -1.165  48.652 -16.696  1.00  0.00     0.026 A 
HETATM    4  C13 UNL     1      -1.150  48.978 -18.056  1.00  0.00     0.052 A 
HETATM    5 CL1  UNL     1      -1.841  47.843 -19.163  1.00  0.00    -0.083 Cl
HETATM    6  C14 UNL     1      -0.576  50.183 -18.488  1.00  0.00     0.040 A 
HETATM    7  C26 UNL     1      -0.027  51.066 -17.548  1.00  0.00     0.039 A 
ENDROOT
BRANCH   1   8
HETATM    8  C9  UNL     1       0.556  51.632 -15.161  1.00  0.00     0.256 C 
HETATM    9  N3  UNL     1      -0.000  51.531 -13.898  1.00  0.00    -0.323 N 
HETATM   10  H12 UNL     1      -0.697  50.810 -13.757  1.00  0.00     0.169 HD
HETATM   11  O1  UNL     1       1.491  52.343 -15.506  1.00  0.00    -0.267 OA
BRANCH   9  12
HETATM   12  C8  UNL     1       0.366  52.264 -12.749  1.00  0.00     0.035 A 
HETATM   13  C7  UNL     1       1.658  52.314 -12.239  1.00  0.00     0.030 A 
HETATM   14  C6  UNL     1       1.942  53.069 -11.096  1.00  0.00     0.012 A 
HETATM   15  C5  UNL     1       0.937  53.791 -10.432  1.00  0.00    -0.015 A 
HETATM   16  C28 UNL     1      -0.382  53.743 -10.932  1.00  0.00     0.058 A 
HETATM   17  C27 UNL     1      -0.641  52.984 -12.097  1.00  0.00     0.046 A 
BRANCH  15  18
HETATM   18  C4  UNL     1       1.315  54.601  -9.206  1.00  0.00     0.311 C 
BRANCH  18  19
HETATM   19  N2  UNL     1       2.755  54.579  -8.941  1.00  0.00     0.096 N 
HETATM   20  C3  UNL     1       3.369  55.890  -9.198  1.00  0.00     0.303 C 
HETATM   21  C2  UNL     1       4.911  55.893  -9.008  1.00  0.00     0.302 C 
HETATM   22  N1  UNL     1       5.432  54.834  -8.127  1.00  0.00     0.087 N 
HETATM   23  C1  UNL     1       6.760  55.161  -7.622  1.00  0.00     0.310 C 
HETATM   24  C31 UNL     1       4.484  54.536  -7.049  1.00  0.00     0.302 C 
HETATM   25  C30 UNL     1       3.076  54.130  -7.568  1.00  0.00     0.303 C 
ENDBRANCH  18  19
ENDBRANCH  15  18
BRANCH  16  26
HETATM   26  C29 UNL     1      -1.533  54.494 -10.292  1.00  0.00     0.418 C 
HETATM   27  F1  UNL     1      -1.694  54.145  -8.977  1.00  0.00    -0.166 F 
HETATM   28  F2  UNL     1      -1.377  55.849 -10.266  1.00  0.00    -0.166 F 
HETATM   29  F3  UNL     1      -2.736  54.240 -10.871  1.00  0.00    -0.166 F 
ENDBRANCH  16  26
ENDBRANCH   9  12
ENDBRANCH   1   8
BRANCH   6  30
HETATM   30  C15 UNL     1      -0.506  50.527 -19.878  1.00  0.00    -0.060 C 
HETATM   31  C16 UNL     1      -0.449  50.881 -21.025  1.00  0.00    -0.060 C 
BRANCH  31  32
HETATM   32  C17 UNL     1      -0.378  51.377 -22.362  1.00  0.00     0.035 A 
HETATM   33  C18 UNL     1       0.432  52.450 -22.695  1.00  0.00     0.108 A 
HETATM   34  N4  UNL     1       0.535  52.942 -23.946  1.00  0.00    -0.372 N 
HETATM   35  C19 UNL     1      -0.213  52.325 -24.901  1.00  0.00     0.116 A 
ATOM     36  H4  UNL     1       1.141  53.734 -24.165  1.00  0.00     0.164 HD
HETATM   37  C20 UNL     1      -1.083  51.243 -24.700  1.00  0.00     0.047 A 
HETATM   38  C25 UNL     1      -1.136  50.781 -23.377  1.00  0.00     0.052 A 
BRANCH  37  39
HETATM   39  N5  UNL     1      -1.832  50.671 -25.713  1.00  0.00    -0.376 N 
HETATM   40  C21 UNL     1      -1.668  51.052 -27.127  1.00  0.00     0.149 C 
HETATM   41  C22 UNL     1      -2.954  50.739 -27.913  1.00  0.00     0.187 C 
HETATM   42  O2  UNL     1      -3.336  49.357 -27.881  1.00  0.00    -0.388 OA
HETATM   43  C23 UNL     1      -2.914  48.678 -26.690  1.00  0.00     0.187 C 
HETATM   44  C24 UNL     1      -2.796  49.587 -25.454  1.00  0.00     0.149 C 
ENDBRANCH  37  39
ENDBRANCH  31  32
ENDBRANCH   6  30
TORSDOF 8
ENDMDL
MODEL 6
REMARK minimizedAffinity -8.49478149
REMARK CNNscore 0.134447455
REMARK CNNaffinity 6.76832199
REMARK  8 active torsions:
REMARK  status: ('A' for Active; 'I' for Inactive)
REMARK    1  A    between atoms: N2_5  and  C4_6 
REMARK    2  A    between atoms: C4_6  and  C5_7 
REMARK    3  A    between atoms: C8_10  and  N3_11 
REMARK       I    between atoms: N3_11  and  C9_12 
REMARK    4  A    between atoms: C9_12  and  C10_14 
REMARK    5  A    between atoms: C14_19  and  C15_20 
REMARK    6  A    between atoms: C16_21  and  C17_22 
REMARK    7  A    between atoms: C20_27  and  N5_28 
REMARK    8  A    between atoms: C28_37  and  C29_38 
ROOT
HETATM    1  C10 UNL     1      -0.142  52.098 -21.356  1.00  0.00     0.033 A 
HETATM    2  C11 UNL     1       0.692  53.061 -21.934  1.00  0.00     0.019 A 
HETATM    3  C12 UNL     1       0.743  53.200 -23.323  1.00  0.00     0.026 A 
HETATM    4  C13 UNL     1      -0.052  52.385 -24.135  1.00  0.00     0.052 A 
HETATM    5 CL1  UNL     1       0.045  52.617 -25.846  1.00  0.00    -0.083 Cl
HETATM    6  C14 UNL     1      -0.904  51.429 -23.561  1.00  0.00     0.040 A 
HETATM    7  C26 UNL     1      -0.946  51.286 -22.168  1.00  0.00     0.039 A 
ENDROOT
BRANCH   1   8
HETATM    8  C9  UNL     1      -0.187  52.003 -19.872  1.00  0.00     0.256 C 
HETATM    9  N3  UNL     1      -0.066  50.720 -19.368  1.00  0.00    -0.323 N 
HETATM   10  H12 UNL     1       0.130  49.980 -20.030  1.00  0.00     0.169 HD
HETATM   11  O1  UNL     1      -0.298  53.044 -19.238  1.00  0.00    -0.267 OA
BRANCH   9  12
HETATM   12  C8  UNL     1      -0.092  50.338 -18.010  1.00  0.00     0.035 A 
HETATM   13  C7  UNL     1      -0.926  49.352 -17.496  1.00  0.00     0.030 A 
HETATM   14  C6  UNL     1      -0.888  49.026 -16.136  1.00  0.00     0.012 A 
HETATM   15  C5  UNL     1      -0.015  49.683 -15.254  1.00  0.00    -0.015 A 
HETATM   16  C28 UNL     1       0.832  50.694 -15.758  1.00  0.00     0.058 A 
HETATM   17  C27 UNL     1       0.786  50.995 -17.139  1.00  0.00     0.046 A 
BRANCH  15  18
HETATM   18  C4  UNL     1      -0.015  49.273 -13.794  1.00  0.00     0.311 C 
BRANCH  18  19
HETATM   19  N2  UNL     1       0.532  47.930 -13.588  1.00  0.00     0.096 N 
HETATM   20  C3  UNL     1      -0.504  46.898 -13.744  1.00  0.00     0.303 C 
HETATM   21  C2  UNL     1       0.012  45.462 -13.455  1.00  0.00     0.302 C 
HETATM   22  N1  UNL     1       1.466  45.280 -13.605  1.00  0.00     0.087 N 
HETATM   23  C1  UNL     1       1.815  43.876 -13.786  1.00  0.00     0.310 C 
HETATM   24  C31 UNL     1       1.991  46.128 -14.680  1.00  0.00     0.302 C 
HETATM   25  C30 UNL     1       1.677  47.637 -14.478  1.00  0.00     0.303 C 
ENDBRANCH  18  19
ENDBRANCH  15  18
BRANCH  16  26
HETATM   26  C29 UNL     1       1.815  51.454 -14.889  1.00  0.00     0.418 C 
HETATM   27  F1  UNL     1       1.179  52.126 -13.878  1.00  0.00    -0.166 F 
HETATM   28  F2  UNL     1       2.728  50.668 -14.250  1.00  0.00    -0.166 F 
HETATM   29  F3  UNL     1       2.508  52.410 -15.562  1.00  0.00    -0.166 F 
ENDBRANCH  16  26
ENDBRANCH   9  12
ENDBRANCH   1   8
BRANCH   6  30
HETATM   30  C15 UNL     1      -1.763  50.609 -24.364  1.00  0.00    -0.060 C 
HETATM   31  C16 UNL     1      -2.530  49.968 -25.031  1.00  0.00    -0.060 C 
BRANCH  31  32
HETATM   32  C17 UNL     1      -3.494  49.269 -25.819  1.00  0.00     0.035 A 
HETATM   33  C18 UNL     1      -3.296  49.038 -27.170  1.00  0.00     0.108 A 
HETATM   34  N4  UNL     1      -4.175  48.374 -27.947  1.00  0.00    -0.372 N 
HETATM   35  C19 UNL     1      -5.304  47.925 -27.332  1.00  0.00     0.116 A 
ATOM     36  H4  UNL     1      -4.005  48.217 -28.940  1.00  0.00     0.164 HD
HETATM   37  C20 UNL     1      -5.637  48.101 -25.981  1.00  0.00     0.047 A 
HETATM   38  C25 UNL     1      -4.675  48.796 -25.234  1.00  0.00     0.052 A 
BRANCH  37  39
HETATM   39  N5  UNL     1      -6.812  47.634 -25.420  1.00  0.00    -0.376 N 
HETATM   40  C21 UNL     1      -6.975  47.450 -23.967  1.00  0.00     0.149 C 
HETATM   41  C22 UNL     1      -8.076  46.413 -23.684  1.00  0.00     0.187 C 
HETATM   42  O2  UNL     1      -9.359  46.765 -24.220  1.00  0.00    -0.388 OA
HETATM   43  C23 UNL     1      -9.281  47.581 -25.397  1.00  0.00     0.187 C 
HETATM   44  C24 UNL     1      -8.009  47.358 -26.234  1.00  0.00     0.149 C 
ENDBRANCH  37  39
ENDBRANCH  31  32
ENDBRANCH   6  30
TORSDOF 8
ENDMDL
MODEL 7
REMARK minimizedAffinity -8.73294258
REMARK CNNscore 0.129363596
REMARK CNNaffinity 7.0331707
REMARK  8 active torsions:
REMARK  status: ('A' for Active; 'I' for Inactive)
REMARK    1  A    between atoms: N2_5  and  C4_6 
REMARK    2  A    between atoms: C4_6  and  C5_7 
REMARK    3  A    between atoms: C8_10  and  N3_11 
REMARK       I    between atoms: N3_11  and  C9_12 
REMARK    4  A    between atoms: C9_12  and  C10_14 
REMARK    5  A    between atoms: C14_19  and  C15_20 
REMARK    6  A    between atoms: C16_21  and  C17_22 
REMARK    7  A    between atoms: C20_27  and  N5_28 
REMARK    8  A    between atoms: C28_37  and  C29_38 
ROOT
HETATM    1  C10 UNL     1      -0.135  52.223 -21.132  1.00  0.00     0.033 A 
HETATM    2  C11 UNL     1       0.828  52.820 -21.953  1.00  0.00     0.019 A 
HETATM    3  C12 UNL     1       0.793  52.615 -23.334  1.00  0.00     0.026 A 
HETATM    4  C13 UNL     1      -0.214  51.825 -23.898  1.00  0.00     0.052 A 
HETATM    5 CL1  UNL     1      -0.210  51.623 -25.615  1.00  0.00    -0.083 Cl
HETATM    6  C14 UNL     1      -1.193  51.238 -23.082  1.00  0.00     0.040 A 
HETATM    7  C26 UNL     1      -1.151  51.438 -21.695  1.00  0.00     0.039 A 
ENDROOT
BRANCH   1   8
HETATM    8  C9  UNL     1      -0.079  52.490 -19.669  1.00  0.00     0.256 C 
HETATM    9  N3  UNL     1      -0.092  51.361 -18.871  1.00  0.00    -0.323 N 
HETATM   10  H12 UNL     1      -0.049  50.464 -19.339  1.00  0.00     0.169 HD
HETATM   11  O1  UNL     1       0.001  53.657 -19.306  1.00  0.00    -0.267 OA
BRANCH   9  12
HETATM   12  C8  UNL     1      -0.064  51.319 -17.461  1.00  0.00     0.035 A 
HETATM   13  C7  UNL     1       0.968  51.840 -16.688  1.00  0.00     0.030 A 
HETATM   14  C6  UNL     1       0.919  51.764 -15.293  1.00  0.00     0.012 A 
HETATM   15  C5  UNL     1      -0.165  51.161 -14.633  1.00  0.00    -0.015 A 
HETATM   16  C28 UNL     1      -1.216  50.618 -15.403  1.00  0.00     0.058 A 
HETATM   17  C27 UNL     1      -1.151  50.720 -16.812  1.00  0.00     0.046 A 
BRANCH  15  18
HETATM   18  C4  UNL     1      -0.162  51.123 -13.117  1.00  0.00     0.311 C 
BRANCH  18  19
HETATM   19  N2  UNL     1       0.483  52.299 -12.527  1.00  0.00     0.096 N 
HETATM   20  C3  UNL     1      -0.414  52.990 -11.589  1.00  0.00     0.303 C 
HETATM   21  C2  UNL     1       0.199  54.290 -10.999  1.00  0.00     0.302 C 
HETATM   22  N1  UNL     1       1.671  54.349 -11.018  1.00  0.00     0.087 N 
HETATM   23  C1  UNL     1       2.180  55.325 -10.062  1.00  0.00     0.310 C 
HETATM   24  C31 UNL     1       2.251  53.018 -10.816  1.00  0.00     0.302 C 
HETATM   25  C30 UNL     1       1.762  51.974 -11.860  1.00  0.00     0.303 C 
ENDBRANCH  18  19
ENDBRANCH  15  18
BRANCH  16  26
HETATM   26  C29 UNL     1      -2.432  49.956 -14.786  1.00  0.00     0.418 C 
HETATM   27  F1  UNL     1      -2.079  48.907 -13.978  1.00  0.00    -0.166 F 
HETATM   28  F2  UNL     1      -3.170  50.770 -13.979  1.00  0.00    -0.166 F 
HETATM   29  F3  UNL     1      -3.283  49.421 -15.701  1.00  0.00    -0.166 F 
ENDBRANCH  16  26
ENDBRANCH   9  12
ENDBRANCH   1   8
BRANCH   6  30
HETATM   30  C15 UNL     1      -2.263  50.459 -23.632  1.00  0.00    -0.060 C 
HETATM   31  C16 UNL     1      -3.192  49.811 -24.034  1.00  0.00    -0.060 C 
BRANCH  31  32
HETATM   32  C17 UNL     1      -4.332  49.054 -24.443  1.00  0.00     0.035 A 
HETATM   33  C18 UNL     1      -5.252  48.578 -23.524  1.00  0.00     0.108 A 
HETATM   34  N4  UNL     1      -6.346  47.868 -23.869  1.00  0.00    -0.372 N 
HETATM   35  C19 UNL     1      -6.516  47.630 -25.198  1.00  0.00     0.116 A 
ATOM     36  H4  UNL     1      -7.009  47.530 -23.172  1.00  0.00     0.164 HD
HETATM   37  C20 UNL     1      -5.658  48.039 -26.229  1.00  0.00     0.047 A 
HETATM   38  C25 UNL     1      -4.545  48.775 -25.798  1.00  0.00     0.052 A 
BRANCH  37  39
HETATM   39  N5  UNL     1      -5.879  47.747 -27.563  1.00  0.00    -0.376 N 
HETATM   40  C21 UNL     1      -4.903  48.081 -28.617  1.00  0.00     0.149 C 
HETATM   41  C22 UNL     1      -5.612  48.200 -29.977  1.00  0.00     0.187 C 
HETATM   42  O2  UNL     1      -6.295  47.006 -30.385  1.00  0.00    -0.388 OA
HETATM   43  C23 UNL     1      -6.755  46.209 -29.286  1.00  0.00     0.187 C 
HETATM   44  C24 UNL     1      -7.075  47.015 -28.014  1.00  0.00     0.149 C 
ENDBRANCH  37  39
ENDBRANCH  31  32
ENDBRANCH   6  30
TORSDOF 8
ENDMDL
MODEL 8
REMARK minimizedAffinity -9.09209538
REMARK CNNscore 0.126337886
REMARK CNNaffinity 6.2099843
REMARK  8 active torsions:
REMARK  status: ('A' for Active; 'I' for Inactive)
REMARK    1  A    between atoms: N2_5  and  C4_6 
REMARK    2  A    between atoms: C4_6  and  C5_7 
REMARK    3  A    between atoms: C8_10  and  N3_11 
REMARK       I    between atoms: N3_11  and  C9_12 
REMARK    4  A    between atoms: C9_12  and  C10_14 
REMARK    5  A    between atoms: C14_19  and  C15_20 
REMARK    6  A    between atoms: C16_21  and  C17_22 
REMARK    7  A    between atoms: C20_27  and  N5_28 
REMARK    8  A    between atoms: C28_37  and  C29_38 
ROOT
HETATM    1  C10 UNL     1      -1.184  50.894 -22.411  1.00  0.00     0.033 A 
HETATM    2  C11 UNL     1      -0.611  51.810 -23.299  1.00  0.00     0.019 A 
HETATM    3  C12 UNL     1       0.281  52.776 -22.829  1.00  0.00     0.026 A 
HETATM    4  C13 UNL     1       0.612  52.818 -21.471  1.00  0.00     0.052 A 
HETATM    5 CL1  UNL     1       1.734  54.029 -20.954  1.00  0.00    -0.083 Cl
HETATM    6  C14 UNL     1       0.054  51.891 -20.577  1.00  0.00     0.040 A 
HETATM    7  C26 UNL     1      -0.847  50.928 -21.050  1.00  0.00     0.039 A 
ENDROOT
BRANCH   1   8
HETATM    8  C9  UNL     1      -2.107  49.863 -22.958  1.00  0.00     0.256 C 
HETATM    9  N3  UNL     1      -2.974  50.319 -23.936  1.00  0.00    -0.323 N 
HETATM   10  H12 UNL     1      -2.851  51.272 -24.254  1.00  0.00     0.169 HD
HETATM   11  O1  UNL     1      -2.005  48.722 -22.529  1.00  0.00    -0.267 OA
BRANCH   9  12
HETATM   12  C8  UNL     1      -3.959  49.568 -24.611  1.00  0.00     0.035 A 
HETATM   13  C7  UNL     1      -3.724  48.851 -25.779  1.00  0.00     0.030 A 
HETATM   14  C6  UNL     1      -4.755  48.127 -26.387  1.00  0.00     0.012 A 
HETATM   15  C5  UNL     1      -6.049  48.104 -25.843  1.00  0.00    -0.015 A 
HETATM   16  C28 UNL     1      -6.306  48.835 -24.662  1.00  0.00     0.058 A 
HETATM   17  C27 UNL     1      -5.245  49.548 -24.058  1.00  0.00     0.046 A 
BRANCH  15  18
HETATM   18  C4  UNL     1      -7.118  47.287 -26.544  1.00  0.00     0.311 C 
BRANCH  18  19
HETATM   19  N2  UNL     1      -7.301  47.685 -27.942  1.00  0.00     0.096 N 
HETATM   20  C3  UNL     1      -7.121  46.546 -28.853  1.00  0.00     0.303 C 
HETATM   21  C2  UNL     1      -7.227  46.937 -30.353  1.00  0.00     0.302 C 
HETATM   22  N1  UNL     1      -7.986  48.170 -30.623  1.00  0.00     0.087 N 
HETATM   23  C1  UNL     1      -8.443  48.226 -32.006  1.00  0.00     0.310 C 
HETATM   24  C31 UNL     1      -9.085  48.329 -29.666  1.00  0.00     0.302 C 
HETATM   25  C30 UNL     1      -8.612  48.327 -28.186  1.00  0.00     0.303 C 
ENDBRANCH  18  19
ENDBRANCH  15  18
BRANCH  16  26
HETATM   26  C29 UNL     1      -7.666  48.865 -23.993  1.00  0.00     0.418 C 
HETATM   27  F1  UNL     1      -8.039  47.623 -23.551  1.00  0.00    -0.166 F 
HETATM   28  F2  UNL     1      -7.731  49.652 -22.881  1.00  0.00    -0.166 F 
HETATM   29  F3  UNL     1      -8.670  49.257 -24.821  1.00  0.00    -0.166 F 
ENDBRANCH  16  26
ENDBRANCH   9  12
ENDBRANCH   1   8
BRANCH   6  30
HETATM   30  C15 UNL     1       0.406  51.880 -19.188  1.00  0.00    -0.060 C 
HETATM   31  C16 UNL     1       0.634  51.868 -18.008  1.00  0.00    -0.060 C 
BRANCH  31  32
HETATM   32  C17 UNL     1       0.828  51.844 -16.593  1.00  0.00     0.035 A 
HETATM   33  C18 UNL     1       2.049  52.160 -16.023  1.00  0.00     0.108 A 
HETATM   34  N4  UNL     1       2.271  52.158 -14.693  1.00  0.00    -0.372 N 
HETATM   35  C19 UNL     1       1.212  51.822 -13.906  1.00  0.00     0.116 A 
ATOM     36  H4  UNL     1       3.181  52.396 -14.299  1.00  0.00     0.164 HD
HETATM   37  C20 UNL     1      -0.070  51.467 -14.349  1.00  0.00     0.047 A 
HETATM   38  C25 UNL     1      -0.229  51.495 -15.743  1.00  0.00     0.052 A 
BRANCH  37  39
HETATM   39  N5  UNL     1      -1.101  51.117 -13.496  1.00  0.00    -0.376 N 
HETATM   40  C21 UNL     1      -1.704  49.772 -13.495  1.00  0.00     0.149 C 
HETATM   41  C22 UNL     1      -3.132  49.831 -12.927  1.00  0.00     0.187 C 
HETATM   42  O2  UNL     1      -3.206  50.335 -11.586  1.00  0.00    -0.388 OA
HETATM   43  C23 UNL     1      -2.155  51.258 -11.267  1.00  0.00     0.187 C 
HETATM   44  C24 UNL     1      -1.619  52.045 -12.475  1.00  0.00     0.149 C 
ENDBRANCH  37  39
ENDBRANCH  31  32
ENDBRANCH   6  30
TORSDOF 8
ENDMDL
MODEL 9
REMARK minimizedAffinity -8.80510616
REMARK CNNscore 0.120096609
REMARK CNNaffinity 5.74822474
REMARK  8 active torsions:
REMARK  status: ('A' for Active; 'I' for Inactive)
REMARK    1  A    between atoms: N2_5  and  C4_6 
REMARK    2  A    between atoms: C4_6  and  C5_7 
REMARK    3  A    between atoms: C8_10  and  N3_11 
REMARK       I    between atoms: N3_11  and  C9_12 
REMARK    4  A    between atoms: C9_12  and  C10_14 
REMARK    5  A    between atoms: C14_19  and  C15_20 
REMARK    6  A    between atoms: C16_21  and  C17_22 
REMARK    7  A    between atoms: C20_27  and  N5_28 
REMARK    8  A    between atoms: C28_37  and  C29_38 
ROOT
HETATM    1  C10 UNL     1      -2.419  49.064 -17.576  1.00  0.00     0.033 A 
HETATM    2  C11 UNL     1      -2.678  47.720 -17.289  1.00  0.00     0.019 A 
HETATM    3  C12 UNL     1      -2.935  47.323 -15.975  1.00  0.00     0.026 A 
HETATM    4  C13 UNL     1      -2.948  48.272 -14.948  1.00  0.00     0.052 A 
HETATM    5 CL1  UNL     1      -3.288  47.718 -13.346  1.00  0.00    -0.083 Cl
HETATM    6  C14 UNL     1      -2.707  49.625 -15.232  1.00  0.00     0.040 A 
HETATM    7  C26 UNL     1      -2.440  50.020 -16.550  1.00  0.00     0.039 A 
ENDROOT
BRANCH   1   8
HETATM    8  C9  UNL     1      -2.178  49.449 -18.993  1.00  0.00     0.256 C 
HETATM    9  N3  UNL     1      -1.155  50.362 -19.182  1.00  0.00    -0.323 N 
HETATM   10  H12 UNL     1      -0.609  50.617 -18.369  1.00  0.00     0.169 HD
HETATM   11  O1  UNL     1      -2.869  48.919 -19.852  1.00  0.00    -0.267 OA
BRANCH   9  12
HETATM   12  C8  UNL     1      -0.725  50.910 -20.409  1.00  0.00     0.035 A 
HETATM   13  C7  UNL     1      -0.971  50.329 -21.648  1.00  0.00     0.030 A 
HETATM   14  C6  UNL     1      -0.514  50.939 -22.821  1.00  0.00     0.012 A 
HETATM   15  C5  UNL     1       0.205  52.144 -22.784  1.00  0.00    -0.015 A 
HETATM   16  C28 UNL     1       0.472  52.742 -21.533  1.00  0.00     0.058 A 
HETATM   17  C27 UNL     1      -0.013  52.114 -20.362  1.00  0.00     0.046 A 
BRANCH  15  18
HETATM   18  C4  UNL     1       0.660  52.759 -24.094  1.00  0.00     0.311 C 
BRANCH  18  19
HETATM   19  N2  UNL     1      -0.267  52.487 -25.194  1.00  0.00     0.096 N 
HETATM   20  C3  UNL     1      -0.025  51.164 -25.787  1.00  0.00     0.303 C 
HETATM   21  C2  UNL     1      -0.932  50.865 -27.011  1.00  0.00     0.302 C 
HETATM   22  N1  UNL     1      -2.187  51.636 -27.060  1.00  0.00     0.087 N 
HETATM   23  C1  UNL     1      -3.174  50.999 -27.924  1.00  0.00     0.310 C 
HETATM   24  C31 UNL     1      -2.704  51.881 -25.710  1.00  0.00     0.302 C 
HETATM   25  C30 UNL     1      -1.685  52.609 -24.789  1.00  0.00     0.303 C 
ENDBRANCH  18  19
ENDBRANCH  15  18
BRANCH  16  26
HETATM   26  C29 UNL     1       1.231  54.046 -21.388  1.00  0.00     0.418 C 
HETATM   27  F1  UNL     1       0.743  54.801 -20.354  1.00  0.00    -0.166 F 
HETATM   28  F2  UNL     1       2.556  53.900 -21.104  1.00  0.00    -0.166 F 
HETATM   29  F3  UNL     1       1.141  54.850 -22.480  1.00  0.00    -0.166 F 
ENDBRANCH  16  26
ENDBRANCH   9  12
ENDBRANCH   1   8
BRANCH   6  30
HETATM   30  C15 UNL     1      -2.756  50.628 -14.210  1.00  0.00    -0.060 C 
HETATM   31  C16 UNL     1      -2.785  51.421 -13.307  1.00  0.00    -0.060 C 
BRANCH  31  32
HETATM   32  C17 UNL     1      -2.801  52.304 -12.184  1.00  0.00     0.035 A 
HETATM   33  C18 UNL     1      -3.982  52.843 -11.703  1.00  0.00     0.108 A 
HETATM   34  N4  UNL     1      -4.041  53.672 -10.641  1.00  0.00    -0.372 N 
HETATM   35  C19 UNL     1      -2.856  53.969 -10.041  1.00  0.00     0.116 A 
ATOM     36  H4  UNL     1      -4.925  54.055 -10.306  1.00  0.00     0.164 HD
HETATM   37  C20 UNL     1      -1.590  53.506 -10.432  1.00  0.00     0.047 A 
HETATM   38  C25 UNL     1      -1.606  52.646 -11.540  1.00  0.00     0.052 A 
BRANCH  37  39
HETATM   39  N5  UNL     1      -0.419  53.861  -9.789  1.00  0.00    -0.376 N 
HETATM   40  C21 UNL     1      -0.334  55.022  -8.885  1.00  0.00     0.149 C 
HETATM   41  C22 UNL     1       1.119  55.521  -8.797  1.00  0.00     0.187 C 
HETATM   42  O2  UNL     1       2.045  54.536  -8.319  1.00  0.00    -0.388 OA
HETATM   43  C23 UNL     1       1.655  53.191  -8.627  1.00  0.00     0.187 C 
HETATM   44  C24 UNL     1       0.811  53.057  -9.907  1.00  0.00     0.149 C 
ENDBRANCH  37  39
ENDBRANCH  31  32
ENDBRANCH   6  30
TORSDOF 8
ENDMDL
