MODEL 1
REMARK minimizedAffinity -9.19323826
REMARK  5 active torsions:
REMARK  status: ('A' for Active; 'I' for Inactive)
REMARK    1  A    between atoms: C3_5  and  C4_6 
REMARK    2  A    between atoms: C7_9  and  C8_10 
REMARK       I    between atoms: C8_10  and  N2_12 
REMARK    3  A    between atoms: N2_12  and  N3_13 
REMARK       I    between atoms: N3_13  and  C9_14 
REMARK    4  A    between atoms: C9_14  and  C10_16 
REMARK    5  A    between atoms: C10_16  and  C11_18 
ROOT
HETATM    1  C8  UNL     1      -3.069  49.199 -24.895  1.00  0.00     0.270 C 
HETATM    2  O1  UNL     1      -2.775  48.545 -23.898  1.00  0.00    -0.266 OA
HETATM    3  N2  UNL     1      -2.470  50.413 -25.188  1.00  0.00    -0.263 N 
HETATM    4  H6  UNL     1      -2.460  50.772 -26.141  1.00  0.00     0.190 HD
ENDROOT
BRANCH   3   5
HETATM    5  N3  UNL     1      -1.352  50.762 -24.406  1.00  0.00    -0.260 N 
HETATM    6  C9  UNL     1      -1.081  52.110 -24.251  1.00  0.00     0.311 C 
HETATM    7  O2  UNL     1      -1.867  53.013 -24.504  1.00  0.00    -0.262 OA
HETATM    8  H7  UNL     1      -0.595  50.078 -24.380  1.00  0.00     0.190 HD
BRANCH   6   9
HETATM    9  C10 UNL     1       0.326  52.396 -23.739  1.00  0.00     0.253 C 
HETATM   10  O3  UNL     1       1.233  52.324 -24.568  1.00  0.00    -0.281 OA
BRANCH   9  11
HETATM   11  C11 UNL     1       0.562  52.783 -22.352  1.00  0.00     0.048 A 
HETATM   12  C12 UNL     1       1.132  53.993 -21.992  1.00  0.00     0.105 A 
HETATM   13  N4  UNL     1       1.208  54.058 -20.631  1.00  0.00    -0.364 N 
HETATM   14  C13 UNL     1       0.680  52.917 -20.075  1.00  0.00     0.043 A 
HETATM   15  H9  UNL     1       1.584  54.833 -20.102  1.00  0.00     0.165 HD
HETATM   16  C14 UNL     1       0.542  52.566 -18.726  1.00  0.00     0.030 A 
HETATM   17  C18 UNL     1       0.266  52.092 -21.126  1.00  0.00     0.006 A 
HETATM   18  C15 UNL     1      -0.043  51.334 -18.431  1.00  0.00     0.002 A 
HETATM   19  C16 UNL     1      -0.471  50.488 -19.447  1.00  0.00     0.001 A 
HETATM   20  C17 UNL     1      -0.325  50.853 -20.791  1.00  0.00     0.015 A 
ENDBRANCH   9  11
ENDBRANCH   6   9
ENDBRANCH   3   5
BRANCH   1  21
HETATM   21  C7  UNL     1      -4.068  48.694 -25.876  1.00  0.00     0.033 A 
HETATM   22  C6  UNL     1      -5.339  48.251 -25.492  1.00  0.00     0.018 A 
HETATM   23  C5  UNL     1      -6.241  47.788 -26.458  1.00  0.00     0.016 A 
HETATM   24  C4  UNL     1      -5.889  47.751 -27.815  1.00  0.00     0.010 A 
HETATM   25  C20 UNL     1      -4.608  48.183 -28.189  1.00  0.00     0.016 A 
HETATM   26  C19 UNL     1      -3.703  48.646 -27.227  1.00  0.00     0.018 A 
BRANCH  24  27
HETATM   27  C3  UNL     1      -6.844  47.271 -28.809  1.00  0.00     0.137 A 
HETATM   28  N1  UNL     1      -7.745  48.110 -29.431  1.00  0.00    -0.323 N 
HETATM   29  C2  UNL     1      -8.388  47.295 -30.231  1.00  0.00     0.144 A 
ATOM     30  H1  UNL     1      -7.877  49.113 -29.300  1.00  0.00     0.169 HD
HETATM   31  C1  UNL     1      -9.482  47.571 -31.178  1.00  0.00     0.100 C 
HETATM   32  O4  UNL     1      -7.953  46.007 -30.156  1.00  0.00    -0.223 OA
HETATM   33  N5  UNL     1      -6.931  45.991 -29.212  1.00  0.00    -0.242 N 
ATOM     34  H5  UNL     1      -6.377  45.194 -28.899  1.00  0.00     0.196 HD
ENDBRANCH  24  27
ENDBRANCH   1  21
TORSDOF 5
ENDMDL
MODEL 2
REMARK minimizedAffinity -9.11335564
REMARK  5 active torsions:
REMARK  status: ('A' for Active; 'I' for Inactive)
REMARK    1  A    between atoms: C3_5  and  C4_6 
REMARK    2  A    between atoms: C7_9  and  C8_10 
REMARK       I    between atoms: C8_10  and  N2_12 
REMARK    3  A    between atoms: N2_12  and  N3_13 
REMARK       I    between atoms: N3_13  and  C9_14 
REMARK    4  A    between atoms: C9_14  and  C10_16 
REMARK    5  A    between atoms: C10_16  and  C11_18 
ROOT
HETATM    1  C8  UNL     1       0.633  52.524 -18.231  1.00  0.00     0.270 C 
HETATM    2  O1  UNL     1      -0.248  51.853 -17.701  1.00  0.00    -0.266 OA
HETATM    3  N2  UNL     1       1.662  53.101 -17.506  1.00  0.00    -0.263 N 
HETATM    4  H6  UNL     1       2.540  53.354 -17.957  1.00  0.00     0.190 HD
ENDROOT
BRANCH   3   5
HETATM    5  N3  UNL     1       1.775  52.706 -16.159  1.00  0.00    -0.260 N 
HETATM    6  C9  UNL     1       2.989  52.185 -15.749  1.00  0.00     0.311 C 
HETATM    7  O2  UNL     1       4.037  52.285 -16.373  1.00  0.00    -0.262 OA
HETATM    8  H7  UNL     1       0.909  52.411 -15.706  1.00  0.00     0.190 HD
BRANCH   6   9
HETATM    9  C10 UNL     1       2.917  51.435 -14.424  1.00  0.00     0.253 C 
HETATM   10  O3  UNL     1       3.586  50.405 -14.343  1.00  0.00    -0.281 OA
BRANCH   9  11
HETATM   11  C11 UNL     1       2.134  51.950 -13.305  1.00  0.00     0.048 A 
HETATM   12  C12 UNL     1       2.709  52.526 -12.183  1.00  0.00     0.105 A 
HETATM   13  N4  UNL     1       1.717  52.913 -11.330  1.00  0.00    -0.364 N 
HETATM   14  C13 UNL     1       0.488  52.621 -11.872  1.00  0.00     0.043 A 
HETATM   15  H9  UNL     1       1.856  53.360 -10.434  1.00  0.00     0.165 HD
HETATM   16  C14 UNL     1      -0.792  52.853 -11.353  1.00  0.00     0.030 A 
HETATM   17  C18 UNL     1       0.711  52.013 -13.112  1.00  0.00     0.006 A 
HETATM   18  C15 UNL     1      -1.888  52.459 -12.121  1.00  0.00     0.002 A 
HETATM   19  C16 UNL     1      -1.708  51.856 -13.360  1.00  0.00     0.001 A 
HETATM   20  C17 UNL     1      -0.421  51.629 -13.866  1.00  0.00     0.015 A 
ENDBRANCH   9  11
ENDBRANCH   6   9
ENDBRANCH   3   5
BRANCH   1  21
HETATM   21  C7  UNL     1       0.666  52.718 -19.707  1.00  0.00     0.033 A 
HETATM   22  C6  UNL     1       1.277  53.826 -20.304  1.00  0.00     0.018 A 
HETATM   23  C5  UNL     1       1.282  53.958 -21.698  1.00  0.00     0.016 A 
HETATM   24  C4  UNL     1       0.671  52.995 -22.515  1.00  0.00     0.010 A 
HETATM   25  C20 UNL     1       0.047  51.896 -21.907  1.00  0.00     0.016 A 
HETATM   26  C19 UNL     1       0.041  51.760 -20.514  1.00  0.00     0.018 A 
BRANCH  24  27
HETATM   27  C3  UNL     1       0.689  53.145 -23.967  1.00  0.00     0.137 A 
HETATM   28  N1  UNL     1       0.636  52.062 -24.820  1.00  0.00    -0.323 N 
HETATM   29  C2  UNL     1       0.668  52.629 -26.002  1.00  0.00     0.144 A 
ATOM     30  H1  UNL     1       0.585  51.071 -24.589  1.00  0.00     0.169 HD
HETATM   31  C1  UNL     1       0.636  52.019 -27.342  1.00  0.00     0.100 C 
HETATM   32  O4  UNL     1       0.736  53.987 -25.949  1.00  0.00    -0.223 OA
HETATM   33  N5  UNL     1       0.752  54.330 -24.600  1.00  0.00    -0.242 N 
ATOM     34  H5  UNL     1       0.800  55.261 -24.188  1.00  0.00     0.196 HD
ENDBRANCH  24  27
ENDBRANCH   1  21
TORSDOF 5
ENDMDL
MODEL 3
REMARK minimizedAffinity -9.06760597
REMARK  5 active torsions:
REMARK  status: ('A' for Active; 'I' for Inactive)
REMARK    1  A    between atoms: C3_5  and  C4_6 
REMARK    2  A    between atoms: C7_9  and  C8_10 
REMARK       I    between atoms: C8_10  and  N2_12 
REMARK    3  A    between atoms: N2_12  and  N3_13 
REMARK       I    between atoms: N3_13  and  C9_14 
REMARK    4  A    between atoms: C9_14  and  C10_16 
REMARK    5  A    between atoms: C10_16  and  C11_18 
ROOT
HETATM    1  C8  UNL     1       0.239  52.689 -18.866  1.00  0.00     0.270 C 
HETATM    2  O1  UNL     1      -0.755  52.173 -18.360  1.00  0.00    -0.266 OA
HETATM    3  N2  UNL     1       1.311  53.130 -18.110  1.00  0.00    -0.263 N 
HETATM    4  H6  UNL     1       2.235  53.235 -18.528  1.00  0.00     0.190 HD
ENDROOT
BRANCH   3   5
HETATM    5  N3  UNL     1       1.309  52.766 -16.750  1.00  0.00    -0.260 N 
HETATM    6  C9  UNL     1       2.511  52.363 -16.197  1.00  0.00     0.311 C 
HETATM    7  O2  UNL     1       3.609  52.549 -16.705  1.00  0.00    -0.262 OA
HETATM    8  H7  UNL     1       0.427  52.400 -16.388  1.00  0.00     0.190 HD
BRANCH   6   9
HETATM    9  C10 UNL     1       2.359  51.629 -14.870  1.00  0.00     0.253 C 
HETATM   10  O3  UNL     1       3.392  51.451 -14.224  1.00  0.00    -0.281 OA
BRANCH   9  11
HETATM   11  C11 UNL     1       1.049  51.212 -14.382  1.00  0.00     0.048 A 
HETATM   12  C12 UNL     1       0.375  50.108 -14.879  1.00  0.00     0.105 A 
HETATM   13  N4  UNL     1      -0.810  49.979 -14.214  1.00  0.00    -0.364 N 
HETATM   14  C13 UNL     1      -0.930  50.969 -13.268  1.00  0.00     0.043 A 
HETATM   15  H9  UNL     1      -1.498  49.257 -14.378  1.00  0.00     0.165 HD
HETATM   16  C14 UNL     1      -1.967  51.211 -12.358  1.00  0.00     0.030 A 
HETATM   17  C18 UNL     1       0.218  51.764 -13.347  1.00  0.00     0.006 A 
HETATM   18  C15 UNL     1      -1.833  52.295 -11.491  1.00  0.00     0.002 A 
HETATM   19  C16 UNL     1      -0.706  53.106 -11.535  1.00  0.00     0.001 A 
HETATM   20  C17 UNL     1       0.322  52.853 -12.452  1.00  0.00     0.015 A 
ENDBRANCH   9  11
ENDBRANCH   6   9
ENDBRANCH   3   5
BRANCH   1  21
HETATM   21  C7  UNL     1       0.361  52.828 -20.343  1.00  0.00     0.033 A 
HETATM   22  C6  UNL     1       1.142  53.824 -20.940  1.00  0.00     0.018 A 
HETATM   23  C5  UNL     1       1.224  53.908 -22.336  1.00  0.00     0.016 A 
HETATM   24  C4  UNL     1       0.523  53.010 -23.155  1.00  0.00     0.010 A 
HETATM   25  C20 UNL     1      -0.270  52.026 -22.547  1.00  0.00     0.016 A 
HETATM   26  C19 UNL     1      -0.355  51.938 -21.154  1.00  0.00     0.018 A 
BRANCH  24  27
HETATM   27  C3  UNL     1       0.624  53.109 -24.608  1.00  0.00     0.137 A 
HETATM   28  N1  UNL     1       0.859  52.008 -25.406  1.00  0.00    -0.323 N 
HETATM   29  C2  UNL     1       0.867  52.527 -26.610  1.00  0.00     0.144 A 
ATOM     30  H1  UNL     1       0.993  51.036 -25.128  1.00  0.00     0.169 HD
HETATM   31  C1  UNL     1       1.065  51.876 -27.916  1.00  0.00     0.100 C 
HETATM   32  O4  UNL     1       0.652  53.871 -26.623  1.00  0.00    -0.223 OA
HETATM   33  N5  UNL     1       0.493  54.257 -25.295  1.00  0.00    -0.242 N 
ATOM     34  H5  UNL     1       0.318  55.192 -24.929  1.00  0.00     0.196 HD
ENDBRANCH  24  27
ENDBRANCH   1  21
TORSDOF 5
ENDMDL
MODEL 4
REMARK minimizedAffinity -9.06164455
REMARK  5 active torsions:
REMARK  status: ('A' for Active; 'I' for Inactive)
REMARK    1  A    between atoms: C3_5  and  C4_6 
REMARK    2  A    between atoms: C7_9  and  C8_10 
REMARK       I    between atoms: C8_10  and  N2_12 
REMARK    3  A    between atoms: N2_12  and  N3_13 
REMARK       I    between atoms: N3_13  and  C9_14 
REMARK    4  A    between atoms: C9_14  and  C10_16 
REMARK    5  A    between atoms: C10_16  and  C11_18 
ROOT
HETATM    1  C8  UNL     1      -1.103  50.921 -20.042  1.00  0.00     0.270 C 
HETATM    2  O1  UNL     1      -2.289  51.232 -20.114  1.00  0.00    -0.266 OA
HETATM    3  N2  UNL     1      -0.358  50.576 -21.158  1.00  0.00    -0.263 N 
HETATM    4  H6  UNL     1       0.658  50.650 -21.149  1.00  0.00     0.190 HD
ENDROOT
BRANCH   3   5
HETATM    5  N3  UNL     1      -0.963  50.806 -22.408  1.00  0.00    -0.260 N 
HETATM    6  C9  UNL     1      -0.746  52.036 -23.004  1.00  0.00     0.311 C 
HETATM    7  O2  UNL     1       0.130  52.825 -22.672  1.00  0.00    -0.262 OA
HETATM    8  H7  UNL     1      -1.829  50.294 -22.586  1.00  0.00     0.190 HD
BRANCH   6   9
HETATM    9  C10 UNL     1      -1.721  52.352 -24.130  1.00  0.00     0.253 C 
HETATM   10  O3  UNL     1      -2.834  52.757 -23.791  1.00  0.00    -0.281 OA
BRANCH   9  11
HETATM   11  C11 UNL     1      -1.328  52.226 -25.530  1.00  0.00     0.048 A 
HETATM   12  C12 UNL     1      -2.222  52.356 -26.580  1.00  0.00     0.105 A 
HETATM   13  N4  UNL     1      -1.548  52.196 -27.756  1.00  0.00    -0.364 N 
HETATM   14  C13 UNL     1      -0.213  51.978 -27.507  1.00  0.00     0.043 A 
HETATM   15  H9  UNL     1      -1.959  52.241 -28.678  1.00  0.00     0.165 HD
HETATM   16  C14 UNL     1       0.839  51.776 -28.410  1.00  0.00     0.030 A 
HETATM   17  C18 UNL     1      -0.039  51.988 -26.119  1.00  0.00     0.006 A 
HETATM   18  C15 UNL     1       2.118  51.583 -27.887  1.00  0.00     0.002 A 
HETATM   19  C16 UNL     1       2.333  51.590 -26.513  1.00  0.00     0.001 A 
HETATM   20  C17 UNL     1       1.270  51.792 -25.623  1.00  0.00     0.015 A 
ENDBRANCH   9  11
ENDBRANCH   6   9
ENDBRANCH   3   5
BRANCH   1  21
HETATM   21  C7  UNL     1      -0.383  50.940 -18.739  1.00  0.00     0.033 A 
HETATM   22  C6  UNL     1      -0.386  49.848 -17.864  1.00  0.00     0.018 A 
HETATM   23  C5  UNL     1       0.311  49.919 -16.652  1.00  0.00     0.016 A 
HETATM   24  C4  UNL     1       1.011  51.079 -16.289  1.00  0.00     0.010 A 
HETATM   25  C20 UNL     1       0.996  52.174 -17.165  1.00  0.00     0.016 A 
HETATM   26  C19 UNL     1       0.301  52.108 -18.378  1.00  0.00     0.018 A 
BRANCH  24  27
HETATM   27  C3  UNL     1       1.737  51.134 -15.024  1.00  0.00     0.137 A 
HETATM   28  N1  UNL     1       1.679  50.114 -14.097  1.00  0.00    -0.323 N 
HETATM   29  C2  UNL     1       2.459  50.555 -13.140  1.00  0.00     0.144 A 
ATOM     30  H1  UNL     1       1.160  49.238 -14.145  1.00  0.00     0.169 HD
HETATM   31  C1  UNL     1       2.825  49.929 -11.858  1.00  0.00     0.100 C 
HETATM   32  O4  UNL     1       3.002  51.775 -13.402  1.00  0.00    -0.223 OA
HETATM   33  N5  UNL     1       2.521  52.160 -14.651  1.00  0.00    -0.242 N 
ATOM     34  H5  UNL     1       2.718  53.020 -15.162  1.00  0.00     0.196 HD
ENDBRANCH  24  27
ENDBRANCH   1  21
TORSDOF 5
ENDMDL
MODEL 5
REMARK minimizedAffinity -9.03810978
REMARK  5 active torsions:
REMARK  status: ('A' for Active; 'I' for Inactive)
REMARK    1  A    between atoms: C3_5  and  C4_6 
REMARK    2  A    between atoms: C7_9  and  C8_10 
REMARK       I    between atoms: C8_10  and  N2_12 
REMARK    3  A    between atoms: N2_12  and  N3_13 
REMARK       I    between atoms: N3_13  and  C9_14 
REMARK    4  A    between atoms: C9_14  and  C10_16 
REMARK    5  A    between atoms: C10_16  and  C11_18 
ROOT
HETATM    1  C8  UNL     1      -1.132  51.961 -22.263  1.00  0.00     0.270 C 
HETATM    2  O1  UNL     1      -0.638  52.481 -23.260  1.00  0.00    -0.266 OA
HETATM    3  N2  UNL     1      -2.294  51.210 -22.318  1.00  0.00    -0.263 N 
HETATM    4  H6  UNL     1      -2.507  50.526 -21.593  1.00  0.00     0.190 HD
ENDROOT
BRANCH   3   5
HETATM    5  N3  UNL     1      -2.769  50.886 -23.603  1.00  0.00    -0.260 N 
HETATM    6  C9  UNL     1      -2.703  49.560 -23.990  1.00  0.00     0.311 C 
HETATM    7  O2  UNL     1      -2.522  48.619 -23.228  1.00  0.00    -0.262 OA
HETATM    8  H7  UNL     1      -2.710  51.629 -24.301  1.00  0.00     0.190 HD
BRANCH   6   9
HETATM    9  C10 UNL     1      -2.860  49.351 -25.491  1.00  0.00     0.253 C 
HETATM   10  O3  UNL     1      -3.484  48.349 -25.840  1.00  0.00    -0.281 OA
BRANCH   9  11
HETATM   11  C11 UNL     1      -2.338  50.321 -26.449  1.00  0.00     0.048 A 
HETATM   12  C12 UNL     1      -3.144  51.004 -27.346  1.00  0.00     0.105 A 
HETATM   13  N4  UNL     1      -2.363  51.839 -28.092  1.00  0.00    -0.364 N 
HETATM   14  C13 UNL     1      -1.051  51.737 -27.694  1.00  0.00     0.043 A 
HETATM   15  H9  UNL     1      -2.695  52.454 -28.823  1.00  0.00     0.165 HD
HETATM   16  C14 UNL     1       0.078  52.414 -28.172  1.00  0.00     0.030 A 
HETATM   17  C18 UNL     1      -0.998  50.791 -26.665  1.00  0.00     0.006 A 
HETATM   18  C15 UNL     1       1.309  52.125 -27.581  1.00  0.00     0.002 A 
HETATM   19  C16 UNL     1       1.403  51.194 -26.553  1.00  0.00     0.001 A 
HETATM   20  C17 UNL     1       0.264  50.525 -26.087  1.00  0.00     0.015 A 
ENDBRANCH   9  11
ENDBRANCH   6   9
ENDBRANCH   3   5
BRANCH   1  21
HETATM   21  C7  UNL     1      -0.475  52.078 -20.932  1.00  0.00     0.033 A 
HETATM   22  C6  UNL     1       0.391  53.130 -20.614  1.00  0.00     0.018 A 
HETATM   23  C5  UNL     1       0.980  53.194 -19.345  1.00  0.00     0.016 A 
HETATM   24  C4  UNL     1       0.723  52.207 -18.380  1.00  0.00     0.010 A 
HETATM   25  C20 UNL     1      -0.134  51.149 -18.714  1.00  0.00     0.016 A 
HETATM   26  C19 UNL     1      -0.726  51.082 -19.981  1.00  0.00     0.018 A 
BRANCH  24  27
HETATM   27  C3  UNL     1       1.341  52.291 -17.061  1.00  0.00     0.137 A 
HETATM   28  N1  UNL     1       0.773  51.714 -15.944  1.00  0.00    -0.323 N 
HETATM   29  C2  UNL     1       1.633  52.014 -15.000  1.00  0.00     0.144 A 
ATOM     30  H1  UNL     1      -0.097  51.187 -15.870  1.00  0.00     0.169 HD
HETATM   31  C1  UNL     1       1.612  51.685 -13.565  1.00  0.00     0.100 C 
HETATM   32  O4  UNL     1       2.698  52.735 -15.447  1.00  0.00    -0.223 OA
HETATM   33  N5  UNL     1       2.503  52.921 -16.813  1.00  0.00    -0.242 N 
ATOM     34  H5  UNL     1       3.102  53.418 -17.471  1.00  0.00     0.196 HD
ENDBRANCH  24  27
ENDBRANCH   1  21
TORSDOF 5
ENDMDL
MODEL 6
REMARK minimizedAffinity -9.02357578
REMARK  5 active torsions:
REMARK  status: ('A' for Active; 'I' for Inactive)
REMARK    1  A    between atoms: C3_5  and  C4_6 
REMARK    2  A    between atoms: C7_9  and  C8_10 
REMARK       I    between atoms: C8_10  and  N2_12 
REMARK    3  A    between atoms: N2_12  and  N3_13 
REMARK       I    between atoms: N3_13  and  C9_14 
REMARK    4  A    between atoms: C9_14  and  C10_16 
REMARK    5  A    between atoms: C10_16  and  C11_18 
ROOT
HETATM    1  C8  UNL     1      -2.744  49.310 -23.825  1.00  0.00     0.270 C 
HETATM    2  O1  UNL     1      -1.800  50.084 -23.963  1.00  0.00    -0.266 OA
HETATM    3  N2  UNL     1      -3.121  48.814 -22.588  1.00  0.00    -0.263 N 
HETATM    4  H6  UNL     1      -4.066  48.465 -22.433  1.00  0.00     0.190 HD
ENDROOT
BRANCH   3   5
HETATM    5  N3  UNL     1      -2.511  49.405 -21.466  1.00  0.00    -0.260 N 
HETATM    6  C9  UNL     1      -1.497  48.698 -20.846  1.00  0.00     0.311 C 
HETATM    7  O2  UNL     1      -0.912  47.742 -21.340  1.00  0.00    -0.262 OA
HETATM    8  H7  UNL     1      -3.095  50.047 -20.927  1.00  0.00     0.190 HD
BRANCH   6   9
HETATM    9  C10 UNL     1      -1.163  49.203 -19.448  1.00  0.00     0.253 C 
HETATM   10  O3  UNL     1      -1.378  48.422 -18.520  1.00  0.00    -0.281 OA
BRANCH   9  11
HETATM   11  C11 UNL     1      -0.575  50.522 -19.240  1.00  0.00     0.048 A 
HETATM   12  C12 UNL     1      -0.446  51.103 -17.989  1.00  0.00     0.105 A 
HETATM   13  N4  UNL     1       0.148  52.324 -18.128  1.00  0.00    -0.364 N 
HETATM   14  C13 UNL     1       0.434  52.559 -19.452  1.00  0.00     0.043 A 
HETATM   15  H9  UNL     1       0.360  52.961 -17.373  1.00  0.00     0.165 HD
HETATM   16  C14 UNL     1       1.049  53.669 -20.046  1.00  0.00     0.030 A 
HETATM   17  C18 UNL     1      -0.008  51.450 -20.180  1.00  0.00     0.006 A 
HETATM   18  C15 UNL     1       1.229  53.652 -21.429  1.00  0.00     0.002 A 
HETATM   19  C16 UNL     1       0.807  52.565 -22.187  1.00  0.00     0.001 A 
HETATM   20  C17 UNL     1       0.192  51.464 -21.579  1.00  0.00     0.015 A 
ENDBRANCH   9  11
ENDBRANCH   6   9
ENDBRANCH   3   5
BRANCH   1  21
HETATM   21  C7  UNL     1      -3.569  48.892 -24.992  1.00  0.00     0.033 A 
HETATM   22  C6  UNL     1      -4.918  48.540 -24.869  1.00  0.00     0.018 A 
HETATM   23  C5  UNL     1      -5.649  48.157 -26.000  1.00  0.00     0.016 A 
HETATM   24  C4  UNL     1      -5.046  48.110 -27.266  1.00  0.00     0.010 A 
HETATM   25  C20 UNL     1      -3.690  48.449 -27.377  1.00  0.00     0.016 A 
HETATM   26  C19 UNL     1      -2.956  48.833 -26.249  1.00  0.00     0.018 A 
BRANCH  24  27
HETATM   27  C3  UNL     1      -5.824  47.714 -28.436  1.00  0.00     0.137 A 
HETATM   28  N1  UNL     1      -5.823  48.448 -29.603  1.00  0.00    -0.323 N 
HETATM   29  C2  UNL     1      -6.624  47.755 -30.376  1.00  0.00     0.144 A 
ATOM     30  H1  UNL     1      -5.325  49.313 -29.813  1.00  0.00     0.169 HD
HETATM   31  C1  UNL     1      -7.044  48.004 -31.766  1.00  0.00     0.100 C 
HETATM   32  O4  UNL     1      -7.124  46.640 -29.777  1.00  0.00    -0.223 OA
HETATM   33  N5  UNL     1      -6.595  46.613 -28.489  1.00  0.00    -0.242 N 
ATOM     34  H5  UNL     1      -6.755  45.921 -27.758  1.00  0.00     0.196 HD
ENDBRANCH  24  27
ENDBRANCH   1  21
TORSDOF 5
ENDMDL
MODEL 7
REMARK minimizedAffinity -8.99118328
REMARK  5 active torsions:
REMARK  status: ('A' for Active; 'I' for Inactive)
REMARK    1  A    between atoms: C3_5  and  C4_6 
REMARK    2  A    between atoms: C7_9  and  C8_10 
REMARK       I    between atoms: C8_10  and  N2_12 
REMARK    3  A    between atoms: N2_12  and  N3_13 
REMARK       I    between atoms: N3_13  and  C9_14 
REMARK    4  A    between atoms: C9_14  and  C10_16 
REMARK    5  A    between atoms: C10_16  and  C11_18 
ROOT
HETATM    1  C8  UNL     1       0.179  52.772 -19.117  1.00  0.00     0.270 C 
HETATM    2  O1  UNL     1      -0.799  52.238 -18.599  1.00  0.00    -0.266 OA
HETATM    3  N2  UNL     1       1.240  53.257 -18.371  1.00  0.00    -0.263 N 
HETATM    4  H6  UNL     1       2.160  53.380 -18.793  1.00  0.00     0.190 HD
ENDROOT
BRANCH   3   5
HETATM    5  N3  UNL     1       1.250  52.918 -17.005  1.00  0.00    -0.260 N 
HETATM    6  C9  UNL     1       2.436  52.439 -16.476  1.00  0.00     0.311 C 
HETATM    7  O2  UNL     1       3.529  52.537 -17.018  1.00  0.00    -0.262 OA
HETATM    8  H7  UNL     1       0.355  52.622 -16.612  1.00  0.00     0.190 HD
BRANCH   6   9
HETATM    9  C10 UNL     1       2.270  51.741 -15.132  1.00  0.00     0.253 C 
HETATM   10  O3  UNL     1       3.300  51.549 -14.487  1.00  0.00    -0.281 OA
BRANCH   9  11
HETATM   11  C11 UNL     1       0.950  51.373 -14.629  1.00  0.00     0.048 A 
HETATM   12  C12 UNL     1       0.355  51.998 -13.544  1.00  0.00     0.105 A 
HETATM   13  N4  UNL     1      -0.870  51.436 -13.331  1.00  0.00    -0.364 N 
HETATM   14  C13 UNL     1      -1.110  50.459 -14.267  1.00  0.00     0.043 A 
HETATM   15  H9  UNL     1      -1.518  51.703 -12.602  1.00  0.00     0.165 HD
HETATM   16  C14 UNL     1      -2.236  49.641 -14.432  1.00  0.00     0.030 A 
HETATM   17  C18 UNL     1       0.013  50.390 -15.098  1.00  0.00     0.006 A 
HETATM   18  C15 UNL     1      -2.225  48.723 -15.482  1.00  0.00     0.002 A 
HETATM   19  C16 UNL     1      -1.129  48.626 -16.331  1.00  0.00     0.001 A 
HETATM   20  C17 UNL     1      -0.010  49.450 -16.153  1.00  0.00     0.015 A 
ENDBRANCH   9  11
ENDBRANCH   6   9
ENDBRANCH   3   5
BRANCH   1  21
HETATM   21  C7  UNL     1       0.294  52.888 -20.597  1.00  0.00     0.033 A 
HETATM   22  C6  UNL     1       1.118  53.837 -21.212  1.00  0.00     0.018 A 
HETATM   23  C5  UNL     1       1.192  53.901 -22.609  1.00  0.00     0.016 A 
HETATM   24  C4  UNL     1       0.440  53.029 -23.411  1.00  0.00     0.010 A 
HETATM   25  C20 UNL     1      -0.395  52.092 -22.785  1.00  0.00     0.016 A 
HETATM   26  C19 UNL     1      -0.471  52.024 -21.390  1.00  0.00     0.018 A 
BRANCH  24  27
HETATM   27  C3  UNL     1       0.532  53.105 -24.866  1.00  0.00     0.137 A 
HETATM   28  N1  UNL     1       0.896  52.022 -25.639  1.00  0.00    -0.323 N 
HETATM   29  C2  UNL     1       0.847  52.510 -26.854  1.00  0.00     0.144 A 
ATOM     30  H1  UNL     1       1.142  51.079 -25.339  1.00  0.00     0.169 HD
HETATM   31  C1  UNL     1       1.123  51.857 -28.145  1.00  0.00     0.100 C 
HETATM   32  O4  UNL     1       0.477  53.819 -26.898  1.00  0.00    -0.223 OA
HETATM   33  N5  UNL     1       0.271  54.215 -25.579  1.00  0.00    -0.242 N 
ATOM     34  H5  UNL     1      -0.013  55.132 -25.235  1.00  0.00     0.196 HD
ENDBRANCH  24  27
ENDBRANCH   1  21
TORSDOF 5
ENDMDL
MODEL 8
REMARK minimizedAffinity -8.93784142
REMARK  5 active torsions:
REMARK  status: ('A' for Active; 'I' for Inactive)
REMARK    1  A    between atoms: C3_5  and  C4_6 
REMARK    2  A    between atoms: C7_9  and  C8_10 
REMARK       I    between atoms: C8_10  and  N2_12 
REMARK    3  A    between atoms: N2_12  and  N3_13 
REMARK       I    between atoms: N3_13  and  C9_14 
REMARK    4  A    between atoms: C9_14  and  C10_16 
REMARK    5  A    between atoms: C10_16  and  C11_18 
ROOT
HETATM    1  C8  UNL     1      -3.715  48.578 -23.783  1.00  0.00     0.270 C 
HETATM    2  O1  UNL     1      -4.211  47.912 -22.878  1.00  0.00    -0.266 OA
HETATM    3  N2  UNL     1      -2.670  49.460 -23.567  1.00  0.00    -0.263 N 
HETATM    4  H6  UNL     1      -2.058  49.741 -24.332  1.00  0.00     0.190 HD
ENDROOT
BRANCH   3   5
HETATM    5  N3  UNL     1      -2.056  49.403 -22.301  1.00  0.00    -0.260 N 
HETATM    6  C9  UNL     1      -2.459  50.328 -21.355  1.00  0.00     0.311 C 
HETATM    7  O2  UNL     1      -3.475  51.006 -21.433  1.00  0.00    -0.262 OA
HETATM    8  H7  UNL     1      -1.106  49.029 -22.283  1.00  0.00     0.190 HD
BRANCH   6   9
HETATM    9  C10 UNL     1      -1.502  50.456 -20.177  1.00  0.00     0.253 C 
HETATM   10  O3  UNL     1      -1.475  49.510 -19.390  1.00  0.00    -0.281 OA
BRANCH   9  11
HETATM   11  C11 UNL     1      -0.635  51.621 -20.031  1.00  0.00     0.048 A 
HETATM   12  C12 UNL     1      -0.261  52.134 -18.798  1.00  0.00     0.105 A 
HETATM   13  N4  UNL     1       0.555  53.209 -18.998  1.00  0.00    -0.364 N 
HETATM   14  C13 UNL     1       0.747  53.412 -20.344  1.00  0.00     0.043 A 
HETATM   15  H9  UNL     1       0.972  53.772 -18.269  1.00  0.00     0.165 HD
HETATM   16  C14 UNL     1       1.514  54.384 -20.998  1.00  0.00     0.030 A 
HETATM   17  C18 UNL     1       0.013  52.434 -21.023  1.00  0.00     0.006 A 
HETATM   18  C15 UNL     1       1.543  54.362 -22.392  1.00  0.00     0.002 A 
HETATM   19  C16 UNL     1       0.830  53.404 -23.103  1.00  0.00     0.001 A 
HETATM   20  C17 UNL     1       0.066  52.439 -22.436  1.00  0.00     0.015 A 
ENDBRANCH   9  11
ENDBRANCH   6   9
ENDBRANCH   3   5
BRANCH   1  21
HETATM   21  C7  UNL     1      -4.189  48.436 -25.187  1.00  0.00     0.033 A 
HETATM   22  C6  UNL     1      -3.347  48.634 -26.287  1.00  0.00     0.018 A 
HETATM   23  C5  UNL     1      -3.844  48.485 -27.587  1.00  0.00     0.016 A 
HETATM   24  C4  UNL     1      -5.187  48.148 -27.811  1.00  0.00     0.010 A 
HETATM   25  C20 UNL     1      -6.028  47.967 -26.703  1.00  0.00     0.016 A 
HETATM   26  C19 UNL     1      -5.535  48.114 -25.402  1.00  0.00     0.018 A 
BRANCH  24  27
HETATM   27  C3  UNL     1      -5.688  47.991 -29.173  1.00  0.00     0.137 A 
HETATM   28  N1  UNL     1      -4.987  47.302 -30.141  1.00  0.00    -0.323 N 
HETATM   29  C2  UNL     1      -5.776  47.395 -31.184  1.00  0.00     0.144 A 
ATOM     30  H1  UNL     1      -4.083  46.838 -30.064  1.00  0.00     0.169 HD
HETATM   31  C1  UNL     1      -5.605  46.862 -32.546  1.00  0.00     0.100 C 
HETATM   32  O4  UNL     1      -6.920  48.091 -30.938  1.00  0.00    -0.223 OA
HETATM   33  N5  UNL     1      -6.861  48.488 -29.605  1.00  0.00    -0.242 N 
ATOM     34  H5  UNL     1      -7.546  49.029 -29.079  1.00  0.00     0.196 HD
ENDBRANCH  24  27
ENDBRANCH   1  21
TORSDOF 5
ENDMDL
MODEL 9
REMARK minimizedAffinity -8.79360771
REMARK  5 active torsions:
REMARK  status: ('A' for Active; 'I' for Inactive)
REMARK    1  A    between atoms: C3_5  and  C4_6 
REMARK    2  A    between atoms: C7_9  and  C8_10 
REMARK       I    between atoms: C8_10  and  N2_12 
REMARK    3  A    between atoms: N2_12  and  N3_13 
REMARK       I    between atoms: N3_13  and  C9_14 
REMARK    4  A    between atoms: C9_14  and  C10_16 
REMARK    5  A    between atoms: C10_16  and  C11_18 
ROOT
HETATM    1  C8  UNL     1       0.181  51.589 -18.591  1.00  0.00     0.270 C 
HETATM    2  O1  UNL     1       0.673  52.265 -17.691  1.00  0.00    -0.266 OA
HETATM    3  N2  UNL     1      -0.506  50.412 -18.342  1.00  0.00    -0.263 N 
HETATM    4  H6  UNL     1      -1.178  50.049 -19.016  1.00  0.00     0.190 HD
ENDROOT
BRANCH   3   5
HETATM    5  N3  UNL     1      -0.803  50.135 -16.994  1.00  0.00    -0.260 N 
HETATM    6  C9  UNL     1      -1.925  50.737 -16.453  1.00  0.00     0.311 C 
HETATM    7  O2  UNL     1      -2.816  51.264 -17.106  1.00  0.00    -0.262 OA
HETATM    8  H7  UNL     1      -0.005  49.906 -16.400  1.00  0.00     0.190 HD
BRANCH   6   9
HETATM    9  C10 UNL     1      -1.962  50.708 -14.930  1.00  0.00     0.253 C 
HETATM   10  O3  UNL     1      -2.775  49.939 -14.418  1.00  0.00    -0.281 OA
BRANCH   9  11
HETATM   11  C11 UNL     1      -1.042  51.517 -14.136  1.00  0.00     0.048 A 
HETATM   12  C12 UNL     1       0.274  51.743 -14.505  1.00  0.00     0.105 A 
HETATM   13  N4  UNL     1       0.864  52.540 -13.567  1.00  0.00    -0.364 N 
HETATM   14  C13 UNL     1      -0.044  52.863 -12.586  1.00  0.00     0.043 A 
HETATM   15  H9  UNL     1       1.823  52.859 -13.588  1.00  0.00     0.165 HD
HETATM   16  C14 UNL     1       0.122  53.662 -11.448  1.00  0.00     0.030 A 
HETATM   17  C18 UNL     1      -1.252  52.236 -12.910  1.00  0.00     0.006 A 
HETATM   18  C15 UNL     1      -0.978  53.837 -10.608  1.00  0.00     0.002 A 
HETATM   19  C16 UNL     1      -2.196  53.234 -10.898  1.00  0.00     0.001 A 
HETATM   20  C17 UNL     1      -2.347  52.437 -12.039  1.00  0.00     0.015 A 
ENDBRANCH   9  11
ENDBRANCH   6   9
ENDBRANCH   3   5
BRANCH   1  21
HETATM   21  C7  UNL     1       0.261  52.027 -20.011  1.00  0.00     0.033 A 
HETATM   22  C6  UNL     1       1.055  53.105 -20.420  1.00  0.00     0.018 A 
HETATM   23  C5  UNL     1       1.096  53.473 -21.770  1.00  0.00     0.016 A 
HETATM   24  C4  UNL     1       0.342  52.781 -22.730  1.00  0.00     0.010 A 
HETATM   25  C20 UNL     1      -0.462  51.712 -22.309  1.00  0.00     0.016 A 
HETATM   26  C19 UNL     1      -0.506  51.341 -20.960  1.00  0.00     0.018 A 
BRANCH  24  27
HETATM   27  C3  UNL     1       0.401  53.175 -24.134  1.00  0.00     0.137 A 
HETATM   28  N1  UNL     1       0.151  52.286 -25.159  1.00  0.00    -0.323 N 
HETATM   29  C2  UNL     1       0.300  53.033 -26.226  1.00  0.00     0.144 A 
ATOM     30  H1  UNL     1      -0.088  51.297 -25.101  1.00  0.00     0.169 HD
HETATM   31  C1  UNL     1       0.165  52.682 -27.650  1.00  0.00     0.100 C 
HETATM   32  O4  UNL     1       0.622  54.325 -25.942  1.00  0.00    -0.223 OA
HETATM   33  N5  UNL     1       0.692  54.418 -24.555  1.00  0.00    -0.242 N 
ATOM     34  H5  UNL     1       0.911  55.238 -23.990  1.00  0.00     0.196 HD
ENDBRANCH  24  27
ENDBRANCH   1  21
TORSDOF 5
ENDMDL
