MODEL 1
REMARK minimizedAffinity -10.0819273
REMARK  5 active torsions:
REMARK  status: ('A' for Active; 'I' for Inactive)
REMARK    1  A    between atoms: O1_1  and  C1_2 
REMARK    2  A    between atoms: C5_6  and  N1_7 
REMARK    3  A    between atoms: N1_7  and  C6_8 
REMARK    4  A    between atoms: C7_11  and  C8_12 
REMARK    5  A    between atoms: C9_13  and  C10_14 
ROOT
HETATM    1  C6  UNL     1      -0.179  52.090 -23.194  1.00  0.00     0.119 A 
HETATM    2  N2  UNL     1      -1.283  51.438 -23.595  1.00  0.00    -0.328 N 
ATOM      3  H2  UNL     1      -1.448  51.232 -24.580  1.00  0.00     0.169 HD
HETATM    4  C7  UNL     1      -2.158  51.069 -22.652  1.00  0.00     0.107 A 
HETATM    5  N3  UNL     1      -2.025  51.294 -21.339  1.00  0.00    -0.342 N 
ATOM      6  H3  UNL     1      -2.734  50.990 -20.672  1.00  0.00     0.167 HD
HETATM    7  C17 UNL     1      -0.923  51.934 -20.943  1.00  0.00     0.047 A 
HETATM    8  C18 UNL     1      -0.754  52.181 -19.585  1.00  0.00     0.030 A 
HETATM    9  C19 UNL     1       0.376  52.835 -19.087  1.00  0.00     0.002 A 
HETATM   10  C20 UNL     1       1.372  53.252 -19.960  1.00  0.00     0.001 A 
HETATM   11  C21 UNL     1       1.225  53.016 -21.326  1.00  0.00     0.017 A 
HETATM   12  C22 UNL     1       0.070  52.364 -21.835  1.00  0.00     0.035 A 
ENDROOT
BRANCH   4  13
HETATM   13  C8  UNL     1      -3.364  50.348 -23.063  1.00  0.00     0.049 C 
HETATM   14  C9  UNL     1      -3.400  49.419 -24.031  1.00  0.00     0.016 C 
BRANCH  14  15
HETATM   15  C10 UNL     1      -4.637  48.724 -24.414  1.00  0.00    -0.016 A 
HETATM   16  C11 UNL     1      -5.537  48.344 -23.401  1.00  0.00     0.052 A 
HETATM   17  C12 UNL     1      -6.688  47.676 -23.761  1.00  0.00     0.105 A 
HETATM   18  C13 UNL     1      -6.973  47.378 -25.072  1.00  0.00     0.106 A 
HETATM   19  O3  UNL     1      -7.653  47.240 -22.907  1.00  0.00    -0.323 OA
HETATM   20  C14 UNL     1      -6.120  47.723 -26.098  1.00  0.00     0.059 A 
HETATM   21  O2  UNL     1      -8.156  46.720 -25.207  1.00  0.00    -0.323 OA
HETATM   22  C15 UNL     1      -4.940  48.400 -25.761  1.00  0.00     0.024 A 
HETATM   23 BR1  UNL     1      -3.777  48.869 -27.193  1.00  0.00    -0.050 Br
HETATM   24  C16 UNL     1      -8.581  46.634 -23.830  1.00  0.00     0.352 A 
ENDBRANCH  14  15
ENDBRANCH   4  13
BRANCH   1  25
HETATM   25  N1  UNL     1       0.759  52.538 -24.168  1.00  0.00    -0.342 N 
HETATM   26  H5  UNL     1       1.130  53.432 -23.866  1.00  0.00     0.167 HD
BRANCH  25  27
HETATM   27  C5  UNL     1       0.655  52.471 -25.578  1.00  0.00     0.036 A 
HETATM   28  C4  UNL     1       1.554  51.742 -26.368  1.00  0.00     0.029 A 
HETATM   29  C3  UNL     1       1.463  51.749 -27.764  1.00  0.00     0.005 A 
HETATM   30  C2  UNL     1       0.479  52.506 -28.392  1.00  0.00     0.036 A 
HETATM   31  C1  UNL     1      -0.392  53.264 -27.623  1.00  0.00     0.067 A 
HETATM   32  C23 UNL     1      -0.305  53.263 -26.230  1.00  0.00     0.066 A 
BRANCH  31  33
HETATM   33  O1  UNL     1      -1.330  54.010 -28.276  1.00  0.00    -0.361 OA
HETATM   34  H1  UNL     1      -1.864  54.486 -27.621  1.00  0.00     0.217 HD
ENDBRANCH  31  33
ENDBRANCH  25  27
ENDBRANCH   1  25
TORSDOF 5
ENDMDL
MODEL 2
REMARK minimizedAffinity -10.0506353
REMARK  5 active torsions:
REMARK  status: ('A' for Active; 'I' for Inactive)
REMARK    1  A    between atoms: O1_1  and  C1_2 
REMARK    2  A    between atoms: C5_6  and  N1_7 
REMARK    3  A    between atoms: N1_7  and  C6_8 
REMARK    4  A    between atoms: C7_11  and  C8_12 
REMARK    5  A    between atoms: C9_13  and  C10_14 
ROOT
HETATM    1  C6  UNL     1      -1.363  51.726 -25.529  1.00  0.00     0.119 A 
HETATM    2  N2  UNL     1      -1.270  51.822 -24.192  1.00  0.00    -0.328 N 
ATOM      3  H2  UNL     1      -2.099  51.793 -23.600  1.00  0.00     0.169 HD
HETATM    4  C7  UNL     1      -0.046  51.959 -23.667  1.00  0.00     0.107 A 
HETATM    5  N3  UNL     1       1.097  52.005 -24.364  1.00  0.00    -0.342 N 
ATOM      6  H3  UNL     1       1.998  52.116 -23.901  1.00  0.00     0.167 HD
HETATM    7  C17 UNL     1       1.002  51.899 -25.691  1.00  0.00     0.047 A 
HETATM    8  C18 UNL     1       2.171  51.940 -26.443  1.00  0.00     0.030 A 
HETATM    9  C19 UNL     1       2.159  51.826 -27.835  1.00  0.00     0.002 A 
HETATM   10  C20 UNL     1       0.954  51.659 -28.503  1.00  0.00     0.001 A 
HETATM   11  C21 UNL     1      -0.232  51.614 -27.771  1.00  0.00     0.017 A 
HETATM   12  C22 UNL     1      -0.223  51.745 -26.357  1.00  0.00     0.035 A 
ENDROOT
BRANCH   4  13
HETATM   13  C8  UNL     1       0.083  52.056 -22.213  1.00  0.00     0.049 C 
HETATM   14  C9  UNL     1      -0.178  51.053 -21.359  1.00  0.00     0.016 C 
BRANCH  14  15
HETATM   15  C10 UNL     1      -0.040  51.199 -19.903  1.00  0.00    -0.016 A 
HETATM   16  C11 UNL     1      -0.476  50.148 -19.076  1.00  0.00     0.052 A 
HETATM   17  C12 UNL     1      -0.362  50.294 -17.710  1.00  0.00     0.105 A 
HETATM   18  C13 UNL     1       0.163  51.432 -17.145  1.00  0.00     0.106 A 
HETATM   19  O3  UNL     1      -0.737  49.377 -16.779  1.00  0.00    -0.323 OA
HETATM   20  C14 UNL     1       0.597  52.491 -17.912  1.00  0.00     0.059 A 
HETATM   21  O2  UNL     1       0.187  51.371 -15.787  1.00  0.00    -0.323 OA
HETATM   22  C15 UNL     1       0.489  52.372 -19.305  1.00  0.00     0.024 A 
HETATM   23 BR1  UNL     1       1.096  53.845 -20.345  1.00  0.00    -0.050 Br
HETATM   24  C16 UNL     1      -0.387  50.066 -15.560  1.00  0.00     0.352 A 
ENDBRANCH  14  15
ENDBRANCH   4  13
BRANCH   1  25
HETATM   25  N1  UNL     1      -2.648  51.621 -26.133  1.00  0.00    -0.342 N 
HETATM   26  H5  UNL     1      -3.221  52.389 -25.798  1.00  0.00     0.167 HD
BRANCH  25  27
HETATM   27  C5  UNL     1      -3.421  50.455 -26.348  1.00  0.00     0.036 A 
HETATM   28  C4  UNL     1      -4.002  49.730 -25.298  1.00  0.00     0.029 A 
HETATM   29  C3  UNL     1      -4.705  48.545 -25.539  1.00  0.00     0.005 A 
HETATM   30  C2  UNL     1      -4.818  48.054 -26.836  1.00  0.00     0.036 A 
HETATM   31  C1  UNL     1      -4.212  48.741 -27.878  1.00  0.00     0.067 A 
HETATM   32  C23 UNL     1      -3.507  49.923 -27.646  1.00  0.00     0.066 A 
BRANCH  31  33
HETATM   33  O1  UNL     1      -4.327  48.218 -29.134  1.00  0.00    -0.361 OA
HETATM   34  H1  UNL     1      -3.859  48.794 -29.758  1.00  0.00     0.217 HD
ENDBRANCH  31  33
ENDBRANCH  25  27
ENDBRANCH   1  25
TORSDOF 5
ENDMDL
MODEL 3
REMARK minimizedAffinity -9.93973637
REMARK  5 active torsions:
REMARK  status: ('A' for Active; 'I' for Inactive)
REMARK    1  A    between atoms: O1_1  and  C1_2 
REMARK    2  A    between atoms: C5_6  and  N1_7 
REMARK    3  A    between atoms: N1_7  and  C6_8 
REMARK    4  A    between atoms: C7_11  and  C8_12 
REMARK    5  A    between atoms: C9_13  and  C10_14 
ROOT
HETATM    1  C6  UNL     1      -1.451  50.703 -24.031  1.00  0.00     0.119 A 
HETATM    2  N2  UNL     1      -2.307  50.091 -24.867  1.00  0.00    -0.328 N 
ATOM      3  H2  UNL     1      -2.411  50.395 -25.835  1.00  0.00     0.169 HD
HETATM    4  C7  UNL     1      -3.019  49.066 -24.381  1.00  0.00     0.107 A 
HETATM    5  N3  UNL     1      -2.948  48.598 -23.129  1.00  0.00    -0.342 N 
ATOM      6  H3  UNL     1      -3.523  47.815 -22.820  1.00  0.00     0.167 HD
HETATM    7  C17 UNL     1      -2.089  49.201 -22.303  1.00  0.00     0.047 A 
HETATM    8  C18 UNL     1      -1.990  48.735 -20.997  1.00  0.00     0.030 A 
HETATM    9  C19 UNL     1      -1.109  49.304 -20.074  1.00  0.00     0.002 A 
HETATM   10  C20 UNL     1      -0.297  50.363 -20.458  1.00  0.00     0.001 A 
HETATM   11  C21 UNL     1      -0.378  50.847 -21.763  1.00  0.00     0.017 A 
HETATM   12  C22 UNL     1      -1.284  50.279 -22.697  1.00  0.00     0.035 A 
ENDROOT
BRANCH   4  13
HETATM   13  C8  UNL     1      -3.950  48.378 -25.274  1.00  0.00     0.049 C 
HETATM   14  C9  UNL     1      -4.315  48.829 -26.484  1.00  0.00     0.016 C 
BRANCH  14  15
HETATM   15  C10 UNL     1      -5.261  48.104 -27.346  1.00  0.00    -0.016 A 
HETATM   16  C11 UNL     1      -4.943  47.942 -28.707  1.00  0.00     0.052 A 
HETATM   17  C12 UNL     1      -5.839  47.278 -29.517  1.00  0.00     0.105 A 
HETATM   18  C13 UNL     1      -7.022  46.774 -29.029  1.00  0.00     0.106 A 
HETATM   19  O3  UNL     1      -5.684  47.041 -30.847  1.00  0.00    -0.323 OA
HETATM   20  C14 UNL     1      -7.380  46.914 -27.706  1.00  0.00     0.059 A 
HETATM   21  O2  UNL     1      -7.756  46.156 -29.992  1.00  0.00    -0.323 OA
HETATM   22  C15 UNL     1      -6.489  47.589 -26.859  1.00  0.00     0.024 A 
HETATM   23 BR1  UNL     1      -7.003  47.769 -25.036  1.00  0.00    -0.050 Br
HETATM   24  C16 UNL     1      -6.903  46.330 -31.143  1.00  0.00     0.352 A 
ENDBRANCH  14  15
ENDBRANCH   4  13
BRANCH   1  25
HETATM   25  N1  UNL     1      -0.705  51.823 -24.495  1.00  0.00    -0.342 N 
HETATM   26  H5  UNL     1      -1.185  52.668 -24.205  1.00  0.00     0.167 HD
BRANCH  25  27
HETATM   27  C5  UNL     1      -0.070  51.992 -25.748  1.00  0.00     0.036 A 
HETATM   28  C4  UNL     1      -0.777  52.306 -26.917  1.00  0.00     0.029 A 
HETATM   29  C3  UNL     1      -0.128  52.403 -28.153  1.00  0.00     0.005 A 
HETATM   30  C2  UNL     1       1.240  52.164 -28.240  1.00  0.00     0.036 A 
HETATM   31  C1  UNL     1       1.944  51.812 -27.097  1.00  0.00     0.067 A 
HETATM   32  C23 UNL     1       1.303  51.712 -25.861  1.00  0.00     0.066 A 
BRANCH  31  33
HETATM   33  O1  UNL     1       3.281  51.565 -27.227  1.00  0.00    -0.361 OA
HETATM   34  H1  UNL     1       3.641  51.331 -26.358  1.00  0.00     0.217 HD
ENDBRANCH  31  33
ENDBRANCH  25  27
ENDBRANCH   1  25
TORSDOF 5
ENDMDL
MODEL 4
REMARK minimizedAffinity -9.91684628
REMARK  5 active torsions:
REMARK  status: ('A' for Active; 'I' for Inactive)
REMARK    1  A    between atoms: O1_1  and  C1_2 
REMARK    2  A    between atoms: C5_6  and  N1_7 
REMARK    3  A    between atoms: N1_7  and  C6_8 
REMARK    4  A    between atoms: C7_11  and  C8_12 
REMARK    5  A    between atoms: C9_13  and  C10_14 
ROOT
HETATM    1  C6  UNL     1      -1.699  51.445 -25.156  1.00  0.00     0.119 A 
HETATM    2  N2  UNL     1      -1.488  51.563 -23.834  1.00  0.00    -0.328 N 
ATOM      3  H2  UNL     1      -2.250  51.454 -23.164  1.00  0.00     0.169 HD
HETATM    4  C7  UNL     1      -0.241  51.830 -23.429  1.00  0.00     0.107 A 
HETATM    5  N3  UNL     1       0.818  51.987 -24.233  1.00  0.00    -0.342 N 
ATOM      6  H3  UNL     1       1.744  52.195 -23.859  1.00  0.00     0.167 HD
HETATM    7  C17 UNL     1       0.608  51.860 -25.545  1.00  0.00     0.047 A 
HETATM    8  C18 UNL     1       1.689  52.015 -26.406  1.00  0.00     0.030 A 
HETATM    9  C19 UNL     1       1.555  51.888 -27.791  1.00  0.00     0.002 A 
HETATM   10  C20 UNL     1       0.315  51.591 -28.339  1.00  0.00     0.001 A 
HETATM   11  C21 UNL     1      -0.784  51.431 -27.496  1.00  0.00     0.017 A 
HETATM   12  C22 UNL     1      -0.652  51.575 -26.090  1.00  0.00     0.035 A 
ENDROOT
BRANCH   4  13
HETATM   13  C8  UNL     1       0.016  51.952 -21.994  1.00  0.00     0.049 C 
HETATM   14  C9  UNL     1      -0.314  51.025 -21.082  1.00  0.00     0.016 C 
BRANCH  14  15
HETATM   15  C10 UNL     1      -0.040  51.195 -19.647  1.00  0.00    -0.016 A 
HETATM   16  C11 UNL     1      -0.406  50.162 -18.765  1.00  0.00     0.052 A 
HETATM   17  C12 UNL     1      -0.164  50.331 -17.418  1.00  0.00     0.105 A 
HETATM   18  C13 UNL     1       0.419  51.474 -16.925  1.00  0.00     0.106 A 
HETATM   19  O3  UNL     1      -0.459  49.434 -16.440  1.00  0.00    -0.323 OA
HETATM   20  C14 UNL     1       0.788  52.515 -17.748  1.00  0.00     0.059 A 
HETATM   21  O2  UNL     1       0.568  51.435 -15.574  1.00  0.00    -0.323 OA
HETATM   22  C15 UNL     1       0.551  52.373 -19.122  1.00  0.00     0.024 A 
HETATM   23 BR1  UNL     1       1.069  53.822 -20.241  1.00  0.00    -0.050 Br
HETATM   24  C16 UNL     1       0.008  50.140 -15.271  1.00  0.00     0.352 A 
ENDBRANCH  14  15
ENDBRANCH   4  13
BRANCH   1  25
HETATM   25  N1  UNL     1      -3.019  51.203 -25.632  1.00  0.00    -0.342 N 
HETATM   26  H5  UNL     1      -3.397  52.077 -25.982  1.00  0.00     0.167 HD
BRANCH  25  27
HETATM   27  C5  UNL     1      -4.027  50.401 -25.046  1.00  0.00     0.036 A 
HETATM   28  C4  UNL     1      -4.222  49.058 -25.393  1.00  0.00     0.029 A 
HETATM   29  C3  UNL     1      -5.269  48.311 -24.842  1.00  0.00     0.005 A 
HETATM   30  C2  UNL     1      -6.153  48.908 -23.949  1.00  0.00     0.036 A 
HETATM   31  C1  UNL     1      -5.995  50.249 -23.628  1.00  0.00     0.067 A 
HETATM   32  C23 UNL     1      -4.954  51.000 -24.175  1.00  0.00     0.066 A 
BRANCH  31  33
HETATM   33  O1  UNL     1      -6.895  50.804 -22.764  1.00  0.00    -0.361 OA
HETATM   34  H1  UNL     1      -6.668  51.737 -22.633  1.00  0.00     0.217 HD
ENDBRANCH  31  33
ENDBRANCH  25  27
ENDBRANCH   1  25
TORSDOF 5
ENDMDL
MODEL 5
REMARK minimizedAffinity -9.88593292
REMARK  5 active torsions:
REMARK  status: ('A' for Active; 'I' for Inactive)
REMARK    1  A    between atoms: O1_1  and  C1_2 
REMARK    2  A    between atoms: C5_6  and  N1_7 
REMARK    3  A    between atoms: N1_7  and  C6_8 
REMARK    4  A    between atoms: C7_11  and  C8_12 
REMARK    5  A    between atoms: C9_13  and  C10_14 
ROOT
HETATM    1  C6  UNL     1      -2.607  49.584 -24.996  1.00  0.00     0.119 A 
HETATM    2  N2  UNL     1      -2.014  50.042 -23.880  1.00  0.00    -0.328 N 
ATOM      3  H2  UNL     1      -1.095  50.482 -23.911  1.00  0.00     0.169 HD
HETATM    4  C7  UNL     1      -2.677  49.897 -22.726  1.00  0.00     0.107 A 
HETATM    5  N3  UNL     1      -3.884  49.335 -22.589  1.00  0.00    -0.342 N 
ATOM      6  H3  UNL     1      -4.333  49.252 -21.677  1.00  0.00     0.167 HD
HETATM    7  C17 UNL     1      -4.475  48.890 -23.701  1.00  0.00     0.047 A 
HETATM    8  C18 UNL     1      -5.731  48.304 -23.593  1.00  0.00     0.030 A 
HETATM    9  C19 UNL     1      -6.421  47.822 -24.708  1.00  0.00     0.002 A 
HETATM   10  C20 UNL     1      -5.852  47.931 -25.970  1.00  0.00     0.001 A 
HETATM   11  C21 UNL     1      -4.593  48.514 -26.104  1.00  0.00     0.017 A 
HETATM   12  C22 UNL     1      -3.885  48.991 -24.969  1.00  0.00     0.035 A 
ENDROOT
BRANCH   4  13
HETATM   13  C8  UNL     1      -2.057  50.397 -21.498  1.00  0.00     0.049 C 
HETATM   14  C9  UNL     1      -0.809  50.885 -21.422  1.00  0.00     0.016 C 
BRANCH  14  15
HETATM   15  C10 UNL     1      -0.226  51.372 -20.163  1.00  0.00    -0.016 A 
HETATM   16  C11 UNL     1      -0.515  50.677 -18.975  1.00  0.00     0.052 A 
HETATM   17  C12 UNL     1       0.019  51.146 -17.793  1.00  0.00     0.105 A 
HETATM   18  C13 UNL     1       0.819  52.263 -17.752  1.00  0.00     0.106 A 
HETATM   19  O3  UNL     1      -0.165  50.594 -16.564  1.00  0.00    -0.323 OA
HETATM   20  C14 UNL     1       1.124  52.981 -18.889  1.00  0.00     0.059 A 
HETATM   21  O2  UNL     1       1.240  52.551 -16.492  1.00  0.00    -0.323 OA
HETATM   22  C15 UNL     1       0.592  52.529 -20.104  1.00  0.00     0.024 A 
HETATM   23 BR1  UNL     1       1.028  53.533 -21.661  1.00  0.00    -0.050 Br
HETATM   24  C16 UNL     1       0.611  51.490 -15.742  1.00  0.00     0.352 A 
ENDBRANCH  14  15
ENDBRANCH   4  13
BRANCH   1  25
HETATM   25  N1  UNL     1      -1.920  49.679 -26.239  1.00  0.00    -0.342 N 
HETATM   26  H5  UNL     1      -1.432  48.805 -26.402  1.00  0.00     0.167 HD
BRANCH  25  27
HETATM   27  C5  UNL     1      -1.195  50.780 -26.755  1.00  0.00     0.036 A 
HETATM   28  C4  UNL     1       0.200  50.875 -26.661  1.00  0.00     0.029 A 
HETATM   29  C3  UNL     1       0.882  52.007 -27.123  1.00  0.00     0.005 A 
HETATM   30  C2  UNL     1       0.171  53.072 -27.668  1.00  0.00     0.036 A 
HETATM   31  C1  UNL     1      -1.214  53.006 -27.729  1.00  0.00     0.067 A 
HETATM   32  C23 UNL     1      -1.900  51.882 -27.268  1.00  0.00     0.066 A 
BRANCH  31  33
HETATM   33  O1  UNL     1      -1.877  54.080 -28.250  1.00  0.00    -0.361 OA
HETATM   34  H1  UNL     1      -2.829  53.900 -28.230  1.00  0.00     0.217 HD
ENDBRANCH  31  33
ENDBRANCH  25  27
ENDBRANCH   1  25
TORSDOF 5
ENDMDL
MODEL 6
REMARK minimizedAffinity -9.86641693
REMARK  5 active torsions:
REMARK  status: ('A' for Active; 'I' for Inactive)
REMARK    1  A    between atoms: O1_1  and  C1_2 
REMARK    2  A    between atoms: C5_6  and  N1_7 
REMARK    3  A    between atoms: N1_7  and  C6_8 
REMARK    4  A    between atoms: C7_11  and  C8_12 
REMARK    5  A    between atoms: C9_13  and  C10_14 
ROOT
HETATM    1  C6  UNL     1      -0.199  52.124 -23.204  1.00  0.00     0.119 A 
HETATM    2  N2  UNL     1      -1.317  51.465 -23.553  1.00  0.00    -0.328 N 
ATOM      3  H2  UNL     1      -1.516  51.238 -24.527  1.00  0.00     0.169 HD
HETATM    4  C7  UNL     1      -2.160  51.117 -22.573  1.00  0.00     0.107 A 
HETATM    5  N3  UNL     1      -1.982  51.370 -21.270  1.00  0.00    -0.342 N 
ATOM      6  H3  UNL     1      -2.669  51.082 -20.574  1.00  0.00     0.167 HD
HETATM    7  C17 UNL     1      -0.867  52.017 -20.926  1.00  0.00     0.047 A 
HETATM    8  C18 UNL     1      -0.651  52.291 -19.579  1.00  0.00     0.030 A 
HETATM    9  C19 UNL     1       0.496  52.954 -19.134  1.00  0.00     0.002 A 
HETATM   10  C20 UNL     1       1.462  53.350 -20.049  1.00  0.00     0.001 A 
HETATM   11  C21 UNL     1       1.268  53.086 -21.404  1.00  0.00     0.017 A 
HETATM   12  C22 UNL     1       0.096  52.426 -21.859  1.00  0.00     0.035 A 
ENDROOT
BRANCH   4  13
HETATM   13  C8  UNL     1      -3.380  50.390 -22.927  1.00  0.00     0.049 C 
HETATM   14  C9  UNL     1      -3.402  49.145 -23.427  1.00  0.00     0.016 C 
BRANCH  14  15
HETATM   15  C10 UNL     1      -4.654  48.455 -23.774  1.00  0.00    -0.016 A 
HETATM   16  C11 UNL     1      -5.079  48.466 -25.114  1.00  0.00     0.052 A 
HETATM   17  C12 UNL     1      -6.263  47.834 -25.434  1.00  0.00     0.105 A 
HETATM   18  C13 UNL     1      -7.025  47.199 -24.482  1.00  0.00     0.106 A 
HETATM   19  O3  UNL     1      -6.812  47.757 -26.676  1.00  0.00    -0.323 OA
HETATM   20  C14 UNL     1      -6.653  47.168 -23.155  1.00  0.00     0.059 A 
HETATM   21  O2  UNL     1      -8.148  46.641 -25.008  1.00  0.00    -0.323 OA
HETATM   22  C15 UNL     1      -5.457  47.806 -22.801  1.00  0.00     0.024 A 
HETATM   23 BR1  UNL     1      -4.961  47.748 -20.964  1.00  0.00    -0.050 Br
HETATM   24  C16 UNL     1      -8.008  46.999 -26.399  1.00  0.00     0.352 A 
ENDBRANCH  14  15
ENDBRANCH   4  13
BRANCH   1  25
HETATM   25  N1  UNL     1       0.705  52.548 -24.218  1.00  0.00    -0.342 N 
HETATM   26  H5  UNL     1       1.111  53.433 -23.932  1.00  0.00     0.167 HD
BRANCH  25  27
HETATM   27  C5  UNL     1       0.537  52.486 -25.622  1.00  0.00     0.036 A 
HETATM   28  C4  UNL     1       1.430  51.803 -26.459  1.00  0.00     0.029 A 
HETATM   29  C3  UNL     1       1.272  51.814 -27.850  1.00  0.00     0.005 A 
HETATM   30  C2  UNL     1       0.226  52.530 -28.424  1.00  0.00     0.036 A 
HETATM   31  C1  UNL     1      -0.640  53.244 -27.608  1.00  0.00     0.067 A 
HETATM   32  C23 UNL     1      -0.487  53.238 -26.221  1.00  0.00     0.066 A 
BRANCH  31  33
HETATM   33  O1  UNL     1      -1.641  53.951 -28.211  1.00  0.00    -0.361 OA
HETATM   34  H1  UNL     1      -2.163  54.398 -27.527  1.00  0.00     0.217 HD
ENDBRANCH  31  33
ENDBRANCH  25  27
ENDBRANCH   1  25
TORSDOF 5
ENDMDL
MODEL 7
REMARK minimizedAffinity -9.82593536
REMARK  5 active torsions:
REMARK  status: ('A' for Active; 'I' for Inactive)
REMARK    1  A    between atoms: O1_1  and  C1_2 
REMARK    2  A    between atoms: C5_6  and  N1_7 
REMARK    3  A    between atoms: N1_7  and  C6_8 
REMARK    4  A    between atoms: C7_11  and  C8_12 
REMARK    5  A    between atoms: C9_13  and  C10_14 
ROOT
HETATM    1  C6  UNL     1      -1.209  51.432 -23.839  1.00  0.00     0.119 A 
HETATM    2  N2  UNL     1      -0.620  51.397 -22.631  1.00  0.00    -0.328 N 
ATOM      3  H2  UNL     1       0.063  52.102 -22.355  1.00  0.00     0.169 HD
HETATM    4  C7  UNL     1      -0.963  50.401 -21.806  1.00  0.00     0.107 A 
HETATM    5  N3  UNL     1      -1.848  49.435 -22.082  1.00  0.00    -0.342 N 
ATOM      6  H3  UNL     1      -2.061  48.699 -21.408  1.00  0.00     0.167 HD
HETATM    7  C17 UNL     1      -2.439  49.478 -23.278  1.00  0.00     0.047 A 
HETATM    8  C18 UNL     1      -3.366  48.490 -23.594  1.00  0.00     0.030 A 
HETATM    9  C19 UNL     1      -4.037  48.470 -24.819  1.00  0.00     0.002 A 
HETATM   10  C20 UNL     1      -3.787  49.461 -25.758  1.00  0.00     0.001 A 
HETATM   11  C21 UNL     1      -2.862  50.462 -25.465  1.00  0.00     0.017 A 
HETATM   12  C22 UNL     1      -2.169  50.475 -24.226  1.00  0.00     0.035 A 
ENDROOT
BRANCH   4  13
HETATM   13  C8  UNL     1      -0.343  50.346 -20.482  1.00  0.00     0.049 C 
HETATM   14  C9  UNL     1      -0.895  50.843 -19.364  1.00  0.00     0.016 C 
BRANCH  14  15
HETATM   15  C10 UNL     1      -0.230  50.770 -18.055  1.00  0.00    -0.016 A 
HETATM   16  C11 UNL     1       0.776  51.707 -17.758  1.00  0.00     0.052 A 
HETATM   17  C12 UNL     1       1.411  51.625 -16.536  1.00  0.00     0.105 A 
HETATM   18  C13 UNL     1       1.084  50.661 -15.613  1.00  0.00     0.106 A 
HETATM   19  O3  UNL     1       2.401  52.449 -16.098  1.00  0.00    -0.323 OA
HETATM   20  C14 UNL     1       0.110  49.717 -15.861  1.00  0.00     0.059 A 
HETATM   21  O2  UNL     1       1.826  50.759 -14.478  1.00  0.00    -0.323 OA
HETATM   22  C15 UNL     1      -0.549  49.774 -17.097  1.00  0.00     0.024 A 
HETATM   23 BR1  UNL     1      -1.891  48.463 -17.418  1.00  0.00    -0.050 Br
HETATM   24  C16 UNL     1       2.661  51.894 -14.792  1.00  0.00     0.352 A 
ENDBRANCH  14  15
ENDBRANCH   4  13
BRANCH   1  25
HETATM   25  N1  UNL     1      -0.843  52.451 -24.764  1.00  0.00    -0.342 N 
HETATM   26  H5  UNL     1      -1.655  53.036 -24.931  1.00  0.00     0.167 HD
BRANCH  25  27
HETATM   27  C5  UNL     1      -0.044  52.330 -25.925  1.00  0.00     0.036 A 
HETATM   28  C4  UNL     1      -0.552  52.532 -27.216  1.00  0.00     0.029 A 
HETATM   29  C3  UNL     1       0.248  52.342 -28.348  1.00  0.00     0.005 A 
HETATM   30  C2  UNL     1       1.567  51.924 -28.204  1.00  0.00     0.036 A 
HETATM   31  C1  UNL     1       2.070  51.681 -26.933  1.00  0.00     0.067 A 
HETATM   32  C23 UNL     1       1.277  51.867 -25.800  1.00  0.00     0.066 A 
BRANCH  31  33
HETATM   33  O1  UNL     1       3.363  51.252 -26.834  1.00  0.00    -0.361 OA
HETATM   34  H1  UNL     1       3.578  51.121 -25.898  1.00  0.00     0.217 HD
ENDBRANCH  31  33
ENDBRANCH  25  27
ENDBRANCH   1  25
TORSDOF 5
ENDMDL
MODEL 8
REMARK minimizedAffinity -9.56975842
REMARK  5 active torsions:
REMARK  status: ('A' for Active; 'I' for Inactive)
REMARK    1  A    between atoms: O1_1  and  C1_2 
REMARK    2  A    between atoms: C5_6  and  N1_7 
REMARK    3  A    between atoms: N1_7  and  C6_8 
REMARK    4  A    between atoms: C7_11  and  C8_12 
REMARK    5  A    between atoms: C9_13  and  C10_14 
ROOT
HETATM    1  C6  UNL     1      -1.391  51.012 -23.991  1.00  0.00     0.119 A 
HETATM    2  N2  UNL     1      -2.303  50.270 -24.641  1.00  0.00    -0.328 N 
ATOM      3  H2  UNL     1      -2.536  50.454 -25.617  1.00  0.00     0.169 HD
HETATM    4  C7  UNL     1      -2.894  49.282 -23.959  1.00  0.00     0.107 A 
HETATM    5  N3  UNL     1      -2.651  48.968 -22.680  1.00  0.00    -0.342 N 
ATOM      6  H3  UNL     1      -3.142  48.204 -22.217  1.00  0.00     0.167 HD
HETATM    7  C17 UNL     1      -1.737  49.701 -22.040  1.00  0.00     0.047 A 
HETATM    8  C18 UNL     1      -1.460  49.397 -20.711  1.00  0.00     0.030 A 
HETATM    9  C19 UNL     1      -0.510  50.108 -19.973  1.00  0.00     0.002 A 
HETATM   10  C20 UNL     1       0.191  51.147 -20.571  1.00  0.00     0.001 A 
HETATM   11  C21 UNL     1      -0.070  51.470 -21.902  1.00  0.00     0.017 A 
HETATM   12  C22 UNL     1      -1.045  50.757 -22.648  1.00  0.00     0.035 A 
ENDROOT
BRANCH   4  13
HETATM   13  C8  UNL     1      -3.884  48.453 -24.648  1.00  0.00     0.049 C 
HETATM   14  C9  UNL     1      -5.089  48.886 -25.048  1.00  0.00     0.016 C 
BRANCH  14  15
HETATM   15  C10 UNL     1      -6.055  48.014 -25.734  1.00  0.00    -0.016 A 
HETATM   16  C11 UNL     1      -7.089  47.431 -24.979  1.00  0.00     0.052 A 
HETATM   17  C12 UNL     1      -7.982  46.599 -25.621  1.00  0.00     0.105 A 
HETATM   18  C13 UNL     1      -7.886  46.332 -26.966  1.00  0.00     0.106 A 
HETATM   19  O3  UNL     1      -9.031  45.958 -25.038  1.00  0.00    -0.323 OA
HETATM   20  C14 UNL     1      -6.886  46.873 -27.745  1.00  0.00     0.059 A 
HETATM   21  O2  UNL     1      -8.864  45.491 -27.397  1.00  0.00    -0.323 OA
HETATM   22  C15 UNL     1      -5.961  47.720 -27.118  1.00  0.00     0.024 A 
HETATM   23 BR1  UNL     1      -4.591  48.459 -28.213  1.00  0.00    -0.050 Br
HETATM   24  C16 UNL     1      -9.586  45.257 -26.170  1.00  0.00     0.352 A 
ENDBRANCH  14  15
ENDBRANCH   4  13
BRANCH   1  25
HETATM   25  N1  UNL     1      -0.767  52.100 -24.665  1.00  0.00    -0.342 N 
HETATM   26  H5  UNL     1      -1.395  52.896 -24.634  1.00  0.00     0.167 HD
BRANCH  25  27
HETATM   27  C5  UNL     1      -0.027  52.072 -25.871  1.00  0.00     0.036 A 
HETATM   28  C4  UNL     1      -0.627  52.214 -27.129  1.00  0.00     0.029 A 
HETATM   29  C3  UNL     1       0.124  52.116 -28.306  1.00  0.00     0.005 A 
HETATM   30  C2  UNL     1       1.489  51.853 -28.239  1.00  0.00     0.036 A 
HETATM   31  C1  UNL     1       2.087  51.670 -27.001  1.00  0.00     0.067 A 
HETATM   32  C23 UNL     1       1.344  51.764 -25.823  1.00  0.00     0.066 A 
BRANCH  31  33
HETATM   33  O1  UNL     1       3.424  51.392 -26.977  1.00  0.00    -0.361 OA
HETATM   34  H1  UNL     1       3.706  51.287 -26.055  1.00  0.00     0.217 HD
ENDBRANCH  31  33
ENDBRANCH  25  27
ENDBRANCH   1  25
TORSDOF 5
ENDMDL
MODEL 9
REMARK minimizedAffinity -9.52917862
REMARK  5 active torsions:
REMARK  status: ('A' for Active; 'I' for Inactive)
REMARK    1  A    between atoms: O1_1  and  C1_2 
REMARK    2  A    between atoms: C5_6  and  N1_7 
REMARK    3  A    between atoms: N1_7  and  C6_8 
REMARK    4  A    between atoms: C7_11  and  C8_12 
REMARK    5  A    between atoms: C9_13  and  C10_14 
ROOT
HETATM    1  C6  UNL     1      -1.747  50.314 -24.870  1.00  0.00     0.119 A 
HETATM    2  N2  UNL     1      -2.346  49.889 -25.995  1.00  0.00    -0.328 N 
ATOM      3  H2  UNL     1      -2.101  50.279 -26.905  1.00  0.00     0.169 HD
HETATM    4  C7  UNL     1      -3.276  48.934 -25.876  1.00  0.00     0.107 A 
HETATM    5  N3  UNL     1      -3.660  48.364 -24.727  1.00  0.00    -0.342 N 
ATOM      6  H3  UNL     1      -4.380  47.643 -24.705  1.00  0.00     0.167 HD
HETATM    7  C17 UNL     1      -3.056  48.781 -23.612  1.00  0.00     0.047 A 
HETATM    8  C18 UNL     1      -3.430  48.206 -22.402  1.00  0.00     0.030 A 
HETATM    9  C19 UNL     1      -2.840  48.580 -21.192  1.00  0.00     0.002 A 
HETATM   10  C20 UNL     1      -1.845  49.547 -21.180  1.00  0.00     0.001 A 
HETATM   11  C21 UNL     1      -1.452  50.138 -22.380  1.00  0.00     0.017 A 
HETATM   12  C22 UNL     1      -2.062  49.770 -23.609  1.00  0.00     0.035 A 
ENDROOT
BRANCH   4  13
HETATM   13  C8  UNL     1      -3.935  48.446 -27.088  1.00  0.00     0.049 C 
HETATM   14  C9  UNL     1      -5.230  48.102 -27.161  1.00  0.00     0.016 C 
BRANCH  14  15
HETATM   15  C10 UNL     1      -5.849  47.611 -28.401  1.00  0.00    -0.016 A 
HETATM   16  C11 UNL     1      -5.245  47.938 -29.629  1.00  0.00     0.052 A 
HETATM   17  C12 UNL     1      -5.837  47.492 -30.792  1.00  0.00     0.105 A 
HETATM   18  C13 UNL     1      -6.990  46.742 -30.777  1.00  0.00     0.106 A 
HETATM   19  O3  UNL     1      -5.384  47.723 -32.053  1.00  0.00    -0.323 OA
HETATM   20  C14 UNL     1      -7.621  46.403 -29.600  1.00  0.00     0.059 A 
HETATM   21  O2  UNL     1      -7.403  46.406 -32.028  1.00  0.00    -0.323 OA
HETATM   22  C15 UNL     1      -7.044  46.847 -28.402  1.00  0.00     0.024 A 
HETATM   23 BR1  UNL     1      -7.930  46.365 -26.789  1.00  0.00    -0.050 Br
HETATM   24  C16 UNL     1      -6.381  47.032 -32.834  1.00  0.00     0.352 A 
ENDBRANCH  14  15
ENDBRANCH   4  13
BRANCH   1  25
HETATM   25  N1  UNL     1      -0.781  51.357 -24.946  1.00  0.00    -0.342 N 
HETATM   26  H5  UNL     1      -1.133  52.156 -24.428  1.00  0.00     0.167 HD
BRANCH  25  27
HETATM   27  C5  UNL     1      -0.019  51.764 -26.068  1.00  0.00     0.036 A 
HETATM   28  C4  UNL     1      -0.588  52.412 -27.172  1.00  0.00     0.029 A 
HETATM   29  C3  UNL     1       0.180  52.743 -28.294  1.00  0.00     0.005 A 
HETATM   30  C2  UNL     1       1.530  52.408 -28.334  1.00  0.00     0.036 A 
HETATM   31  C1  UNL     1       2.096  51.729 -27.264  1.00  0.00     0.067 A 
HETATM   32  C23 UNL     1       1.335  51.395 -26.143  1.00  0.00     0.066 A 
BRANCH  31  33
HETATM   33  O1  UNL     1       3.418  51.399 -27.350  1.00  0.00    -0.361 OA
HETATM   34  H1  UNL     1       3.677  50.931 -26.541  1.00  0.00     0.217 HD
ENDBRANCH  31  33
ENDBRANCH  25  27
ENDBRANCH   1  25
TORSDOF 5
ENDMDL
