MODEL 1
REMARK minimizedAffinity -9.52038193
REMARK  4 active torsions:
REMARK  status: ('A' for Active; 'I' for Inactive)
REMARK    1  A    between atoms: N1_2  and  C1_4 
REMARK    2  A    between atoms: C5_8  and  C6_9 
REMARK    3  A    between atoms: C9_19  and  N6_20 
REMARK    4  A    between atoms: N6_20  and  C10_21 
ROOT
HETATM    1  C6  UNL     1       0.919  53.430 -23.601  1.00  0.00     0.075 A 
HETATM    2  N2  UNL     1       1.579  54.635 -23.530  1.00  0.00    -0.297 N 
HETATM    3  N3  UNL     1       1.825  55.073 -22.283  1.00  0.00    -0.284 N 
ATOM      4  H3  UNL     1       2.296  55.932 -21.996  1.00  0.00     0.188 HD
HETATM    5  C7  UNL     1       1.306  54.119 -21.508  1.00  0.00     0.136 A 
HETATM    6  N4  UNL     1       1.330  54.086 -20.157  1.00  0.00    -0.337 N 
ATOM      7  H4  UNL     1       1.741  54.810 -19.568  1.00  0.00     0.168 HD
HETATM    8  C8  UNL     1       0.737  52.962 -19.690  1.00  0.00     0.183 A 
HETATM    9  N5  UNL     1       0.136  51.932 -20.364  1.00  0.00    -0.342 N 
ATOM     10  H5  UNL     1      -0.259  51.144 -19.851  1.00  0.00     0.167 HD
HETATM   11  C9  UNL     1       0.069  51.966 -21.726  1.00  0.00     0.102 A 
HETATM   12  C16 UNL     1       0.702  53.088 -22.281  1.00  0.00     0.077 A 
HETATM   13  H4  UNL     1       1.911  55.200 -24.305  1.00  0.00     0.187 HD
ENDROOT
BRANCH   1  14
HETATM   14  C5  UNL     1       0.640  52.784 -24.874  1.00  0.00    -0.005 A 
HETATM   15  C4  UNL     1       1.500  51.789 -25.361  1.00  0.00     0.014 A 
HETATM   16  C3  UNL     1       1.225  51.141 -26.569  1.00  0.00     0.003 A 
HETATM   17  C2  UNL     1       0.083  51.474 -27.297  1.00  0.00     0.036 A 
HETATM   18  C1  UNL     1      -0.776  52.468 -26.811  1.00  0.00     0.103 A 
HETATM   19  C17 UNL     1      -0.495  53.136 -25.611  1.00  0.00     0.050 A 
BRANCH  18  20
HETATM   20  N1  UNL     1      -1.995  52.802 -27.556  1.00  0.00    -0.116 N 
HETATM   21  O1  UNL     1      -2.890  51.947 -27.614  1.00  0.00    -0.532 OA
HETATM   22  O2  UNL     1      -2.056  53.919 -28.088  1.00  0.00    -0.532 OA
ENDBRANCH  18  20
ENDBRANCH   1  14
BRANCH  11  23
HETATM   23  N6  UNL     1      -0.582  50.905 -22.377  1.00  0.00    -0.244 NA
HETATM   24  H6  UNL     1      -0.680  50.182 -21.662  1.00  0.00     0.135 HD
BRANCH  23  25
HETATM   25  C10 UNL     1      -1.803  51.004 -23.086  1.00  0.00     0.015 A 
HETATM   26  C11 UNL     1      -2.741  52.018 -22.845  1.00  0.00     0.024 A 
HETATM   27  C12 UNL     1      -3.946  52.057 -23.551  1.00  0.00     0.003 A 
HETATM   28  C13 UNL     1      -4.237  51.070 -24.490  1.00  0.00     0.024 A 
HETATM   29  C14 UNL     1      -3.327  50.038 -24.705  1.00  0.00     0.035 A 
HETATM   30 CL1  UNL     1      -3.679  48.817 -25.866  1.00  0.00    -0.084 Cl
HETATM   31  C15 UNL     1      -2.127  49.991 -23.997  1.00  0.00     0.047 A 
ENDBRANCH  23  25
ENDBRANCH  11  23
TORSDOF 4
ENDMDL
MODEL 2
REMARK minimizedAffinity -9.45047665
REMARK  4 active torsions:
REMARK  status: ('A' for Active; 'I' for Inactive)
REMARK    1  A    between atoms: N1_2  and  C1_4 
REMARK    2  A    between atoms: C5_8  and  C6_9 
REMARK    3  A    between atoms: C9_19  and  N6_20 
REMARK    4  A    between atoms: N6_20  and  C10_21 
ROOT
HETATM    1  C6  UNL     1      -3.341  51.402 -24.193  1.00  0.00     0.075 A 
HETATM    2  N2  UNL     1      -4.551  51.584 -24.825  1.00  0.00    -0.297 N 
HETATM    3  N3  UNL     1      -5.630  51.402 -24.045  1.00  0.00    -0.284 N 
ATOM      4  H3  UNL     1      -6.614  51.484 -24.301  1.00  0.00     0.188 HD
HETATM    5  C7  UNL     1      -5.109  51.090 -22.857  1.00  0.00     0.136 A 
HETATM    6  N4  UNL     1      -5.799  50.845 -21.722  1.00  0.00    -0.337 N 
ATOM      7  H4  UNL     1      -6.817  50.853 -21.650  1.00  0.00     0.168 HD
HETATM    8  C8  UNL     1      -4.961  50.586 -20.691  1.00  0.00     0.183 A 
HETATM    9  N5  UNL     1      -3.592  50.524 -20.658  1.00  0.00    -0.342 N 
ATOM     10  H5  UNL     1      -3.109  50.323 -19.782  1.00  0.00     0.167 HD
HETATM   11  C9  UNL     1      -2.879  50.733 -21.802  1.00  0.00     0.102 A 
HETATM   12  C16 UNL     1      -3.687  51.047 -22.904  1.00  0.00     0.077 A 
HETATM   13  H4  UNL     1      -4.703  51.857 -25.791  1.00  0.00     0.187 HD
ENDROOT
BRANCH   1  14
HETATM   14  C5  UNL     1      -2.078  51.630 -24.876  1.00  0.00    -0.005 A 
HETATM   15  C4  UNL     1      -1.469  50.591 -25.595  1.00  0.00     0.014 A 
HETATM   16  C3  UNL     1      -0.270  50.808 -26.280  1.00  0.00     0.003 A 
HETATM   17  C2  UNL     1       0.327  52.068 -26.262  1.00  0.00     0.036 A 
HETATM   18  C1  UNL     1      -0.280  53.106 -25.545  1.00  0.00     0.103 A 
HETATM   19  C17 UNL     1      -1.472  52.890 -24.838  1.00  0.00     0.050 A 
BRANCH  18  20
HETATM   20  N1  UNL     1       0.326  54.442 -25.547  1.00  0.00    -0.116 N 
HETATM   21  O1  UNL     1       0.993  54.776 -24.558  1.00  0.00    -0.532 OA
HETATM   22  O2  UNL     1       0.132  55.161 -26.538  1.00  0.00    -0.532 OA
ENDBRANCH  18  20
ENDBRANCH   1  14
BRANCH  11  23
HETATM   23  N6  UNL     1      -1.480  50.631 -21.730  1.00  0.00    -0.244 NA
HETATM   24  H6  UNL     1      -1.179  50.493 -22.695  1.00  0.00     0.135 HD
BRANCH  23  25
HETATM   25  C10 UNL     1      -0.619  51.578 -21.122  1.00  0.00     0.015 A 
HETATM   26  C11 UNL     1       0.060  52.563 -21.852  1.00  0.00     0.024 A 
HETATM   27  C12 UNL     1       0.923  53.457 -21.211  1.00  0.00     0.003 A 
HETATM   28  C13 UNL     1       1.132  53.361 -19.837  1.00  0.00     0.024 A 
HETATM   29  C14 UNL     1       0.490  52.359 -19.114  1.00  0.00     0.035 A 
HETATM   30 CL1  UNL     1       0.741  52.238 -17.415  1.00  0.00    -0.084 Cl
HETATM   31  C15 UNL     1      -0.365  51.461 -19.751  1.00  0.00     0.047 A 
ENDBRANCH  23  25
ENDBRANCH  11  23
TORSDOF 4
ENDMDL
MODEL 3
REMARK minimizedAffinity -9.34207726
REMARK  4 active torsions:
REMARK  status: ('A' for Active; 'I' for Inactive)
REMARK    1  A    between atoms: N1_2  and  C1_4 
REMARK    2  A    between atoms: C5_8  and  C6_9 
REMARK    3  A    between atoms: C9_19  and  N6_20 
REMARK    4  A    between atoms: N6_20  and  C10_21 
ROOT
HETATM    1  C6  UNL     1      -1.887  51.861 -26.855  1.00  0.00     0.075 A 
HETATM    2  N2  UNL     1      -1.873  52.624 -28.000  1.00  0.00    -0.297 N 
HETATM    3  N3  UNL     1      -1.108  53.727 -27.935  1.00  0.00    -0.284 N 
ATOM      4  H3  UNL     1      -0.952  54.430 -28.658  1.00  0.00     0.188 HD
HETATM    5  C7  UNL     1      -0.602  53.685 -26.702  1.00  0.00     0.136 A 
HETATM    6  N4  UNL     1       0.264  54.572 -26.163  1.00  0.00    -0.337 N 
ATOM      7  H4  UNL     1       0.620  55.399 -26.644  1.00  0.00     0.168 HD
HETATM    8  C8  UNL     1       0.597  54.218 -24.900  1.00  0.00     0.183 A 
HETATM    9  N5  UNL     1       0.180  53.158 -24.139  1.00  0.00    -0.342 N 
ATOM     10  H5  UNL     1       0.542  53.031 -23.194  1.00  0.00     0.167 HD
HETATM   11  C9  UNL     1      -0.722  52.272 -24.652  1.00  0.00     0.102 A 
HETATM   12  C16 UNL     1      -1.081  52.558 -25.978  1.00  0.00     0.077 A 
HETATM   13  H4  UNL     1      -2.352  52.429 -28.874  1.00  0.00     0.187 HD
ENDROOT
BRANCH   1  14
HETATM   14  C5  UNL     1      -2.608  50.599 -26.784  1.00  0.00    -0.005 A 
HETATM   15  C4  UNL     1      -2.540  49.813 -25.625  1.00  0.00     0.014 A 
HETATM   16  C3  UNL     1      -3.253  48.614 -25.536  1.00  0.00     0.003 A 
HETATM   17  C2  UNL     1      -4.048  48.193 -26.602  1.00  0.00     0.036 A 
HETATM   18  C1  UNL     1      -4.116  48.977 -27.760  1.00  0.00     0.103 A 
HETATM   19  C17 UNL     1      -3.387  50.170 -27.863  1.00  0.00     0.050 A 
BRANCH  18  20
HETATM   20  N1  UNL     1      -4.975  48.556 -28.873  1.00  0.00    -0.116 N 
HETATM   21  O1  UNL     1      -6.012  47.936 -28.601  1.00  0.00    -0.532 OA
HETATM   22  O2  UNL     1      -4.609  48.842 -30.022  1.00  0.00    -0.532 OA
ENDBRANCH  18  20
ENDBRANCH   1  14
BRANCH  11  23
HETATM   23  N6  UNL     1      -1.145  51.216 -23.828  1.00  0.00    -0.244 NA
HETATM   24  H6  UNL     1      -0.832  50.371 -24.306  1.00  0.00     0.135 HD
BRANCH  23  25
HETATM   25  C10 UNL     1      -0.854  51.085 -22.449  1.00  0.00     0.015 A 
HETATM   26  C11 UNL     1      -0.920  49.859 -21.772  1.00  0.00     0.024 A 
HETATM   27  C12 UNL     1      -0.652  49.785 -20.403  1.00  0.00     0.003 A 
HETATM   28  C13 UNL     1      -0.335  50.940 -19.690  1.00  0.00     0.024 A 
HETATM   29  C14 UNL     1      -0.306  52.166 -20.349  1.00  0.00     0.035 A 
HETATM   30 CL1  UNL     1       0.089  53.595 -19.476  1.00  0.00    -0.084 Cl
HETATM   31  C15 UNL     1      -0.581  52.245 -21.713  1.00  0.00     0.047 A 
ENDBRANCH  23  25
ENDBRANCH  11  23
TORSDOF 4
ENDMDL
MODEL 4
REMARK minimizedAffinity -9.11853981
REMARK  4 active torsions:
REMARK  status: ('A' for Active; 'I' for Inactive)
REMARK    1  A    between atoms: N1_2  and  C1_4 
REMARK    2  A    between atoms: C5_8  and  C6_9 
REMARK    3  A    between atoms: C9_19  and  N6_20 
REMARK    4  A    between atoms: N6_20  and  C10_21 
ROOT
HETATM    1  C6  UNL     1      -0.042  53.121 -24.645  1.00  0.00     0.075 A 
HETATM    2  N2  UNL     1       0.461  54.396 -24.777  1.00  0.00    -0.297 N 
HETATM    3  N3  UNL     1       0.458  54.878 -26.031  1.00  0.00    -0.284 N 
ATOM      4  H3  UNL     1       0.781  55.789 -26.358  1.00  0.00     0.188 HD
HETATM    5  C7  UNL     1      -0.067  53.884 -26.748  1.00  0.00     0.136 A 
HETATM    6  N4  UNL     1      -0.310  53.899 -28.077  1.00  0.00    -0.337 N 
ATOM      7  H4  UNL     1      -0.097  54.683 -28.695  1.00  0.00     0.168 HD
HETATM    8  C8  UNL     1      -0.874  52.736 -28.480  1.00  0.00     0.183 A 
HETATM    9  N5  UNL     1      -1.190  51.611 -27.765  1.00  0.00    -0.342 N 
ATOM     10  H5  UNL     1      -1.625  50.814 -28.229  1.00  0.00     0.167 HD
HETATM   11  C9  UNL     1      -0.918  51.563 -26.429  1.00  0.00     0.102 A 
HETATM   12  C16 UNL     1      -0.367  52.755 -25.936  1.00  0.00     0.077 A 
HETATM   13  H4  UNL     1       0.804  54.999 -24.036  1.00  0.00     0.187 HD
ENDROOT
BRANCH   1  14
HETATM   14  C5  UNL     1      -0.175  52.481 -23.346  1.00  0.00    -0.005 A 
HETATM   15  C4  UNL     1      -0.859  51.263 -23.227  1.00  0.00     0.014 A 
HETATM   16  C3  UNL     1      -0.966  50.625 -21.989  1.00  0.00     0.003 A 
HETATM   17  C2  UNL     1      -0.383  51.193 -20.857  1.00  0.00     0.036 A 
HETATM   18  C1  UNL     1       0.300  52.410 -20.974  1.00  0.00     0.103 A 
HETATM   19  C17 UNL     1       0.394  53.065 -22.210  1.00  0.00     0.050 A 
BRANCH  18  20
HETATM   20  N1  UNL     1       0.943  52.998 -19.794  1.00  0.00    -0.116 N 
HETATM   21  O1  UNL     1       0.739  52.462 -18.696  1.00  0.00    -0.532 OA
HETATM   22  O2  UNL     1       1.651  54.002 -19.964  1.00  0.00    -0.532 OA
ENDBRANCH  18  20
ENDBRANCH   1  14
BRANCH  11  23
HETATM   23  N6  UNL     1      -1.231  50.380 -25.739  1.00  0.00    -0.244 NA
HETATM   24  H6  UNL     1      -1.141  50.622 -24.752  1.00  0.00     0.135 HD
BRANCH  23  25
HETATM   25  C10 UNL     1      -2.413  49.620 -25.909  1.00  0.00     0.015 A 
HETATM   26  C11 UNL     1      -2.890  49.227 -27.167  1.00  0.00     0.024 A 
HETATM   27  C12 UNL     1      -4.079  48.503 -27.286  1.00  0.00     0.003 A 
HETATM   28  C13 UNL     1      -4.816  48.181 -26.148  1.00  0.00     0.024 A 
HETATM   29  C14 UNL     1      -4.368  48.602 -24.899  1.00  0.00     0.035 A 
HETATM   30 CL1  UNL     1      -5.272  48.204 -23.489  1.00  0.00    -0.084 Cl
HETATM   31  C15 UNL     1      -3.187  49.332 -24.778  1.00  0.00     0.047 A 
ENDBRANCH  23  25
ENDBRANCH  11  23
TORSDOF 4
ENDMDL
MODEL 5
REMARK minimizedAffinity -8.96795464
REMARK  4 active torsions:
REMARK  status: ('A' for Active; 'I' for Inactive)
REMARK    1  A    between atoms: N1_2  and  C1_4 
REMARK    2  A    between atoms: C5_8  and  C6_9 
REMARK    3  A    between atoms: C9_19  and  N6_20 
REMARK    4  A    between atoms: N6_20  and  C10_21 
ROOT
HETATM    1  C6  UNL     1      -0.776  52.612 -24.971  1.00  0.00     0.075 A 
HETATM    2  N2  UNL     1      -0.709  53.499 -26.022  1.00  0.00    -0.297 N 
HETATM    3  N3  UNL     1       0.086  54.563 -25.814  1.00  0.00    -0.284 N 
ATOM      4  H3  UNL     1       0.282  55.338 -26.448  1.00  0.00     0.188 HD
HETATM    5  C7  UNL     1       0.558  54.365 -24.582  1.00  0.00     0.136 A 
HETATM    6  N4  UNL     1       1.436  55.157 -23.927  1.00  0.00    -0.337 N 
ATOM      7  H4  UNL     1       1.829  56.020 -24.303  1.00  0.00     0.168 HD
HETATM    8  C8  UNL     1       1.725  54.651 -22.705  1.00  0.00     0.183 A 
HETATM    9  N5  UNL     1       1.257  53.525 -22.079  1.00  0.00    -0.342 N 
ATOM     10  H5  UNL     1       1.590  53.281 -21.147  1.00  0.00     0.167 HD
HETATM   11  C9  UNL     1       0.343  52.733 -22.711  1.00  0.00     0.102 A 
HETATM   12  C16 UNL     1       0.027  53.179 -24.003  1.00  0.00     0.077 A 
HETATM   13  H4  UNL     1      -1.171  53.419 -26.923  1.00  0.00     0.187 HD
ENDROOT
BRANCH   1  14
HETATM   14  C5  UNL     1      -1.535  51.375 -25.062  1.00  0.00    -0.005 A 
HETATM   15  C4  UNL     1      -1.830  50.643 -23.902  1.00  0.00     0.014 A 
HETATM   16  C3  UNL     1      -2.584  49.469 -23.975  1.00  0.00     0.003 A 
HETATM   17  C2  UNL     1      -3.060  49.019 -25.206  1.00  0.00     0.036 A 
HETATM   18  C1  UNL     1      -2.766  49.748 -26.364  1.00  0.00     0.103 A 
HETATM   19  C17 UNL     1      -1.992  50.916 -26.301  1.00  0.00     0.050 A 
BRANCH  18  20
HETATM   20  N1  UNL     1      -3.289  49.298 -27.659  1.00  0.00    -0.116 N 
HETATM   21  O1  UNL     1      -3.439  50.146 -28.550  1.00  0.00    -0.532 OA
HETATM   22  O2  UNL     1      -3.556  48.094 -27.784  1.00  0.00    -0.532 OA
ENDBRANCH  18  20
ENDBRANCH   1  14
BRANCH  11  23
HETATM   23  N6  UNL     1      -0.133  51.605 -22.022  1.00  0.00    -0.244 NA
HETATM   24  H6  UNL     1       0.387  50.820 -22.416  1.00  0.00     0.135 HD
BRANCH  23  25
HETATM   25  C10 UNL     1      -0.168  51.459 -20.614  1.00  0.00     0.015 A 
HETATM   26  C11 UNL     1       0.342  52.426 -19.737  1.00  0.00     0.024 A 
HETATM   27  C12 UNL     1       0.312  52.223 -18.355  1.00  0.00     0.003 A 
HETATM   28  C13 UNL     1      -0.209  51.040 -17.835  1.00  0.00     0.024 A 
HETATM   29  C14 UNL     1      -0.680  50.058 -18.703  1.00  0.00     0.035 A 
HETATM   30 CL1  UNL     1      -1.329  48.596 -18.067  1.00  0.00    -0.084 Cl
HETATM   31  C15 UNL     1      -0.644  50.255 -20.082  1.00  0.00     0.047 A 
ENDBRANCH  23  25
ENDBRANCH  11  23
TORSDOF 4
ENDMDL
MODEL 6
REMARK minimizedAffinity -8.89541245
REMARK  4 active torsions:
REMARK  status: ('A' for Active; 'I' for Inactive)
REMARK    1  A    between atoms: N1_2  and  C1_4 
REMARK    2  A    between atoms: C5_8  and  C6_9 
REMARK    3  A    between atoms: C9_19  and  N6_20 
REMARK    4  A    between atoms: N6_20  and  C10_21 
ROOT
HETATM    1  C6  UNL     1      -3.372  51.627 -24.158  1.00  0.00     0.075 A 
HETATM    2  N2  UNL     1      -4.556  51.670 -24.859  1.00  0.00    -0.297 N 
HETATM    3  N3  UNL     1      -5.655  51.412 -24.130  1.00  0.00    -0.284 N 
ATOM      4  H3  UNL     1      -6.627  51.389 -24.440  1.00  0.00     0.188 HD
HETATM    5  C7  UNL     1      -5.174  51.191 -22.906  1.00  0.00     0.136 A 
HETATM    6  N4  UNL     1      -5.901  50.918 -21.799  1.00  0.00    -0.337 N 
ATOM      7  H4  UNL     1      -6.917  50.830 -21.782  1.00  0.00     0.168 HD
HETATM    8  C8  UNL     1      -5.100  50.775 -20.717  1.00  0.00     0.183 A 
HETATM    9  N5  UNL     1      -3.736  50.847 -20.609  1.00  0.00    -0.342 N 
ATOM     10  H5  UNL     1      -3.286  50.723 -19.703  1.00  0.00     0.167 HD
HETATM   11  C9  UNL     1      -2.983  51.086 -21.722  1.00  0.00     0.102 A 
HETATM   12  C16 UNL     1      -3.755  51.283 -22.877  1.00  0.00     0.077 A 
HETATM   13  H4  UNL     1      -4.679  51.896 -25.841  1.00  0.00     0.187 HD
ENDROOT
BRANCH   1  14
HETATM   14  C5  UNL     1      -2.100  51.953 -24.783  1.00  0.00    -0.005 A 
HETATM   15  C4  UNL     1      -0.897  51.563 -24.176  1.00  0.00     0.014 A 
HETATM   16  C3  UNL     1       0.329  51.845 -24.784  1.00  0.00     0.003 A 
HETATM   17  C2  UNL     1       0.366  52.511 -26.008  1.00  0.00     0.036 A 
HETATM   18  C1  UNL     1      -0.834  52.901 -26.614  1.00  0.00     0.103 A 
HETATM   19  C17 UNL     1      -2.067  52.640 -26.000  1.00  0.00     0.050 A 
BRANCH  18  20
HETATM   20  N1  UNL     1      -0.804  53.575 -27.918  1.00  0.00    -0.116 N 
HETATM   21  O1  UNL     1      -1.733  54.348 -28.191  1.00  0.00    -0.532 OA
HETATM   22  O2  UNL     1       0.148  53.328 -28.672  1.00  0.00    -0.532 OA
ENDBRANCH  18  20
ENDBRANCH   1  14
BRANCH  11  23
HETATM   23  N6  UNL     1      -1.587  51.122 -21.573  1.00  0.00    -0.244 NA
HETATM   24  H6  UNL     1      -1.255  51.683 -22.358  1.00  0.00     0.135 HD
BRANCH  23  25
HETATM   25  C10 UNL     1      -0.897  51.531 -20.406  1.00  0.00     0.015 A 
HETATM   26  C11 UNL     1      -0.356  52.816 -20.255  1.00  0.00     0.024 A 
HETATM   27  C12 UNL     1       0.342  53.164 -19.096  1.00  0.00     0.003 A 
HETATM   28  C13 UNL     1       0.525  52.225 -18.083  1.00  0.00     0.024 A 
HETATM   29  C14 UNL     1       0.025  50.936 -18.244  1.00  0.00     0.035 A 
HETATM   30 CL1  UNL     1       0.244  49.772 -16.995  1.00  0.00    -0.084 Cl
HETATM   31  C15 UNL     1      -0.665  50.583 -19.403  1.00  0.00     0.047 A 
ENDBRANCH  23  25
ENDBRANCH  11  23
TORSDOF 4
ENDMDL
MODEL 7
REMARK minimizedAffinity -8.86476707
REMARK  4 active torsions:
REMARK  status: ('A' for Active; 'I' for Inactive)
REMARK    1  A    between atoms: N1_2  and  C1_4 
REMARK    2  A    between atoms: C5_8  and  C6_9 
REMARK    3  A    between atoms: C9_19  and  N6_20 
REMARK    4  A    between atoms: N6_20  and  C10_21 
ROOT
HETATM    1  C6  UNL     1      -5.251  50.010 -23.870  1.00  0.00     0.075 A 
HETATM    2  N2  UNL     1      -6.594  50.266 -24.030  1.00  0.00    -0.297 N 
HETATM    3  N3  UNL     1      -7.279  50.433 -22.886  1.00  0.00    -0.284 N 
ATOM      4  H3  UNL     1      -8.273  50.629 -22.768  1.00  0.00     0.188 HD
HETATM    5  C7  UNL     1      -6.350  50.280 -21.940  1.00  0.00     0.136 A 
HETATM    6  N4  UNL     1      -6.543  50.390 -20.607  1.00  0.00    -0.337 N 
ATOM      7  H4  UNL     1      -7.442  50.587 -20.166  1.00  0.00     0.168 HD
HETATM    8  C8  UNL     1      -5.384  50.203 -19.933  1.00  0.00     0.183 A 
HETATM    9  N5  UNL     1      -4.127  49.915 -20.397  1.00  0.00    -0.342 N 
ATOM     10  H5  UNL     1      -3.350  49.813 -19.744  1.00  0.00     0.167 HD
HETATM   11  C9  UNL     1      -3.920  49.765 -21.737  1.00  0.00     0.102 A 
HETATM   12  C16 UNL     1      -5.076  49.985 -22.500  1.00  0.00     0.077 A 
HETATM   13  H4  UNL     1      -7.100  50.362 -24.905  1.00  0.00     0.187 HD
ENDROOT
BRANCH   1  14
HETATM   14  C5  UNL     1      -4.356  49.875 -25.008  1.00  0.00    -0.005 A 
HETATM   15  C4  UNL     1      -4.234  48.643 -25.666  1.00  0.00     0.014 A 
HETATM   16  C3  UNL     1      -3.399  48.511 -26.779  1.00  0.00     0.003 A 
HETATM   17  C2  UNL     1      -2.685  49.611 -27.252  1.00  0.00     0.036 A 
HETATM   18  C1  UNL     1      -2.806  50.842 -26.595  1.00  0.00     0.103 A 
HETATM   19  C17 UNL     1      -3.625  50.976 -25.465  1.00  0.00     0.050 A 
BRANCH  18  20
HETATM   20  N1  UNL     1      -2.081  52.012 -27.105  1.00  0.00    -0.116 N 
HETATM   21  O1  UNL     1      -2.580  53.130 -26.916  1.00  0.00    -0.532 OA
HETATM   22  O2  UNL     1      -1.012  51.812 -27.700  1.00  0.00    -0.532 OA
ENDBRANCH  18  20
ENDBRANCH   1  14
BRANCH  11  23
HETATM   23  N6  UNL     1      -2.623  49.440 -22.168  1.00  0.00    -0.244 NA
HETATM   24  H6  UNL     1      -2.740  49.120 -23.130  1.00  0.00     0.135 HD
BRANCH  23  25
HETATM   25  C10 UNL     1      -1.502  50.304 -22.116  1.00  0.00     0.015 A 
HETATM   26  C11 UNL     1      -0.695  50.433 -20.976  1.00  0.00     0.024 A 
HETATM   27  C12 UNL     1       0.384  51.321 -20.963  1.00  0.00     0.003 A 
HETATM   28  C13 UNL     1       0.655  52.105 -22.082  1.00  0.00     0.024 A 
HETATM   29  C14 UNL     1      -0.167  52.011 -23.202  1.00  0.00     0.035 A 
HETATM   30 CL1  UNL     1       0.165  52.974 -24.589  1.00  0.00    -0.084 Cl
HETATM   31  C15 UNL     1      -1.249  51.132 -23.216  1.00  0.00     0.047 A 
ENDBRANCH  23  25
ENDBRANCH  11  23
TORSDOF 4
ENDMDL
MODEL 8
REMARK minimizedAffinity -8.81620884
REMARK  4 active torsions:
REMARK  status: ('A' for Active; 'I' for Inactive)
REMARK    1  A    between atoms: N1_2  and  C1_4 
REMARK    2  A    between atoms: C5_8  and  C6_9 
REMARK    3  A    between atoms: C9_19  and  N6_20 
REMARK    4  A    between atoms: N6_20  and  C10_21 
ROOT
HETATM    1  C6  UNL     1       0.620  52.934 -21.971  1.00  0.00     0.075 A 
HETATM    2  N2  UNL     1       1.423  54.047 -21.871  1.00  0.00    -0.297 N 
HETATM    3  N3  UNL     1       1.587  54.731 -23.017  1.00  0.00    -0.284 N 
ATOM      4  H3  UNL     1       2.135  55.578 -23.174  1.00  0.00     0.188 HD
HETATM    5  C7  UNL     1       0.864  54.041 -23.900  1.00  0.00     0.136 A 
HETATM    6  N4  UNL     1       0.684  54.352 -25.203  1.00  0.00    -0.337 N 
ATOM      7  H4  UNL     1       1.105  55.157 -25.669  1.00  0.00     0.168 HD
HETATM    8  C8  UNL     1      -0.129  53.455 -25.807  1.00  0.00     0.183 A 
HETATM    9  N5  UNL     1      -0.737  52.334 -25.307  1.00  0.00    -0.342 N 
ATOM     10  H5  UNL     1      -1.335  51.764 -25.906  1.00  0.00     0.167 HD
HETATM   11  C9  UNL     1      -0.538  51.983 -24.004  1.00  0.00     0.102 A 
HETATM   12  C16 UNL     1       0.266  52.895 -23.305  1.00  0.00     0.077 A 
HETATM   13  H4  UNL     1       1.874  54.406 -21.035  1.00  0.00     0.187 HD
ENDROOT
BRANCH   1  14
HETATM   14  C5  UNL     1       0.285  52.125 -20.810  1.00  0.00    -0.005 A 
HETATM   15  C4  UNL     1       0.341  52.682 -19.524  1.00  0.00     0.014 A 
HETATM   16  C3  UNL     1      -0.007  51.922 -18.404  1.00  0.00     0.003 A 
HETATM   17  C2  UNL     1      -0.425  50.601 -18.558  1.00  0.00     0.036 A 
HETATM   18  C1  UNL     1      -0.481  50.044 -19.842  1.00  0.00     0.103 A 
HETATM   19  C17 UNL     1      -0.113  50.794 -20.967  1.00  0.00     0.050 A 
BRANCH  18  20
HETATM   20  N1  UNL     1      -0.949  48.664 -20.015  1.00  0.00    -0.116 N 
HETATM   21  O1  UNL     1      -0.652  48.079 -21.066  1.00  0.00    -0.532 OA
HETATM   22  O2  UNL     1      -1.620  48.164 -19.100  1.00  0.00    -0.532 OA
ENDBRANCH  18  20
ENDBRANCH   1  14
BRANCH  11  23
HETATM   23  N6  UNL     1      -1.156  50.810 -23.540  1.00  0.00    -0.244 NA
HETATM   24  H6  UNL     1      -1.627  51.087 -22.677  1.00  0.00     0.135 HD
BRANCH  23  25
HETATM   25  C10 UNL     1      -2.037  49.995 -24.291  1.00  0.00     0.015 A 
HETATM   26  C11 UNL     1      -1.875  49.766 -25.664  1.00  0.00     0.024 A 
HETATM   27  C12 UNL     1      -2.788  48.977 -26.369  1.00  0.00     0.003 A 
HETATM   28  C13 UNL     1      -3.887  48.427 -25.712  1.00  0.00     0.024 A 
HETATM   29  C14 UNL     1      -4.075  48.684 -24.356  1.00  0.00     0.035 A 
HETATM   30 CL1  UNL     1      -5.428  48.003 -23.538  1.00  0.00    -0.084 Cl
HETATM   31  C15 UNL     1      -3.170  49.476 -23.652  1.00  0.00     0.047 A 
ENDBRANCH  23  25
ENDBRANCH  11  23
TORSDOF 4
ENDMDL
MODEL 9
REMARK minimizedAffinity -8.81489468
REMARK  4 active torsions:
REMARK  status: ('A' for Active; 'I' for Inactive)
REMARK    1  A    between atoms: N1_2  and  C1_4 
REMARK    2  A    between atoms: C5_8  and  C6_9 
REMARK    3  A    between atoms: C9_19  and  N6_20 
REMARK    4  A    between atoms: N6_20  and  C10_21 
ROOT
HETATM    1  C6  UNL     1      -2.715  50.141 -26.001  1.00  0.00     0.075 A 
HETATM    2  N2  UNL     1      -3.710  49.727 -26.857  1.00  0.00    -0.297 N 
HETATM    3  N3  UNL     1      -4.705  49.035 -26.276  1.00  0.00    -0.284 N 
ATOM      4  H3  UNL     1      -5.536  48.636 -26.715  1.00  0.00     0.188 HD
HETATM    5  C7  UNL     1      -4.350  48.995 -24.992  1.00  0.00     0.136 A 
HETATM    6  N4  UNL     1      -5.053  48.429 -23.986  1.00  0.00    -0.337 N 
ATOM      7  H4  UNL     1      -5.944  47.944 -24.103  1.00  0.00     0.168 HD
HETATM    8  C8  UNL     1      -4.419  48.590 -22.801  1.00  0.00     0.183 A 
HETATM    9  N5  UNL     1      -3.224  49.195 -22.511  1.00  0.00    -0.342 N 
ATOM     10  H5  UNL     1      -2.891  49.238 -21.548  1.00  0.00     0.167 HD
HETATM   11  C9  UNL     1      -2.483  49.740 -23.518  1.00  0.00     0.102 A 
HETATM   12  C16 UNL     1      -3.102  49.642 -24.773  1.00  0.00     0.077 A 
HETATM   13  H4  UNL     1      -3.776  49.908 -27.854  1.00  0.00     0.187 HD
ENDROOT
BRANCH   1  14
HETATM   14  C5  UNL     1      -1.604  50.960 -26.457  1.00  0.00    -0.005 A 
HETATM   15  C4  UNL     1      -0.314  50.415 -26.539  1.00  0.00     0.014 A 
HETATM   16  C3  UNL     1       0.755  51.185 -27.004  1.00  0.00     0.003 A 
HETATM   17  C2  UNL     1       0.545  52.505 -27.403  1.00  0.00     0.036 A 
HETATM   18  C1  UNL     1      -0.742  53.050 -27.322  1.00  0.00     0.103 A 
HETATM   19  C17 UNL     1      -1.815  52.290 -26.836  1.00  0.00     0.050 A 
BRANCH  18  20
HETATM   20  N1  UNL     1      -0.977  54.428 -27.769  1.00  0.00    -0.116 N 
HETATM   21  O1  UNL     1      -1.937  54.636 -28.523  1.00  0.00    -0.532 OA
HETATM   22  O2  UNL     1      -0.197  55.304 -27.367  1.00  0.00    -0.532 OA
ENDBRANCH  18  20
ENDBRANCH   1  14
BRANCH  11  23
HETATM   23  N6  UNL     1      -1.250  50.324 -23.182  1.00  0.00    -0.244 NA
HETATM   24  H6  UNL     1      -1.183  51.151 -23.776  1.00  0.00     0.135 HD
BRANCH  23  25
HETATM   25  C10 UNL     1      -0.840  50.677 -21.873  1.00  0.00     0.015 A 
HETATM   26  C11 UNL     1      -0.871  49.777 -20.799  1.00  0.00     0.024 A 
HETATM   27  C12 UNL     1      -0.483  50.180 -19.519  1.00  0.00     0.003 A 
HETATM   28  C13 UNL     1      -0.081  51.495 -19.294  1.00  0.00     0.024 A 
HETATM   29  C14 UNL     1      -0.087  52.404 -20.349  1.00  0.00     0.035 A 
HETATM   30 CL1  UNL     1       0.413  54.029 -20.078  1.00  0.00    -0.084 Cl
HETATM   31  C15 UNL     1      -0.480  52.007 -21.625  1.00  0.00     0.047 A 
ENDBRANCH  23  25
ENDBRANCH  11  23
TORSDOF 4
ENDMDL
