MODEL 1
REMARK minimizedAffinity -10.3057899
REMARK  4 active torsions:
REMARK  status: ('A' for Active; 'I' for Inactive)
REMARK    1  A    between atoms: O1_2  and  N1_3 
REMARK    2  A    between atoms: C2_5  and  C4_7 
REMARK    3  A    between atoms: N2_19  and  C16_20 
REMARK    4  A    between atoms: C16_20  and  C17_21 
ROOT
HETATM    1  C4  UNL     1      -7.853   6.530  14.196  1.00  0.00    -0.011 A 
HETATM    2  C5  UNL     1      -8.144   5.227  13.802  1.00  0.00     0.016 A 
HETATM    3  C6  UNL     1      -7.147   4.399  13.274  1.00  0.00     0.031 A 
HETATM    4  C7  UNL     1      -5.839   4.909  13.143  1.00  0.00     0.046 A 
HETATM    5  C8  UNL     1      -5.532   6.215  13.506  1.00  0.00     0.005 A 
HETATM    6  C9  UNL     1      -6.554   7.033  14.038  1.00  0.00     0.028 A 
HETATM    7  C10 UNL     1      -4.153   6.427  13.204  1.00  0.00     0.013 A 
HETATM    8  C11 UNL     1      -3.320   7.550  13.334  1.00  0.00    -0.010 A 
HETATM    9  C12 UNL     1      -1.985   7.511  12.910  1.00  0.00     0.052 A 
HETATM   10  C13 UNL     1      -1.441   6.372  12.340  1.00  0.00     0.002 A 
HETATM   11  C14 UNL     1      -2.236   5.164  12.269  1.00  0.00    -0.018 A 
HETATM   12  C15 UNL     1      -3.612   5.239  12.682  1.00  0.00     0.054 A 
HETATM   13  N2  UNL     1      -4.667   4.323  12.680  1.00  0.00    -0.345 N 
HETATM   14  C20 UNL     1      -1.584   3.906  11.672  1.00  0.00     0.048 C 
HETATM   15  C21 UNL     1      -0.061   3.774  11.871  1.00  0.00     0.064 C 
HETATM   16  C22 UNL     1       0.573   5.067  11.563  1.00  0.00     0.038 A 
HETATM   17  N3  UNL     1       1.774   5.222  11.004  1.00  0.00    -0.303 N 
ATOM     18  H3  UNL     1       2.453   4.507  10.744  1.00  0.00     0.186 HD
HETATM   19  N4  UNL     1       1.867   6.562  10.869  1.00  0.00    -0.307 N 
HETATM   20  C23 UNL     1       3.058   7.140  10.299  1.00  0.00     0.177 C 
HETATM   21  C24 UNL     1       0.744   7.232  11.275  1.00  0.00     0.124 A 
HETATM   22  C25 UNL     1      -0.093   6.284  11.806  1.00  0.00     0.017 A 
HETATM   23  C26 UNL     1      -1.398   8.831  13.249  1.00  0.00     0.253 A 
HETATM   24  O2  UNL     1      -0.246   9.202  13.163  1.00  0.00    -0.268 OA
HETATM   25  N5  UNL     1      -2.414   9.612  13.753  1.00  0.00    -0.353 N 
HETATM   26  C27 UNL     1      -3.651   8.904  13.886  1.00  0.00     0.163 A 
HETATM   27  H27 UNL     1      -2.218  10.529  14.130  1.00  0.00     0.163 HD
ENDROOT
BRANCH   1  28
HETATM   28  C2  UNL     1      -8.906   7.429  14.759  1.00  0.00     0.038 C 
HETATM   29  N1  UNL     1     -10.134   6.997  14.806  1.00  0.00    -0.271 N 
ATOM     30  H1  UNL     1     -10.435   6.084  14.464  1.00  0.00     0.194 HD
HETATM   31  C3  UNL     1      -8.492   8.801  15.256  1.00  0.00     0.071 C 
BRANCH  29  32
HETATM   32  O1  UNL     1     -10.990   7.943  15.384  1.00  0.00    -0.285 OA
HETATM   33  C1  UNL     1     -12.272   7.816  14.782  1.00  0.00     0.237 C 
ENDBRANCH  29  32
ENDBRANCH   1  28
BRANCH  13  34
HETATM   34  C16 UNL     1      -4.628   2.946  12.200  1.00  0.00     0.133 C 
BRANCH  34  35
HETATM   35  C17 UNL     1      -5.656   2.632  11.095  1.00  0.00    -0.004 C 
HETATM   36  C18 UNL     1      -5.960   1.131  11.087  1.00  0.00     0.011 C 
HETATM   37  C19 UNL     1      -5.183   3.061   9.705  1.00  0.00     0.011 C 
ENDBRANCH  34  35
ENDBRANCH  13  34
TORSDOF 4
ENDMDL
MODEL 2
REMARK minimizedAffinity -10.1261883
REMARK  4 active torsions:
REMARK  status: ('A' for Active; 'I' for Inactive)
REMARK    1  A    between atoms: O1_2  and  N1_3 
REMARK    2  A    between atoms: C2_5  and  C4_7 
REMARK    3  A    between atoms: N2_19  and  C16_20 
REMARK    4  A    between atoms: C16_20  and  C17_21 
ROOT
HETATM    1  C4  UNL     1      -8.955   7.568  14.847  1.00  0.00    -0.011 A 
HETATM    2  C5  UNL     1      -8.125   8.611  15.245  1.00  0.00     0.016 A 
HETATM    3  C6  UNL     1      -6.756   8.585  14.959  1.00  0.00     0.031 A 
HETATM    4  C7  UNL     1      -6.228   7.481  14.261  1.00  0.00     0.046 A 
HETATM    5  C8  UNL     1      -7.034   6.416  13.876  1.00  0.00     0.005 A 
HETATM    6  C9  UNL     1      -8.414   6.463  14.175  1.00  0.00     0.028 A 
HETATM    7  C10 UNL     1      -6.192   5.452  13.243  1.00  0.00     0.013 A 
HETATM    8  C11 UNL     1      -6.454   4.188  12.690  1.00  0.00    -0.010 A 
HETATM    9  C12 UNL     1      -5.420   3.403  12.162  1.00  0.00     0.052 A 
HETATM   10  C13 UNL     1      -4.105   3.837  12.175  1.00  0.00     0.002 A 
HETATM   11  C14 UNL     1      -3.801   5.169  12.653  1.00  0.00    -0.018 A 
HETATM   12  C15 UNL     1      -4.875   5.943  13.218  1.00  0.00     0.054 A 
HETATM   13  N2  UNL     1      -4.937   7.197  13.830  1.00  0.00    -0.345 N 
HETATM   14  C20 UNL     1      -2.336   5.635  12.609  1.00  0.00     0.048 C 
HETATM   15  C21 UNL     1      -1.472   5.044  11.477  1.00  0.00     0.064 C 
HETATM   16  C22 UNL     1      -1.717   3.594  11.398  1.00  0.00     0.038 A 
HETATM   17  N3  UNL     1      -0.806   2.677  11.072  1.00  0.00    -0.303 N 
ATOM     18  H3  UNL     1       0.164   2.814  10.790  1.00  0.00     0.186 HD
HETATM   19  N4  UNL     1      -1.490   1.520  11.209  1.00  0.00    -0.307 N 
HETATM   20  C23 UNL     1      -0.834   0.268  10.927  1.00  0.00     0.177 C 
HETATM   21  C24 UNL     1      -2.772   1.692  11.659  1.00  0.00     0.124 A 
HETATM   22  C25 UNL     1      -2.974   3.047  11.719  1.00  0.00     0.017 A 
HETATM   23  C26 UNL     1      -6.058   2.179  11.618  1.00  0.00     0.253 A 
HETATM   24  O2  UNL     1      -5.562   1.277  10.975  1.00  0.00    -0.268 OA
HETATM   25  N5  UNL     1      -7.397   2.243  11.932  1.00  0.00    -0.353 N 
HETATM   26  C27 UNL     1      -7.765   3.470  12.569  1.00  0.00     0.163 A 
HETATM   27  H27 UNL     1      -8.041   1.547  11.580  1.00  0.00     0.163 HD
ENDROOT
BRANCH   1  28
HETATM   28  C2  UNL     1     -10.419   7.576  15.148  1.00  0.00     0.038 C 
HETATM   29  N1  UNL     1     -11.154   6.602  14.692  1.00  0.00    -0.271 N 
ATOM     30  H1  UNL     1     -10.800   5.834  14.121  1.00  0.00     0.194 HD
HETATM   31  C3  UNL     1     -10.979   8.716  15.977  1.00  0.00     0.071 C 
BRANCH  29  32
HETATM   32  O1  UNL     1     -12.493   6.741  15.083  1.00  0.00    -0.285 OA
HETATM   33  C1  UNL     1     -13.319   6.239  14.040  1.00  0.00     0.237 C 
ENDBRANCH  29  32
ENDBRANCH   1  28
BRANCH  13  34
HETATM   34  C16 UNL     1      -3.822   8.105  14.078  1.00  0.00     0.133 C 
BRANCH  34  35
HETATM   35  C17 UNL     1      -3.217   7.991  15.492  1.00  0.00    -0.004 C 
HETATM   36  C18 UNL     1      -3.416   9.310  16.244  1.00  0.00     0.011 C 
HETATM   37  C19 UNL     1      -1.729   7.636  15.475  1.00  0.00     0.011 C 
ENDBRANCH  34  35
ENDBRANCH  13  34
TORSDOF 4
ENDMDL
MODEL 3
REMARK minimizedAffinity -9.9562273
REMARK  4 active torsions:
REMARK  status: ('A' for Active; 'I' for Inactive)
REMARK    1  A    between atoms: O1_2  and  N1_3 
REMARK    2  A    between atoms: C2_5  and  C4_7 
REMARK    3  A    between atoms: N2_19  and  C16_20 
REMARK    4  A    between atoms: C16_20  and  C17_21 
ROOT
HETATM    1  C4  UNL     1       2.372   6.644  11.327  1.00  0.00    -0.011 A 
HETATM    2  C5  UNL     1       2.256   7.923  11.862  1.00  0.00     0.016 A 
HETATM    3  C6  UNL     1       1.070   8.335  12.480  1.00  0.00     0.031 A 
HETATM    4  C7  UNL     1      -0.010   7.433  12.549  1.00  0.00     0.046 A 
HETATM    5  C8  UNL     1       0.075   6.160  11.998  1.00  0.00     0.005 A 
HETATM    6  C9  UNL     1       1.282   5.763  11.380  1.00  0.00     0.028 A 
HETATM    7  C10 UNL     1      -1.191   5.527  12.191  1.00  0.00     0.013 A 
HETATM    8  C11 UNL     1      -1.681   4.265  11.821  1.00  0.00    -0.010 A 
HETATM    9  C12 UNL     1      -3.006   3.898  12.093  1.00  0.00     0.052 A 
HETATM   10  C13 UNL     1      -3.881   4.766  12.725  1.00  0.00     0.002 A 
HETATM   11  C14 UNL     1      -3.394   6.042  13.204  1.00  0.00    -0.018 A 
HETATM   12  C15 UNL     1      -2.039   6.408  12.885  1.00  0.00     0.054 A 
HETATM   13  N2  UNL     1      -1.276   7.557  13.108  1.00  0.00    -0.345 N 
HETATM   14  C20 UNL     1      -4.382   6.960  13.942  1.00  0.00     0.048 C 
HETATM   15  C21 UNL     1      -5.498   6.253  14.737  1.00  0.00     0.064 C 
HETATM   16  C22 UNL     1      -6.072   5.184  13.902  1.00  0.00     0.038 A 
HETATM   17  N3  UNL     1      -7.351   4.808  13.907  1.00  0.00    -0.303 N 
ATOM     18  H3  UNL     1      -8.114   5.148  14.493  1.00  0.00     0.186 HD
HETATM   19  N4  UNL     1      -7.386   3.864  12.941  1.00  0.00    -0.307 N 
HETATM   20  C23 UNL     1      -8.626   3.192  12.646  1.00  0.00     0.177 C 
HETATM   21  C24 UNL     1      -6.185   3.686  12.308  1.00  0.00     0.124 A 
HETATM   22  C25 UNL     1      -5.285   4.484  12.968  1.00  0.00     0.017 A 
HETATM   23  C26 UNL     1      -3.158   2.498  11.625  1.00  0.00     0.253 A 
HETATM   24  O2  UNL     1      -4.100   1.744  11.758  1.00  0.00    -0.268 OA
HETATM   25  N5  UNL     1      -1.976   2.140  11.018  1.00  0.00    -0.353 N 
HETATM   26  C27 UNL     1      -0.969   3.152  11.113  1.00  0.00     0.163 A 
HETATM   27  H27 UNL     1      -1.828   1.192  10.699  1.00  0.00     0.163 HD
ENDROOT
BRANCH   1  28
HETATM   28  C2  UNL     1       3.629   6.187  10.661  1.00  0.00     0.038 C 
HETATM   29  N1  UNL     1       4.738   6.204  11.344  1.00  0.00    -0.271 N 
ATOM     30  H1  UNL     1       4.813   6.529  12.308  1.00  0.00     0.194 HD
HETATM   31  C3  UNL     1       3.553   5.717   9.221  1.00  0.00     0.071 C 
BRANCH  29  32
HETATM   32  O1  UNL     1       5.815   5.720  10.590  1.00  0.00    -0.285 OA
HETATM   33  C1  UNL     1       6.995   6.395  11.008  1.00  0.00     0.237 C 
ENDBRANCH  29  32
ENDBRANCH   1  28
BRANCH  13  34
HETATM   34  C16 UNL     1      -1.715   8.783  13.767  1.00  0.00     0.133 C 
BRANCH  34  35
HETATM   35  C17 UNL     1      -1.423   8.825  15.281  1.00  0.00    -0.004 C 
HETATM   36  C18 UNL     1      -0.846   7.479  15.730  1.00  0.00     0.011 C 
HETATM   37  C19 UNL     1      -2.663   9.149  16.116  1.00  0.00     0.011 C 
ENDBRANCH  34  35
ENDBRANCH  13  34
TORSDOF 4
ENDMDL
MODEL 4
REMARK minimizedAffinity -9.66973209
REMARK  4 active torsions:
REMARK  status: ('A' for Active; 'I' for Inactive)
REMARK    1  A    between atoms: O1_2  and  N1_3 
REMARK    2  A    between atoms: C2_5  and  C4_7 
REMARK    3  A    between atoms: N2_19  and  C16_20 
REMARK    4  A    between atoms: C16_20  and  C17_21 
ROOT
HETATM    1  C4  UNL     1      -7.188   5.663  13.832  1.00  0.00    -0.011 A 
HETATM    2  C5  UNL     1      -7.258   4.590  12.949  1.00  0.00     0.016 A 
HETATM    3  C6  UNL     1      -6.117   4.140  12.276  1.00  0.00     0.031 A 
HETATM    4  C7  UNL     1      -4.891   4.795  12.505  1.00  0.00     0.046 A 
HETATM    5  C8  UNL     1      -4.802   5.885  13.362  1.00  0.00     0.005 A 
HETATM    6  C9  UNL     1      -5.966   6.322  14.033  1.00  0.00     0.028 A 
HETATM    7  C10 UNL     1      -3.449   6.341  13.332  1.00  0.00     0.013 A 
HETATM    8  C11 UNL     1      -2.798   7.409  13.971  1.00  0.00    -0.010 A 
HETATM    9  C12 UNL     1      -1.444   7.677  13.729  1.00  0.00     0.052 A 
HETATM   10  C13 UNL     1      -0.702   6.910  12.846  1.00  0.00     0.002 A 
HETATM   11  C14 UNL     1      -1.307   5.746  12.234  1.00  0.00    -0.018 A 
HETATM   12  C15 UNL     1      -2.706   5.510  12.475  1.00  0.00     0.054 A 
HETATM   13  N2  UNL     1      -3.616   4.561  12.003  1.00  0.00    -0.345 N 
HETATM   14  C20 UNL     1      -0.440   4.891  11.296  1.00  0.00     0.048 C 
HETATM   15  C21 UNL     1       1.068   4.855  11.615  1.00  0.00     0.064 C 
HETATM   16  C22 UNL     1       1.530   6.226  11.891  1.00  0.00     0.038 A 
HETATM   17  N3  UNL     1       2.733   6.709  11.581  1.00  0.00    -0.303 N 
ATOM     18  H3  UNL     1       3.524   6.225  11.158  1.00  0.00     0.186 HD
HETATM   19  N4  UNL     1       2.641   8.000  11.967  1.00  0.00    -0.307 N 
HETATM   20  C23 UNL     1       3.775   8.875  11.803  1.00  0.00     0.177 C 
HETATM   21  C24 UNL     1       1.407   8.339  12.454  1.00  0.00     0.124 A 
HETATM   22  C25 UNL     1       0.680   7.177  12.487  1.00  0.00     0.017 A 
HETATM   23  C26 UNL     1      -1.080   8.818  14.605  1.00  0.00     0.253 A 
HETATM   24  O2  UNL     1       0.010   9.313  14.804  1.00  0.00    -0.268 OA
HETATM   25  N5  UNL     1      -2.231   9.233  15.236  1.00  0.00    -0.353 N 
HETATM   26  C27 UNL     1      -3.359   8.403  14.944  1.00  0.00     0.163 A 
HETATM   27  H27 UNL     1      -2.197   9.949  15.948  1.00  0.00     0.163 HD
ENDROOT
BRANCH   1  28
HETATM   28  C2  UNL     1      -8.397   6.160  14.557  1.00  0.00     0.038 C 
HETATM   29  N1  UNL     1      -9.495   6.343  13.881  1.00  0.00    -0.271 N 
ATOM     30  H1  UNL     1      -9.585   6.188  12.877  1.00  0.00     0.194 HD
HETATM   31  C3  UNL     1      -8.288   6.419  16.047  1.00  0.00     0.071 C 
BRANCH  29  32
HETATM   32  O1  UNL     1     -10.540   6.781  14.707  1.00  0.00    -0.285 OA
HETATM   33  C1  UNL     1     -11.593   7.262  13.882  1.00  0.00     0.237 C 
ENDBRANCH  29  32
ENDBRANCH   1  28
BRANCH  13  34
HETATM   34  C16 UNL     1      -3.344   3.486  11.053  1.00  0.00     0.133 C 
BRANCH  34  35
HETATM   35  C17 UNL     1      -2.895   2.164  11.708  1.00  0.00    -0.004 C 
HETATM   36  C18 UNL     1      -1.665   1.620  10.975  1.00  0.00     0.011 C 
HETATM   37  C19 UNL     1      -3.994   1.100  11.712  1.00  0.00     0.011 C 
ENDBRANCH  34  35
ENDBRANCH  13  34
TORSDOF 4
ENDMDL
MODEL 5
REMARK minimizedAffinity -9.38993835
REMARK  4 active torsions:
REMARK  status: ('A' for Active; 'I' for Inactive)
REMARK    1  A    between atoms: O1_2  and  N1_3 
REMARK    2  A    between atoms: C2_5  and  C4_7 
REMARK    3  A    between atoms: N2_19  and  C16_20 
REMARK    4  A    between atoms: C16_20  and  C17_21 
ROOT
HETATM    1  C4  UNL     1      -4.401   3.572  12.466  1.00  0.00    -0.011 A 
HETATM    2  C5  UNL     1      -5.751   3.912  12.480  1.00  0.00     0.016 A 
HETATM    3  C6  UNL     1      -6.184   5.099  13.079  1.00  0.00     0.031 A 
HETATM    4  C7  UNL     1      -5.229   5.949  13.674  1.00  0.00     0.046 A 
HETATM    5  C8  UNL     1      -3.880   5.617  13.694  1.00  0.00     0.005 A 
HETATM    6  C9  UNL     1      -3.464   4.414  13.082  1.00  0.00     0.028 A 
HETATM    7  C10 UNL     1      -3.198   6.651  14.406  1.00  0.00     0.013 A 
HETATM    8  C11 UNL     1      -1.849   6.827  14.753  1.00  0.00    -0.010 A 
HETATM    9  C12 UNL     1      -1.438   7.929  15.514  1.00  0.00     0.052 A 
HETATM   10  C13 UNL     1      -2.344   8.876  15.961  1.00  0.00     0.002 A 
HETATM   11  C14 UNL     1      -3.730   8.784  15.553  1.00  0.00    -0.018 A 
HETATM   12  C15 UNL     1      -4.132   7.627  14.797  1.00  0.00     0.054 A 
HETATM   13  N2  UNL     1      -5.362   7.176  14.313  1.00  0.00    -0.345 N 
HETATM   14  C20 UNL     1      -4.697   9.879  16.029  1.00  0.00     0.048 C 
HETATM   15  C21 UNL     1      -4.084  11.278  16.241  1.00  0.00     0.064 C 
HETATM   16  C22 UNL     1      -2.817  11.136  16.978  1.00  0.00     0.038 A 
HETATM   17  N3  UNL     1      -2.344  12.008  17.868  1.00  0.00    -0.303 N 
ATOM     18  H3  UNL     1      -2.735  12.906  18.152  1.00  0.00     0.186 HD
HETATM   19  N4  UNL     1      -1.216  11.404  18.303  1.00  0.00    -0.307 N 
HETATM   20  C23 UNL     1      -0.394  12.056  19.290  1.00  0.00     0.177 C 
HETATM   21  C24 UNL     1      -1.009  10.169  17.749  1.00  0.00     0.124 A 
HETATM   22  C25 UNL     1      -2.003   9.998  16.819  1.00  0.00     0.017 A 
HETATM   23  C26 UNL     1       0.037   7.827  15.637  1.00  0.00     0.253 A 
HETATM   24  O2  UNL     1       0.822   8.618  16.117  1.00  0.00    -0.268 OA
HETATM   25  N5  UNL     1       0.415   6.643  15.045  1.00  0.00    -0.353 N 
HETATM   26  C27 UNL     1      -0.675   5.953  14.427  1.00  0.00     0.163 A 
HETATM   27  H27 UNL     1       1.394   6.411  14.939  1.00  0.00     0.163 HD
ENDROOT
BRANCH   1  28
HETATM   28  C2  UNL     1      -3.921   2.307  11.833  1.00  0.00     0.038 C 
HETATM   29  N1  UNL     1      -2.640   2.144  11.661  1.00  0.00    -0.271 N 
ATOM     30  H1  UNL     1      -1.934   2.836  11.913  1.00  0.00     0.194 HD
HETATM   31  C3  UNL     1      -4.948   1.267  11.429  1.00  0.00     0.071 C 
BRANCH  29  32
HETATM   32  O1  UNL     1      -2.352   0.899  11.085  1.00  0.00    -0.285 OA
HETATM   33  C1  UNL     1      -0.977   0.878  10.725  1.00  0.00     0.237 C 
ENDBRANCH  29  32
ENDBRANCH   1  28
BRANCH  13  34
HETATM   34  C16 UNL     1      -6.659   7.822  14.484  1.00  0.00     0.133 C 
BRANCH  34  35
HETATM   35  C17 UNL     1      -7.275   7.641  15.886  1.00  0.00    -0.004 C 
HETATM   36  C18 UNL     1      -7.028   6.211  16.375  1.00  0.00     0.011 C 
HETATM   37  C19 UNL     1      -8.776   7.936  15.918  1.00  0.00     0.011 C 
ENDBRANCH  34  35
ENDBRANCH  13  34
TORSDOF 4
ENDMDL
MODEL 6
REMARK minimizedAffinity -9.03149891
REMARK  4 active torsions:
REMARK  status: ('A' for Active; 'I' for Inactive)
REMARK    1  A    between atoms: O1_2  and  N1_3 
REMARK    2  A    between atoms: C2_5  and  C4_7 
REMARK    3  A    between atoms: N2_19  and  C16_20 
REMARK    4  A    between atoms: C16_20  and  C17_21 
ROOT
HETATM    1  C4  UNL     1       0.936   8.914  15.937  1.00  0.00    -0.011 A 
HETATM    2  C5  UNL     1       2.041   8.503  15.198  1.00  0.00     0.016 A 
HETATM    3  C6  UNL     1       1.905   7.565  14.169  1.00  0.00     0.031 A 
HETATM    4  C7  UNL     1       0.628   7.038  13.894  1.00  0.00     0.046 A 
HETATM    5  C8  UNL     1      -0.485   7.414  14.636  1.00  0.00     0.005 A 
HETATM    6  C9  UNL     1      -0.326   8.364  15.670  1.00  0.00     0.028 A 
HETATM    7  C10 UNL     1      -1.599   6.669  14.142  1.00  0.00     0.013 A 
HETATM    8  C11 UNL     1      -2.948   6.622  14.526  1.00  0.00    -0.010 A 
HETATM    9  C12 UNL     1      -3.847   5.750  13.897  1.00  0.00     0.052 A 
HETATM   10  C13 UNL     1      -3.439   4.898  12.884  1.00  0.00     0.002 A 
HETATM   11  C14 UNL     1      -2.078   4.976  12.395  1.00  0.00    -0.018 A 
HETATM   12  C15 UNL     1      -1.168   5.857  13.078  1.00  0.00     0.054 A 
HETATM   13  N2  UNL     1       0.196   6.124  12.939  1.00  0.00    -0.345 N 
HETATM   14  C20 UNL     1      -1.673   4.048  11.239  1.00  0.00     0.048 C 
HETATM   15  C21 UNL     1      -2.792   3.676  10.246  1.00  0.00     0.064 C 
HETATM   16  C22 UNL     1      -4.001   3.313  11.004  1.00  0.00     0.038 A 
HETATM   17  N3  UNL     1      -4.888   2.387  10.641  1.00  0.00    -0.303 N 
ATOM     18  H3  UNL     1      -4.909   1.823   9.791  1.00  0.00     0.186 HD
HETATM   19  N4  UNL     1      -5.752   2.381  11.679  1.00  0.00    -0.307 N 
HETATM   20  C23 UNL     1      -6.889   1.496  11.654  1.00  0.00     0.177 C 
HETATM   21  C24 UNL     1      -5.398   3.234  12.690  1.00  0.00     0.124 A 
HETATM   22  C25 UNL     1      -4.294   3.915  12.243  1.00  0.00     0.017 A 
HETATM   23  C26 UNL     1      -5.176   6.008  14.505  1.00  0.00     0.253 A 
HETATM   24  O2  UNL     1      -6.261   5.562  14.193  1.00  0.00    -0.268 OA
HETATM   25  N5  UNL     1      -4.993   6.925  15.514  1.00  0.00    -0.353 N 
HETATM   26  C27 UNL     1      -3.648   7.407  15.595  1.00  0.00     0.163 A 
HETATM   27  H27 UNL     1      -5.785   7.311  16.009  1.00  0.00     0.163 HD
ENDROOT
BRANCH   1  28
HETATM   28  C2  UNL     1       1.063   9.913  17.042  1.00  0.00     0.038 C 
HETATM   29  N1  UNL     1       2.101   9.846  17.825  1.00  0.00    -0.271 N 
ATOM     30  H1  UNL     1       2.833   9.140  17.749  1.00  0.00     0.194 HD
HETATM   31  C3  UNL     1      -0.022  10.962  17.193  1.00  0.00     0.071 C 
BRANCH  29  32
HETATM   32  O1  UNL     1       2.086  10.865  18.787  1.00  0.00    -0.285 OA
HETATM   33  C1  UNL     1       2.391  10.293  20.052  1.00  0.00     0.237 C 
ENDBRANCH  29  32
ENDBRANCH   1  28
BRANCH  13  34
HETATM   34  C16 UNL     1       1.115   5.508  11.987  1.00  0.00     0.133 C 
BRANCH  34  35
HETATM   35  C17 UNL     1       1.056   6.113  10.570  1.00  0.00    -0.004 C 
HETATM   36  C18 UNL     1       2.446   6.060   9.930  1.00  0.00     0.011 C 
HETATM   37  C19 UNL     1       0.548   7.556  10.561  1.00  0.00     0.011 C 
ENDBRANCH  34  35
ENDBRANCH  13  34
TORSDOF 4
ENDMDL
MODEL 7
REMARK minimizedAffinity -9.02938271
REMARK  4 active torsions:
REMARK  status: ('A' for Active; 'I' for Inactive)
REMARK    1  A    between atoms: O1_2  and  N1_3 
REMARK    2  A    between atoms: C2_5  and  C4_7 
REMARK    3  A    between atoms: N2_19  and  C16_20 
REMARK    4  A    between atoms: C16_20  and  C17_21 
ROOT
HETATM    1  C4  UNL     1      -1.160   9.885  17.003  1.00  0.00    -0.011 A 
HETATM    2  C5  UNL     1       0.165   9.605  16.680  1.00  0.00     0.016 A 
HETATM    3  C6  UNL     1       0.479   8.619  15.738  1.00  0.00     0.031 A 
HETATM    4  C7  UNL     1      -0.571   7.909  15.121  1.00  0.00     0.046 A 
HETATM    5  C8  UNL     1      -1.899   8.154  15.447  1.00  0.00     0.005 A 
HETATM    6  C9  UNL     1      -2.194   9.154  16.400  1.00  0.00     0.028 A 
HETATM    7  C10 UNL     1      -2.698   7.244  14.691  1.00  0.00     0.013 A 
HETATM    8  C11 UNL     1      -4.083   7.023  14.637  1.00  0.00    -0.010 A 
HETATM    9  C12 UNL     1      -4.622   6.012  13.830  1.00  0.00     0.052 A 
HETATM   10  C13 UNL     1      -3.812   5.188  13.066  1.00  0.00     0.002 A 
HETATM   11  C14 UNL     1      -2.387   5.437  13.021  1.00  0.00    -0.018 A 
HETATM   12  C15 UNL     1      -1.855   6.461  13.882  1.00  0.00     0.054 A 
HETATM   13  N2  UNL     1      -0.561   6.911  14.154  1.00  0.00    -0.345 N 
HETATM   14  C20 UNL     1      -1.524   4.532  12.127  1.00  0.00     0.048 C 
HETATM   15  C21 UNL     1      -2.214   3.973  10.866  1.00  0.00     0.064 C 
HETATM   16  C22 UNL     1      -3.549   3.473  11.236  1.00  0.00     0.038 A 
HETATM   17  N3  UNL     1      -4.154   2.419  10.689  1.00  0.00    -0.303 N 
ATOM     18  H3  UNL     1      -3.835   1.826   9.923  1.00  0.00     0.186 HD
HETATM   19  N4  UNL     1      -5.298   2.331  11.403  1.00  0.00    -0.307 N 
HETATM   20  C23 UNL     1      -6.252   1.295  11.095  1.00  0.00     0.177 C 
HETATM   21  C24 UNL     1      -5.391   3.261  12.403  1.00  0.00     0.124 A 
HETATM   22  C25 UNL     1      -4.293   4.072  12.271  1.00  0.00     0.017 A 
HETATM   23  C26 UNL     1      -6.096   6.104  13.971  1.00  0.00     0.253 A 
HETATM   24  O2  UNL     1      -6.962   5.500  13.373  1.00  0.00    -0.268 OA
HETATM   25  N5  UNL     1      -6.357   7.074  14.912  1.00  0.00    -0.353 N 
HETATM   26  C27 UNL     1      -5.177   7.741  15.370  1.00  0.00     0.163 A 
HETATM   27  H27 UNL     1      -7.307   7.363  15.103  1.00  0.00     0.163 HD
ENDROOT
BRANCH   1  28
HETATM   28  C2  UNL     1      -1.514  10.931  18.009  1.00  0.00     0.038 C 
HETATM   29  N1  UNL     1      -2.598  11.630  17.825  1.00  0.00    -0.271 N 
ATOM     30  H1  UNL     1      -3.219  11.526  17.023  1.00  0.00     0.194 HD
HETATM   31  C3  UNL     1      -0.598  11.123  19.203  1.00  0.00     0.071 C 
BRANCH  29  32
HETATM   32  O1  UNL     1      -2.803  12.545  18.867  1.00  0.00    -0.285 OA
HETATM   33  C1  UNL     1      -4.185  12.543  19.200  1.00  0.00     0.237 C 
ENDBRANCH  29  32
ENDBRANCH   1  28
BRANCH  13  34
HETATM   34  C16 UNL     1       0.681   6.394  13.588  1.00  0.00     0.133 C 
BRANCH  34  35
HETATM   35  C17 UNL     1       0.982   6.896  12.161  1.00  0.00    -0.004 C 
HETATM   36  C18 UNL     1       2.224   6.185  11.618  1.00  0.00     0.011 C 
HETATM   37  C19 UNL     1       1.194   8.410  12.097  1.00  0.00     0.011 C 
ENDBRANCH  34  35
ENDBRANCH  13  34
TORSDOF 4
ENDMDL
MODEL 8
REMARK minimizedAffinity -9.01380539
REMARK  4 active torsions:
REMARK  status: ('A' for Active; 'I' for Inactive)
REMARK    1  A    between atoms: O1_2  and  N1_3 
REMARK    2  A    between atoms: C2_5  and  C4_7 
REMARK    3  A    between atoms: N2_19  and  C16_20 
REMARK    4  A    between atoms: C16_20  and  C17_21 
ROOT
HETATM    1  C4  UNL     1      -5.060   4.521  12.919  1.00  0.00    -0.011 A 
HETATM    2  C5  UNL     1      -4.217   3.755  12.119  1.00  0.00     0.016 A 
HETATM    3  C6  UNL     1      -2.832   3.948  12.149  1.00  0.00     0.031 A 
HETATM    4  C7  UNL     1      -2.301   4.935  13.002  1.00  0.00     0.046 A 
HETATM    5  C8  UNL     1      -3.125   5.729  13.791  1.00  0.00     0.005 A 
HETATM    6  C9  UNL     1      -4.521   5.517  13.747  1.00  0.00     0.028 A 
HETATM    7  C10 UNL     1      -2.288   6.651  14.489  1.00  0.00     0.013 A 
HETATM    8  C11 UNL     1      -2.572   7.689  15.390  1.00  0.00    -0.010 A 
HETATM    9  C12 UNL     1      -1.550   8.496  15.908  1.00  0.00     0.052 A 
HETATM   10  C13 UNL     1      -0.227   8.308  15.543  1.00  0.00     0.002 A 
HETATM   11  C14 UNL     1       0.123   7.194  14.687  1.00  0.00    -0.018 A 
HETATM   12  C15 UNL     1      -0.948   6.399  14.146  1.00  0.00     0.054 A 
HETATM   13  N2  UNL     1      -0.991   5.328  13.250  1.00  0.00    -0.345 N 
HETATM   14  C20 UNL     1       1.607   6.988  14.342  1.00  0.00     0.048 C 
HETATM   15  C21 UNL     1       2.620   7.441  15.412  1.00  0.00     0.064 C 
HETATM   16  C22 UNL     1       2.226   8.770  15.909  1.00  0.00     0.038 A 
HETATM   17  N3  UNL     1       3.069   9.729  16.291  1.00  0.00    -0.303 N 
ATOM     18  H3  UNL     1       4.086   9.699  16.347  1.00  0.00     0.186 HD
HETATM   19  N4  UNL     1       2.238  10.752  16.587  1.00  0.00    -0.307 N 
HETATM   20  C23 UNL     1       2.784  11.999  17.062  1.00  0.00     0.177 C 
HETATM   21  C24 UNL     1       0.919  10.472  16.349  1.00  0.00     0.124 A 
HETATM   22  C25 UNL     1       0.872   9.153  15.976  1.00  0.00     0.017 A 
HETATM   23  C26 UNL     1      -2.196   9.434  16.858  1.00  0.00     0.253 A 
HETATM   24  O2  UNL     1      -1.683  10.234  17.613  1.00  0.00    -0.268 OA
HETATM   25  N5  UNL     1      -3.553   9.216  16.788  1.00  0.00    -0.353 N 
HETATM   26  C27 UNL     1      -3.902   8.125  15.930  1.00  0.00     0.163 A 
HETATM   27  H27 UNL     1      -4.184   9.692  17.419  1.00  0.00     0.163 HD
ENDROOT
BRANCH   1  28
HETATM   28  C2  UNL     1      -6.542   4.331  12.898  1.00  0.00     0.038 C 
HETATM   29  N1  UNL     1      -7.304   5.358  13.146  1.00  0.00    -0.271 N 
ATOM     30  H1  UNL     1      -6.957   6.289  13.375  1.00  0.00     0.194 HD
HETATM   31  C3  UNL     1      -7.089   2.953  12.581  1.00  0.00     0.071 C 
BRANCH  29  32
HETATM   32  O1  UNL     1      -8.663   5.024  13.060  1.00  0.00    -0.285 OA
HETATM   33  C1  UNL     1      -9.426   6.221  13.139  1.00  0.00     0.237 C 
ENDBRANCH  29  32
ENDBRANCH   1  28
BRANCH  13  34
HETATM   34  C16 UNL     1       0.144   4.706  12.576  1.00  0.00     0.133 C 
BRANCH  34  35
HETATM   35  C17 UNL     1       0.449   5.293  11.182  1.00  0.00    -0.004 C 
HETATM   36  C18 UNL     1       1.961   5.283  10.940  1.00  0.00     0.011 C 
HETATM   37  C19 UNL     1      -0.084   6.716  11.007  1.00  0.00     0.011 C 
ENDBRANCH  34  35
ENDBRANCH  13  34
TORSDOF 4
ENDMDL
MODEL 9
REMARK minimizedAffinity -8.93297386
REMARK  4 active torsions:
REMARK  status: ('A' for Active; 'I' for Inactive)
REMARK    1  A    between atoms: O1_2  and  N1_3 
REMARK    2  A    between atoms: C2_5  and  C4_7 
REMARK    3  A    between atoms: N2_19  and  C16_20 
REMARK    4  A    between atoms: C16_20  and  C17_21 
ROOT
HETATM    1  C4  UNL     1      -3.076  10.736  16.645  1.00  0.00    -0.011 A 
HETATM    2  C5  UNL     1      -1.695  10.601  16.543  1.00  0.00     0.016 A 
HETATM    3  C6  UNL     1      -1.131   9.575  15.777  1.00  0.00     0.031 A 
HETATM    4  C7  UNL     1      -1.986   8.676  15.110  1.00  0.00     0.046 A 
HETATM    5  C8  UNL     1      -3.368   8.776  15.218  1.00  0.00     0.005 A 
HETATM    6  C9  UNL     1      -3.917   9.820  15.997  1.00  0.00     0.028 A 
HETATM    7  C10 UNL     1      -3.933   7.698  14.473  1.00  0.00     0.013 A 
HETATM    8  C11 UNL     1      -5.260   7.293  14.256  1.00  0.00    -0.010 A 
HETATM    9  C12 UNL     1      -5.551   6.144  13.508  1.00  0.00     0.052 A 
HETATM   10  C13 UNL     1      -4.546   5.362  12.966  1.00  0.00     0.002 A 
HETATM   11  C14 UNL     1      -3.168   5.789  13.088  1.00  0.00    -0.018 A 
HETATM   12  C15 UNL     1      -2.894   6.954  13.887  1.00  0.00     0.054 A 
HETATM   13  N2  UNL     1      -1.716   7.595  14.279  1.00  0.00    -0.345 N 
HETATM   14  C20 UNL     1      -2.082   4.919  12.434  1.00  0.00     0.048 C 
HETATM   15  C21 UNL     1      -2.504   4.150  11.166  1.00  0.00     0.064 C 
HETATM   16  C22 UNL     1      -3.813   3.520  11.406  1.00  0.00     0.038 A 
HETATM   17  N3  UNL     1      -4.204   2.346  10.909  1.00  0.00    -0.303 N 
ATOM     18  H3  UNL     1      -3.706   1.727  10.270  1.00  0.00     0.186 HD
HETATM   19  N4  UNL     1      -5.424   2.181  11.464  1.00  0.00    -0.307 N 
HETATM   20  C23 UNL     1      -6.196   1.004  11.153  1.00  0.00     0.177 C 
HETATM   21  C24 UNL     1      -5.774   3.187  12.325  1.00  0.00     0.124 A 
HETATM   22  C25 UNL     1      -4.769   4.118  12.249  1.00  0.00     0.017 A 
HETATM   23  C26 UNL     1      -7.030   6.057  13.433  1.00  0.00     0.253 A 
HETATM   24  O2  UNL     1      -7.721   5.287  12.797  1.00  0.00    -0.268 OA
HETATM   25  N5  UNL     1      -7.540   7.074  14.207  1.00  0.00    -0.353 N 
HETATM   26  C27 UNL     1      -6.527   7.933  14.741  1.00  0.00     0.163 A 
HETATM   27  H27 UNL     1      -8.535   7.254  14.230  1.00  0.00     0.163 HD
ENDROOT
BRANCH   1  28
HETATM   28  C2  UNL     1      -3.696  11.823  17.462  1.00  0.00     0.038 C 
HETATM   29  N1  UNL     1      -4.597  12.583  16.907  1.00  0.00    -0.271 N 
ATOM     30  H1  UNL     1      -4.898  12.499  15.936  1.00  0.00     0.194 HD
HETATM   31  C3  UNL     1      -3.253  11.984  18.904  1.00  0.00     0.071 C 
BRANCH  29  32
HETATM   32  O1  UNL     1      -5.099  13.530  17.809  1.00  0.00    -0.285 OA
HETATM   33  C1  UNL     1      -6.000  14.381  17.112  1.00  0.00     0.237 C 
ENDBRANCH  29  32
ENDBRANCH   1  28
BRANCH  13  34
HETATM   34  C16 UNL     1      -0.352   7.191  13.955  1.00  0.00     0.133 C 
BRANCH  34  35
HETATM   35  C17 UNL     1       0.235   7.890  12.711  1.00  0.00    -0.004 C 
HETATM   36  C18 UNL     1      -0.838   8.768  12.061  1.00  0.00     0.011 C 
HETATM   37  C19 UNL     1       0.778   6.903  11.676  1.00  0.00     0.011 C 
ENDBRANCH  34  35
ENDBRANCH  13  34
TORSDOF 4
ENDMDL
