MODEL 1
REMARK minimizedAffinity -8.78285217
REMARK  7 active torsions:
REMARK  status: ('A' for Active; 'I' for Inactive)
REMARK    1  A    between atoms: N1_2  and  S1_3 
REMARK    2  A    between atoms: S1_3  and  C2_6 
REMARK    3  A    between atoms: C9_13  and  C10_14 
REMARK    4  A    between atoms: C13_18  and  C14_19 
REMARK    5  A    between atoms: C14_19  and  C15_20 
REMARK    6  A    between atoms: C15_20  and  C16_21 
REMARK    7  A    between atoms: C16_21  and  N3_22 
ROOT
HETATM    1  C2  UNL     1       1.784   6.755  10.669  1.00  0.00     0.080 A 
HETATM    2  C3  UNL     1       2.547   7.065  11.812  1.00  0.00     0.027 A 
HETATM    3  C4  UNL     1       2.036   6.807  13.086  1.00  0.00     0.032 A 
HETATM    4  C5  UNL     1       0.773   6.251  13.167  1.00  0.00     0.046 A 
HETATM    5  C6  UNL     1       0.008   5.943  12.037  1.00  0.00     0.008 A 
HETATM    6  C7  UNL     1       0.502   6.194  10.769  1.00  0.00     0.040 A 
HETATM    7  C8  UNL     1      -1.266   5.386  12.533  1.00  0.00     0.047 A 
HETATM    8  C9  UNL     1      -2.249   4.996  11.708  1.00  0.00     0.048 C 
HETATM    9  C23 UNL     1      -1.168   5.390  14.039  1.00  0.00     0.257 A 
HETATM   10  O3  UNL     1      -1.988   5.009  14.852  1.00  0.00    -0.267 OA
HETATM   11  N4  UNL     1       0.080   5.923  14.325  1.00  0.00    -0.322 N 
HETATM   12  H30 UNL     1       0.412   6.047  15.268  1.00  0.00     0.169 HD
ENDROOT
BRANCH   8  13
HETATM   13  C10 UNL     1      -3.538   4.471  12.006  1.00  0.00     0.040 A 
HETATM   14  N2  UNL     1      -4.003   3.292  11.471  1.00  0.00    -0.359 N 
HETATM   15  C11 UNL     1      -5.254   3.030  11.951  1.00  0.00     0.016 A 
HETATM   16  H9  UNL     1      -3.493   2.693  10.829  1.00  0.00     0.166 HD
HETATM   17  C12 UNL     1      -5.624   4.049  12.799  1.00  0.00    -0.027 A 
HETATM   18  C22 UNL     1      -6.073   1.843  11.586  1.00  0.00     0.057 C 
HETATM   19  C13 UNL     1      -4.540   4.971  12.842  1.00  0.00    -0.023 A 
HETATM   20  C19 UNL     1      -6.931   4.053  13.520  1.00  0.00     0.041 C 
HETATM   21  C20 UNL     1      -7.910   3.030  12.908  1.00  0.00     0.005 C 
HETATM   22  C21 UNL     1      -7.229   1.685  12.590  1.00  0.00     0.006 C 
BRANCH  19  23
HETATM   23  C14 UNL     1      -4.476   6.236  13.651  1.00  0.00     0.043 C 
BRANCH  23  24
HETATM   24  C15 UNL     1      -5.565   7.231  13.243  1.00  0.00     0.035 C 
BRANCH  24  25
HETATM   25  C16 UNL     1      -6.295   7.836  14.449  1.00  0.00     0.271 C 
BRANCH  25  26
HETATM   26  N3  UNL     1      -7.307   6.945  15.049  1.00  0.00     0.080 N 
HETATM   27  C17 UNL     1      -7.314   7.109  16.507  1.00  0.00     0.309 C 
HETATM   28  C18 UNL     1      -8.650   7.215  14.524  1.00  0.00     0.309 C 
ENDBRANCH  25  26
ENDBRANCH  24  25
ENDBRANCH  23  24
ENDBRANCH  19  23
ENDBRANCH   8  13
BRANCH   1  29
HETATM   29  S1  UNL     1       2.425   7.115   9.052  1.00  0.00     0.258 S 
HETATM   30  O1  UNL     1       2.271   5.946   8.215  1.00  0.00    -0.201 OA
HETATM   31  O2  UNL     1       3.704   7.765   9.236  1.00  0.00    -0.201 OA
BRANCH  29  32
HETATM   32  N1  UNL     1       1.362   8.292   8.511  1.00  0.00    -0.320 N 
HETATM   33  C1  UNL     1       0.140   8.536   9.267  1.00  0.00     0.159 C 
HETATM   34  H4  UNL     1       1.329   8.363   7.494  1.00  0.00     0.171 HD
ENDBRANCH  29  32
ENDBRANCH   1  29
TORSDOF 7
ENDMDL
MODEL 2
REMARK minimizedAffinity -8.74061966
REMARK  7 active torsions:
REMARK  status: ('A' for Active; 'I' for Inactive)
REMARK    1  A    between atoms: N1_2  and  S1_3 
REMARK    2  A    between atoms: S1_3  and  C2_6 
REMARK    3  A    between atoms: C9_13  and  C10_14 
REMARK    4  A    between atoms: C13_18  and  C14_19 
REMARK    5  A    between atoms: C14_19  and  C15_20 
REMARK    6  A    between atoms: C15_20  and  C16_21 
REMARK    7  A    between atoms: C16_21  and  N3_22 
ROOT
HETATM    1  C2  UNL     1      -6.375   3.254  12.461  1.00  0.00     0.080 A 
HETATM    2  C3  UNL     1      -6.462   1.933  11.979  1.00  0.00     0.027 A 
HETATM    3  C4  UNL     1      -5.320   1.283  11.505  1.00  0.00     0.032 A 
HETATM    4  C5  UNL     1      -4.131   1.985  11.529  1.00  0.00     0.046 A 
HETATM    5  C6  UNL     1      -4.036   3.298  12.002  1.00  0.00     0.008 A 
HETATM    6  C7  UNL     1      -5.159   3.954  12.474  1.00  0.00     0.040 A 
HETATM    7  C8  UNL     1      -2.622   3.696  11.851  1.00  0.00     0.047 A 
HETATM    8  C9  UNL     1      -2.177   4.914  12.198  1.00  0.00     0.048 C 
HETATM    9  C23 UNL     1      -1.911   2.504  11.261  1.00  0.00     0.257 A 
HETATM   10  O3  UNL     1      -0.733   2.387  10.979  1.00  0.00    -0.267 OA
HETATM   11  N4  UNL     1      -2.888   1.533  11.102  1.00  0.00    -0.322 N 
HETATM   12  H30 UNL     1      -2.690   0.624  10.718  1.00  0.00     0.169 HD
ENDROOT
BRANCH   8  13
HETATM   13  C10 UNL     1      -0.873   5.474  12.097  1.00  0.00     0.040 A 
HETATM   14  N2  UNL     1      -0.137   5.442  10.937  1.00  0.00    -0.359 N 
HETATM   15  C11 UNL     1       1.059   6.072  11.131  1.00  0.00     0.016 A 
HETATM   16  H9  UNL     1      -0.435   5.028  10.058  1.00  0.00     0.166 HD
HETATM   17  C12 UNL     1       1.118   6.513  12.434  1.00  0.00    -0.027 A 
HETATM   18  C22 UNL     1       2.118   6.225  10.097  1.00  0.00     0.057 C 
HETATM   19  C13 UNL     1      -0.106   6.138  13.058  1.00  0.00    -0.023 A 
HETATM   20  C19 UNL     1       2.287   7.273  12.966  1.00  0.00     0.041 C 
HETATM   21  C20 UNL     1       3.508   7.149  12.033  1.00  0.00     0.005 C 
HETATM   22  C21 UNL     1       3.126   7.298  10.547  1.00  0.00     0.006 C 
BRANCH  19  23
HETATM   23  C14 UNL     1      -0.506   6.422  14.478  1.00  0.00     0.043 C 
BRANCH  23  24
HETATM   24  C15 UNL     1      -1.993   6.147  14.718  1.00  0.00     0.035 C 
BRANCH  24  25
HETATM   25  C16 UNL     1      -2.780   7.416  15.072  1.00  0.00     0.271 C 
BRANCH  25  26
HETATM   26  N3  UNL     1      -2.534   8.550  14.160  1.00  0.00     0.080 N 
HETATM   27  C17 UNL     1      -3.401   8.439  12.982  1.00  0.00     0.309 C 
HETATM   28  C18 UNL     1      -2.772   9.839  14.818  1.00  0.00     0.309 C 
ENDBRANCH  25  26
ENDBRANCH  24  25
ENDBRANCH  23  24
ENDBRANCH  19  23
ENDBRANCH   8  13
BRANCH   1  29
HETATM   29  S1  UNL     1      -7.835   4.087  13.032  1.00  0.00     0.258 S 
HETATM   30  O1  UNL     1      -8.995   3.305  12.665  1.00  0.00    -0.201 OA
HETATM   31  O2  UNL     1      -7.702   5.480  12.668  1.00  0.00    -0.201 OA
BRANCH  29  32
HETATM   32  N1  UNL     1      -7.653   4.006  14.696  1.00  0.00    -0.320 N 
HETATM   33  C1  UNL     1      -7.512   5.246  15.448  1.00  0.00     0.159 C 
HETATM   34  H4  UNL     1      -7.124   3.189  15.000  1.00  0.00     0.171 HD
ENDBRANCH  29  32
ENDBRANCH   1  29
TORSDOF 7
ENDMDL
MODEL 3
REMARK minimizedAffinity -8.66905022
REMARK  7 active torsions:
REMARK  status: ('A' for Active; 'I' for Inactive)
REMARK    1  A    between atoms: N1_2  and  S1_3 
REMARK    2  A    between atoms: S1_3  and  C2_6 
REMARK    3  A    between atoms: C9_13  and  C10_14 
REMARK    4  A    between atoms: C13_18  and  C14_19 
REMARK    5  A    between atoms: C14_19  and  C15_20 
REMARK    6  A    between atoms: C15_20  and  C16_21 
REMARK    7  A    between atoms: C16_21  and  N3_22 
ROOT
HETATM    1  C2  UNL     1      -5.945   4.072  12.472  1.00  0.00     0.080 A 
HETATM    2  C3  UNL     1      -6.184   2.746  12.057  1.00  0.00     0.027 A 
HETATM    3  C4  UNL     1      -5.130   1.955  11.596  1.00  0.00     0.032 A 
HETATM    4  C5  UNL     1      -3.872   2.526  11.564  1.00  0.00     0.046 A 
HETATM    5  C6  UNL     1      -3.626   3.841  11.972  1.00  0.00     0.008 A 
HETATM    6  C7  UNL     1      -4.662   4.636  12.430  1.00  0.00     0.040 A 
HETATM    7  C8  UNL     1      -2.182   4.077  11.777  1.00  0.00     0.047 A 
HETATM    8  C9  UNL     1      -1.601   5.254  12.056  1.00  0.00     0.048 C 
HETATM    9  C23 UNL     1      -1.615   2.789  11.233  1.00  0.00     0.257 A 
HETATM   10  O3  UNL     1      -0.463   2.532  10.938  1.00  0.00    -0.267 OA
HETATM   11  N4  UNL     1      -2.695   1.923  11.139  1.00  0.00    -0.322 N 
HETATM   12  H30 UNL     1      -2.604   0.980  10.796  1.00  0.00     0.169 HD
ENDROOT
BRANCH   8  13
HETATM   13  C10 UNL     1      -0.247   5.665  11.905  1.00  0.00     0.040 A 
HETATM   14  N2  UNL     1       0.595   5.123  10.963  1.00  0.00    -0.359 N 
HETATM   15  C11 UNL     1       1.819   5.724  11.038  1.00  0.00     0.016 A 
HETATM   16  H9  UNL     1       0.348   4.396  10.298  1.00  0.00     0.166 HD
HETATM   17  C12 UNL     1       1.788   6.662  12.044  1.00  0.00    -0.027 A 
HETATM   18  C22 UNL     1       2.984   5.389  10.176  1.00  0.00     0.057 C 
HETATM   19  C13 UNL     1       0.479   6.633  12.603  1.00  0.00    -0.023 A 
HETATM   20  C19 UNL     1       2.964   7.523  12.368  1.00  0.00     0.041 C 
HETATM   21  C20 UNL     1       4.255   6.970  11.731  1.00  0.00     0.005 C 
HETATM   22  C21 UNL     1       4.038   6.506  10.277  1.00  0.00     0.006 C 
BRANCH  19  23
HETATM   23  C14 UNL     1      -0.033   7.498  13.721  1.00  0.00     0.043 C 
BRANCH  23  24
HETATM   24  C15 UNL     1      -0.614   6.665  14.866  1.00  0.00     0.035 C 
BRANCH  24  25
HETATM   25  C16 UNL     1      -1.221   7.531  15.979  1.00  0.00     0.271 C 
BRANCH  25  26
HETATM   26  N3  UNL     1      -2.693   7.463  16.057  1.00  0.00     0.080 N 
HETATM   27  C17 UNL     1      -3.280   8.657  15.439  1.00  0.00     0.309 C 
HETATM   28  C18 UNL     1      -3.219   6.265  15.394  1.00  0.00     0.309 C 
ENDBRANCH  25  26
ENDBRANCH  24  25
ENDBRANCH  23  24
ENDBRANCH  19  23
ENDBRANCH   8  13
BRANCH   1  29
HETATM   29  S1  UNL     1      -7.295   5.083  13.027  1.00  0.00     0.258 S 
HETATM   30  O1  UNL     1      -8.402   4.934  12.108  1.00  0.00    -0.201 OA
HETATM   31  O2  UNL     1      -6.748   6.378  13.366  1.00  0.00    -0.201 OA
BRANCH  29  32
HETATM   32  N1  UNL     1      -7.711   4.344  14.473  1.00  0.00    -0.320 N 
HETATM   33  C1  UNL     1      -7.630   5.118  15.705  1.00  0.00     0.159 C 
HETATM   34  H4  UNL     1      -7.463   3.355  14.501  1.00  0.00     0.171 HD
ENDBRANCH  29  32
ENDBRANCH   1  29
TORSDOF 7
ENDMDL
MODEL 4
REMARK minimizedAffinity -8.57605648
REMARK  7 active torsions:
REMARK  status: ('A' for Active; 'I' for Inactive)
REMARK    1  A    between atoms: N1_2  and  S1_3 
REMARK    2  A    between atoms: S1_3  and  C2_6 
REMARK    3  A    between atoms: C9_13  and  C10_14 
REMARK    4  A    between atoms: C13_18  and  C14_19 
REMARK    5  A    between atoms: C14_19  and  C15_20 
REMARK    6  A    between atoms: C15_20  and  C16_21 
REMARK    7  A    between atoms: C16_21  and  N3_22 
ROOT
HETATM    1  C2  UNL     1      -6.050   3.579  12.493  1.00  0.00     0.080 A 
HETATM    2  C3  UNL     1      -5.962   2.382  11.753  1.00  0.00     0.027 A 
HETATM    3  C4  UNL     1      -4.721   1.924  11.305  1.00  0.00     0.032 A 
HETATM    4  C5  UNL     1      -3.611   2.688  11.612  1.00  0.00     0.046 A 
HETATM    5  C6  UNL     1      -3.690   3.879  12.342  1.00  0.00     0.008 A 
HETATM    6  C7  UNL     1      -4.913   4.343  12.792  1.00  0.00     0.040 A 
HETATM    7  C8  UNL     1      -2.311   4.396  12.448  1.00  0.00     0.047 A 
HETATM    8  C9  UNL     1      -2.021   5.544  13.079  1.00  0.00     0.048 C 
HETATM    9  C23 UNL     1      -1.433   3.404  11.726  1.00  0.00     0.257 A 
HETATM   10  O3  UNL     1      -0.226   3.430  11.574  1.00  0.00    -0.267 OA
HETATM   11  N4  UNL     1      -2.294   2.421  11.261  1.00  0.00    -0.322 N 
HETATM   12  H30 UNL     1      -1.972   1.626  10.733  1.00  0.00     0.169 HD
ENDROOT
BRANCH   8  13
HETATM   13  C10 UNL     1      -0.771   6.203  13.251  1.00  0.00     0.040 A 
HETATM   14  N2  UNL     1      -0.183   6.373  14.482  1.00  0.00    -0.359 N 
HETATM   15  C11 UNL     1       1.013   7.015  14.338  1.00  0.00     0.016 A 
HETATM   16  H9  UNL     1      -0.566   6.059  15.369  1.00  0.00     0.166 HD
HETATM   17  C12 UNL     1       1.212   7.281  13.001  1.00  0.00    -0.027 A 
HETATM   18  C22 UNL     1       1.926   7.376  15.456  1.00  0.00     0.057 C 
HETATM   19  C13 UNL     1       0.083   6.768  12.301  1.00  0.00    -0.023 A 
HETATM   20  C19 UNL     1       2.447   7.950  12.496  1.00  0.00     0.041 C 
HETATM   21  C20 UNL     1       3.229   8.621  13.644  1.00  0.00     0.005 C 
HETATM   22  C21 UNL     1       3.316   7.725  14.895  1.00  0.00     0.006 C 
BRANCH  19  23
HETATM   23  C14 UNL     1      -0.138   6.809  10.815  1.00  0.00     0.043 C 
BRANCH  23  24
HETATM   24  C15 UNL     1       0.294   8.147  10.210  1.00  0.00     0.035 C 
BRANCH  24  25
HETATM   25  C16 UNL     1       0.495   8.072   8.691  1.00  0.00     0.271 C 
BRANCH  25  26
HETATM   26  N3  UNL     1       1.721   7.360   8.281  1.00  0.00     0.080 N 
HETATM   27  C17 UNL     1       1.761   7.237   6.820  1.00  0.00     0.309 C 
HETATM   28  C18 UNL     1       2.931   8.049   8.744  1.00  0.00     0.309 C 
ENDBRANCH  25  26
ENDBRANCH  24  25
ENDBRANCH  23  24
ENDBRANCH  19  23
ENDBRANCH   8  13
BRANCH   1  29
HETATM   29  S1  UNL     1      -7.634   4.172  13.032  1.00  0.00     0.258 S 
HETATM   30  O1  UNL     1      -8.646   3.208  12.666  1.00  0.00    -0.201 OA
HETATM   31  O2  UNL     1      -7.723   5.563  12.646  1.00  0.00    -0.201 OA
BRANCH  29  32
HETATM   32  N1  UNL     1      -7.464   4.148  14.699  1.00  0.00    -0.320 N 
HETATM   33  C1  UNL     1      -7.346   5.413  15.412  1.00  0.00     0.159 C 
HETATM   34  H4  UNL     1      -6.927   3.348  15.034  1.00  0.00     0.171 HD
ENDBRANCH  29  32
ENDBRANCH   1  29
TORSDOF 7
ENDMDL
MODEL 5
REMARK minimizedAffinity -8.56140709
REMARK  7 active torsions:
REMARK  status: ('A' for Active; 'I' for Inactive)
REMARK    1  A    between atoms: N1_2  and  S1_3 
REMARK    2  A    between atoms: S1_3  and  C2_6 
REMARK    3  A    between atoms: C9_13  and  C10_14 
REMARK    4  A    between atoms: C13_18  and  C14_19 
REMARK    5  A    between atoms: C14_19  and  C15_20 
REMARK    6  A    between atoms: C15_20  and  C16_21 
REMARK    7  A    between atoms: C16_21  and  N3_22 
ROOT
HETATM    1  C2  UNL     1      -2.768   3.204  11.782  1.00  0.00     0.080 A 
HETATM    2  C3  UNL     1      -3.048   1.869  11.428  1.00  0.00     0.027 A 
HETATM    3  C4  UNL     1      -4.352   1.377  11.523  1.00  0.00     0.032 A 
HETATM    4  C5  UNL     1      -5.328   2.243  11.975  1.00  0.00     0.046 A 
HETATM    5  C6  UNL     1      -5.059   3.569  12.332  1.00  0.00     0.008 A 
HETATM    6  C7  UNL     1      -3.773   4.069  12.242  1.00  0.00     0.040 A 
HETATM    7  C8  UNL     1      -6.342   4.153  12.769  1.00  0.00     0.047 A 
HETATM    8  C9  UNL     1      -6.446   5.420  13.199  1.00  0.00     0.048 C 
HETATM    9  C23 UNL     1      -7.372   3.060  12.628  1.00  0.00     0.257 A 
HETATM   10  O3  UNL     1      -8.564   3.105  12.869  1.00  0.00    -0.267 OA
HETATM   11  N4  UNL     1      -6.677   1.959  12.150  1.00  0.00    -0.322 N 
HETATM   12  H30 UNL     1      -7.124   1.075  11.966  1.00  0.00     0.169 HD
ENDROOT
BRANCH   8  13
HETATM   13  C10 UNL     1      -7.579   6.133  13.680  1.00  0.00     0.040 A 
HETATM   14  N2  UNL     1      -8.822   6.034  13.100  1.00  0.00    -0.359 N 
HETATM   15  C11 UNL     1      -9.714   6.809  13.785  1.00  0.00     0.016 A 
HETATM   16  H9  UNL     1      -9.054   5.462  12.294  1.00  0.00     0.166 HD
HETATM   17  C12 UNL     1      -9.053   7.434  14.818  1.00  0.00    -0.027 A 
HETATM   18  C22 UNL     1     -11.154   6.955  13.440  1.00  0.00     0.057 C 
HETATM   19  C13 UNL     1      -7.694   7.011  14.761  1.00  0.00    -0.023 A 
HETATM   20  C19 UNL     1      -9.750   8.333  15.783  1.00  0.00     0.041 C 
HETATM   21  C20 UNL     1     -11.136   8.756  15.253  1.00  0.00     0.005 C 
HETATM   22  C21 UNL     1     -11.908   7.578  14.629  1.00  0.00     0.006 C 
BRANCH  19  23
HETATM   23  C14 UNL     1      -6.594   7.416  15.701  1.00  0.00     0.043 C 
BRANCH  23  24
HETATM   24  C15 UNL     1      -5.950   8.742  15.288  1.00  0.00     0.035 C 
BRANCH  24  25
HETATM   25  C16 UNL     1      -4.804   8.556  14.284  1.00  0.00     0.271 C 
BRANCH  25  26
HETATM   26  N3  UNL     1      -3.495   9.031  14.772  1.00  0.00     0.080 N 
HETATM   27  C17 UNL     1      -2.884   8.013  15.633  1.00  0.00     0.309 C 
HETATM   28  C18 UNL     1      -2.583   9.342  13.666  1.00  0.00     0.309 C 
ENDBRANCH  25  26
ENDBRANCH  24  25
ENDBRANCH  23  24
ENDBRANCH  19  23
ENDBRANCH   8  13
BRANCH   1  29
HETATM   29  S1  UNL     1      -1.104   3.815  11.689  1.00  0.00     0.258 S 
HETATM   30  O1  UNL     1      -0.995   4.712  10.561  1.00  0.00    -0.201 OA
HETATM   31  O2  UNL     1      -0.223   2.680  11.856  1.00  0.00    -0.201 OA
BRANCH  29  32
HETATM   32  N1  UNL     1      -0.988   4.722  13.094  1.00  0.00    -0.320 N 
HETATM   33  C1  UNL     1       0.238   5.465  13.352  1.00  0.00     0.159 C 
HETATM   34  H4  UNL     1      -1.477   4.298  13.883  1.00  0.00     0.171 HD
ENDBRANCH  29  32
ENDBRANCH   1  29
TORSDOF 7
ENDMDL
MODEL 6
REMARK minimizedAffinity -8.45689392
REMARK  7 active torsions:
REMARK  status: ('A' for Active; 'I' for Inactive)
REMARK    1  A    between atoms: N1_2  and  S1_3 
REMARK    2  A    between atoms: S1_3  and  C2_6 
REMARK    3  A    between atoms: C9_13  and  C10_14 
REMARK    4  A    between atoms: C13_18  and  C14_19 
REMARK    5  A    between atoms: C14_19  and  C15_20 
REMARK    6  A    between atoms: C15_20  and  C16_21 
REMARK    7  A    between atoms: C16_21  and  N3_22 
ROOT
HETATM    1  C2  UNL     1      -6.390   4.547  13.377  1.00  0.00     0.080 A 
HETATM    2  C3  UNL     1      -6.862   3.384  12.737  1.00  0.00     0.027 A 
HETATM    3  C4  UNL     1      -6.020   2.659  11.890  1.00  0.00     0.032 A 
HETATM    4  C5  UNL     1      -4.734   3.132  11.712  1.00  0.00     0.046 A 
HETATM    5  C6  UNL     1      -4.258   4.287  12.342  1.00  0.00     0.008 A 
HETATM    6  C7  UNL     1      -5.082   5.014  13.182  1.00  0.00     0.040 A 
HETATM    7  C8  UNL     1      -2.863   4.463  11.894  1.00  0.00     0.047 A 
HETATM    8  C9  UNL     1      -2.103   5.493  12.296  1.00  0.00     0.048 C 
HETATM    9  C23 UNL     1      -2.572   3.312  10.963  1.00  0.00     0.257 A 
HETATM   10  O3  UNL     1      -1.539   3.057  10.372  1.00  0.00    -0.267 OA
HETATM   11  N4  UNL     1      -3.744   2.572  10.915  1.00  0.00    -0.322 N 
HETATM   12  H30 UNL     1      -3.835   1.738  10.357  1.00  0.00     0.169 HD
ENDROOT
BRANCH   8  13
HETATM   13  C10 UNL     1      -0.766   5.834  11.949  1.00  0.00     0.040 A 
HETATM   14  N2  UNL     1       0.089   4.954  11.328  1.00  0.00    -0.359 N 
HETATM   15  C11 UNL     1       1.291   5.561  11.101  1.00  0.00     0.016 A 
HETATM   16  H9  UNL     1      -0.135   4.000  11.062  1.00  0.00     0.166 HD
HETATM   17  C12 UNL     1       1.233   6.849  11.585  1.00  0.00    -0.027 A 
HETATM   18  C22 UNL     1       2.463   4.912  10.453  1.00  0.00     0.057 C 
HETATM   19  C13 UNL     1      -0.071   7.033  12.127  1.00  0.00    -0.023 A 
HETATM   20  C19 UNL     1       2.378   7.798  11.466  1.00  0.00     0.041 C 
HETATM   21  C20 UNL     1       3.685   7.057  11.114  1.00  0.00     0.005 C 
HETATM   22  C21 UNL     1       3.476   5.989  10.023  1.00  0.00     0.006 C 
BRANCH  19  23
HETATM   23  C14 UNL     1      -0.606   8.289  12.755  1.00  0.00     0.043 C 
BRANCH  23  24
HETATM   24  C15 UNL     1      -0.063   8.496  14.171  1.00  0.00     0.035 C 
BRANCH  24  25
HETATM   25  C16 UNL     1      -0.794   7.642  15.216  1.00  0.00     0.271 C 
BRANCH  25  26
HETATM   26  N3  UNL     1      -2.163   8.102  15.516  1.00  0.00     0.080 N 
HETATM   27  C17 UNL     1      -3.065   6.949  15.614  1.00  0.00     0.309 C 
HETATM   28  C18 UNL     1      -2.218   8.868  16.766  1.00  0.00     0.309 C 
ENDBRANCH  25  26
ENDBRANCH  24  25
ENDBRANCH  23  24
ENDBRANCH  19  23
ENDBRANCH   8  13
BRANCH   1  29
HETATM   29  S1  UNL     1      -7.474   5.482  14.427  1.00  0.00     0.258 S 
HETATM   30  O1  UNL     1      -7.012   6.850  14.480  1.00  0.00    -0.201 OA
HETATM   31  O2  UNL     1      -7.691   4.698  15.623  1.00  0.00    -0.201 OA
BRANCH  29  32
HETATM   32  N1  UNL     1      -8.910   5.445  13.563  1.00  0.00    -0.320 N 
HETATM   33  C1  UNL     1      -9.819   6.580  13.663  1.00  0.00     0.159 C 
HETATM   34  H4  UNL     1      -9.306   4.508  13.488  1.00  0.00     0.171 HD
ENDBRANCH  29  32
ENDBRANCH   1  29
TORSDOF 7
ENDMDL
MODEL 7
REMARK minimizedAffinity -8.28207207
REMARK  7 active torsions:
REMARK  status: ('A' for Active; 'I' for Inactive)
REMARK    1  A    between atoms: N1_2  and  S1_3 
REMARK    2  A    between atoms: S1_3  and  C2_6 
REMARK    3  A    between atoms: C9_13  and  C10_14 
REMARK    4  A    between atoms: C13_18  and  C14_19 
REMARK    5  A    between atoms: C14_19  and  C15_20 
REMARK    6  A    between atoms: C15_20  and  C16_21 
REMARK    7  A    between atoms: C16_21  and  N3_22 
ROOT
HETATM    1  C2  UNL     1       1.821   7.072  11.164  1.00  0.00     0.080 A 
HETATM    2  C3  UNL     1       2.566   7.298  12.340  1.00  0.00     0.027 A 
HETATM    3  C4  UNL     1       2.029   6.960  13.584  1.00  0.00     0.032 A 
HETATM    4  C5  UNL     1       0.762   6.410  13.605  1.00  0.00     0.046 A 
HETATM    5  C6  UNL     1       0.015   6.186  12.443  1.00  0.00     0.008 A 
HETATM    6  C7  UNL     1       0.534   6.516  11.204  1.00  0.00     0.040 A 
HETATM    7  C8  UNL     1      -1.271   5.607  12.879  1.00  0.00     0.047 A 
HETATM    8  C9  UNL     1      -2.243   5.281  12.012  1.00  0.00     0.048 C 
HETATM    9  C23 UNL     1      -1.201   5.510  14.382  1.00  0.00     0.257 A 
HETATM   10  O3  UNL     1      -2.039   5.082  15.154  1.00  0.00    -0.267 OA
HETATM   11  N4  UNL     1       0.045   6.012  14.726  1.00  0.00    -0.322 N 
HETATM   12  H30 UNL     1       0.361   6.070  15.681  1.00  0.00     0.169 HD
ENDROOT
BRANCH   8  13
HETATM   13  C10 UNL     1      -3.540   4.748  12.251  1.00  0.00     0.040 A 
HETATM   14  N2  UNL     1      -3.999   3.604  11.641  1.00  0.00    -0.359 N 
HETATM   15  C11 UNL     1      -5.262   3.323  12.076  1.00  0.00     0.016 A 
HETATM   16  H9  UNL     1      -3.478   3.039  10.977  1.00  0.00     0.166 HD
HETATM   17  C12 UNL     1      -5.645   4.295  12.973  1.00  0.00    -0.027 A 
HETATM   18  C22 UNL     1      -6.078   2.164  11.627  1.00  0.00     0.057 C 
HETATM   19  C13 UNL     1      -4.558   5.207  13.091  1.00  0.00    -0.023 A 
HETATM   20  C19 UNL     1      -6.968   4.266  13.663  1.00  0.00     0.041 C 
HETATM   21  C20 UNL     1      -7.938   3.286  12.973  1.00  0.00     0.005 C 
HETATM   22  C21 UNL     1      -7.257   1.957  12.595  1.00  0.00     0.006 C 
BRANCH  19  23
HETATM   23  C14 UNL     1      -4.506   6.423  13.972  1.00  0.00     0.043 C 
BRANCH  23  24
HETATM   24  C15 UNL     1      -5.166   7.636  13.311  1.00  0.00     0.035 C 
BRANCH  24  25
HETATM   25  C16 UNL     1      -4.361   8.928  13.506  1.00  0.00     0.271 C 
BRANCH  25  26
HETATM   26  N3  UNL     1      -2.998   8.713  14.030  1.00  0.00     0.080 N 
HETATM   27  C17 UNL     1      -2.010   9.207  13.065  1.00  0.00     0.309 C 
HETATM   28  C18 UNL     1      -2.798   9.387  15.317  1.00  0.00     0.309 C 
ENDBRANCH  25  26
ENDBRANCH  24  25
ENDBRANCH  23  24
ENDBRANCH  19  23
ENDBRANCH   8  13
BRANCH   1  29
HETATM   29  S1  UNL     1       2.495   7.533   9.588  1.00  0.00     0.258 S 
HETATM   30  O1  UNL     1       3.817   8.083   9.785  1.00  0.00    -0.201 OA
HETATM   31  O2  UNL     1       1.462   8.253   8.876  1.00  0.00    -0.201 OA
BRANCH  29  32
HETATM   32  N1  UNL     1       2.652   6.046   8.829  1.00  0.00    -0.320 N 
HETATM   33  C1  UNL     1       3.455   5.013   9.470  1.00  0.00     0.159 C 
HETATM   34  H4  UNL     1       2.670   6.118   7.812  1.00  0.00     0.171 HD
ENDBRANCH  29  32
ENDBRANCH   1  29
TORSDOF 7
ENDMDL
MODEL 8
REMARK minimizedAffinity -8.12143993
REMARK  7 active torsions:
REMARK  status: ('A' for Active; 'I' for Inactive)
REMARK    1  A    between atoms: N1_2  and  S1_3 
REMARK    2  A    between atoms: S1_3  and  C2_6 
REMARK    3  A    between atoms: C9_13  and  C10_14 
REMARK    4  A    between atoms: C13_18  and  C14_19 
REMARK    5  A    between atoms: C14_19  and  C15_20 
REMARK    6  A    between atoms: C15_20  and  C16_21 
REMARK    7  A    between atoms: C16_21  and  N3_22 
ROOT
HETATM    1  C2  UNL     1      -1.037   4.212  11.754  1.00  0.00     0.080 A 
HETATM    2  C3  UNL     1      -1.123   2.877  11.310  1.00  0.00     0.027 A 
HETATM    3  C4  UNL     1      -2.351   2.212  11.326  1.00  0.00     0.032 A 
HETATM    4  C5  UNL     1      -3.449   2.910  11.791  1.00  0.00     0.046 A 
HETATM    5  C6  UNL     1      -3.371   4.234  12.236  1.00  0.00     0.008 A 
HETATM    6  C7  UNL     1      -2.161   4.905  12.227  1.00  0.00     0.040 A 
HETATM    7  C8  UNL     1      -4.734   4.614  12.658  1.00  0.00     0.047 A 
HETATM    8  C9  UNL     1      -5.020   5.826  13.158  1.00  0.00     0.048 C 
HETATM    9  C23 UNL     1      -5.603   3.406  12.412  1.00  0.00     0.257 A 
HETATM   10  O3  UNL     1      -6.797   3.278  12.608  1.00  0.00    -0.267 OA
HETATM   11  N4  UNL     1      -4.752   2.440  11.895  1.00  0.00    -0.322 N 
HETATM   12  H30 UNL     1      -5.070   1.518  11.642  1.00  0.00     0.169 HD
ENDROOT
BRANCH   8  13
HETATM   13  C10 UNL     1      -6.253   6.350  13.637  1.00  0.00     0.040 A 
HETATM   14  N2  UNL     1      -7.470   5.998  13.101  1.00  0.00    -0.359 N 
HETATM   15  C11 UNL     1      -8.472   6.638  13.772  1.00  0.00     0.016 A 
HETATM   16  H9  UNL     1      -7.611   5.350  12.332  1.00  0.00     0.166 HD
HETATM   17  C12 UNL     1      -7.913   7.428  14.751  1.00  0.00    -0.027 A 
HETATM   18  C22 UNL     1      -9.921   6.505  13.465  1.00  0.00     0.057 C 
HETATM   19  C13 UNL     1      -6.502   7.253  14.674  1.00  0.00    -0.023 A 
HETATM   20  C19 UNL     1      -8.741   8.240  15.690  1.00  0.00     0.041 C 
HETATM   21  C20 UNL     1     -10.191   8.378  15.182  1.00  0.00     0.005 C 
HETATM   22  C21 UNL     1     -10.750   7.047  14.643  1.00  0.00     0.006 C 
BRANCH  19  23
HETATM   23  C14 UNL     1      -5.473   7.901  15.558  1.00  0.00     0.043 C 
BRANCH  23  24
HETATM   24  C15 UNL     1      -4.861   9.142  14.905  1.00  0.00     0.035 C 
BRANCH  24  25
HETATM   25  C16 UNL     1      -3.794   9.808  15.784  1.00  0.00     0.271 C 
BRANCH  25  26
HETATM   26  N3  UNL     1      -3.496  11.205  15.414  1.00  0.00     0.080 N 
HETATM   27  C17 UNL     1      -3.527  12.055  16.610  1.00  0.00     0.309 C 
HETATM   28  C18 UNL     1      -2.186  11.328  14.765  1.00  0.00     0.309 C 
ENDBRANCH  25  26
ENDBRANCH  24  25
ENDBRANCH  23  24
ENDBRANCH  19  23
ENDBRANCH   8  13
BRANCH   1  29
HETATM   29  S1  UNL     1       0.533   5.043  11.763  1.00  0.00     0.258 S 
HETATM   30  O1  UNL     1       1.481   4.261  11.002  1.00  0.00    -0.201 OA
HETATM   31  O2  UNL     1       0.792   5.451  13.126  1.00  0.00    -0.201 OA
BRANCH  29  32
HETATM   32  N1  UNL     1       0.191   6.439  10.901  1.00  0.00    -0.320 N 
HETATM   33  C1  UNL     1       1.167   6.924   9.934  1.00  0.00     0.159 C 
HETATM   34  H4  UNL     1      -0.340   7.121  11.442  1.00  0.00     0.171 HD
ENDBRANCH  29  32
ENDBRANCH   1  29
TORSDOF 7
ENDMDL
MODEL 9
REMARK minimizedAffinity -8.05879688
REMARK  7 active torsions:
REMARK  status: ('A' for Active; 'I' for Inactive)
REMARK    1  A    between atoms: N1_2  and  S1_3 
REMARK    2  A    between atoms: S1_3  and  C2_6 
REMARK    3  A    between atoms: C9_13  and  C10_14 
REMARK    4  A    between atoms: C13_18  and  C14_19 
REMARK    5  A    between atoms: C14_19  and  C15_20 
REMARK    6  A    between atoms: C15_20  and  C16_21 
REMARK    7  A    between atoms: C16_21  and  N3_22 
ROOT
HETATM    1  C2  UNL     1     -11.517   9.102  14.430  1.00  0.00     0.080 A 
HETATM    2  C3  UNL     1     -11.486   9.475  15.789  1.00  0.00     0.027 A 
HETATM    3  C4  UNL     1     -10.527   8.927  16.644  1.00  0.00     0.032 A 
HETATM    4  C5  UNL     1      -9.636   8.020  16.104  1.00  0.00     0.046 A 
HETATM    5  C6  UNL     1      -9.662   7.642  14.757  1.00  0.00     0.008 A 
HETATM    6  C7  UNL     1     -10.606   8.177  13.900  1.00  0.00     0.040 A 
HETATM    7  C8  UNL     1      -8.574   6.660  14.577  1.00  0.00     0.047 A 
HETATM    8  C9  UNL     1      -8.323   6.074  13.397  1.00  0.00     0.048 C 
HETATM    9  C23 UNL     1      -7.916   6.510  15.926  1.00  0.00     0.257 A 
HETATM   10  O3  UNL     1      -6.970   5.810  16.234  1.00  0.00    -0.267 OA
HETATM   11  N4  UNL     1      -8.615   7.357  16.773  1.00  0.00    -0.322 N 
HETATM   12  H30 UNL     1      -8.388   7.453  17.750  1.00  0.00     0.169 HD
ENDROOT
BRANCH   8  13
HETATM   13  C10 UNL     1      -7.349   5.097  13.050  1.00  0.00     0.040 A 
HETATM   14  N2  UNL     1      -7.681   3.831  12.630  1.00  0.00    -0.359 N 
HETATM   15  C11 UNL     1      -6.546   3.125  12.347  1.00  0.00     0.016 A 
HETATM   16  H9  UNL     1      -8.625   3.471  12.528  1.00  0.00     0.166 HD
HETATM   17  C12 UNL     1      -5.455   3.929  12.593  1.00  0.00    -0.027 A 
HETATM   18  C22 UNL     1      -6.517   1.716  11.873  1.00  0.00     0.057 C 
HETATM   19  C13 UNL     1      -5.954   5.185  13.040  1.00  0.00    -0.023 A 
HETATM   20  C19 UNL     1      -4.056   3.468  12.354  1.00  0.00     0.041 C 
HETATM   21  C20 UNL     1      -3.991   1.936  12.192  1.00  0.00     0.005 C 
HETATM   22  C21 UNL     1      -5.125   1.393  11.301  1.00  0.00     0.006 C 
BRANCH  19  23
HETATM   23  C14 UNL     1      -5.134   6.388  13.413  1.00  0.00     0.043 C 
BRANCH  23  24
HETATM   24  C15 UNL     1      -3.679   6.250  12.958  1.00  0.00     0.035 C 
BRANCH  24  25
HETATM   25  C16 UNL     1      -2.828   7.476  13.317  1.00  0.00     0.271 C 
BRANCH  25  26
HETATM   26  N3  UNL     1      -1.766   7.203  14.303  1.00  0.00     0.080 N 
HETATM   27  C17 UNL     1      -2.146   7.751  15.610  1.00  0.00     0.309 C 
HETATM   28  C18 UNL     1      -1.505   5.766  14.437  1.00  0.00     0.309 C 
ENDBRANCH  25  26
ENDBRANCH  24  25
ENDBRANCH  23  24
ENDBRANCH  19  23
ENDBRANCH   8  13
BRANCH   1  29
HETATM   29  S1  UNL     1     -12.759   9.777  13.355  1.00  0.00     0.258 S 
HETATM   30  O1  UNL     1     -12.385   9.516  11.983  1.00  0.00    -0.201 OA
HETATM   31  O2  UNL     1     -13.055  11.111  13.829  1.00  0.00    -0.201 OA
BRANCH  29  32
HETATM   32  N1  UNL     1     -14.091   8.830  13.726  1.00  0.00    -0.320 N 
HETATM   33  C1  UNL     1     -14.391   7.680  12.883  1.00  0.00     0.159 C 
HETATM   34  H4  UNL     1     -14.867   9.367  14.112  1.00  0.00     0.171 HD
ENDBRANCH  29  32
ENDBRANCH   1  29
TORSDOF 7
ENDMDL
