MODEL 1
REMARK minimizedAffinity -9.59682846
REMARK CNNscore 0.760019422
REMARK CNNaffinity 7.84611845
REMARK  7 active torsions:
REMARK  status: ('A' for Active; 'I' for Inactive)
REMARK    1  A    between atoms: C2_2  and  S1_3 
REMARK    2  A    between atoms: S1_3  and  C3_6 
REMARK    3  A    between atoms: C10_13  and  C11_14 
REMARK    4  A    between atoms: C14_18  and  C15_19 
REMARK    5  A    between atoms: C15_19  and  C16_20 
REMARK    6  A    between atoms: C16_20  and  C17_21 
REMARK    7  A    between atoms: C17_21  and  N2_22 
REMARK       I    between atoms: N3_25  and  C20_26 
ROOT
HETATM    1  C11 UNL     1      -7.471   6.205  13.760  1.00  0.00     0.040 A 
HETATM    2  N1  UNL     1      -8.718   6.044  13.199  1.00  0.00    -0.359 N 
HETATM    3  C12 UNL     1      -9.625   6.830  13.848  1.00  0.00     0.016 A 
HETATM    4  C13 UNL     1      -8.972   7.524  14.842  1.00  0.00    -0.027 A 
HETATM    5  C14 UNL     1      -7.602   7.133  14.797  1.00  0.00    -0.023 A 
HETATM    6  C24 UNL     1      -9.682   8.466  15.756  1.00  0.00     0.041 C 
HETATM    7  C25 UNL     1     -11.078   8.826  15.215  1.00  0.00     0.005 C 
HETATM    8  C26 UNL     1     -11.830   7.600  14.661  1.00  0.00     0.006 C 
HETATM    9  C27 UNL     1     -11.068   6.929  13.504  1.00  0.00     0.057 C 
HETATM   10  H10 UNL     1      -8.938   5.439  12.413  1.00  0.00     0.166 HD
ENDROOT
BRANCH   1  11
HETATM   11  C10 UNL     1      -6.325   5.498  13.297  1.00  0.00     0.048 C 
HETATM   12  C9  UNL     1      -6.214   4.238  12.844  1.00  0.00     0.047 A 
HETATM   13  C7  UNL     1      -4.931   3.665  12.387  1.00  0.00     0.008 A 
HETATM   14  C28 UNL     1      -7.244   3.145  12.682  1.00  0.00     0.257 A 
HETATM   15  C6  UNL     1      -5.204   2.350  11.997  1.00  0.00     0.046 A 
HETATM   16  C8  UNL     1      -3.642   4.163  12.304  1.00  0.00     0.038 A 
HETATM   17  C5  UNL     1      -4.232   1.491  11.523  1.00  0.00     0.032 A 
HETATM   18  N4  UNL     1      -6.551   2.061  12.170  1.00  0.00    -0.322 N 
HETATM   19  C4  UNL     1      -2.927   1.982  11.433  1.00  0.00     0.026 A 
HETATM   20  C3  UNL     1      -2.644   3.310  11.811  1.00  0.00     0.060 A 
HETATM   21  H36 UNL     1      -6.994   1.176  11.977  1.00  0.00     0.169 HD
HETATM   22  O4  UNL     1      -8.430   3.176  12.948  1.00  0.00    -0.267 OA
BRANCH  20  23
HETATM   23  S1  UNL     1      -0.959   3.898  11.751  1.00  0.00     0.175 S 
HETATM   24  O1  UNL     1      -0.878   4.841  10.650  1.00  0.00    -0.223 OA
HETATM   25  O2  UNL     1      -0.112   2.720  11.795  1.00  0.00    -0.223 OA
BRANCH  23  26
HETATM   26  C2  UNL     1      -0.783   4.800  13.278  1.00  0.00     0.141 C 
HETATM   27  C1  UNL     1      -2.090   5.436  13.699  1.00  0.00     0.021 C 
ENDBRANCH  23  26
ENDBRANCH  20  23
ENDBRANCH   1  11
BRANCH   5  28
HETATM   28  C15 UNL     1      -6.513   7.636  15.699  1.00  0.00     0.043 C 
BRANCH  28  29
HETATM   29  C16 UNL     1      -5.808   8.861  15.106  1.00  0.00     0.035 C 
BRANCH  29  30
HETATM   30  C17 UNL     1      -4.429   8.525  14.521  1.00  0.00     0.273 C 
BRANCH  30  31
HETATM   31  N2  UNL     1      -3.306   9.188  15.205  1.00  0.00     0.091 N 
HETATM   32  C18 UNL     1      -2.690   8.317  16.231  1.00  0.00     0.292 C 
HETATM   33  C19 UNL     1      -1.195   8.589  16.477  1.00  0.00     0.156 C 
HETATM   34  N3  UNL     1      -0.413   8.424  15.254  1.00  0.00    -0.349 N 
HETATM   35  C20 UNL     1       0.882   7.948  15.338  1.00  0.00     0.215 C 
HETATM   36  C22 UNL     1      -1.090   8.792  14.007  1.00  0.00     0.156 C 
HETATM   37  C21 UNL     1       1.628   7.761  14.041  1.00  0.00     0.117 C 
HETATM   38  O3  UNL     1       1.422   7.686  16.413  1.00  0.00    -0.274 OA
HETATM   39  C23 UNL     1      -2.307   9.708  14.247  1.00  0.00     0.292 C 
ENDBRANCH  30  31
ENDBRANCH  29  30
ENDBRANCH  28  29
ENDBRANCH   5  28
TORSDOF 7
ENDMDL
MODEL 2
REMARK minimizedAffinity -9.82141113
REMARK CNNscore 0.495433301
REMARK CNNaffinity 7.69946718
REMARK  7 active torsions:
REMARK  status: ('A' for Active; 'I' for Inactive)
REMARK    1  A    between atoms: C2_2  and  S1_3 
REMARK    2  A    between atoms: S1_3  and  C3_6 
REMARK    3  A    between atoms: C10_13  and  C11_14 
REMARK    4  A    between atoms: C14_18  and  C15_19 
REMARK    5  A    between atoms: C15_19  and  C16_20 
REMARK    6  A    between atoms: C16_20  and  C17_21 
REMARK    7  A    between atoms: C17_21  and  N2_22 
REMARK       I    between atoms: N3_25  and  C20_26 
ROOT
HETATM    1  C11 UNL     1      -0.872   5.627  12.280  1.00  0.00     0.040 A 
HETATM    2  N1  UNL     1      -0.167   5.746  11.103  1.00  0.00    -0.359 N 
HETATM    3  C12 UNL     1       1.021   6.376  11.335  1.00  0.00     0.016 A 
HETATM    4  C13 UNL     1       1.106   6.669  12.678  1.00  0.00    -0.027 A 
HETATM    5  C14 UNL     1      -0.093   6.200  13.288  1.00  0.00    -0.023 A 
HETATM    6  C24 UNL     1       2.281   7.379  13.267  1.00  0.00     0.041 C 
HETATM    7  C25 UNL     1       3.475   7.385  12.295  1.00  0.00     0.005 C 
HETATM    8  C26 UNL     1       3.055   7.695  10.845  1.00  0.00     0.006 C 
HETATM    9  C27 UNL     1       2.050   6.663  10.302  1.00  0.00     0.057 C 
HETATM   10  H10 UNL     1      -0.473   5.410  10.195  1.00  0.00     0.166 HD
ENDROOT
BRANCH   1  11
HETATM   11  C10 UNL     1      -2.160   5.022  12.343  1.00  0.00     0.048 C 
HETATM   12  C9  UNL     1      -2.573   3.824  11.895  1.00  0.00     0.047 A 
HETATM   13  C7  UNL     1      -3.961   3.347  12.060  1.00  0.00     0.008 A 
HETATM   14  C28 UNL     1      -1.835   2.726  11.166  1.00  0.00     0.257 A 
HETATM   15  C6  UNL     1      -4.014   2.079  11.473  1.00  0.00     0.046 A 
HETATM   16  C8  UNL     1      -5.097   3.899  12.630  1.00  0.00     0.038 A 
HETATM   17  C5  UNL     1      -5.169   1.322  11.422  1.00  0.00     0.032 A 
HETATM   18  N4  UNL     1      -2.772   1.728  10.960  1.00  0.00    -0.322 N 
HETATM   19  C4  UNL     1      -6.320   1.868  11.995  1.00  0.00     0.026 A 
HETATM   20  C3  UNL     1      -6.275   3.139  12.601  1.00  0.00     0.060 A 
HETATM   21  H36 UNL     1      -2.555   0.872  10.474  1.00  0.00     0.169 HD
HETATM   22  O4  UNL     1      -0.672   2.700  10.812  1.00  0.00    -0.267 OA
BRANCH  20  23
HETATM   23  S1  UNL     1      -7.773   3.846  13.269  1.00  0.00     0.175 S 
HETATM   24  O1  UNL     1      -7.613   3.893  14.711  1.00  0.00    -0.223 OA
HETATM   25  O2  UNL     1      -8.874   3.124  12.659  1.00  0.00    -0.223 OA
BRANCH  23  26
HETATM   26  C2  UNL     1      -7.754   5.515  12.646  1.00  0.00     0.141 C 
HETATM   27  C1  UNL     1      -8.944   5.787  11.753  1.00  0.00     0.021 C 
ENDBRANCH  23  26
ENDBRANCH  20  23
ENDBRANCH   1  11
BRANCH   5  28
HETATM   28  C15 UNL     1      -0.438   6.303  14.745  1.00  0.00     0.043 C 
BRANCH  28  29
HETATM   29  C16 UNL     1      -0.997   7.685  15.099  1.00  0.00     0.035 C 
BRANCH  29  30
HETATM   30  C17 UNL     1      -2.155   8.108  14.184  1.00  0.00     0.273 C 
BRANCH  30  31
HETATM   31  N2  UNL     1      -3.277   7.155  14.153  1.00  0.00     0.091 N 
HETATM   32  C18 UNL     1      -3.731   6.789  15.513  1.00  0.00     0.292 C 
HETATM   33  C19 UNL     1      -5.221   6.414  15.603  1.00  0.00     0.156 C 
HETATM   34  N3  UNL     1      -6.077   7.508  15.150  1.00  0.00    -0.349 N 
HETATM   35  C20 UNL     1      -7.313   7.689  15.741  1.00  0.00     0.215 C 
HETATM   36  C22 UNL     1      -5.534   8.341  14.073  1.00  0.00     0.156 C 
HETATM   37  C21 UNL     1      -8.137   8.857  15.261  1.00  0.00     0.117 C 
HETATM   38  O3  UNL     1      -7.743   6.940  16.619  1.00  0.00    -0.274 OA
HETATM   39  C23 UNL     1      -4.390   7.643  13.310  1.00  0.00     0.292 C 
ENDBRANCH  30  31
ENDBRANCH  29  30
ENDBRANCH  28  29
ENDBRANCH   5  28
TORSDOF 7
ENDMDL
MODEL 3
REMARK minimizedAffinity -7.66516924
REMARK CNNscore 0.334284335
REMARK CNNaffinity 6.11521769
REMARK  7 active torsions:
REMARK  status: ('A' for Active; 'I' for Inactive)
REMARK    1  A    between atoms: C2_2  and  S1_3 
REMARK    2  A    between atoms: S1_3  and  C3_6 
REMARK    3  A    between atoms: C10_13  and  C11_14 
REMARK    4  A    between atoms: C14_18  and  C15_19 
REMARK    5  A    between atoms: C15_19  and  C16_20 
REMARK    6  A    between atoms: C16_20  and  C17_21 
REMARK    7  A    between atoms: C17_21  and  N2_22 
REMARK       I    between atoms: N3_25  and  C20_26 
ROOT
HETATM    1  C11 UNL     1     -11.292   9.672  22.833  1.00  0.00     0.040 A 
HETATM    2  N1  UNL     1     -10.476  10.395  23.674  1.00  0.00    -0.359 N 
HETATM    3  C12 UNL     1     -10.018  11.509  23.033  1.00  0.00     0.016 A 
HETATM    4  C13 UNL     1     -10.541  11.528  21.760  1.00  0.00    -0.027 A 
HETATM    5  C14 UNL     1     -11.351  10.364  21.620  1.00  0.00    -0.023 A 
HETATM    6  C24 UNL     1     -10.224  12.611  20.783  1.00  0.00     0.041 C 
HETATM    7  C25 UNL     1      -9.586  13.826  21.482  1.00  0.00     0.005 C 
HETATM    8  C26 UNL     1      -8.530  13.418  22.527  1.00  0.00     0.006 C 
HETATM    9  C27 UNL     1      -9.127  12.534  23.637  1.00  0.00     0.057 C 
HETATM   10  H10 UNL     1     -10.250  10.148  24.633  1.00  0.00     0.166 HD
ENDROOT
BRANCH   1  11
HETATM   11  C10 UNL     1     -11.905   8.448  23.225  1.00  0.00     0.048 C 
HETATM   12  C9  UNL     1     -12.743   8.191  24.244  1.00  0.00     0.047 A 
HETATM   13  C7  UNL     1     -13.299   6.846  24.499  1.00  0.00     0.008 A 
HETATM   14  C28 UNL     1     -13.306   9.089  25.320  1.00  0.00     0.257 A 
HETATM   15  C6  UNL     1     -14.114   6.965  25.629  1.00  0.00     0.046 A 
HETATM   16  C8  UNL     1     -13.150   5.620  23.873  1.00  0.00     0.038 A 
HETATM   17  C5  UNL     1     -14.797   5.897  26.178  1.00  0.00     0.032 A 
HETATM   18  N4  UNL     1     -14.112   8.273  26.095  1.00  0.00    -0.322 N 
HETATM   19  C4  UNL     1     -14.655   4.655  25.554  1.00  0.00     0.026 A 
HETATM   20  C3  UNL     1     -13.848   4.526  24.407  1.00  0.00     0.060 A 
HETATM   21  H36 UNL     1     -14.607   8.611  26.906  1.00  0.00     0.169 HD
HETATM   22  O4  UNL     1     -13.103  10.275  25.500  1.00  0.00    -0.267 OA
BRANCH  20  23
HETATM   23  S1  UNL     1     -13.627   2.918  23.664  1.00  0.00     0.175 S 
HETATM   24  O1  UNL     1     -13.736   3.096  22.228  1.00  0.00    -0.223 OA
HETATM   25  O2  UNL     1     -14.510   2.013  24.378  1.00  0.00    -0.223 OA
BRANCH  23  26
HETATM   26  C2  UNL     1     -11.937   2.512  24.054  1.00  0.00     0.141 C 
HETATM   27  C1  UNL     1     -11.856   1.404  25.082  1.00  0.00     0.021 C 
ENDBRANCH  23  26
ENDBRANCH  20  23
ENDBRANCH   1  11
BRANCH   5  28
HETATM   28  C15 UNL     1     -12.122   9.970  20.395  1.00  0.00     0.043 C 
BRANCH  28  29
HETATM   29  C16 UNL     1     -11.198   9.476  19.277  1.00  0.00     0.035 C 
BRANCH  29  30
HETATM   30  C17 UNL     1     -11.414  10.226  17.955  1.00  0.00     0.273 C 
BRANCH  30  31
HETATM   31  N2  UNL     1     -10.375   9.972  16.942  1.00  0.00     0.091 N 
HETATM   32  C18 UNL     1      -9.935   8.559  16.941  1.00  0.00     0.292 C 
HETATM   33  C19 UNL     1      -9.439   8.052  15.575  1.00  0.00     0.156 C 
HETATM   34  N3  UNL     1     -10.473   8.176  14.551  1.00  0.00    -0.349 N 
HETATM   35  C20 UNL     1     -10.538   7.237  13.538  1.00  0.00     0.215 C 
HETATM   36  C22 UNL     1     -11.377   9.321  14.689  1.00  0.00     0.156 C 
HETATM   37  C21 UNL     1     -11.649   7.393  12.530  1.00  0.00     0.117 C 
HETATM   38  O3  UNL     1      -9.732   6.311  13.441  1.00  0.00    -0.274 OA
HETATM   39  C23 UNL     1     -10.795  10.423  15.598  1.00  0.00     0.292 C 
ENDBRANCH  30  31
ENDBRANCH  29  30
ENDBRANCH  28  29
ENDBRANCH   5  28
TORSDOF 7
ENDMDL
MODEL 4
REMARK minimizedAffinity -9.27481651
REMARK CNNscore 0.272761106
REMARK CNNaffinity 7.35664892
REMARK  7 active torsions:
REMARK  status: ('A' for Active; 'I' for Inactive)
REMARK    1  A    between atoms: C2_2  and  S1_3 
REMARK    2  A    between atoms: S1_3  and  C3_6 
REMARK    3  A    between atoms: C10_13  and  C11_14 
REMARK    4  A    between atoms: C14_18  and  C15_19 
REMARK    5  A    between atoms: C15_19  and  C16_20 
REMARK    6  A    between atoms: C16_20  and  C17_21 
REMARK    7  A    between atoms: C17_21  and  N2_22 
REMARK       I    between atoms: N3_25  and  C20_26 
ROOT
HETATM    1  C11 UNL     1      -0.410   5.801  11.870  1.00  0.00     0.040 A 
HETATM    2  N1  UNL     1       0.227   5.709  10.653  1.00  0.00    -0.359 N 
HETATM    3  C12 UNL     1       1.503   6.181  10.759  1.00  0.00     0.016 A 
HETATM    4  C13 UNL     1       1.715   6.583  12.059  1.00  0.00    -0.027 A 
HETATM    5  C14 UNL     1       0.505   6.348  12.774  1.00  0.00    -0.023 A 
HETATM    6  C24 UNL     1       3.011   7.168  12.512  1.00  0.00     0.041 C 
HETATM    7  C25 UNL     1       4.130   6.914  11.484  1.00  0.00     0.005 C 
HETATM    8  C26 UNL     1       3.662   7.145  10.034  1.00  0.00     0.006 C 
HETATM    9  C27 UNL     1       2.492   6.221   9.650  1.00  0.00     0.057 C 
HETATM   10  H10 UNL     1      -0.181   5.337   9.800  1.00  0.00     0.166 HD
ENDROOT
BRANCH   1  11
HETATM   11  C10 UNL     1      -1.761   5.394  12.061  1.00  0.00     0.048 C 
HETATM   12  C9  UNL     1      -2.363   4.232  11.757  1.00  0.00     0.047 A 
HETATM   13  C7  UNL     1      -3.790   3.975  12.041  1.00  0.00     0.008 A 
HETATM   14  C28 UNL     1      -1.832   2.977  11.104  1.00  0.00     0.257 A 
HETATM   15  C6  UNL     1      -4.055   2.679  11.586  1.00  0.00     0.046 A 
HETATM   16  C8  UNL     1      -4.799   4.734  12.610  1.00  0.00     0.038 A 
HETATM   17  C5  UNL     1      -5.303   2.094  11.672  1.00  0.00     0.032 A 
HETATM   18  N4  UNL     1      -2.909   2.109  11.047  1.00  0.00    -0.322 N 
HETATM   19  C4  UNL     1      -6.329   2.849  12.246  1.00  0.00     0.026 A 
HETATM   20  C3  UNL     1      -6.070   4.151  12.719  1.00  0.00     0.060 A 
HETATM   21  H36 UNL     1      -2.844   1.190  10.639  1.00  0.00     0.169 HD
HETATM   22  O4  UNL     1      -0.709   2.754  10.695  1.00  0.00    -0.267 OA
BRANCH  20  23
HETATM   23  S1  UNL     1      -7.410   5.123  13.389  1.00  0.00     0.175 S 
HETATM   24  O1  UNL     1      -8.637   4.615  12.803  1.00  0.00    -0.223 OA
HETATM   25  O2  UNL     1      -7.023   6.513  13.236  1.00  0.00    -0.223 OA
BRANCH  23  26
HETATM   26  C2  UNL     1      -7.398   4.702  15.121  1.00  0.00     0.141 C 
HETATM   27  C1  UNL     1      -7.580   5.927  15.990  1.00  0.00     0.021 C 
ENDBRANCH  23  26
ENDBRANCH  20  23
ENDBRANCH   1  11
BRANCH   5  28
HETATM   28  C15 UNL     1       0.273   6.634  14.229  1.00  0.00     0.043 C 
BRANCH  28  29
HETATM   29  C16 UNL     1      -0.306   8.036  14.447  1.00  0.00     0.035 C 
BRANCH  29  30
HETATM   30  C17 UNL     1      -1.840   8.059  14.393  1.00  0.00     0.273 C 
BRANCH  30  31
HETATM   31  N2  UNL     1      -2.486   8.220  15.706  1.00  0.00     0.091 N 
HETATM   32  C18 UNL     1      -1.664   9.030  16.633  1.00  0.00     0.292 C 
HETATM   33  C19 UNL     1      -2.477   9.812  17.680  1.00  0.00     0.156 C 
HETATM   34  N3  UNL     1      -3.428  10.724  17.048  1.00  0.00    -0.349 N 
HETATM   35  C20 UNL     1      -3.726  11.924  17.665  1.00  0.00     0.215 C 
HETATM   36  C22 UNL     1      -4.002  10.270  15.779  1.00  0.00     0.156 C 
HETATM   37  C21 UNL     1      -4.684  12.843  16.948  1.00  0.00     0.117 C 
HETATM   38  O3  UNL     1      -3.246  12.248  18.752  1.00  0.00    -0.274 OA
HETATM   39  C23 UNL     1      -3.862   8.747  15.581  1.00  0.00     0.292 C 
ENDBRANCH  30  31
ENDBRANCH  29  30
ENDBRANCH  28  29
ENDBRANCH   5  28
TORSDOF 7
ENDMDL
MODEL 5
REMARK minimizedAffinity -7.68325233
REMARK CNNscore 0.182152137
REMARK CNNaffinity 6.21966553
REMARK  7 active torsions:
REMARK  status: ('A' for Active; 'I' for Inactive)
REMARK    1  A    between atoms: C2_2  and  S1_3 
REMARK    2  A    between atoms: S1_3  and  C3_6 
REMARK    3  A    between atoms: C10_13  and  C11_14 
REMARK    4  A    between atoms: C14_18  and  C15_19 
REMARK    5  A    between atoms: C15_19  and  C16_20 
REMARK    6  A    between atoms: C16_20  and  C17_21 
REMARK    7  A    between atoms: C17_21  and  N2_22 
REMARK       I    between atoms: N3_25  and  C20_26 
ROOT
HETATM    1  C11 UNL     1      -8.285   6.833  15.175  1.00  0.00     0.040 A 
HETATM    2  N1  UNL     1      -8.753   5.715  14.522  1.00  0.00    -0.359 N 
HETATM    3  C12 UNL     1      -7.733   5.114  13.842  1.00  0.00     0.016 A 
HETATM    4  C13 UNL     1      -6.580   5.835  14.054  1.00  0.00    -0.027 A 
HETATM    5  C14 UNL     1      -6.919   6.932  14.898  1.00  0.00    -0.023 A 
HETATM    6  C24 UNL     1      -5.276   5.454  13.435  1.00  0.00     0.041 C 
HETATM    7  C25 UNL     1      -5.317   4.017  12.883  1.00  0.00     0.005 C 
HETATM    8  C26 UNL     1      -6.627   3.711  12.132  1.00  0.00     0.006 C 
HETATM    9  C27 UNL     1      -7.862   3.871  13.037  1.00  0.00     0.057 C 
HETATM   10  H10 UNL     1      -9.710   5.376  14.544  1.00  0.00     0.166 HD
ENDROOT
BRANCH   1  11
HETATM   11  C10 UNL     1      -9.129   7.673  15.957  1.00  0.00     0.048 C 
HETATM   12  C9  UNL     1     -10.259   8.315  15.618  1.00  0.00     0.047 A 
HETATM   13  C7  UNL     1     -11.022   9.145  16.573  1.00  0.00     0.008 A 
HETATM   14  C28 UNL     1     -11.010   8.384  14.309  1.00  0.00     0.257 A 
HETATM   15  C6  UNL     1     -12.120   9.648  15.868  1.00  0.00     0.046 A 
HETATM   16  C8  UNL     1     -10.837   9.478  17.905  1.00  0.00     0.038 A 
HETATM   17  C5  UNL     1     -13.057  10.487  16.438  1.00  0.00     0.032 A 
HETATM   18  N4  UNL     1     -12.103   9.197  14.555  1.00  0.00    -0.322 N 
HETATM   19  C4  UNL     1     -12.883  10.828  17.781  1.00  0.00     0.026 A 
HETATM   20  C3  UNL     1     -11.787  10.316  18.505  1.00  0.00     0.060 A 
HETATM   21  H36 UNL     1     -12.776   9.432  13.842  1.00  0.00     0.169 HD
HETATM   22  O4  UNL     1     -10.732   7.859  13.247  1.00  0.00    -0.267 OA
BRANCH  20  23
HETATM   23  S1  UNL     1     -11.546  10.816  20.202  1.00  0.00     0.175 S 
HETATM   24  O1  UNL     1     -10.911   9.704  20.886  1.00  0.00    -0.223 OA
HETATM   25  O2  UNL     1     -12.816  11.351  20.657  1.00  0.00    -0.223 OA
BRANCH  23  26
HETATM   26  C2  UNL     1     -10.366  12.146  20.075  1.00  0.00     0.141 C 
HETATM   27  C1  UNL     1      -9.652  12.380  21.389  1.00  0.00     0.021 C 
ENDBRANCH  23  26
ENDBRANCH  20  23
ENDBRANCH   1  11
BRANCH   5  28
HETATM   28  C15 UNL     1      -5.973   7.986  15.394  1.00  0.00     0.043 C 
BRANCH  28  29
HETATM   29  C16 UNL     1      -5.249   8.687  14.240  1.00  0.00     0.035 C 
BRANCH  29  30
HETATM   30  C17 UNL     1      -4.031   9.495  14.708  1.00  0.00     0.273 C 
BRANCH  30  31
HETATM   31  N2  UNL     1      -4.045   9.830  16.142  1.00  0.00     0.091 N 
HETATM   32  C18 UNL     1      -2.842   9.325  16.841  1.00  0.00     0.292 C 
HETATM   33  C19 UNL     1      -2.423  10.161  18.064  1.00  0.00     0.156 C 
HETATM   34  N3  UNL     1      -2.149  11.548  17.696  1.00  0.00    -0.349 N 
HETATM   35  C20 UNL     1      -1.171  12.248  18.376  1.00  0.00     0.215 C 
HETATM   36  C22 UNL     1      -2.963  12.093  16.606  1.00  0.00     0.156 C 
HETATM   37  C21 UNL     1      -0.905  13.663  17.928  1.00  0.00     0.117 C 
HETATM   38  O3  UNL     1      -0.537  11.759  19.312  1.00  0.00    -0.274 OA
HETATM   39  C23 UNL     1      -4.251  11.277  16.368  1.00  0.00     0.292 C 
ENDBRANCH  30  31
ENDBRANCH  29  30
ENDBRANCH  28  29
ENDBRANCH   5  28
TORSDOF 7
ENDMDL
MODEL 6
REMARK minimizedAffinity -9.53112316
REMARK CNNscore 0.165481433
REMARK CNNaffinity 7.07656288
REMARK  7 active torsions:
REMARK  status: ('A' for Active; 'I' for Inactive)
REMARK    1  A    between atoms: C2_2  and  S1_3 
REMARK    2  A    between atoms: S1_3  and  C3_6 
REMARK    3  A    between atoms: C10_13  and  C11_14 
REMARK    4  A    between atoms: C14_18  and  C15_19 
REMARK    5  A    between atoms: C15_19  and  C16_20 
REMARK    6  A    between atoms: C16_20  and  C17_21 
REMARK    7  A    between atoms: C17_21  and  N2_22 
REMARK       I    between atoms: N3_25  and  C20_26 
ROOT
HETATM    1  C11 UNL     1      -0.670   5.375  11.881  1.00  0.00     0.040 A 
HETATM    2  N1  UNL     1       0.263   4.880  10.998  1.00  0.00    -0.359 N 
HETATM    3  C12 UNL     1       1.430   5.578  11.115  1.00  0.00     0.016 A 
HETATM    4  C13 UNL     1       1.271   6.538  12.088  1.00  0.00    -0.027 A 
HETATM    5  C14 UNL     1      -0.062   6.421  12.581  1.00  0.00    -0.023 A 
HETATM    6  C24 UNL     1       2.359   7.492  12.455  1.00  0.00     0.041 C 
HETATM    7  C25 UNL     1       3.720   7.026  11.904  1.00  0.00     0.005 C 
HETATM    8  C26 UNL     1       3.625   6.508  10.456  1.00  0.00     0.006 C 
HETATM    9  C27 UNL     1       2.665   5.311  10.332  1.00  0.00     0.057 C 
HETATM   10  H10 UNL     1       0.117   4.104  10.359  1.00  0.00     0.166 HD
ENDROOT
BRANCH   1  11
HETATM   11  C10 UNL     1      -1.990   4.850  11.975  1.00  0.00     0.048 C 
HETATM   12  C9  UNL     1      -2.447   3.614  11.716  1.00  0.00     0.047 A 
HETATM   13  C7  UNL     1      -3.867   3.237  11.881  1.00  0.00     0.008 A 
HETATM   14  C28 UNL     1      -1.738   2.372  11.229  1.00  0.00     0.257 A 
HETATM   15  C6  UNL     1      -3.962   1.890  11.518  1.00  0.00     0.046 A 
HETATM   16  C8  UNL     1      -4.995   3.932  12.283  1.00  0.00     0.038 A 
HETATM   17  C5  UNL     1      -5.153   1.191  11.532  1.00  0.00     0.032 A 
HETATM   18  N4  UNL     1      -2.718   1.398  11.143  1.00  0.00    -0.322 N 
HETATM   19  C4  UNL     1      -6.298   1.880  11.937  1.00  0.00     0.026 A 
HETATM   20  C3  UNL     1      -6.212   3.234  12.319  1.00  0.00     0.060 A 
HETATM   21  H36 UNL     1      -2.526   0.462  10.824  1.00  0.00     0.169 HD
HETATM   22  O4  UNL     1      -0.562   2.232  10.950  1.00  0.00    -0.267 OA
BRANCH  20  23
HETATM   23  S1  UNL     1      -7.698   4.115  12.770  1.00  0.00     0.175 S 
HETATM   24  O1  UNL     1      -8.773   3.141  12.810  1.00  0.00    -0.223 OA
HETATM   25  O2  UNL     1      -7.767   5.275  11.900  1.00  0.00    -0.223 OA
BRANCH  23  26
HETATM   26  C2  UNL     1      -7.367   4.656  14.435  1.00  0.00     0.141 C 
HETATM   27  C1  UNL     1      -6.822   6.067  14.462  1.00  0.00     0.021 C 
ENDBRANCH  23  26
ENDBRANCH  20  23
ENDBRANCH   1  11
BRANCH   5  28
HETATM   28  C15 UNL     1      -0.680   7.265  13.656  1.00  0.00     0.043 C 
BRANCH  28  29
HETATM   29  C16 UNL     1      -1.761   8.196  13.095  1.00  0.00     0.035 C 
BRANCH  29  30
HETATM   30  C17 UNL     1      -1.401   9.681  13.247  1.00  0.00     0.273 C 
BRANCH  30  31
HETATM   31  N2  UNL     1      -2.277  10.422  14.171  1.00  0.00     0.091 N 
HETATM   32  C18 UNL     1      -2.987   9.519  15.105  1.00  0.00     0.292 C 
HETATM   33  C19 UNL     1      -3.330  10.158  16.463  1.00  0.00     0.156 C 
HETATM   34  N3  UNL     1      -2.129  10.624  17.153  1.00  0.00    -0.349 N 
HETATM   35  C20 UNL     1      -2.081  10.576  18.533  1.00  0.00     0.215 C 
HETATM   36  C22 UNL     1      -1.050  11.122  16.295  1.00  0.00     0.156 C 
HETATM   37  C21 UNL     1      -0.803  11.034  19.190  1.00  0.00     0.117 C 
HETATM   38  O3  UNL     1      -3.028  10.183  19.216  1.00  0.00    -0.274 OA
HETATM   39  C23 UNL     1      -1.547  11.493  14.882  1.00  0.00     0.292 C 
ENDBRANCH  30  31
ENDBRANCH  29  30
ENDBRANCH  28  29
ENDBRANCH   5  28
TORSDOF 7
ENDMDL
MODEL 7
REMARK minimizedAffinity -8.53223133
REMARK CNNscore 0.161406279
REMARK CNNaffinity 6.80901909
REMARK  7 active torsions:
REMARK  status: ('A' for Active; 'I' for Inactive)
REMARK    1  A    between atoms: C2_2  and  S1_3 
REMARK    2  A    between atoms: S1_3  and  C3_6 
REMARK    3  A    between atoms: C10_13  and  C11_14 
REMARK    4  A    between atoms: C14_18  and  C15_19 
REMARK    5  A    between atoms: C15_19  and  C16_20 
REMARK    6  A    between atoms: C16_20  and  C17_21 
REMARK    7  A    between atoms: C17_21  and  N2_22 
REMARK       I    between atoms: N3_25  and  C20_26 
ROOT
HETATM    1  C11 UNL     1      -7.416   5.283  13.495  1.00  0.00     0.040 A 
HETATM    2  N1  UNL     1      -7.769   4.035  13.033  1.00  0.00    -0.359 N 
HETATM    3  C12 UNL     1      -6.668   3.388  12.554  1.00  0.00     0.016 A 
HETATM    4  C13 UNL     1      -5.575   4.211  12.706  1.00  0.00    -0.027 A 
HETATM    5  C14 UNL     1      -6.038   5.420  13.301  1.00  0.00    -0.023 A 
HETATM    6  C24 UNL     1      -4.206   3.811  12.264  1.00  0.00     0.041 C 
HETATM    7  C25 UNL     1      -4.127   2.297  11.992  1.00  0.00     0.005 C 
HETATM    8  C26 UNL     1      -5.353   1.770  11.222  1.00  0.00     0.006 C 
HETATM    9  C27 UNL     1      -6.665   2.012  11.991  1.00  0.00     0.057 C 
HETATM   10  H10 UNL     1      -8.706   3.642  13.052  1.00  0.00     0.166 HD
ENDROOT
BRANCH   1  11
HETATM   11  C10 UNL     1      -8.363   6.194  14.042  1.00  0.00     0.048 C 
HETATM   12  C9  UNL     1      -9.432   6.773  13.470  1.00  0.00     0.047 A 
HETATM   13  C7  UNL     1     -10.325   7.696  14.201  1.00  0.00     0.008 A 
HETATM   14  C28 UNL     1      -9.987   6.674  12.069  1.00  0.00     0.257 A 
HETATM   15  C6  UNL     1     -11.309   8.095  13.291  1.00  0.00     0.046 A 
HETATM   16  C8  UNL     1     -10.334   8.187  15.496  1.00  0.00     0.038 A 
HETATM   17  C5  UNL     1     -12.320   8.979  13.617  1.00  0.00     0.032 A 
HETATM   18  N4  UNL     1     -11.104   7.492  12.057  1.00  0.00    -0.322 N 
HETATM   19  C4  UNL     1     -12.341   9.478  14.922  1.00  0.00     0.026 A 
HETATM   20  C3  UNL     1     -11.361   9.073  15.851  1.00  0.00     0.060 A 
HETATM   21  H36 UNL     1     -11.667   7.630  11.232  1.00  0.00     0.169 HD
HETATM   22  O4  UNL     1      -9.558   6.033  11.128  1.00  0.00    -0.267 OA
BRANCH  20  23
HETATM   23  S1  UNL     1     -11.367   9.774  17.493  1.00  0.00     0.175 S 
HETATM   24  O1  UNL     1     -10.652   8.847  18.351  1.00  0.00    -0.223 OA
HETATM   25  O2  UNL     1     -12.741  10.151  17.773  1.00  0.00    -0.223 OA
BRANCH  23  26
HETATM   26  C2  UNL     1     -10.383  11.249  17.315  1.00  0.00     0.141 C 
HETATM   27  C1  UNL     1     -11.145  12.339  16.594  1.00  0.00     0.021 C 
ENDBRANCH  23  26
ENDBRANCH  20  23
ENDBRANCH   1  11
BRANCH   5  28
HETATM   28  C15 UNL     1      -5.192   6.608  13.654  1.00  0.00     0.043 C 
BRANCH  28  29
HETATM   29  C16 UNL     1      -4.532   6.446  15.028  1.00  0.00     0.035 C 
BRANCH  29  30
HETATM   30  C17 UNL     1      -3.012   6.257  14.936  1.00  0.00     0.273 C 
BRANCH  30  31
HETATM   31  N2  UNL     1      -2.248   7.515  14.911  1.00  0.00     0.091 N 
HETATM   32  C18 UNL     1      -1.836   7.940  16.268  1.00  0.00     0.292 C 
HETATM   33  C19 UNL     1      -0.535   8.762  16.306  1.00  0.00     0.156 C 
HETATM   34  N3  UNL     1       0.585   8.018  15.735  1.00  0.00    -0.349 N 
HETATM   35  C20 UNL     1       1.855   8.208  16.247  1.00  0.00     0.215 C 
HETATM   36  C22 UNL     1       0.255   7.109  14.633  1.00  0.00     0.156 C 
HETATM   37  C21 UNL     1       2.966   7.384  15.646  1.00  0.00     0.117 C 
HETATM   38  O3  UNL     1       2.091   9.011  17.151  1.00  0.00    -0.274 OA
HETATM   39  C23 UNL     1      -1.102   7.446  13.980  1.00  0.00     0.292 C 
ENDBRANCH  30  31
ENDBRANCH  29  30
ENDBRANCH  28  29
ENDBRANCH   5  28
TORSDOF 7
ENDMDL
MODEL 8
REMARK minimizedAffinity -7.87659597
REMARK CNNscore 0.149220854
REMARK CNNaffinity 6.79162359
REMARK  7 active torsions:
REMARK  status: ('A' for Active; 'I' for Inactive)
REMARK    1  A    between atoms: C2_2  and  S1_3 
REMARK    2  A    between atoms: S1_3  and  C3_6 
REMARK    3  A    between atoms: C10_13  and  C11_14 
REMARK    4  A    between atoms: C14_18  and  C15_19 
REMARK    5  A    between atoms: C15_19  and  C16_20 
REMARK    6  A    between atoms: C16_20  and  C17_21 
REMARK    7  A    between atoms: C17_21  and  N2_22 
REMARK       I    between atoms: N3_25  and  C20_26 
ROOT
HETATM    1  C11 UNL     1      -9.667   7.393  14.483  1.00  0.00     0.040 A 
HETATM    2  N1  UNL     1     -10.543   6.338  14.370  1.00  0.00    -0.359 N 
HETATM    3  C12 UNL     1     -11.828   6.788  14.465  1.00  0.00     0.016 A 
HETATM    4  C13 UNL     1     -11.802   8.154  14.635  1.00  0.00    -0.027 A 
HETATM    5  C14 UNL     1     -10.433   8.550  14.651  1.00  0.00    -0.023 A 
HETATM    6  C24 UNL     1     -13.047   8.963  14.792  1.00  0.00     0.041 C 
HETATM    7  C25 UNL     1     -14.292   8.160  14.371  1.00  0.00     0.005 C 
HETATM    8  C26 UNL     1     -14.263   6.710  14.892  1.00  0.00     0.006 C 
HETATM    9  C27 UNL     1     -13.041   5.934  14.370  1.00  0.00     0.057 C 
HETATM   10  H10 UNL     1     -10.283   5.366  14.226  1.00  0.00     0.166 HD
ENDROOT
BRANCH   1  11
HETATM   11  C10 UNL     1      -8.254   7.224  14.435  1.00  0.00     0.048 C 
HETATM   12  C9  UNL     1      -7.518   6.283  13.820  1.00  0.00     0.047 A 
HETATM   13  C7  UNL     1      -6.041   6.268  13.866  1.00  0.00     0.008 A 
HETATM   14  C28 UNL     1      -7.924   5.087  12.990  1.00  0.00     0.257 A 
HETATM   15  C6  UNL     1      -5.635   5.154  13.125  1.00  0.00     0.046 A 
HETATM   16  C8  UNL     1      -5.100   7.085  14.471  1.00  0.00     0.038 A 
HETATM   17  C5  UNL     1      -4.309   4.807  12.958  1.00  0.00     0.032 A 
HETATM   18  N4  UNL     1      -6.737   4.478  12.619  1.00  0.00    -0.322 N 
HETATM   19  C4  UNL     1      -3.349   5.624  13.561  1.00  0.00     0.026 A 
HETATM   20  C3  UNL     1      -3.747   6.756  14.299  1.00  0.00     0.060 A 
HETATM   21  H36 UNL     1      -6.710   3.635  12.067  1.00  0.00     0.169 HD
HETATM   22  O4  UNL     1      -9.044   4.708  12.705  1.00  0.00    -0.267 OA
BRANCH  20  23
HETATM   23  S1  UNL     1      -2.509   7.749  15.117  1.00  0.00     0.175 S 
HETATM   24  O1  UNL     1      -1.581   6.831  15.753  1.00  0.00    -0.223 OA
HETATM   25  O2  UNL     1      -3.228   8.746  15.890  1.00  0.00    -0.223 OA
BRANCH  23  26
HETATM   26  C2  UNL     1      -1.668   8.554  13.768  1.00  0.00     0.141 C 
HETATM   27  C1  UNL     1      -2.627   8.917  12.655  1.00  0.00     0.021 C 
ENDBRANCH  23  26
ENDBRANCH  20  23
ENDBRANCH   1  11
BRANCH   5  28
HETATM   28  C15 UNL     1      -9.924   9.952  14.811  1.00  0.00     0.043 C 
BRANCH  28  29
HETATM   29  C16 UNL     1      -9.886  10.377  16.284  1.00  0.00     0.035 C 
BRANCH  29  30
HETATM   30  C17 UNL     1     -11.018  11.348  16.649  1.00  0.00     0.273 C 
BRANCH  30  31
HETATM   31  N2  UNL     1     -11.888  10.875  17.739  1.00  0.00     0.091 N 
HETATM   32  C18 UNL     1     -11.390   9.618  18.341  1.00  0.00     0.292 C 
HETATM   33  C19 UNL     1     -11.764   9.435  19.823  1.00  0.00     0.156 C 
HETATM   34  N3  UNL     1     -11.254  10.530  20.643  1.00  0.00    -0.349 N 
HETATM   35  C20 UNL     1     -10.862  10.275  21.944  1.00  0.00     0.215 C 
HETATM   36  C22 UNL     1     -11.204  11.845  19.997  1.00  0.00     0.156 C 
HETATM   37  C21 UNL     1     -10.307  11.436  22.731  1.00  0.00     0.117 C 
HETATM   38  O3  UNL     1     -10.956   9.160  22.458  1.00  0.00    -0.274 OA
HETATM   39  C23 UNL     1     -12.117  11.924  18.756  1.00  0.00     0.292 C 
ENDBRANCH  30  31
ENDBRANCH  29  30
ENDBRANCH  28  29
ENDBRANCH   5  28
TORSDOF 7
ENDMDL
MODEL 9
REMARK minimizedAffinity -8.18024921
REMARK CNNscore 0.114477724
REMARK CNNaffinity 6.26135492
REMARK  7 active torsions:
REMARK  status: ('A' for Active; 'I' for Inactive)
REMARK    1  A    between atoms: C2_2  and  S1_3 
REMARK    2  A    between atoms: S1_3  and  C3_6 
REMARK    3  A    between atoms: C10_13  and  C11_14 
REMARK    4  A    between atoms: C14_18  and  C15_19 
REMARK    5  A    between atoms: C15_19  and  C16_20 
REMARK    6  A    between atoms: C16_20  and  C17_21 
REMARK    7  A    between atoms: C17_21  and  N2_22 
REMARK       I    between atoms: N3_25  and  C20_26 
ROOT
HETATM    1  C11 UNL     1      -7.858   6.372  14.641  1.00  0.00     0.040 A 
HETATM    2  N1  UNL     1      -8.234   5.157  14.113  1.00  0.00    -0.359 N 
HETATM    3  C12 UNL     1      -7.171   4.575  13.486  1.00  0.00     0.016 A 
HETATM    4  C13 UNL     1      -6.081   5.408  13.605  1.00  0.00    -0.027 A 
HETATM    5  C14 UNL     1      -6.507   6.555  14.335  1.00  0.00    -0.023 A 
HETATM    6  C24 UNL     1      -4.753   5.075  13.011  1.00  0.00     0.041 C 
HETATM    7  C25 UNL     1      -4.675   3.589  12.611  1.00  0.00     0.005 C 
HETATM    8  C26 UNL     1      -5.959   3.097  11.915  1.00  0.00     0.006 C 
HETATM    9  C27 UNL     1      -7.198   3.248  12.816  1.00  0.00     0.057 C 
HETATM   10  H10 UNL     1      -9.158   4.743  14.184  1.00  0.00     0.166 HD
ENDROOT
BRANCH   1  11
HETATM   11  C10 UNL     1      -8.765   7.216  15.343  1.00  0.00     0.048 C 
HETATM   12  C9  UNL     1      -9.955   7.710  14.961  1.00  0.00     0.047 A 
HETATM   13  C7  UNL     1     -10.779   8.571  15.834  1.00  0.00     0.008 A 
HETATM   14  C28 UNL     1     -10.728   7.559  13.671  1.00  0.00     0.257 A 
HETATM   15  C6  UNL     1     -11.928   8.888  15.104  1.00  0.00     0.046 A 
HETATM   16  C8  UNL     1     -10.607   9.070  17.115  1.00  0.00     0.038 A 
HETATM   17  C5  UNL     1     -12.932   9.698  15.598  1.00  0.00     0.032 A 
HETATM   18  N4  UNL     1     -11.888   8.292  13.850  1.00  0.00    -0.322 N 
HETATM   19  C4  UNL     1     -12.771  10.206  16.890  1.00  0.00     0.026 A 
HETATM   20  C3  UNL     1     -11.623   9.882  17.640  1.00  0.00     0.060 A 
HETATM   21  H36 UNL     1     -12.590   8.382  13.132  1.00  0.00     0.169 HD
HETATM   22  O4  UNL     1     -10.417   6.943  12.669  1.00  0.00    -0.267 OA
BRANCH  20  23
HETATM   23  S1  UNL     1     -11.406  10.593  19.263  1.00  0.00     0.175 S 
HETATM   24  O1  UNL     1     -10.545  11.752  19.105  1.00  0.00    -0.223 OA
HETATM   25  O2  UNL     1     -11.039   9.500  20.144  1.00  0.00    -0.223 OA
BRANCH  23  26
HETATM   26  C2  UNL     1     -13.041  11.160  19.687  1.00  0.00     0.141 C 
HETATM   27  C1  UNL     1     -13.113  11.615  21.128  1.00  0.00     0.021 C 
ENDBRANCH  23  26
ENDBRANCH  20  23
ENDBRANCH   1  11
BRANCH   5  28
HETATM   28  C15 UNL     1      -5.650   7.730  14.706  1.00  0.00     0.043 C 
BRANCH  28  29
HETATM   29  C16 UNL     1      -5.015   8.381  13.472  1.00  0.00     0.035 C 
BRANCH  29  30
HETATM   30  C17 UNL     1      -3.631   8.977  13.762  1.00  0.00     0.273 C 
BRANCH  30  31
HETATM   31  N2  UNL     1      -3.024   8.506  15.019  1.00  0.00     0.091 N 
HETATM   32  C18 UNL     1      -1.922   7.549  14.777  1.00  0.00     0.292 C 
HETATM   33  C19 UNL     1      -0.833   7.550  15.865  1.00  0.00     0.156 C 
HETATM   34  N3  UNL     1      -0.224   8.870  16.012  1.00  0.00    -0.349 N 
HETATM   35  C20 UNL     1       1.111   8.965  16.355  1.00  0.00     0.215 C 
HETATM   36  C22 UNL     1      -1.112  10.013  15.779  1.00  0.00     0.156 C 
HETATM   37  C21 UNL     1       1.695  10.352  16.454  1.00  0.00     0.117 C 
HETATM   38  O3  UNL     1       1.810   7.975  16.577  1.00  0.00    -0.274 OA
HETATM   39  C23 UNL     1      -2.603   9.630  15.882  1.00  0.00     0.292 C 
ENDBRANCH  30  31
ENDBRANCH  29  30
ENDBRANCH  28  29
ENDBRANCH   5  28
TORSDOF 7
ENDMDL
