MODEL 1
REMARK minimizedAffinity -11.3983278
REMARK  5 active torsions:
REMARK  status: ('A' for Active; 'I' for Inactive)
REMARK    1  A    between atoms: N1_2  and  C2_3 
REMARK    2  A    between atoms: C4_5  and  N3_28 
REMARK    3  A    between atoms: C5_7  and  N2_11 
REMARK    4  A    between atoms: C6_8  and  O2_9 
REMARK    5  A    between atoms: C26_31  and  O3_32 
ROOT
HETATM    1  C2  UNL     1      -1.603  48.194 -19.318  1.00  0.00     0.257 C 
HETATM    2  C3  UNL     1      -0.886  48.778 -20.533  1.00  0.00     0.092 C 
HETATM    3  C4  UNL     1      -1.774  49.745 -21.316  1.00  0.00     0.233 C 
HETATM    4  O1  UNL     1      -2.924  50.214 -20.603  1.00  0.00    -0.339 OA
HETATM    5  C5  UNL     1      -2.758  50.478 -19.199  1.00  0.00     0.262 C 
HETATM    6  C6  UNL     1      -1.982  49.394 -18.407  1.00  0.00     0.203 C 
ENDROOT
BRANCH   1   7
HETATM    7  N1  UNL     1      -2.761  47.344 -19.639  1.00  0.00     0.086 N 
HETATM    8  C1  UNL     1      -2.692  46.698 -20.938  1.00  0.00     0.307 C 
HETATM    9  H4  UNL     1      -3.640  47.853 -19.534  1.00  0.00     0.316 HD
ENDBRANCH   1   7
BRANCH   6  10
HETATM   10  O2  UNL     1      -2.771  49.008 -17.262  1.00  0.00    -0.384 OA
HETATM   11  C7  UNL     1      -3.039  50.074 -16.361  1.00  0.00     0.202 C 
ENDBRANCH   6  10
BRANCH   3  12
HETATM   12  N3  UNL     1      -1.018  50.871 -21.854  1.00  0.00    -0.316 N 
HETATM   13  C23 UNL     1      -0.215  51.734 -21.128  1.00  0.00     0.048 A 
HETATM   14  C18 UNL     1       0.249  52.720 -22.020  1.00  0.00     0.004 A 
HETATM   15  C22 UNL     1       0.135  51.735 -19.766  1.00  0.00     0.030 A 
HETATM   16  C17 UNL     1      -0.304  52.434 -23.309  1.00  0.00     0.021 A 
HETATM   17  C19 UNL     1       1.099  53.725 -21.508  1.00  0.00     0.014 A 
HETATM   18  C16 UNL     1      -0.306  52.940 -24.617  1.00  0.00     0.037 A 
HETATM   19  C24 UNL     1      -1.071  51.295 -23.143  1.00  0.00     0.077 A 
HETATM   20  C15 UNL     1      -1.012  52.379 -25.713  1.00  0.00    -0.012 A 
HETATM   21  C26 UNL     1       0.343  54.087 -25.205  1.00  0.00     0.148 A 
HETATM   22  C14 UNL     1      -1.798  51.223 -25.585  1.00  0.00     0.015 A 
HETATM   23  C27 UNL     1      -0.738  53.235 -26.920  1.00  0.00     0.162 A 
HETATM   24  C13 UNL     1      -2.613  50.408 -26.421  1.00  0.00     0.004 A 
HETATM   25  C25 UNL     1      -1.847  50.661 -24.325  1.00  0.00     0.077 A 
HETATM   26  C8  UNL     1      -3.123  49.368 -25.628  1.00  0.00     0.048 A 
HETATM   27  C12 UNL     1      -2.968  50.458 -27.785  1.00  0.00     0.014 A 
HETATM   28  N2  UNL     1      -2.625  49.544 -24.344  1.00  0.00    -0.313 N 
HETATM   29  C9  UNL     1      -3.978  48.387 -26.159  1.00  0.00     0.030 A 
HETATM   30  C10 UNL     1      -4.314  48.464 -27.513  1.00  0.00     0.002 A 
HETATM   31  C11 UNL     1      -3.817  49.483 -28.318  1.00  0.00     0.001 A 
HETATM   32  N4  UNL     1       0.166  54.333 -26.464  1.00  0.00    -0.366 N 
ATOM     33  H4  UNL     1       0.553  55.099 -27.015  1.00  0.00     0.162 HD
HETATM   34  C20 UNL     1       1.454  53.728 -20.155  1.00  0.00     0.001 A 
HETATM   35  C21 UNL     1       0.976  52.745 -19.297  1.00  0.00     0.002 A 
BRANCH  21  36
HETATM   36  O3  UNL     1       1.111  54.885 -24.473  1.00  0.00    -0.346 OA
HETATM   37  H22 UNL     1       1.443  55.581 -25.064  1.00  0.00     0.219 HD
ENDBRANCH  21  36
ENDBRANCH   3  12
TORSDOF 5
ENDMDL
MODEL 2
REMARK minimizedAffinity -11.3396387
REMARK  5 active torsions:
REMARK  status: ('A' for Active; 'I' for Inactive)
REMARK    1  A    between atoms: N1_2  and  C2_3 
REMARK    2  A    between atoms: C4_5  and  N3_28 
REMARK    3  A    between atoms: C5_7  and  N2_11 
REMARK    4  A    between atoms: C6_8  and  O2_9 
REMARK    5  A    between atoms: C26_31  and  O3_32 
ROOT
HETATM    1  C2  UNL     1      -3.017  48.988 -20.621  1.00  0.00     0.257 C 
HETATM    2  C3  UNL     1      -2.231  49.180 -21.915  1.00  0.00     0.092 C 
HETATM    3  C4  UNL     1      -3.009  48.698 -23.140  1.00  0.00     0.233 C 
HETATM    4  O1  UNL     1      -4.413  48.521 -22.925  1.00  0.00    -0.339 OA
HETATM    5  C5  UNL     1      -5.069  49.477 -22.075  1.00  0.00     0.262 C 
HETATM    6  C6  UNL     1      -4.318  49.825 -20.764  1.00  0.00     0.203 C 
ENDROOT
BRANCH   1   7
HETATM    7  N1  UNL     1      -3.288  47.584 -20.270  1.00  0.00     0.086 N 
HETATM    8  C1  UNL     1      -2.718  47.159 -19.003  1.00  0.00     0.307 C 
HETATM    9  H4  UNL     1      -3.011  46.950 -21.021  1.00  0.00     0.316 HD
ENDBRANCH   1   7
BRANCH   6  10
HETATM   10  O2  UNL     1      -5.226  49.654 -19.655  1.00  0.00    -0.384 OA
HETATM   11  C7  UNL     1      -6.582  49.481 -20.041  1.00  0.00     0.202 C 
ENDBRANCH   6  10
BRANCH   3  12
HETATM   12  N3  UNL     1      -2.778  49.545 -24.305  1.00  0.00    -0.316 N 
HETATM   13  C23 UNL     1      -3.256  49.318 -25.584  1.00  0.00     0.048 A 
HETATM   14  C18 UNL     1      -2.725  50.326 -26.412  1.00  0.00     0.004 A 
HETATM   15  C22 UNL     1      -4.101  48.311 -26.084  1.00  0.00     0.030 A 
HETATM   16  C17 UNL     1      -1.903  51.168 -25.597  1.00  0.00     0.021 A 
HETATM   17  C19 UNL     1      -3.074  50.309 -27.779  1.00  0.00     0.014 A 
HETATM   18  C16 UNL     1      -1.085  52.303 -25.700  1.00  0.00     0.037 A 
HETATM   19  C24 UNL     1      -1.972  50.638 -24.321  1.00  0.00     0.077 A 
HETATM   20  C15 UNL     1      -0.369  52.901 -24.630  1.00  0.00    -0.012 A 
HETATM   21  C26 UNL     1      -0.742  53.141 -26.824  1.00  0.00     0.148 A 
HETATM   22  C14 UNL     1      -0.418  52.394 -23.322  1.00  0.00     0.015 A 
HETATM   23  C27 UNL     1       0.373  54.087 -25.182  1.00  0.00     0.162 A 
HETATM   24  C13 UNL     1       0.141  52.710 -22.051  1.00  0.00     0.004 A 
HETATM   25  C25 UNL     1      -1.204  51.274 -23.136  1.00  0.00     0.077 A 
HETATM   26  C8  UNL     1      -0.341  51.764 -21.132  1.00  0.00     0.048 A 
HETATM   27  C12 UNL     1       1.016  53.716 -21.593  1.00  0.00     0.014 A 
HETATM   28  N2  UNL     1      -1.176  50.899 -21.827  1.00  0.00    -0.313 N 
HETATM   29  C9  UNL     1       0.033  51.796 -19.777  1.00  0.00     0.030 A 
HETATM   30  C10 UNL     1       0.903  52.803 -19.354  1.00  0.00     0.002 A 
HETATM   31  C11 UNL     1       1.389  53.752 -20.246  1.00  0.00     0.001 A 
HETATM   32  N4  UNL     1       0.054  54.145 -26.641  1.00  0.00    -0.366 N 
ATOM     33  H4  UNL     1       0.386  54.819 -27.331  1.00  0.00     0.162 HD
HETATM   34  C20 UNL     1      -3.918  49.313 -28.281  1.00  0.00     0.001 A 
HETATM   35  C21 UNL     1      -4.423  48.327 -27.442  1.00  0.00     0.002 A 
BRANCH  21  36
HETATM   36  O3  UNL     1      -1.229  52.891 -28.034  1.00  0.00    -0.346 OA
HETATM   37  H22 UNL     1      -0.874  53.572 -28.630  1.00  0.00     0.219 HD
ENDBRANCH  21  36
ENDBRANCH   3  12
TORSDOF 5
ENDMDL
MODEL 3
REMARK minimizedAffinity -11.2519283
REMARK  5 active torsions:
REMARK  status: ('A' for Active; 'I' for Inactive)
REMARK    1  A    between atoms: N1_2  and  C2_3 
REMARK    2  A    between atoms: C4_5  and  N3_28 
REMARK    3  A    between atoms: C5_7  and  N2_11 
REMARK    4  A    between atoms: C6_8  and  O2_9 
REMARK    5  A    between atoms: C26_31  and  O3_32 
ROOT
HETATM    1  C2  UNL     1       0.262  52.100 -26.516  1.00  0.00     0.257 C 
HETATM    2  C3  UNL     1       0.083  51.351 -25.198  1.00  0.00     0.092 C 
HETATM    3  C4  UNL     1       0.686  52.111 -24.016  1.00  0.00     0.233 C 
HETATM    4  O1  UNL     1       0.953  53.495 -24.268  1.00  0.00    -0.339 OA
HETATM    5  C5  UNL     1       0.004  54.206 -25.080  1.00  0.00     0.262 C 
HETATM    6  C6  UNL     1      -0.468  53.461 -26.356  1.00  0.00     0.203 C 
ENDROOT
BRANCH   1   7
HETATM    7  N1  UNL     1       1.662  52.260 -26.945  1.00  0.00     0.086 N 
HETATM    8  C1  UNL     1       2.552  51.201 -26.502  1.00  0.00     0.307 C 
HETATM    9  H4  UNL     1       2.031  53.175 -26.685  1.00  0.00     0.316 HD
ENDBRANCH   1   7
BRANCH   6  10
HETATM   10  O2  UNL     1      -0.291  54.336 -27.490  1.00  0.00    -0.384 OA
HETATM   11  C7  UNL     1      -0.122  53.652 -28.725  1.00  0.00     0.202 C 
ENDBRANCH   6  10
BRANCH   3  12
HETATM   12  N3  UNL     1      -0.112  51.962 -22.804  1.00  0.00    -0.316 N 
HETATM   13  C23 UNL     1       0.227  52.426 -21.544  1.00  0.00     0.048 A 
HETATM   14  C18 UNL     1      -0.777  51.991 -20.657  1.00  0.00     0.004 A 
HETATM   15  C22 UNL     1       1.329  53.183 -21.110  1.00  0.00     0.030 A 
HETATM   16  C17 UNL     1      -1.732  51.241 -21.416  1.00  0.00     0.021 A 
HETATM   17  C19 UNL     1      -0.653  52.346 -19.296  1.00  0.00     0.014 A 
HETATM   18  C16 UNL     1      -2.926  50.527 -21.241  1.00  0.00     0.037 A 
HETATM   19  C24 UNL     1      -1.269  51.256 -22.719  1.00  0.00     0.077 A 
HETATM   20  C15 UNL     1      -3.642  49.860 -22.269  1.00  0.00    -0.012 A 
HETATM   21  C26 UNL     1      -3.727  50.266 -20.069  1.00  0.00     0.148 A 
HETATM   22  C14 UNL     1      -3.207  49.856 -23.603  1.00  0.00     0.015 A 
HETATM   23  C27 UNL     1      -4.857  49.228 -21.645  1.00  0.00     0.162 A 
HETATM   24  C13 UNL     1      -3.640  49.320 -24.849  1.00  0.00     0.004 A 
HETATM   25  C25 UNL     1      -2.035  50.539 -23.860  1.00  0.00     0.077 A 
HETATM   26  C8  UNL     1      -2.709  49.711 -25.824  1.00  0.00     0.048 A 
HETATM   27  C12 UNL     1      -4.744  48.534 -25.242  1.00  0.00     0.014 A 
HETATM   28  N2  UNL     1      -1.737  50.471 -25.187  1.00  0.00    -0.313 N 
HETATM   29  C9  UNL     1      -2.848  49.333 -27.171  1.00  0.00     0.030 A 
HETATM   30  C10 UNL     1      -3.950  48.552 -27.529  1.00  0.00     0.002 A 
HETATM   31  C11 UNL     1      -4.886  48.157 -26.581  1.00  0.00     0.001 A 
HETATM   32  N4  UNL     1      -4.806  49.560 -20.189  1.00  0.00    -0.366 N 
ATOM     33  H4  UNL     1      -5.466  49.293 -19.459  1.00  0.00     0.162 HD
HETATM   34  C20 UNL     1       0.440  53.102 -18.860  1.00  0.00     0.001 A 
HETATM   35  C21 UNL     1       1.417  53.513 -19.757  1.00  0.00     0.002 A 
BRANCH  21  36
HETATM   36  O3  UNL     1      -3.368  50.736 -18.881  1.00  0.00    -0.346 OA
HETATM   37  H22 UNL     1      -4.044  50.446 -18.245  1.00  0.00     0.219 HD
ENDBRANCH  21  36
ENDBRANCH   3  12
TORSDOF 5
ENDMDL
MODEL 4
REMARK minimizedAffinity -10.8890514
REMARK  5 active torsions:
REMARK  status: ('A' for Active; 'I' for Inactive)
REMARK    1  A    between atoms: N1_2  and  C2_3 
REMARK    2  A    between atoms: C4_5  and  N3_28 
REMARK    3  A    between atoms: C5_7  and  N2_11 
REMARK    4  A    between atoms: C6_8  and  O2_9 
REMARK    5  A    between atoms: C26_31  and  O3_32 
ROOT
HETATM    1  C2  UNL     1      -5.887  49.742 -21.176  1.00  0.00     0.257 C 
HETATM    2  C3  UNL     1      -4.664  50.290 -21.908  1.00  0.00     0.092 C 
HETATM    3  C4  UNL     1      -3.895  49.193 -22.645  1.00  0.00     0.233 C 
HETATM    4  O1  UNL     1      -4.624  47.977 -22.839  1.00  0.00    -0.339 OA
HETATM    5  C5  UNL     1      -6.026  48.096 -23.134  1.00  0.00     0.262 C 
HETATM    6  C6  UNL     1      -6.806  49.110 -22.257  1.00  0.00     0.203 C 
ENDROOT
BRANCH   1   7
HETATM    7  N1  UNL     1      -5.579  48.805 -20.082  1.00  0.00     0.086 N 
HETATM    8  C1  UNL     1      -4.722  49.352 -19.045  1.00  0.00     0.307 C 
HETATM    9  H4  UNL     1      -5.202  47.926 -20.438  1.00  0.00     0.316 HD
ENDBRANCH   1   7
BRANCH   6  10
HETATM   10  O2  UNL     1      -7.960  48.445 -21.702  1.00  0.00    -0.384 OA
HETATM   11  C7  UNL     1      -8.431  47.357 -22.485  1.00  0.00     0.202 C 
ENDBRANCH   6  10
BRANCH   3  12
HETATM   12  N3  UNL     1      -3.350  49.664 -23.914  1.00  0.00    -0.316 N 
HETATM   13  C23 UNL     1      -3.752  49.256 -25.174  1.00  0.00     0.048 A 
HETATM   14  C18 UNL     1      -2.908  49.890 -26.106  1.00  0.00     0.004 A 
HETATM   15  C22 UNL     1      -4.777  48.380 -25.572  1.00  0.00     0.030 A 
HETATM   16  C17 UNL     1      -1.976  50.691 -25.372  1.00  0.00     0.021 A 
HETATM   17  C19 UNL     1      -3.124  49.630 -27.476  1.00  0.00     0.014 A 
HETATM   18  C16 UNL     1      -0.889  51.552 -25.588  1.00  0.00     0.037 A 
HETATM   19  C24 UNL     1      -2.294  50.509 -24.038  1.00  0.00     0.077 A 
HETATM   20  C15 UNL     1      -0.145  52.207 -24.572  1.00  0.00    -0.012 A 
HETATM   21  C26 UNL     1      -0.243  51.998 -26.799  1.00  0.00     0.148 A 
HETATM   22  C14 UNL     1      -0.440  52.049 -23.209  1.00  0.00     0.015 A 
HETATM   23  C27 UNL     1       0.923  53.027 -25.243  1.00  0.00     0.162 A 
HETATM   24  C13 UNL     1       0.062  52.522 -21.963  1.00  0.00     0.004 A 
HETATM   25  C25 UNL     1      -1.500  51.216 -22.911  1.00  0.00     0.077 A 
HETATM   26  C8  UNL     1      -0.727  51.956 -20.949  1.00  0.00     0.048 A 
HETATM   27  C12 UNL     1       1.120  53.381 -21.601  1.00  0.00     0.014 A 
HETATM   28  N2  UNL     1      -1.688  51.165 -21.564  1.00  0.00    -0.313 N 
HETATM   29  C9  UNL     1      -0.482  52.222 -19.590  1.00  0.00     0.030 A 
HETATM   30  C10 UNL     1       0.575  53.076 -19.262  1.00  0.00     0.002 A 
HETATM   31  C11 UNL     1       1.366  53.649 -20.251  1.00  0.00     0.001 A 
HETATM   32  N4  UNL     1       0.763  52.808 -26.713  1.00  0.00    -0.366 N 
ATOM     33  H4  UNL     1       1.317  53.205 -27.472  1.00  0.00     0.162 HD
HETATM   34  C20 UNL     1      -4.145  48.762 -27.878  1.00  0.00     0.001 A 
HETATM   35  C21 UNL     1      -4.959  48.146 -26.936  1.00  0.00     0.002 A 
BRANCH  21  36
HETATM   36  O3  UNL     1      -0.666  51.586 -27.988  1.00  0.00    -0.346 OA
HETATM   37  H22 UNL     1      -0.096  52.007 -28.654  1.00  0.00     0.219 HD
ENDBRANCH  21  36
ENDBRANCH   3  12
TORSDOF 5
ENDMDL
MODEL 5
REMARK minimizedAffinity -10.802124
REMARK  5 active torsions:
REMARK  status: ('A' for Active; 'I' for Inactive)
REMARK    1  A    between atoms: N1_2  and  C2_3 
REMARK    2  A    between atoms: C4_5  and  N3_28 
REMARK    3  A    between atoms: C5_7  and  N2_11 
REMARK    4  A    between atoms: C6_8  and  O2_9 
REMARK    5  A    between atoms: C26_31  and  O3_32 
ROOT
HETATM    1  C2  UNL     1      -4.147  49.382 -19.407  1.00  0.00     0.257 C 
HETATM    2  C3  UNL     1      -2.716  49.760 -19.786  1.00  0.00     0.092 C 
HETATM    3  C4  UNL     1      -2.476  49.671 -21.293  1.00  0.00     0.233 C 
HETATM    4  O1  UNL     1      -3.667  49.632 -22.088  1.00  0.00    -0.339 OA
HETATM    5  C5  UNL     1      -4.768  50.447 -21.653  1.00  0.00     0.262 C 
HETATM    6  C6  UNL     1      -5.079  50.389 -20.135  1.00  0.00     0.203 C 
ENDROOT
BRANCH   1   7
HETATM    7  N1  UNL     1      -4.505  47.982 -19.686  1.00  0.00     0.086 N 
HETATM    8  C1  UNL     1      -4.953  47.232 -18.525  1.00  0.00     0.307 C 
HETATM    9  H4  UNL     1      -3.750  47.490 -20.165  1.00  0.00     0.316 HD
ENDBRANCH   1   7
BRANCH   6  10
HETATM   10  O2  UNL     1      -6.480  50.090 -19.963  1.00  0.00    -0.384 OA
HETATM   11  C7  UNL     1      -7.151  49.757 -21.171  1.00  0.00     0.202 C 
ENDBRANCH   6  10
BRANCH   3  12
HETATM   12  N3  UNL     1      -1.584  50.723 -21.769  1.00  0.00    -0.316 N 
HETATM   13  C23 UNL     1      -0.793  51.539 -20.979  1.00  0.00     0.048 A 
HETATM   14  C18 UNL     1      -0.166  52.465 -21.834  1.00  0.00     0.004 A 
HETATM   15  C22 UNL     1      -0.582  51.546 -19.588  1.00  0.00     0.030 A 
HETATM   16  C17 UNL     1      -0.607  52.192 -23.168  1.00  0.00     0.021 A 
HETATM   17  C19 UNL     1       0.704  53.415 -21.255  1.00  0.00     0.014 A 
HETATM   18  C16 UNL     1      -0.440  52.665 -24.478  1.00  0.00     0.037 A 
HETATM   19  C24 UNL     1      -1.474  51.119 -23.063  1.00  0.00     0.077 A 
HETATM   20  C15 UNL     1      -1.074  52.134 -25.631  1.00  0.00    -0.012 A 
HETATM   21  C26 UNL     1       0.353  53.745 -25.015  1.00  0.00     0.148 A 
HETATM   22  C14 UNL     1      -1.956  51.044 -25.565  1.00  0.00     0.015 A 
HETATM   23  C27 UNL     1      -0.614  52.937 -26.818  1.00  0.00     0.162 A 
HETATM   24  C13 UNL     1      -2.745  50.274 -26.466  1.00  0.00     0.004 A 
HETATM   25  C25 UNL     1      -2.175  50.518 -24.308  1.00  0.00     0.077 A 
HETATM   26  C8  UNL     1      -3.411  49.295 -25.712  1.00  0.00     0.048 A 
HETATM   27  C12 UNL     1      -2.956  50.318 -27.860  1.00  0.00     0.014 A 
HETATM   28  N2  UNL     1      -3.032  49.463 -24.387  1.00  0.00    -0.313 N 
HETATM   29  C9  UNL     1      -4.283  48.369 -26.312  1.00  0.00     0.030 A 
HETATM   30  C10 UNL     1      -4.474  48.439 -27.695  1.00  0.00     0.002 A 
HETATM   31  C11 UNL     1      -3.821  49.398 -28.460  1.00  0.00     0.001 A 
HETATM   32  N4  UNL     1       0.323  53.974 -26.289  1.00  0.00    -0.366 N 
ATOM     33  H4  UNL     1       0.822  54.695 -26.810  1.00  0.00     0.162 HD
HETATM   34  C20 UNL     1       0.921  53.424 -19.873  1.00  0.00     0.001 A 
HETATM   35  C21 UNL     1       0.284  52.501 -19.053  1.00  0.00     0.002 A 
BRANCH  21  36
HETATM   36  O3  UNL     1       1.103  54.499 -24.221  1.00  0.00    -0.346 OA
HETATM   37  H22 UNL     1       1.547  55.154 -24.787  1.00  0.00     0.219 HD
ENDBRANCH  21  36
ENDBRANCH   3  12
TORSDOF 5
ENDMDL
MODEL 6
REMARK minimizedAffinity -10.7823763
REMARK  5 active torsions:
REMARK  status: ('A' for Active; 'I' for Inactive)
REMARK    1  A    between atoms: N1_2  and  C2_3 
REMARK    2  A    between atoms: C4_5  and  N3_28 
REMARK    3  A    between atoms: C5_7  and  N2_11 
REMARK    4  A    between atoms: C6_8  and  O2_9 
REMARK    5  A    between atoms: C26_31  and  O3_32 
ROOT
HETATM    1  C2  UNL     1      -2.875  48.318 -20.425  1.00  0.00     0.257 C 
HETATM    2  C3  UNL     1      -1.864  48.775 -21.473  1.00  0.00     0.092 C 
HETATM    3  C4  UNL     1      -2.482  48.870 -22.868  1.00  0.00     0.233 C 
HETATM    4  O1  UNL     1      -3.913  48.893 -22.888  1.00  0.00    -0.339 OA
HETATM    5  C5  UNL     1      -4.569  49.622 -21.837  1.00  0.00     0.262 C 
HETATM    6  C6  UNL     1      -4.010  49.378 -20.411  1.00  0.00     0.203 C 
ENDROOT
BRANCH   1   7
HETATM    7  N1  UNL     1      -3.385  46.951 -20.620  1.00  0.00     0.086 N 
HETATM    8  C1  UNL     1      -4.591  46.867 -21.428  1.00  0.00     0.307 C 
HETATM    9  H4  UNL     1      -3.512  46.468 -19.730  1.00  0.00     0.316 HD
ENDBRANCH   1   7
BRANCH   6  10
HETATM   10  O2  UNL     1      -5.106  49.023 -19.542  1.00  0.00    -0.384 OA
HETATM   11  C7  UNL     1      -6.381  49.422 -20.028  1.00  0.00     0.202 C 
ENDBRANCH   6  10
BRANCH   3  12
HETATM   12  N3  UNL     1      -1.947  49.995 -23.629  1.00  0.00    -0.316 N 
HETATM   13  C23 UNL     1      -2.084  50.194 -24.992  1.00  0.00     0.048 A 
HETATM   14  C18 UNL     1      -1.344  51.346 -25.321  1.00  0.00     0.004 A 
HETATM   15  C22 UNL     1      -2.787  49.457 -25.962  1.00  0.00     0.030 A 
HETATM   16  C17 UNL     1      -0.747  51.836 -24.116  1.00  0.00     0.021 A 
HETATM   17  C19 UNL     1      -1.331  51.758 -26.671  1.00  0.00     0.014 A 
HETATM   18  C16 UNL     1       0.086  52.873 -23.670  1.00  0.00     0.037 A 
HETATM   19  C24 UNL     1      -1.150  50.967 -23.118  1.00  0.00     0.077 A 
HETATM   20  C15 UNL     1       0.511  53.066 -22.330  1.00  0.00    -0.012 A 
HETATM   21  C26 UNL     1       0.718  53.966 -24.369  1.00  0.00     0.148 A 
HETATM   22  C14 UNL     1       0.121  52.208 -21.290  1.00  0.00     0.015 A 
HETATM   23  C27 UNL     1       1.388  54.289 -22.300  1.00  0.00     0.162 A 
HETATM   24  C13 UNL     1       0.339  52.089 -19.888  1.00  0.00     0.004 A 
HETATM   25  C25 UNL     1      -0.702  51.159 -21.647  1.00  0.00     0.077 A 
HETATM   26  C8  UNL     1      -0.376  50.966 -19.444  1.00  0.00     0.048 A 
HETATM   27  C12 UNL     1       1.082  52.836 -18.949  1.00  0.00     0.014 A 
HETATM   28  N2  UNL     1      -1.017  50.420 -20.548  1.00  0.00    -0.313 N 
HETATM   29  C9  UNL     1      -0.362  50.568 -18.095  1.00  0.00     0.030 A 
HETATM   30  C10 UNL     1       0.385  51.326 -17.189  1.00  0.00     0.002 A 
HETATM   31  C11 UNL     1       1.097  52.444 -17.607  1.00  0.00     0.001 A 
HETATM   32  N4  UNL     1       1.455  54.797 -23.703  1.00  0.00    -0.366 N 
ATOM     33  H4  UNL     1       1.962  55.608 -24.055  1.00  0.00     0.162 HD
HETATM   34  C20 UNL     1      -2.032  51.031 -27.639  1.00  0.00     0.001 A 
HETATM   35  C21 UNL     1      -2.749  49.895 -27.286  1.00  0.00     0.002 A 
BRANCH  21  36
HETATM   36  O3  UNL     1       0.555  54.123 -25.677  1.00  0.00    -0.346 OA
HETATM   37  H22 UNL     1       1.060  54.913 -25.934  1.00  0.00     0.219 HD
ENDBRANCH  21  36
ENDBRANCH   3  12
TORSDOF 5
ENDMDL
MODEL 7
REMARK minimizedAffinity -10.7180185
REMARK  5 active torsions:
REMARK  status: ('A' for Active; 'I' for Inactive)
REMARK    1  A    between atoms: N1_2  and  C2_3 
REMARK    2  A    between atoms: C4_5  and  N3_28 
REMARK    3  A    between atoms: C5_7  and  N2_11 
REMARK    4  A    between atoms: C6_8  and  O2_9 
REMARK    5  A    between atoms: C26_31  and  O3_32 
ROOT
HETATM    1  C2  UNL     1      -5.061  48.882 -21.670  1.00  0.00     0.257 C 
HETATM    2  C3  UNL     1      -4.320  50.163 -22.046  1.00  0.00     0.092 C 
HETATM    3  C4  UNL     1      -3.129  50.431 -21.126  1.00  0.00     0.233 C 
HETATM    4  O1  UNL     1      -2.698  49.300 -20.360  1.00  0.00    -0.339 OA
HETATM    5  C5  UNL     1      -2.743  48.018 -21.007  1.00  0.00     0.262 C 
HETATM    6  C6  UNL     1      -4.039  47.721 -21.806  1.00  0.00     0.203 C 
ENDROOT
BRANCH   1   7
HETATM    7  N1  UNL     1      -5.706  48.913 -20.346  1.00  0.00     0.086 N 
HETATM    8  C1  UNL     1      -6.801  49.859 -20.232  1.00  0.00     0.307 C 
HETATM    9  H4  UNL     1      -5.023  49.057 -19.601  1.00  0.00     0.316 HD
ENDBRANCH   1   7
BRANCH   6  10
HETATM   10  O2  UNL     1      -4.565  46.450 -21.372  1.00  0.00    -0.384 OA
HETATM   11  C7  UNL     1      -3.732  45.766 -20.445  1.00  0.00     0.202 C 
ENDBRANCH   6  10
BRANCH   3  12
HETATM   12  N3  UNL     1      -2.000  51.014 -21.846  1.00  0.00    -0.316 N 
HETATM   13  C23 UNL     1      -1.000  51.796 -21.295  1.00  0.00     0.048 A 
HETATM   14  C18 UNL     1      -0.171  52.216 -22.352  1.00  0.00     0.004 A 
HETATM   15  C22 UNL     1      -0.760  52.175 -19.962  1.00  0.00     0.030 A 
HETATM   16  C17 UNL     1      -0.703  51.671 -23.564  1.00  0.00     0.021 A 
HETATM   17  C19 UNL     1       0.935  53.035 -22.038  1.00  0.00     0.014 A 
HETATM   18  C16 UNL     1      -0.448  51.657 -24.943  1.00  0.00     0.037 A 
HETATM   19  C24 UNL     1      -1.822  50.948 -23.190  1.00  0.00     0.077 A 
HETATM   20  C15 UNL     1      -1.230  50.981 -25.916  1.00  0.00    -0.012 A 
HETATM   21  C26 UNL     1       0.590  52.272 -25.735  1.00  0.00     0.148 A 
HETATM   22  C14 UNL     1      -2.369  50.236 -25.575  1.00  0.00     0.015 A 
HETATM   23  C27 UNL     1      -0.603  51.231 -27.261  1.00  0.00     0.162 A 
HETATM   24  C13 UNL     1      -3.357  49.460 -26.246  1.00  0.00     0.004 A 
HETATM   25  C25 UNL     1      -2.689  50.199 -24.233  1.00  0.00     0.077 A 
HETATM   26  C8  UNL     1      -4.242  48.971 -25.271  1.00  0.00     0.048 A 
HETATM   27  C12 UNL     1      -3.585  49.127 -27.597  1.00  0.00     0.014 A 
HETATM   28  N2  UNL     1      -3.798  49.433 -24.039  1.00  0.00    -0.313 N 
HETATM   29  C9  UNL     1      -5.344  48.167 -25.612  1.00  0.00     0.030 A 
HETATM   30  C10 UNL     1      -5.545  47.856 -26.960  1.00  0.00     0.002 A 
HETATM   31  C11 UNL     1      -4.679  48.327 -27.940  1.00  0.00     0.001 A 
HETATM   32  N4  UNL     1       0.590  52.098 -27.018  1.00  0.00    -0.366 N 
ATOM     33  H4  UNL     1       1.250  52.466 -27.702  1.00  0.00     0.162 HD
HETATM   34  C20 UNL     1       1.181  53.412 -20.713  1.00  0.00     0.001 A 
HETATM   35  C21 UNL     1       0.343  52.987 -19.691  1.00  0.00     0.002 A 
BRANCH  21  36
HETATM   36  O3  UNL     1       1.534  53.010 -25.164  1.00  0.00    -0.346 OA
HETATM   37  H22 UNL     1       2.122  53.319 -25.874  1.00  0.00     0.219 HD
ENDBRANCH  21  36
ENDBRANCH   3  12
TORSDOF 5
ENDMDL
MODEL 8
REMARK minimizedAffinity -10.5173883
REMARK  5 active torsions:
REMARK  status: ('A' for Active; 'I' for Inactive)
REMARK    1  A    between atoms: N1_2  and  C2_3 
REMARK    2  A    between atoms: C4_5  and  N3_28 
REMARK    3  A    between atoms: C5_7  and  N2_11 
REMARK    4  A    between atoms: C6_8  and  O2_9 
REMARK    5  A    between atoms: C26_31  and  O3_32 
ROOT
HETATM    1  C2  UNL     1      -2.411  47.702 -18.812  1.00  0.00     0.257 C 
HETATM    2  C3  UNL     1      -1.537  48.269 -19.928  1.00  0.00     0.092 C 
HETATM    3  C4  UNL     1      -2.266  49.336 -20.745  1.00  0.00     0.233 C 
HETATM    4  O1  UNL     1      -3.436  49.873 -20.120  1.00  0.00    -0.339 OA
HETATM    5  C5  UNL     1      -3.385  50.069 -18.697  1.00  0.00     0.262 C 
HETATM    6  C6  UNL     1      -2.778  48.894 -17.886  1.00  0.00     0.203 C 
ENDROOT
BRANCH   1   7
HETATM    7  N1  UNL     1      -3.598  46.965 -19.277  1.00  0.00     0.086 N 
HETATM    8  C1  UNL     1      -3.316  45.915 -20.240  1.00  0.00     0.307 C 
HETATM    9  H4  UNL     1      -4.317  47.598 -19.631  1.00  0.00     0.316 HD
ENDBRANCH   1   7
BRANCH   6  10
HETATM   10  O2  UNL     1      -3.701  48.534 -16.838  1.00  0.00    -0.384 OA
HETATM   11  C7  UNL     1      -3.169  47.619 -15.889  1.00  0.00     0.202 C 
ENDBRANCH   6  10
BRANCH   3  12
HETATM   12  N3  UNL     1      -1.373  50.414 -21.159  1.00  0.00    -0.316 N 
HETATM   13  C23 UNL     1      -0.584  51.184 -20.322  1.00  0.00     0.048 A 
HETATM   14  C18 UNL     1       0.044  52.158 -21.123  1.00  0.00     0.004 A 
HETATM   15  C22 UNL     1      -0.376  51.113 -18.933  1.00  0.00     0.030 A 
HETATM   16  C17 UNL     1      -0.394  51.960 -22.471  1.00  0.00     0.021 A 
HETATM   17  C19 UNL     1       0.912  53.073 -20.489  1.00  0.00     0.014 A 
HETATM   18  C16 UNL     1      -0.224  52.506 -23.752  1.00  0.00     0.037 A 
HETATM   19  C24 UNL     1      -1.261  50.882 -22.429  1.00  0.00     0.077 A 
HETATM   20  C15 UNL     1      -0.856  52.041 -24.934  1.00  0.00    -0.012 A 
HETATM   21  C26 UNL     1       0.569  53.615 -24.225  1.00  0.00     0.148 A 
HETATM   22  C14 UNL     1      -1.738  50.949 -24.932  1.00  0.00     0.015 A 
HETATM   23  C27 UNL     1      -0.394  52.910 -26.073  1.00  0.00     0.162 A 
HETATM   24  C13 UNL     1      -2.524  50.231 -25.877  1.00  0.00     0.004 A 
HETATM   25  C25 UNL     1      -1.959  50.352 -23.707  1.00  0.00     0.077 A 
HETATM   26  C8  UNL     1      -3.192  49.210 -25.181  1.00  0.00     0.048 A 
HETATM   27  C12 UNL     1      -2.733  50.354 -27.266  1.00  0.00     0.014 A 
HETATM   28  N2  UNL     1      -2.815  49.303 -23.847  1.00  0.00    -0.313 N 
HETATM   29  C9  UNL     1      -4.062  48.319 -25.834  1.00  0.00     0.030 A 
HETATM   30  C10 UNL     1      -4.250  48.467 -27.210  1.00  0.00     0.002 A 
HETATM   31  C11 UNL     1      -3.596  49.469 -27.919  1.00  0.00     0.001 A 
HETATM   32  N4  UNL     1       0.541  53.916 -25.484  1.00  0.00    -0.366 N 
ATOM     33  H4  UNL     1       1.041  54.666 -25.963  1.00  0.00     0.162 HD
HETATM   34  C20 UNL     1       1.126  53.004 -19.109  1.00  0.00     0.001 A 
HETATM   35  C21 UNL     1       0.489  52.036 -18.343  1.00  0.00     0.002 A 
BRANCH  21  36
HETATM   36  O3  UNL     1       1.317  54.324 -23.388  1.00  0.00    -0.346 OA
HETATM   37  H22 UNL     1       1.762  55.009 -23.915  1.00  0.00     0.219 HD
ENDBRANCH  21  36
ENDBRANCH   3  12
TORSDOF 5
ENDMDL
MODEL 9
REMARK minimizedAffinity -10.3414173
REMARK  5 active torsions:
REMARK  status: ('A' for Active; 'I' for Inactive)
REMARK    1  A    between atoms: N1_2  and  C2_3 
REMARK    2  A    between atoms: C4_5  and  N3_28 
REMARK    3  A    between atoms: C5_7  and  N2_11 
REMARK    4  A    between atoms: C6_8  and  O2_9 
REMARK    5  A    between atoms: C26_31  and  O3_32 
ROOT
HETATM    1  C2  UNL     1      -5.963  47.861 -21.508  1.00  0.00     0.257 C 
HETATM    2  C3  UNL     1      -5.552  48.982 -22.459  1.00  0.00     0.092 C 
HETATM    3  C4  UNL     1      -4.087  49.381 -22.283  1.00  0.00     0.233 C 
HETATM    4  O1  UNL     1      -3.288  48.427 -21.574  1.00  0.00    -0.339 OA
HETATM    5  C5  UNL     1      -3.557  47.037 -21.822  1.00  0.00     0.262 C 
HETATM    6  C6  UNL     1      -5.057  46.643 -21.840  1.00  0.00     0.203 C 
ENDROOT
BRANCH   1   7
HETATM    7  N1  UNL     1      -5.920  48.221 -20.081  1.00  0.00     0.086 N 
HETATM    8  C1  UNL     1      -6.741  49.365 -19.724  1.00  0.00     0.307 C 
HETATM    9  H4  UNL     1      -4.961  48.348 -19.756  1.00  0.00     0.316 HD
ENDBRANCH   1   7
BRANCH   6  10
HETATM   10  O2  UNL     1      -5.251  45.531 -20.941  1.00  0.00    -0.384 OA
HETATM   11  C7  UNL     1      -4.077  45.145 -20.240  1.00  0.00     0.202 C 
ENDBRANCH   6  10
BRANCH   3  12
HETATM   12  N3  UNL     1      -3.455  49.725 -23.553  1.00  0.00    -0.316 N 
HETATM   13  C23 UNL     1      -3.827  49.255 -24.801  1.00  0.00     0.048 A 
HETATM   14  C18 UNL     1      -2.901  49.767 -25.730  1.00  0.00     0.004 A 
HETATM   15  C22 UNL     1      -4.890  48.420 -25.189  1.00  0.00     0.030 A 
HETATM   16  C17 UNL     1      -1.951  50.556 -25.007  1.00  0.00     0.021 A 
HETATM   17  C19 UNL     1      -3.073  49.424 -27.089  1.00  0.00     0.014 A 
HETATM   18  C16 UNL     1      -0.800  51.328 -25.227  1.00  0.00     0.037 A 
HETATM   19  C24 UNL     1      -2.340  50.489 -23.681  1.00  0.00     0.077 A 
HETATM   20  C15 UNL     1      -0.060  52.004 -24.222  1.00  0.00    -0.012 A 
HETATM   21  C26 UNL     1      -0.072  51.645 -26.431  1.00  0.00     0.148 A 
HETATM   22  C14 UNL     1      -0.426  51.963 -22.867  1.00  0.00     0.015 A 
HETATM   23  C27 UNL     1       1.090  52.704 -24.893  1.00  0.00     0.162 A 
HETATM   24  C13 UNL     1       0.051  52.489 -21.633  1.00  0.00     0.004 A 
HETATM   25  C25 UNL     1      -1.551  51.222 -22.567  1.00  0.00     0.077 A 
HETATM   26  C8  UNL     1      -0.819  52.048 -20.623  1.00  0.00     0.048 A 
HETATM   27  C12 UNL     1       1.147  53.302 -21.278  1.00  0.00     0.014 A 
HETATM   28  N2  UNL     1      -1.803  51.279 -21.230  1.00  0.00    -0.313 N 
HETATM   29  C9  UNL     1      -0.618  52.393 -19.275  1.00  0.00     0.030 A 
HETATM   30  C10 UNL     1       0.478  53.198 -18.953  1.00  0.00     0.002 A 
HETATM   31  C11 UNL     1       1.349  53.648 -19.938  1.00  0.00     0.001 A 
HETATM   32  N4  UNL     1       0.982  52.393 -26.351  1.00  0.00    -0.366 N 
ATOM     33  H4  UNL     1       1.595  52.699 -27.106  1.00  0.00     0.162 HD
HETATM   34  C20 UNL     1      -4.131  48.598 -27.481  1.00  0.00     0.001 A 
HETATM   35  C21 UNL     1      -5.026  48.103 -26.541  1.00  0.00     0.002 A 
BRANCH  21  36
HETATM   36  O3  UNL     1      -0.467  51.178 -27.609  1.00  0.00    -0.346 OA
HETATM   37  H22 UNL     1       0.159  51.514 -28.273  1.00  0.00     0.219 HD
ENDBRANCH  21  36
ENDBRANCH   3  12
TORSDOF 5
ENDMDL
