MODEL 1
REMARK minimizedAffinity -9.78827095
REMARK CNNscore 0.388799191
REMARK CNNaffinity 7.7521081
REMARK  7 active torsions:
REMARK  status: ('A' for Active; 'I' for Inactive)
REMARK    1  A    between atoms: O1_2  and  C2_3 
REMARK    2  A    between atoms: C4_5  and  C5_6 
REMARK    3  A    between atoms: N2_9  and  C6_10 
REMARK    4  A    between atoms: N3_13  and  C9_14 
REMARK       I    between atoms: N4_17  and  C12_18 
REMARK    5  A    between atoms: C20_31  and  N7_32 
REMARK    6  A    between atoms: C24_36  and  N8_37 
REMARK       I    between atoms: N8_37  and  C25_38 
REMARK    7  A    between atoms: C25_38  and  C26_40 
ROOT
HETATM    1  C5  UNL     1      -0.238  51.874 -21.597  1.00  0.00     0.076 A 
HETATM    2  N1  UNL     1      -1.019  50.946 -22.179  1.00  0.00    -0.295 N 
ATOM      3  H1  UNL     1      -1.472  50.145 -21.738  1.00  0.00     0.187 HD
HETATM    4  N2  UNL     1      -1.069  51.311 -23.480  1.00  0.00    -0.270 N 
HETATM    5  C18 UNL     1      -0.335  52.433 -23.751  1.00  0.00     0.139 A 
HETATM    6  N5  UNL     1      -0.178  53.031 -24.943  1.00  0.00    -0.337 N 
ATOM      7  H5  UNL     1      -0.625  52.716 -25.804  1.00  0.00     0.168 HD
HETATM    8  C19 UNL     1       0.637  54.092 -24.864  1.00  0.00     0.183 A 
HETATM    9  N6  UNL     1       1.277  54.561 -23.777  1.00  0.00    -0.342 N 
ATOM     10  H6  UNL     1       1.884  55.378 -23.841  1.00  0.00     0.167 HD
HETATM   11  C20 UNL     1       1.098  53.928 -22.599  1.00  0.00     0.095 A 
HETATM   12  C21 UNL     1       0.243  52.819 -22.552  1.00  0.00     0.076 A 
ENDROOT
BRANCH   1  13
HETATM   13  C4  UNL     1       0.046  51.803 -20.163  1.00  0.00    -0.004 A 
HETATM   14  C3  UNL     1      -0.327  50.681 -19.410  1.00  0.00     0.053 A 
HETATM   15  C2  UNL     1      -0.110  50.653 -18.027  1.00  0.00     0.095 A 
HETATM   16  C24 UNL     1       0.518  51.745 -17.390  1.00  0.00     0.068 A 
HETATM   17  C23 UNL     1       0.927  52.842 -18.148  1.00  0.00     0.033 A 
HETATM   18  C22 UNL     1       0.691  52.869 -19.525  1.00  0.00     0.016 A 
BRANCH  15  19
HETATM   19  O1  UNL     1      -0.477  49.618 -17.196  1.00  0.00    -0.354 OA
HETATM   20  C1  UNL     1      -1.373  48.646 -17.724  1.00  0.00     0.210 C 
ENDBRANCH  15  19
BRANCH  16  21
HETATM   21  N8  UNL     1       0.661  51.665 -15.988  1.00  0.00    -0.319 N 
HETATM   22  C25 UNL     1       1.802  51.772 -15.224  1.00  0.00     0.273 C 
HETATM   23  O3  UNL     1       2.941  51.843 -15.672  1.00  0.00    -0.266 OA
HETATM   24  H31 UNL     1      -0.203  51.445 -15.505  1.00  0.00     0.169 HD
BRANCH  22  25
HETATM   25  C26 UNL     1       1.533  51.763 -13.788  1.00  0.00     0.104 A 
HETATM   26  C27 UNL     1       0.522  52.404 -13.083  1.00  0.00     0.049 A 
HETATM   27  C28 UNL     1       0.685  52.139 -11.699  1.00  0.00    -0.007 A 
HETATM   28  C29 UNL     1      -0.026  52.527 -10.546  1.00  0.00     0.014 A 
HETATM   29  C33 UNL     1       1.810  51.325 -11.566  1.00  0.00     0.045 A 
HETATM   30  C30 UNL     1       0.402  52.088  -9.290  1.00  0.00     0.001 A 
HETATM   31  C31 UNL     1       1.525  51.274  -9.176  1.00  0.00     0.002 A 
HETATM   32  C32 UNL     1       2.249  50.881 -10.306  1.00  0.00     0.030 A 
HETATM   33  N9  UNL     1       2.309  51.113 -12.840  1.00  0.00    -0.346 N 
HETATM   34  C34 UNL     1       3.470  50.302 -13.150  1.00  0.00     0.156 C 
ENDBRANCH  22  25
ENDBRANCH  16  21
ENDBRANCH   1  13
BRANCH   4  35
HETATM   35  C6  UNL     1      -1.777  50.449 -24.419  1.00  0.00     0.113 C 
HETATM   36  C7  UNL     1      -2.931  51.200 -25.088  1.00  0.00     0.047 C 
HETATM   37  C8  UNL     1      -3.874  50.219 -25.774  1.00  0.00     0.119 C 
HETATM   38  N3  UNL     1      -4.523  49.343 -24.803  1.00  0.00    -0.408 N 
HETATM   39  C16 UNL     1      -3.709  48.969 -23.641  1.00  0.00     0.119 C 
HETATM   40  C17 UNL     1      -2.199  49.084 -23.854  1.00  0.00     0.047 C 
BRANCH  38  41
HETATM   41  C9  UNL     1      -5.349  48.256 -25.353  1.00  0.00     0.082 C 
HETATM   42  C10 UNL     1      -5.289  48.124 -26.889  1.00  0.00     0.045 C 
HETATM   43  C11 UNL     1      -6.608  47.662 -27.512  1.00  0.00     0.127 C 
HETATM   44  N4  UNL     1      -7.309  46.685 -26.688  1.00  0.00    -0.352 N 
HETATM   45  C12 UNL     1      -7.963  45.630 -27.311  1.00  0.00     0.215 C 
HETATM   46  C14 UNL     1      -7.543  47.043 -25.290  1.00  0.00     0.127 C 
HETATM   47  C13 UNL     1      -8.733  44.687 -26.419  1.00  0.00     0.117 C 
HETATM   48  O2  UNL     1      -7.925  45.441 -28.527  1.00  0.00    -0.274 OA
HETATM   49  C15 UNL     1      -6.800  48.304 -24.855  1.00  0.00     0.045 C 
ENDBRANCH  38  41
ENDBRANCH   4  35
BRANCH  11  50
HETATM   50  N7  UNL     1       1.824  54.429 -21.524  1.00  0.00    -0.288 NA
HETATM   51  H27 UNL     1       2.127  53.719 -20.866  1.00  0.00     0.125 HD
HETATM   52  H28 UNL     1       2.564  55.030 -21.869  1.00  0.00     0.125 HD
ENDBRANCH  11  50
TORSDOF 7
ENDMDL
MODEL 2
REMARK minimizedAffinity -9.85518551
REMARK CNNscore 0.341600329
REMARK CNNaffinity 7.53112745
REMARK  7 active torsions:
REMARK  status: ('A' for Active; 'I' for Inactive)
REMARK    1  A    between atoms: O1_2  and  C2_3 
REMARK    2  A    between atoms: C4_5  and  C5_6 
REMARK    3  A    between atoms: N2_9  and  C6_10 
REMARK    4  A    between atoms: N3_13  and  C9_14 
REMARK       I    between atoms: N4_17  and  C12_18 
REMARK    5  A    between atoms: C20_31  and  N7_32 
REMARK    6  A    between atoms: C24_36  and  N8_37 
REMARK       I    between atoms: N8_37  and  C25_38 
REMARK    7  A    between atoms: C25_38  and  C26_40 
ROOT
HETATM    1  C5  UNL     1      -0.215  51.743 -19.227  1.00  0.00     0.076 A 
HETATM    2  N1  UNL     1      -1.187  50.867 -19.538  1.00  0.00    -0.295 N 
ATOM      3  H1  UNL     1      -1.655  50.207 -18.916  1.00  0.00     0.187 HD
HETATM    4  N2  UNL     1      -1.406  51.055 -20.858  1.00  0.00    -0.270 N 
HETATM    5  C18 UNL     1      -0.596  52.012 -21.406  1.00  0.00     0.139 A 
HETATM    6  N5  UNL     1      -0.566  52.414 -22.686  1.00  0.00    -0.337 N 
ATOM      7  H5  UNL     1      -1.183  52.053 -23.413  1.00  0.00     0.168 HD
HETATM    8  C19 UNL     1       0.373  53.348 -22.893  1.00  0.00     0.183 A 
HETATM    9  N6  UNL     1       1.234  53.863 -21.997  1.00  0.00    -0.342 N 
ATOM     10  H6  UNL     1       1.917  54.568 -22.276  1.00  0.00     0.167 HD
HETATM   11  C20 UNL     1       1.176  53.429 -20.722  1.00  0.00     0.095 A 
HETATM   12  C21 UNL     1       0.213  52.470 -20.378  1.00  0.00     0.076 A 
ENDROOT
BRANCH   1  13
HETATM   13  C4  UNL     1       0.290  51.828 -17.856  1.00  0.00    -0.004 A 
HETATM   14  C3  UNL     1       1.500  52.475 -17.574  1.00  0.00     0.053 A 
HETATM   15  C2  UNL     1       2.007  52.492 -16.269  1.00  0.00     0.095 A 
HETATM   16  C24 UNL     1       1.279  51.884 -15.222  1.00  0.00     0.068 A 
HETATM   17  C23 UNL     1       0.053  51.278 -15.498  1.00  0.00     0.033 A 
HETATM   18  C22 UNL     1      -0.436  51.251 -16.807  1.00  0.00     0.016 A 
BRANCH  15  19
HETATM   19  O1  UNL     1       3.204  53.063 -15.898  1.00  0.00    -0.354 OA
HETATM   20  C1  UNL     1       4.392  52.349 -16.219  1.00  0.00     0.210 C 
ENDBRANCH  15  19
BRANCH  16  21
HETATM   21  N8  UNL     1       1.874  51.901 -13.943  1.00  0.00    -0.319 N 
HETATM   22  C25 UNL     1       1.334  52.301 -12.740  1.00  0.00     0.273 C 
HETATM   23  O3  UNL     1       0.240  52.836 -12.606  1.00  0.00    -0.266 OA
HETATM   24  H31 UNL     1       2.849  51.626 -13.946  1.00  0.00     0.169 HD
BRANCH  22  25
HETATM   25  C26 UNL     1       2.220  52.051 -11.604  1.00  0.00     0.104 A 
HETATM   26  C27 UNL     1       2.868  50.877 -11.242  1.00  0.00     0.049 A 
HETATM   27  C28 UNL     1       3.587  51.100 -10.040  1.00  0.00    -0.007 A 
HETATM   28  C29 UNL     1       4.401  50.283  -9.230  1.00  0.00     0.014 A 
HETATM   29  C33 UNL     1       3.370  52.428  -9.671  1.00  0.00     0.045 A 
HETATM   30  C30 UNL     1       4.980  50.814  -8.074  1.00  0.00     0.001 A 
HETATM   31  C31 UNL     1       4.756  52.142  -7.722  1.00  0.00     0.002 A 
HETATM   32  C32 UNL     1       3.948  52.970  -8.509  1.00  0.00     0.030 A 
HETATM   33  N9  UNL     1       2.539  52.983 -10.628  1.00  0.00    -0.346 N 
HETATM   34  C34 UNL     1       2.079  54.358 -10.629  1.00  0.00     0.156 C 
ENDBRANCH  22  25
ENDBRANCH  16  21
ENDBRANCH   1  13
BRANCH   4  35
HETATM   35  C6  UNL     1      -2.357  50.184 -21.539  1.00  0.00     0.113 C 
HETATM   36  C7  UNL     1      -1.700  48.858 -21.933  1.00  0.00     0.047 C 
HETATM   37  C8  UNL     1      -2.566  48.118 -22.944  1.00  0.00     0.119 C 
HETATM   38  N3  UNL     1      -2.670  48.861 -24.197  1.00  0.00    -0.408 N 
HETATM   39  C16 UNL     1      -2.685  50.322 -24.069  1.00  0.00     0.119 C 
HETATM   40  C17 UNL     1      -3.122  50.841 -22.699  1.00  0.00     0.047 C 
BRANCH  38  41
HETATM   41  C9  UNL     1      -3.596  48.320 -25.204  1.00  0.00     0.082 C 
HETATM   42  C10 UNL     1      -3.140  48.520 -26.664  1.00  0.00     0.045 C 
HETATM   43  C11 UNL     1      -4.299  48.743 -27.638  1.00  0.00     0.127 C 
HETATM   44  N4  UNL     1      -5.474  47.946 -27.308  1.00  0.00    -0.352 N 
HETATM   45  C12 UNL     1      -6.214  47.384 -28.340  1.00  0.00     0.215 C 
HETATM   46  C14 UNL     1      -5.978  48.046 -25.939  1.00  0.00     0.127 C 
HETATM   47  C13 UNL     1      -7.461  46.630 -27.949  1.00  0.00     0.117 C 
HETATM   48  O2  UNL     1      -5.887  47.470 -29.524  1.00  0.00    -0.274 OA
HETATM   49  C15 UNL     1      -5.039  48.801 -25.001  1.00  0.00     0.045 C 
ENDBRANCH  38  41
ENDBRANCH   4  35
BRANCH  11  50
HETATM   50  N7  UNL     1       2.124  53.961 -19.854  1.00  0.00    -0.288 NA
HETATM   51  H27 UNL     1       2.443  53.312 -19.144  1.00  0.00     0.125 HD
HETATM   52  H28 UNL     1       2.865  54.398 -20.392  1.00  0.00     0.125 HD
ENDBRANCH  11  50
TORSDOF 7
ENDMDL
MODEL 3
REMARK minimizedAffinity -9.12734413
REMARK CNNscore 0.303055316
REMARK CNNaffinity 7.70928431
REMARK  7 active torsions:
REMARK  status: ('A' for Active; 'I' for Inactive)
REMARK    1  A    between atoms: O1_2  and  C2_3 
REMARK    2  A    between atoms: C4_5  and  C5_6 
REMARK    3  A    between atoms: N2_9  and  C6_10 
REMARK    4  A    between atoms: N3_13  and  C9_14 
REMARK       I    between atoms: N4_17  and  C12_18 
REMARK    5  A    between atoms: C20_31  and  N7_32 
REMARK    6  A    between atoms: C24_36  and  N8_37 
REMARK       I    between atoms: N8_37  and  C25_38 
REMARK    7  A    between atoms: C25_38  and  C26_40 
ROOT
HETATM    1  C5  UNL     1      -0.708  51.238 -20.582  1.00  0.00     0.076 A 
HETATM    2  N1  UNL     1      -1.693  50.508 -21.135  1.00  0.00    -0.295 N 
ATOM      3  H1  UNL     1      -2.266  49.792 -20.688  1.00  0.00     0.187 HD
HETATM    4  N2  UNL     1      -1.752  50.934 -22.417  1.00  0.00    -0.270 N 
HETATM    5  C18 UNL     1      -0.830  51.901 -22.705  1.00  0.00     0.139 A 
HETATM    6  N5  UNL     1      -0.634  52.510 -23.885  1.00  0.00    -0.337 N 
ATOM      7  H5  UNL     1      -1.189  52.328 -24.722  1.00  0.00     0.168 HD
HETATM    8  C19 UNL     1       0.378  53.387 -23.832  1.00  0.00     0.183 A 
HETATM    9  N6  UNL     1       1.167  53.672 -22.779  1.00  0.00    -0.342 N 
ATOM     10  H6  UNL     1       1.919  54.357 -22.861  1.00  0.00     0.167 HD
HETATM   11  C20 UNL     1       0.942  53.034 -21.612  1.00  0.00     0.095 A 
HETATM   12  C21 UNL     1      -0.111  52.112 -21.539  1.00  0.00     0.076 A 
ENDROOT
BRANCH   1  13
HETATM   13  C4  UNL     1      -0.352  51.049 -19.174  1.00  0.00    -0.004 A 
HETATM   14  C3  UNL     1       0.333  52.044 -18.465  1.00  0.00     0.053 A 
HETATM   15  C2  UNL     1       0.727  51.826 -17.140  1.00  0.00     0.095 A 
HETATM   16  C24 UNL     1       0.403  50.610 -16.500  1.00  0.00     0.068 A 
HETATM   17  C23 UNL     1      -0.317  49.637 -17.194  1.00  0.00     0.033 A 
HETATM   18  C22 UNL     1      -0.691  49.857 -18.523  1.00  0.00     0.016 A 
BRANCH  15  19
HETATM   19  O1  UNL     1       1.439  52.722 -16.374  1.00  0.00    -0.354 OA
HETATM   20  C1  UNL     1       2.849  52.759 -16.560  1.00  0.00     0.210 C 
ENDBRANCH  15  19
BRANCH  16  21
HETATM   21  N8  UNL     1       0.872  50.443 -15.180  1.00  0.00    -0.319 N 
HETATM   22  C25 UNL     1       1.365  49.310 -14.570  1.00  0.00     0.273 C 
HETATM   23  O3  UNL     1       1.366  48.190 -15.068  1.00  0.00    -0.266 OA
HETATM   24  H31 UNL     1       0.774  51.273 -14.607  1.00  0.00     0.169 HD
BRANCH  22  25
HETATM   25  C26 UNL     1       1.876  49.560 -13.224  1.00  0.00     0.104 A 
HETATM   26  C27 UNL     1       1.182  49.620 -12.022  1.00  0.00     0.049 A 
HETATM   27  C28 UNL     1       2.092  49.931 -10.980  1.00  0.00    -0.007 A 
HETATM   28  C29 UNL     1       1.949  50.120  -9.590  1.00  0.00     0.014 A 
HETATM   29  C33 UNL     1       3.354  50.061 -11.560  1.00  0.00     0.045 A 
HETATM   30  C30 UNL     1       3.071  50.429  -8.816  1.00  0.00     0.001 A 
HETATM   31  C31 UNL     1       4.323  50.551  -9.411  1.00  0.00     0.002 A 
HETATM   32  C32 UNL     1       4.488  50.373 -10.788  1.00  0.00     0.030 A 
HETATM   33  N9  UNL     1       3.200  49.836 -12.917  1.00  0.00    -0.346 N 
HETATM   34  C34 UNL     1       4.277  49.859 -13.888  1.00  0.00     0.156 C 
ENDBRANCH  22  25
ENDBRANCH  16  21
ENDBRANCH   1  13
BRANCH   4  35
HETATM   35  C6  UNL     1      -2.676  50.270 -23.330  1.00  0.00     0.113 C 
HETATM   36  C7  UNL     1      -4.077  50.879 -23.230  1.00  0.00     0.047 C 
HETATM   37  C8  UNL     1      -5.100  49.966 -23.894  1.00  0.00     0.119 C 
HETATM   38  N3  UNL     1      -5.205  48.690 -23.191  1.00  0.00    -0.408 N 
HETATM   39  C16 UNL     1      -3.959  48.181 -22.608  1.00  0.00     0.119 C 
HETATM   40  C17 UNL     1      -2.683  48.735 -23.241  1.00  0.00     0.047 C 
BRANCH  38  41
HETATM   41  C9  UNL     1      -6.056  47.667 -23.819  1.00  0.00     0.082 C 
HETATM   42  C10 UNL     1      -6.380  47.929 -25.305  1.00  0.00     0.045 C 
HETATM   43  C11 UNL     1      -7.773  47.451 -25.717  1.00  0.00     0.127 C 
HETATM   44  N4  UNL     1      -8.161  46.210 -25.059  1.00  0.00    -0.352 N 
HETATM   45  C12 UNL     1      -8.867  45.259 -25.784  1.00  0.00     0.215 C 
HETATM   46  C14 UNL     1      -8.058  46.173 -23.601  1.00  0.00     0.127 C 
HETATM   47  C13 UNL     1      -9.308  44.024 -25.038  1.00  0.00     0.117 C 
HETATM   48  O2  UNL     1      -9.126  45.384 -26.981  1.00  0.00    -0.274 OA
HETATM   49  C15 UNL     1      -7.331  47.380 -23.014  1.00  0.00     0.045 C 
ENDBRANCH  38  41
ENDBRANCH   4  35
BRANCH  11  50
HETATM   50  N7  UNL     1       1.820  53.334 -20.576  1.00  0.00    -0.288 NA
HETATM   51  H27 UNL     1       2.018  52.551 -19.965  1.00  0.00     0.125 HD
HETATM   52  H28 UNL     1       2.641  53.795 -20.954  1.00  0.00     0.125 HD
ENDBRANCH  11  50
TORSDOF 7
ENDMDL
MODEL 4
REMARK minimizedAffinity -10.3698559
REMARK CNNscore 0.242421895
REMARK CNNaffinity 7.6700592
REMARK  7 active torsions:
REMARK  status: ('A' for Active; 'I' for Inactive)
REMARK    1  A    between atoms: O1_2  and  C2_3 
REMARK    2  A    between atoms: C4_5  and  C5_6 
REMARK    3  A    between atoms: N2_9  and  C6_10 
REMARK    4  A    between atoms: N3_13  and  C9_14 
REMARK       I    between atoms: N4_17  and  C12_18 
REMARK    5  A    between atoms: C20_31  and  N7_32 
REMARK    6  A    between atoms: C24_36  and  N8_37 
REMARK       I    between atoms: N8_37  and  C25_38 
REMARK    7  A    between atoms: C25_38  and  C26_40 
ROOT
HETATM    1  C5  UNL     1      -1.065  51.905 -22.417  1.00  0.00     0.076 A 
HETATM    2  N1  UNL     1      -1.224  51.646 -21.107  1.00  0.00    -0.295 N 
ATOM      3  H1  UNL     1      -1.886  51.001 -20.675  1.00  0.00     0.187 HD
HETATM    4  N2  UNL     1      -0.312  52.431 -20.492  1.00  0.00    -0.270 N 
HETATM    5  C18 UNL     1       0.415  53.194 -21.364  1.00  0.00     0.139 A 
HETATM    6  N5  UNL     1       1.381  54.076 -21.059  1.00  0.00    -0.337 N 
ATOM      7  H5  UNL     1       1.706  54.263 -20.110  1.00  0.00     0.168 HD
HETATM    8  C19 UNL     1       1.865  54.681 -22.152  1.00  0.00     0.183 A 
HETATM    9  N6  UNL     1       1.482  54.505 -23.430  1.00  0.00    -0.342 N 
ATOM     10  H6  UNL     1       1.921  55.034 -24.184  1.00  0.00     0.167 HD
HETATM   11  C20 UNL     1       0.504  53.614 -23.694  1.00  0.00     0.095 A 
HETATM   12  C21 UNL     1      -0.062  52.898 -22.630  1.00  0.00     0.076 A 
ENDROOT
BRANCH   1  13
HETATM   13  C4  UNL     1      -1.898  51.224 -23.410  1.00  0.00    -0.004 A 
HETATM   14  C3  UNL     1      -1.987  51.702 -24.724  1.00  0.00     0.053 A 
HETATM   15  C2  UNL     1      -2.838  51.082 -25.647  1.00  0.00     0.095 A 
HETATM   16  C24 UNL     1      -3.586  49.947 -25.264  1.00  0.00     0.068 A 
HETATM   17  C23 UNL     1      -3.463  49.447 -23.968  1.00  0.00     0.033 A 
HETATM   18  C22 UNL     1      -2.623  50.083 -23.048  1.00  0.00     0.016 A 
BRANCH  15  19
HETATM   19  O1  UNL     1      -3.027  51.500 -26.945  1.00  0.00    -0.354 OA
HETATM   20  C1  UNL     1      -2.167  52.526 -27.430  1.00  0.00     0.210 C 
ENDBRANCH  15  19
BRANCH  16  21
HETATM   21  N8  UNL     1      -4.456  49.404 -26.233  1.00  0.00    -0.319 N 
HETATM   22  C25 UNL     1      -4.184  48.495 -27.232  1.00  0.00     0.273 C 
HETATM   23  O3  UNL     1      -3.066  48.082 -27.519  1.00  0.00    -0.266 OA
HETATM   24  H31 UNL     1      -5.391  49.794 -26.202  1.00  0.00     0.169 HD
BRANCH  22  25
HETATM   25  C26 UNL     1      -5.378  48.073 -27.962  1.00  0.00     0.104 A 
HETATM   26  C27 UNL     1      -5.599  48.042 -29.333  1.00  0.00     0.049 A 
HETATM   27  C28 UNL     1      -6.924  47.599 -29.576  1.00  0.00    -0.007 A 
HETATM   28  C29 UNL     1      -7.677  47.386 -30.749  1.00  0.00     0.014 A 
HETATM   29  C33 UNL     1      -7.512  47.358 -28.334  1.00  0.00     0.045 A 
HETATM   30  C30 UNL     1      -8.996  46.935 -30.650  1.00  0.00     0.001 A 
HETATM   31  C31 UNL     1      -9.566  46.697 -29.403  1.00  0.00     0.002 A 
HETATM   32  C32 UNL     1      -8.839  46.906 -28.226  1.00  0.00     0.030 A 
HETATM   33  N9  UNL     1      -6.561  47.654 -27.373  1.00  0.00    -0.346 N 
HETATM   34  C34 UNL     1      -6.761  47.523 -25.942  1.00  0.00     0.156 C 
ENDBRANCH  22  25
ENDBRANCH  16  21
ENDBRANCH   1  13
BRANCH   4  35
HETATM   35  C6  UNL     1      -0.282  52.454 -19.034  1.00  0.00     0.113 C 
HETATM   36  C7  UNL     1       1.144  52.669 -18.519  1.00  0.00     0.047 C 
HETATM   37  C8  UNL     1       1.227  52.331 -17.036  1.00  0.00     0.119 C 
HETATM   38  N3  UNL     1       0.965  50.914 -16.801  1.00  0.00    -0.408 N 
HETATM   39  C16 UNL     1      -0.020  50.294 -17.693  1.00  0.00     0.119 C 
HETATM   40  C17 UNL     1      -0.992  51.273 -18.353  1.00  0.00     0.047 C 
BRANCH  38  41
HETATM   41  C9  UNL     1       0.875  50.491 -15.394  1.00  0.00     0.082 C 
HETATM   42  C10 UNL     1       2.136  50.791 -14.556  1.00  0.00     0.045 C 
HETATM   43  C11 UNL     1       2.415  49.739 -13.480  1.00  0.00     0.127 C 
HETATM   44  N4  UNL     1       1.197  49.221 -12.869  1.00  0.00    -0.352 N 
HETATM   45  C12 UNL     1       1.189  48.963 -11.504  1.00  0.00     0.215 C 
HETATM   46  C14 UNL     1       0.166  48.713 -13.773  1.00  0.00     0.127 C 
HETATM   47  C13 UNL     1      -0.071  48.360 -10.934  1.00  0.00     0.117 C 
HETATM   48  O2  UNL     1       2.144  49.214 -10.769  1.00  0.00    -0.274 OA
HETATM   49  C15 UNL     1       0.442  49.026 -15.242  1.00  0.00     0.045 C 
ENDBRANCH  38  41
ENDBRANCH   4  35
BRANCH  11  50
HETATM   50  N7  UNL     1       0.117  53.513 -25.026  1.00  0.00    -0.288 NA
HETATM   51  H27 UNL     1      -0.870  53.322 -25.155  1.00  0.00     0.125 HD
HETATM   52  H28 UNL     1       0.463  54.317 -25.539  1.00  0.00     0.125 HD
ENDBRANCH  11  50
TORSDOF 7
ENDMDL
MODEL 5
REMARK minimizedAffinity -9.54735184
REMARK CNNscore 0.218963265
REMARK CNNaffinity 7.45013666
REMARK  7 active torsions:
REMARK  status: ('A' for Active; 'I' for Inactive)
REMARK    1  A    between atoms: O1_2  and  C2_3 
REMARK    2  A    between atoms: C4_5  and  C5_6 
REMARK    3  A    between atoms: N2_9  and  C6_10 
REMARK    4  A    between atoms: N3_13  and  C9_14 
REMARK       I    between atoms: N4_17  and  C12_18 
REMARK    5  A    between atoms: C20_31  and  N7_32 
REMARK    6  A    between atoms: C24_36  and  N8_37 
REMARK       I    between atoms: N8_37  and  C25_38 
REMARK    7  A    between atoms: C25_38  and  C26_40 
ROOT
HETATM    1  C5  UNL     1       0.265  50.857 -15.648  1.00  0.00     0.076 A 
HETATM    2  N1  UNL     1      -0.706  50.215 -14.974  1.00  0.00    -0.295 N 
ATOM      3  H1  UNL     1      -1.582  49.846 -15.342  1.00  0.00     0.187 HD
HETATM    4  N2  UNL     1      -0.260  50.169 -13.698  1.00  0.00    -0.270 N 
HETATM    5  C18 UNL     1       0.956  50.772 -13.532  1.00  0.00     0.139 A 
HETATM    6  N5  UNL     1       1.649  50.899 -12.389  1.00  0.00    -0.337 N 
ATOM      7  H5  UNL     1       1.344  50.525 -11.490  1.00  0.00     0.168 HD
HETATM    8  C19 UNL     1       2.790  51.578 -12.571  1.00  0.00     0.183 A 
HETATM    9  N6  UNL     1       3.255  52.117 -13.713  1.00  0.00    -0.342 N 
ATOM     10  H6  UNL     1       4.140  52.624 -13.728  1.00  0.00     0.167 HD
HETATM   11  C20 UNL     1       2.526  51.973 -14.839  1.00  0.00     0.095 A 
HETATM   12  C21 UNL     1       1.323  51.256 -14.777  1.00  0.00     0.076 A 
ENDROOT
BRANCH   1  13
HETATM   13  C4  UNL     1       0.129  51.096 -17.086  1.00  0.00    -0.004 A 
HETATM   14  C3  UNL     1      -0.406  50.114 -17.931  1.00  0.00     0.053 A 
HETATM   15  C2  UNL     1      -0.468  50.328 -19.313  1.00  0.00     0.095 A 
HETATM   16  C24 UNL     1      -0.023  51.552 -19.858  1.00  0.00     0.068 A 
HETATM   17  C23 UNL     1       0.469  52.544 -19.011  1.00  0.00     0.033 A 
HETATM   18  C22 UNL     1       0.544  52.315 -17.633  1.00  0.00     0.016 A 
BRANCH  15  19
HETATM   19  O1  UNL     1      -0.936  49.411 -20.228  1.00  0.00    -0.354 OA
HETATM   20  C1  UNL     1      -2.295  49.006 -20.106  1.00  0.00     0.210 C 
ENDBRANCH  15  19
BRANCH  16  21
HETATM   21  N8  UNL     1      -0.074  51.676 -21.263  1.00  0.00    -0.319 N 
HETATM   22  C25 UNL     1       0.358  52.714 -22.059  1.00  0.00     0.273 C 
HETATM   23  O3  UNL     1       0.771  53.791 -21.643  1.00  0.00    -0.266 OA
HETATM   24  H31 UNL     1      -0.547  50.905 -21.721  1.00  0.00     0.169 HD
BRANCH  22  25
HETATM   25  C26 UNL     1       0.252  52.423 -23.487  1.00  0.00     0.104 A 
HETATM   26  C27 UNL     1       1.062  52.852 -24.530  1.00  0.00     0.049 A 
HETATM   27  C28 UNL     1       0.546  52.350 -25.752  1.00  0.00    -0.007 A 
HETATM   28  C29 UNL     1       0.947  52.469 -27.098  1.00  0.00     0.014 A 
HETATM   29  C33 UNL     1      -0.594  51.607 -25.442  1.00  0.00     0.045 A 
HETATM   30  C30 UNL     1       0.202  51.840 -28.099  1.00  0.00     0.001 A 
HETATM   31  C31 UNL     1      -0.930  51.100 -27.772  1.00  0.00     0.002 A 
HETATM   32  C32 UNL     1      -1.350  50.972 -26.444  1.00  0.00     0.030 A 
HETATM   33  N9  UNL     1      -0.755  51.668 -24.069  1.00  0.00    -0.346 N 
HETATM   34  C34 UNL     1      -1.816  51.011 -23.330  1.00  0.00     0.156 C 
ENDBRANCH  22  25
ENDBRANCH  16  21
ENDBRANCH   1  13
BRANCH   4  35
HETATM   35  C6  UNL     1      -1.133  49.603 -12.675  1.00  0.00     0.113 C 
HETATM   36  C7  UNL     1      -1.971  48.455 -13.244  1.00  0.00     0.047 C 
HETATM   37  C8  UNL     1      -3.118  48.119 -12.300  1.00  0.00     0.119 C 
HETATM   38  N3  UNL     1      -4.054  49.233 -12.187  1.00  0.00    -0.408 N 
HETATM   39  C16 UNL     1      -3.460  50.572 -12.254  1.00  0.00     0.119 C 
HETATM   40  C17 UNL     1      -1.973  50.631 -11.901  1.00  0.00     0.047 C 
BRANCH  38  41
HETATM   41  C9  UNL     1      -5.130  49.085 -11.193  1.00  0.00     0.082 C 
HETATM   42  C10 UNL     1      -4.639  48.781  -9.762  1.00  0.00     0.045 C 
HETATM   43  C11 UNL     1      -5.585  47.872  -8.975  1.00  0.00     0.127 C 
HETATM   44  N4  UNL     1      -6.990  48.138  -9.260  1.00  0.00    -0.352 N 
HETATM   45  C12 UNL     1      -7.907  48.082  -8.219  1.00  0.00     0.215 C 
HETATM   46  C14 UNL     1      -7.391  48.139 -10.666  1.00  0.00     0.127 C 
HETATM   47  C13 UNL     1      -9.357  48.294  -8.579  1.00  0.00     0.117 C 
HETATM   48  O2  UNL     1      -7.582  47.884  -7.048  1.00  0.00    -0.274 OA
HETATM   49  C15 UNL     1      -6.211  48.090 -11.634  1.00  0.00     0.045 C 
ENDBRANCH  38  41
ENDBRANCH   4  35
BRANCH  11  50
HETATM   50  N7  UNL     1       3.033  52.595 -15.975  1.00  0.00    -0.288 NA
HETATM   51  H27 UNL     1       2.320  52.957 -16.599  1.00  0.00     0.125 HD
HETATM   52  H28 UNL     1       3.739  53.269 -15.702  1.00  0.00     0.125 HD
ENDBRANCH  11  50
TORSDOF 7
ENDMDL
MODEL 6
REMARK minimizedAffinity -11.0552177
REMARK CNNscore 0.201165497
REMARK CNNaffinity 7.64173889
REMARK  7 active torsions:
REMARK  status: ('A' for Active; 'I' for Inactive)
REMARK    1  A    between atoms: O1_2  and  C2_3 
REMARK    2  A    between atoms: C4_5  and  C5_6 
REMARK    3  A    between atoms: N2_9  and  C6_10 
REMARK    4  A    between atoms: N3_13  and  C9_14 
REMARK       I    between atoms: N4_17  and  C12_18 
REMARK    5  A    between atoms: C20_31  and  N7_32 
REMARK    6  A    between atoms: C24_36  and  N8_37 
REMARK       I    between atoms: N8_37  and  C25_38 
REMARK    7  A    between atoms: C25_38  and  C26_40 
ROOT
HETATM    1  C5  UNL     1      -0.985  51.411 -24.548  1.00  0.00     0.076 A 
HETATM    2  N1  UNL     1      -1.641  50.378 -25.107  1.00  0.00    -0.295 N 
ATOM      3  H1  UNL     1      -1.973  49.529 -24.650  1.00  0.00     0.187 HD
HETATM    4  N2  UNL     1      -1.763  50.717 -26.410  1.00  0.00    -0.270 N 
HETATM    5  C18 UNL     1      -1.194  51.925 -26.706  1.00  0.00     0.139 A 
HETATM    6  N5  UNL     1      -1.141  52.524 -27.906  1.00  0.00    -0.337 N 
ATOM      7  H5  UNL     1      -1.555  52.141 -28.756  1.00  0.00     0.168 HD
HETATM    8  C19 UNL     1      -0.478  53.688 -27.853  1.00  0.00     0.183 A 
HETATM    9  N6  UNL     1       0.110  54.253 -26.783  1.00  0.00    -0.342 N 
ATOM     10  H6  UNL     1       0.599  55.145 -26.867  1.00  0.00     0.167 HD
HETATM   11  C20 UNL     1       0.040  53.617 -25.596  1.00  0.00     0.095 A 
HETATM   12  C21 UNL     1      -0.654  52.401 -25.522  1.00  0.00     0.076 A 
ENDROOT
BRANCH   1  13
HETATM   13  C4  UNL     1      -0.670  51.398 -23.119  1.00  0.00    -0.004 A 
HETATM   14  C3  UNL     1       0.232  52.321 -22.572  1.00  0.00     0.053 A 
HETATM   15  C2  UNL     1       0.577  52.257 -21.217  1.00  0.00     0.095 A 
HETATM   16  C24 UNL     1      -0.011  51.278 -20.386  1.00  0.00     0.068 A 
HETATM   17  C23 UNL     1      -0.941  50.388 -20.923  1.00  0.00     0.033 A 
HETATM   18  C22 UNL     1      -1.267  50.449 -22.281  1.00  0.00     0.016 A 
BRANCH  15  19
HETATM   19  O1  UNL     1       1.482  53.089 -20.597  1.00  0.00    -0.354 OA
HETATM   20  C1  UNL     1       1.734  54.348 -21.211  1.00  0.00     0.210 C 
ENDBRANCH  15  19
BRANCH  16  21
HETATM   21  N8  UNL     1       0.420  51.245 -19.043  1.00  0.00    -0.319 N 
HETATM   22  C25 UNL     1      -0.323  51.375 -17.889  1.00  0.00     0.273 C 
HETATM   23  O3  UNL     1      -1.513  51.667 -17.851  1.00  0.00    -0.266 OA
HETATM   24  H31 UNL     1       1.425  51.167 -18.942  1.00  0.00     0.169 HD
BRANCH  22  25
HETATM   25  C26 UNL     1       0.462  51.157 -16.676  1.00  0.00     0.104 A 
HETATM   26  C27 UNL     1       1.349  52.017 -16.041  1.00  0.00     0.049 A 
HETATM   27  C28 UNL     1       1.908  51.356 -14.918  1.00  0.00    -0.007 A 
HETATM   28  C29 UNL     1       2.847  51.734 -13.937  1.00  0.00     0.014 A 
HETATM   29  C33 UNL     1       1.351  50.078 -14.873  1.00  0.00     0.045 A 
HETATM   30  C30 UNL     1       3.202  50.827 -12.934  1.00  0.00     0.001 A 
HETATM   31  C31 UNL     1       2.633  49.557 -12.903  1.00  0.00     0.002 A 
HETATM   32  C32 UNL     1       1.703  49.159 -13.869  1.00  0.00     0.030 A 
HETATM   33  N9  UNL     1       0.482  49.978 -15.946  1.00  0.00    -0.346 N 
HETATM   34  C34 UNL     1      -0.319  48.810 -16.257  1.00  0.00     0.156 C 
ENDBRANCH  22  25
ENDBRANCH  16  21
ENDBRANCH   1  13
BRANCH   4  35
HETATM   35  C6  UNL     1      -2.362  49.755 -27.327  1.00  0.00     0.113 C 
HETATM   36  C7  UNL     1      -3.432  50.421 -28.197  1.00  0.00     0.047 C 
HETATM   37  C8  UNL     1      -4.293  49.365 -28.878  1.00  0.00     0.119 C 
HETATM   38  N3  UNL     1      -5.050  48.588 -27.900  1.00  0.00    -0.408 N 
HETATM   39  C16 UNL     1      -4.373  48.346 -26.621  1.00  0.00     0.119 C 
HETATM   40  C17 UNL     1      -2.849  48.452 -26.673  1.00  0.00     0.047 C 
BRANCH  38  41
HETATM   41  C9  UNL     1      -5.811  47.442 -28.422  1.00  0.00     0.082 C 
HETATM   42  C10 UNL     1      -5.801  47.317 -29.960  1.00  0.00     0.045 C 
HETATM   43  C11 UNL     1      -7.104  46.757 -30.533  1.00  0.00     0.127 C 
HETATM   44  N4  UNL     1      -7.695  45.727 -29.687  1.00  0.00    -0.352 N 
HETATM   45  C12 UNL     1      -8.291  44.626 -30.288  1.00  0.00     0.215 C 
HETATM   46  C14 UNL     1      -7.902  46.065 -28.279  1.00  0.00     0.127 C 
HETATM   47  C13 UNL     1      -8.951  43.626 -29.372  1.00  0.00     0.117 C 
HETATM   48  O2  UNL     1      -8.285  44.442 -31.506  1.00  0.00    -0.274 OA
HETATM   49  C15 UNL     1      -7.241  47.378 -27.868  1.00  0.00     0.045 C 
ENDBRANCH  38  41
ENDBRANCH   4  35
BRANCH  11  50
HETATM   50  N7  UNL     1       0.709  54.225 -24.539  1.00  0.00    -0.288 NA
HETATM   51  H27 UNL     1       1.118  53.572 -23.880  1.00  0.00     0.125 HD
HETATM   52  H28 UNL     1       1.354  54.918 -24.904  1.00  0.00     0.125 HD
ENDBRANCH  11  50
TORSDOF 7
ENDMDL
MODEL 7
REMARK minimizedAffinity -9.29639626
REMARK CNNscore 0.16752553
REMARK CNNaffinity 7.00845289
REMARK  7 active torsions:
REMARK  status: ('A' for Active; 'I' for Inactive)
REMARK    1  A    between atoms: O1_2  and  C2_3 
REMARK    2  A    between atoms: C4_5  and  C5_6 
REMARK    3  A    between atoms: N2_9  and  C6_10 
REMARK    4  A    between atoms: N3_13  and  C9_14 
REMARK       I    between atoms: N4_17  and  C12_18 
REMARK    5  A    between atoms: C20_31  and  N7_32 
REMARK    6  A    between atoms: C24_36  and  N8_37 
REMARK       I    between atoms: N8_37  and  C25_38 
REMARK    7  A    between atoms: C25_38  and  C26_40 
ROOT
HETATM    1  C5  UNL     1      -0.731  51.100 -19.781  1.00  0.00     0.076 A 
HETATM    2  N1  UNL     1      -1.832  50.330 -19.855  1.00  0.00    -0.295 N 
ATOM      3  H1  UNL     1      -2.273  49.799 -19.104  1.00  0.00     0.187 HD
HETATM    4  N2  UNL     1      -2.221  50.418 -21.146  1.00  0.00    -0.270 N 
HETATM    5  C18 UNL     1      -1.399  51.206 -21.903  1.00  0.00     0.139 A 
HETATM    6  N5  UNL     1      -1.514  51.475 -23.214  1.00  0.00    -0.337 N 
ATOM      7  H5  UNL     1      -2.270  51.128 -23.804  1.00  0.00     0.168 HD
HETATM    8  C19 UNL     1      -0.517  52.257 -23.651  1.00  0.00     0.183 A 
HETATM    9  N6  UNL     1       0.521  52.741 -22.944  1.00  0.00    -0.342 N 
ATOM     10  H6  UNL     1       1.230  53.322 -23.392  1.00  0.00     0.167 HD
HETATM   11  C20 UNL     1       0.605  52.442 -21.632  1.00  0.00     0.095 A 
HETATM   12  C21 UNL     1      -0.399  51.653 -21.054  1.00  0.00     0.076 A 
ENDROOT
BRANCH   1  13
HETATM   13  C4  UNL     1      -0.022  51.251 -18.509  1.00  0.00    -0.004 A 
HETATM   14  C3  UNL     1       0.053  50.190 -17.597  1.00  0.00     0.053 A 
HETATM   15  C2  UNL     1       0.677  50.367 -16.356  1.00  0.00     0.095 A 
HETATM   16  C24 UNL     1       1.265  51.609 -16.033  1.00  0.00     0.068 A 
HETATM   17  C23 UNL     1       1.227  52.650 -16.960  1.00  0.00     0.033 A 
HETATM   18  C22 UNL     1       0.587  52.471 -18.190  1.00  0.00     0.016 A 
BRANCH  15  19
HETATM   19  O1  UNL     1       0.765  49.402 -15.377  1.00  0.00    -0.354 OA
HETATM   20  C1  UNL     1      -0.456  48.870 -14.876  1.00  0.00     0.210 C 
ENDBRANCH  15  19
BRANCH  16  21
HETATM   21  N8  UNL     1       1.834  51.726 -14.747  1.00  0.00    -0.319 N 
HETATM   22  C25 UNL     1       1.221  52.023 -13.550  1.00  0.00     0.273 C 
HETATM   23  O3  UNL     1       0.048  52.361 -13.427  1.00  0.00    -0.266 OA
HETATM   24  H31 UNL     1       2.842  51.624 -14.739  1.00  0.00     0.169 HD
BRANCH  22  25
HETATM   25  C26 UNL     1       2.124  51.928 -12.404  1.00  0.00     0.104 A 
HETATM   26  C27 UNL     1       3.133  51.006 -12.160  1.00  0.00     0.049 A 
HETATM   27  C28 UNL     1       3.716  51.284 -10.897  1.00  0.00    -0.007 A 
HETATM   28  C29 UNL     1       4.751  50.684 -10.153  1.00  0.00     0.014 A 
HETATM   29  C33 UNL     1       3.049  52.390 -10.371  1.00  0.00     0.045 A 
HETATM   30  C30 UNL     1       5.097  51.208  -8.904  1.00  0.00     0.001 A 
HETATM   31  C31 UNL     1       4.424  52.314  -8.396  1.00  0.00     0.002 A 
HETATM   32  C32 UNL     1       3.389  52.923  -9.115  1.00  0.00     0.030 A 
HETATM   33  N9  UNL     1       2.089  52.762 -11.296  1.00  0.00    -0.346 N 
HETATM   34  C34 UNL     1       1.183  53.884 -11.145  1.00  0.00     0.156 C 
ENDBRANCH  22  25
ENDBRANCH  16  21
ENDBRANCH   1  13
BRANCH   4  35
HETATM   35  C6  UNL     1      -3.356  49.614 -21.588  1.00  0.00     0.113 C 
HETATM   36  C7  UNL     1      -3.037  48.892 -22.900  1.00  0.00     0.047 C 
HETATM   37  C8  UNL     1      -4.316  48.362 -23.536  1.00  0.00     0.119 C 
HETATM   38  N3  UNL     1      -5.204  49.454 -23.927  1.00  0.00    -0.408 N 
HETATM   39  C16 UNL     1      -5.192  50.628 -23.048  1.00  0.00     0.119 C 
HETATM   40  C17 UNL     1      -4.700  50.358 -21.626  1.00  0.00     0.047 C 
BRANCH  38  41
HETATM   41  C9  UNL     1      -6.535  49.068 -24.423  1.00  0.00     0.082 C 
HETATM   42  C10 UNL     1      -7.601  48.893 -23.321  1.00  0.00     0.045 C 
HETATM   43  C11 UNL     1      -8.620  47.795 -23.631  1.00  0.00     0.127 C 
HETATM   44  N4  UNL     1      -8.966  47.730 -25.046  1.00  0.00    -0.352 N 
HETATM   45  C12 UNL     1     -10.283  47.471 -25.402  1.00  0.00     0.215 C 
HETATM   46  C14 UNL     1      -7.858  47.631 -25.995  1.00  0.00     0.127 C 
HETATM   47  C13 UNL     1     -10.575  47.343 -26.877  1.00  0.00     0.117 C 
HETATM   48  O2  UNL     1     -11.191  47.359 -24.578  1.00  0.00    -0.274 OA
HETATM   49  C15 UNL     1      -6.490  47.849 -25.353  1.00  0.00     0.045 C 
ENDBRANCH  38  41
ENDBRANCH   4  35
BRANCH  11  50
HETATM   50  N7  UNL     1       1.725  52.929 -20.967  1.00  0.00    -0.288 NA
HETATM   51  H27 UNL     1       2.071  52.316 -20.239  1.00  0.00     0.125 HD
HETATM   52  H28 UNL     1       2.422  53.213 -21.647  1.00  0.00     0.125 HD
ENDBRANCH  11  50
TORSDOF 7
ENDMDL
MODEL 8
REMARK minimizedAffinity -9.20890522
REMARK CNNscore 0.1590399
REMARK CNNaffinity 7.35257912
REMARK  7 active torsions:
REMARK  status: ('A' for Active; 'I' for Inactive)
REMARK    1  A    between atoms: O1_2  and  C2_3 
REMARK    2  A    between atoms: C4_5  and  C5_6 
REMARK    3  A    between atoms: N2_9  and  C6_10 
REMARK    4  A    between atoms: N3_13  and  C9_14 
REMARK       I    between atoms: N4_17  and  C12_18 
REMARK    5  A    between atoms: C20_31  and  N7_32 
REMARK    6  A    between atoms: C24_36  and  N8_37 
REMARK       I    between atoms: N8_37  and  C25_38 
REMARK    7  A    between atoms: C25_38  and  C26_40 
ROOT
HETATM    1  C5  UNL     1      -1.011  51.299 -20.373  1.00  0.00     0.076 A 
HETATM    2  N1  UNL     1      -1.711  50.475 -21.173  1.00  0.00    -0.295 N 
ATOM      3  H1  UNL     1      -2.334  49.716 -20.896  1.00  0.00     0.187 HD
HETATM    4  N2  UNL     1      -1.406  50.878 -22.426  1.00  0.00    -0.270 N 
HETATM    5  C18 UNL     1      -0.523  51.922 -22.455  1.00  0.00     0.139 A 
HETATM    6  N5  UNL     1      -0.022  52.532 -23.541  1.00  0.00    -0.337 N 
ATOM      7  H5  UNL     1      -0.272  52.289 -24.500  1.00  0.00     0.168 HD
HETATM    8  C19 UNL     1       0.848  53.498 -23.214  1.00  0.00     0.183 A 
HETATM    9  N6  UNL     1       1.244  53.867 -21.982  1.00  0.00    -0.342 N 
ATOM     10  H6  UNL     1       1.925  54.616 -21.856  1.00  0.00     0.167 HD
HETATM   11  C20 UNL     1       0.722  53.226 -20.916  1.00  0.00     0.095 A 
HETATM   12  C21 UNL     1      -0.221  52.212 -21.134  1.00  0.00     0.076 A 
ENDROOT
BRANCH   1  13
HETATM   13  C4  UNL     1      -1.095  51.161 -18.918  1.00  0.00    -0.004 A 
HETATM   14  C3  UNL     1       0.059  50.977 -18.144  1.00  0.00     0.053 A 
HETATM   15  C2  UNL     1      -0.039  50.779 -16.762  1.00  0.00     0.095 A 
HETATM   16  C24 UNL     1      -1.305  50.798 -16.135  1.00  0.00     0.068 A 
HETATM   17  C23 UNL     1      -2.448  51.024 -16.901  1.00  0.00     0.033 A 
HETATM   18  C22 UNL     1      -2.342  51.204 -18.283  1.00  0.00     0.016 A 
BRANCH  15  19
HETATM   19  O1  UNL     1       1.029  50.548 -15.924  1.00  0.00    -0.354 OA
HETATM   20  C1  UNL     1       2.127  51.450 -16.007  1.00  0.00     0.210 C 
ENDBRANCH  15  19
BRANCH  16  21
HETATM   21  N8  UNL     1      -1.329  50.546 -14.747  1.00  0.00    -0.319 N 
HETATM   22  C25 UNL     1      -0.980  51.379 -13.707  1.00  0.00     0.273 C 
HETATM   23  O3  UNL     1      -0.463  52.483 -13.836  1.00  0.00    -0.266 OA
HETATM   24  H31 UNL     1      -1.592  49.595 -14.513  1.00  0.00     0.169 HD
BRANCH  22  25
HETATM   25  C26 UNL     1      -1.262  50.804 -12.393  1.00  0.00     0.104 A 
HETATM   26  C27 UNL     1      -0.530  49.869 -11.672  1.00  0.00     0.049 A 
HETATM   27  C28 UNL     1      -1.216  49.579 -10.465  1.00  0.00    -0.007 A 
HETATM   28  C29 UNL     1      -0.949  48.721  -9.379  1.00  0.00     0.014 A 
HETATM   29  C33 UNL     1      -2.379  50.349 -10.456  1.00  0.00     0.045 A 
HETATM   30  C30 UNL     1      -1.848  48.658  -8.311  1.00  0.00     0.001 A 
HETATM   31  C31 UNL     1      -3.002  49.436  -8.318  1.00  0.00     0.002 A 
HETATM   32  C32 UNL     1      -3.290  50.291  -9.387  1.00  0.00     0.030 A 
HETATM   33  N9  UNL     1      -2.388  51.079 -11.632  1.00  0.00    -0.346 N 
HETATM   34  C34 UNL     1      -3.421  52.024 -12.012  1.00  0.00     0.156 C 
ENDBRANCH  22  25
ENDBRANCH  16  21
ENDBRANCH   1  13
BRANCH   4  35
HETATM   35  C6  UNL     1      -1.942  50.121 -23.552  1.00  0.00     0.113 C 
HETATM   36  C7  UNL     1      -2.909  50.976 -24.375  1.00  0.00     0.047 C 
HETATM   37  C8  UNL     1      -3.731  50.096 -25.308  1.00  0.00     0.119 C 
HETATM   38  N3  UNL     1      -4.594  49.189 -24.556  1.00  0.00    -0.408 N 
HETATM   39  C16 UNL     1      -4.045  48.693 -23.290  1.00  0.00     0.119 C 
HETATM   40  C17 UNL     1      -2.520  48.744 -23.190  1.00  0.00     0.047 C 
BRANCH  38  41
HETATM   41  C9  UNL     1      -5.333  48.188 -25.342  1.00  0.00     0.082 C 
HETATM   42  C10 UNL     1      -5.038  48.221 -26.857  1.00  0.00     0.045 C 
HETATM   43  C11 UNL     1      -6.249  47.861 -27.720  1.00  0.00     0.127 C 
HETATM   44  N4  UNL     1      -7.074  46.816 -27.125  1.00  0.00    -0.352 N 
HETATM   45  C12 UNL     1      -7.632  45.850 -27.953  1.00  0.00     0.215 C 
HETATM   46  C14 UNL     1      -7.518  47.026 -25.748  1.00  0.00     0.127 C 
HETATM   47  C13 UNL     1      -8.535  44.834 -27.298  1.00  0.00     0.117 C 
HETATM   48  O2  UNL     1      -7.408  45.793 -29.162  1.00  0.00    -0.274 OA
HETATM   49  C15 UNL     1      -6.843  48.215 -25.069  1.00  0.00     0.045 C 
ENDBRANCH  38  41
ENDBRANCH   4  35
BRANCH  11  50
HETATM   50  N7  UNL     1       1.207  53.617 -19.673  1.00  0.00    -0.288 NA
HETATM   51  H27 UNL     1       1.270  52.863 -18.999  1.00  0.00     0.125 HD
HETATM   52  H28 UNL     1       2.064  54.146 -19.798  1.00  0.00     0.125 HD
ENDBRANCH  11  50
TORSDOF 7
ENDMDL
MODEL 9
REMARK minimizedAffinity -9.52138519
REMARK CNNscore 0.146956816
REMARK CNNaffinity 7.43464899
REMARK  7 active torsions:
REMARK  status: ('A' for Active; 'I' for Inactive)
REMARK    1  A    between atoms: O1_2  and  C2_3 
REMARK    2  A    between atoms: C4_5  and  C5_6 
REMARK    3  A    between atoms: N2_9  and  C6_10 
REMARK    4  A    between atoms: N3_13  and  C9_14 
REMARK       I    between atoms: N4_17  and  C12_18 
REMARK    5  A    between atoms: C20_31  and  N7_32 
REMARK    6  A    between atoms: C24_36  and  N8_37 
REMARK       I    between atoms: N8_37  and  C25_38 
REMARK    7  A    between atoms: C25_38  and  C26_40 
ROOT
HETATM    1  C5  UNL     1      -0.890  51.364 -20.496  1.00  0.00     0.076 A 
HETATM    2  N1  UNL     1      -1.989  50.757 -20.979  1.00  0.00    -0.295 N 
ATOM      3  H1  UNL     1      -2.612  50.114 -20.489  1.00  0.00     0.187 HD
HETATM    4  N2  UNL     1      -2.082  51.187 -22.257  1.00  0.00    -0.270 N 
HETATM    5  C18 UNL     1      -1.072  52.038 -22.612  1.00  0.00     0.139 A 
HETATM    6  N5  UNL     1      -0.884  52.619 -23.808  1.00  0.00    -0.337 N 
ATOM      7  H5  UNL     1      -1.510  52.504 -24.604  1.00  0.00     0.168 HD
HETATM    8  C19 UNL     1       0.227  53.369 -23.827  1.00  0.00     0.183 A 
HETATM    9  N6  UNL     1       1.111  53.559 -22.831  1.00  0.00    -0.342 N 
ATOM     10  H6  UNL     1       1.932  54.149 -22.968  1.00  0.00     0.167 HD
HETATM   11  C20 UNL     1       0.890  52.952 -21.647  1.00  0.00     0.095 A 
HETATM   12  C21 UNL     1      -0.258  52.162 -21.498  1.00  0.00     0.076 A 
ENDROOT
BRANCH   1  13
HETATM   13  C4  UNL     1      -0.467  51.134 -19.114  1.00  0.00    -0.004 A 
HETATM   14  C3  UNL     1       0.231  52.119 -18.401  1.00  0.00     0.053 A 
HETATM   15  C2  UNL     1       0.688  51.863 -17.104  1.00  0.00     0.095 A 
HETATM   16  C24 UNL     1       0.417  50.619 -16.493  1.00  0.00     0.068 A 
HETATM   17  C23 UNL     1      -0.315  49.656 -17.188  1.00  0.00     0.033 A 
HETATM   18  C22 UNL     1      -0.753  49.914 -18.490  1.00  0.00     0.016 A 
BRANCH  15  19
HETATM   19  O1  UNL     1       1.417  52.747 -16.339  1.00  0.00    -0.354 OA
HETATM   20  C1  UNL     1       2.834  52.689 -16.451  1.00  0.00     0.210 C 
ENDBRANCH  15  19
BRANCH  16  21
HETATM   21  N8  UNL     1       0.949  50.417 -15.202  1.00  0.00    -0.319 N 
HETATM   22  C25 UNL     1       1.403  49.252 -14.622  1.00  0.00     0.273 C 
HETATM   23  O3  UNL     1       1.305  48.137 -15.121  1.00  0.00    -0.266 OA
HETATM   24  H31 UNL     1       0.936  51.249 -14.623  1.00  0.00     0.169 HD
BRANCH  22  25
HETATM   25  C26 UNL     1       2.004  49.463 -13.307  1.00  0.00     0.104 A 
HETATM   26  C27 UNL     1       1.388  49.536 -12.065  1.00  0.00     0.049 A 
HETATM   27  C28 UNL     1       2.371  49.795 -11.077  1.00  0.00    -0.007 A 
HETATM   28  C29 UNL     1       2.320  49.971  -9.679  1.00  0.00     0.014 A 
HETATM   29  C33 UNL     1       3.600  49.881 -11.731  1.00  0.00     0.045 A 
HETATM   30  C30 UNL     1       3.499  50.223  -8.971  1.00  0.00     0.001 A 
HETATM   31  C31 UNL     1       4.716  50.302  -9.640  1.00  0.00     0.002 A 
HETATM   32  C32 UNL     1       4.790  50.136 -11.027  1.00  0.00     0.030 A 
HETATM   33  N9  UNL     1       3.355  49.680 -13.078  1.00  0.00    -0.346 N 
HETATM   34  C34 UNL     1       4.371  49.672 -14.113  1.00  0.00     0.156 C 
ENDBRANCH  22  25
ENDBRANCH  16  21
ENDBRANCH   1  13
BRANCH   4  35
HETATM   35  C6  UNL     1      -3.136  50.637 -23.102  1.00  0.00     0.113 C 
HETATM   36  C7  UNL     1      -3.390  49.164 -22.771  1.00  0.00     0.047 C 
HETATM   37  C8  UNL     1      -4.208  48.507 -23.875  1.00  0.00     0.119 C 
HETATM   38  N3  UNL     1      -3.470  48.477 -25.135  1.00  0.00    -0.408 N 
HETATM   39  C16 UNL     1      -2.592  49.625 -25.385  1.00  0.00     0.119 C 
HETATM   40  C17 UNL     1      -2.957  50.890 -24.607  1.00  0.00     0.047 C 
BRANCH  38  41
HETATM   41  C9  UNL     1      -4.208  47.996 -26.314  1.00  0.00     0.082 C 
HETATM   42  C10 UNL     1      -3.650  48.495 -27.663  1.00  0.00     0.045 C 
HETATM   43  C11 UNL     1      -4.731  48.726 -28.720  1.00  0.00     0.127 C 
HETATM   44  N4  UNL     1      -5.803  47.740 -28.655  1.00  0.00    -0.352 N 
HETATM   45  C12 UNL     1      -6.352  47.267 -29.840  1.00  0.00     0.215 C 
HETATM   46  C14 UNL     1      -6.444  47.543 -27.355  1.00  0.00     0.127 C 
HETATM   47  C13 UNL     1      -7.507  46.304 -29.717  1.00  0.00     0.117 C 
HETATM   48  O2  UNL     1      -5.931  47.592 -30.951  1.00  0.00    -0.274 OA
HETATM   49  C15 UNL     1      -5.719  48.246 -26.210  1.00  0.00     0.045 C 
ENDBRANCH  38  41
ENDBRANCH   4  35
BRANCH  11  50
HETATM   50  N7  UNL     1       1.864  53.146 -20.673  1.00  0.00    -0.288 NA
HETATM   51  H27 UNL     1       2.008  52.344 -20.070  1.00  0.00     0.125 HD
HETATM   52  H28 UNL     1       2.707  53.505 -21.108  1.00  0.00     0.125 HD
ENDBRANCH  11  50
TORSDOF 7
ENDMDL
