MODEL 1
REMARK minimizedAffinity -9.95698929
REMARK CNNscore 0.240701318
REMARK CNNaffinity 7.06943941
REMARK  5 active torsions:
REMARK  status: ('A' for Active; 'I' for Inactive)
REMARK    1  A    between atoms: C3_3  and  C4_4 
REMARK    2  A    between atoms: C6_6  and  N1_7 
REMARK    3  A    between atoms: N1_7  and  C7_8 
REMARK    4  A    between atoms: C18_28  and  N7_29 
REMARK       I    between atoms: N7_29  and  C19_30 
REMARK    5  A    between atoms: C19_30  and  C20_32 
ROOT
HETATM    1  C4  UNL     1      -5.055   5.783  13.268  1.00  0.00     0.061 A 
HETATM    2  C5  UNL     1      -6.385   6.129  13.807  1.00  0.00     0.067 A 
HETATM    3  C6  UNL     1      -7.327   5.177  13.900  1.00  0.00     0.106 A 
HETATM    4  C14 UNL     1      -6.961   3.806  13.366  1.00  0.00     0.286 A 
HETATM    5  O1  UNL     1      -7.738   2.855  13.325  1.00  0.00    -0.264 OA
HETATM    6  N5  UNL     1      -5.682   3.656  12.884  1.00  0.00    -0.264 N 
HETATM    7  N6  UNL     1      -4.719   4.616  12.822  1.00  0.00    -0.297 N 
ATOM      8  H6  UNL     1      -3.790   4.427  12.448  1.00  0.00     0.187 HD
HETATM    9  H16 UNL     1      -5.434   2.740  12.528  1.00  0.00     0.190 HD
ENDROOT
BRANCH   1  10
HETATM   10  C3  UNL     1      -4.061   6.880  13.244  1.00  0.00     0.000 A 
HETATM   11  C2  UNL     1      -2.708   6.646  12.895  1.00  0.00    -0.020 A 
HETATM   12  C1  UNL     1      -2.261   5.268  12.471  1.00  0.00     0.052 C 
HETATM   13  C18 UNL     1      -1.792   7.725  12.970  1.00  0.00     0.081 A 
HETATM   14  C17 UNL     1      -2.261   8.982  13.396  1.00  0.00     0.143 A 
HETATM   15  C16 UNL     1      -3.602   9.197  13.707  1.00  0.00     0.045 A 
HETATM   16  F1  UNL     1      -1.429  10.006  13.627  1.00  0.00    -0.204 F 
HETATM   17  C15 UNL     1      -4.507   8.149  13.634  1.00  0.00     0.017 A 
BRANCH  13  18
HETATM   18  N7  UNL     1      -0.429   7.477  12.667  1.00  0.00    -0.319 N 
HETATM   19  C19 UNL     1       0.292   7.897  11.560  1.00  0.00     0.263 C 
HETATM   20  O2  UNL     1      -0.195   8.449  10.580  1.00  0.00    -0.267 OA
HETATM   21  H19 UNL     1       0.074   6.845  13.273  1.00  0.00     0.169 HD
BRANCH  19  22
HETATM   22  C20 UNL     1       1.720   7.581  11.610  1.00  0.00     0.074 A 
HETATM   23  C21 UNL     1       2.627   8.046  12.540  1.00  0.00     0.037 A 
HETATM   24  C22 UNL     1       3.958   7.552  12.343  1.00  0.00    -0.018 A 
HETATM   25  C23 UNL     1       5.145   7.778  13.081  1.00  0.00     0.013 A 
HETATM   26  C27 UNL     1       4.025   6.720  11.224  1.00  0.00     0.016 A 
HETATM   27  C24 UNL     1       6.345   7.176  12.692  1.00  0.00     0.001 A 
HETATM   28  C25 UNL     1       6.387   6.359  11.572  1.00  0.00     0.001 A 
HETATM   29  C26 UNL     1       5.233   6.122  10.821  1.00  0.00     0.019 A 
HETATM   30  S1  UNL     1       2.485   6.559  10.471  1.00  0.00    -0.084 SA
ENDBRANCH  19  22
ENDBRANCH  13  18
ENDBRANCH   1  10
BRANCH   3  31
HETATM   31  N1  UNL     1      -8.602   5.465  14.368  1.00  0.00    -0.337 N 
HETATM   32  H5  UNL     1      -9.017   4.715  14.907  1.00  0.00     0.167 HD
BRANCH  31  33
HETATM   33  C7  UNL     1      -9.378   6.566  14.309  1.00  0.00     0.122 A 
HETATM   34  C8  UNL     1      -9.257   7.739  15.094  1.00  0.00     0.078 A 
HETATM   35  C9  UNL     1     -10.249   8.584  14.643  1.00  0.00     0.060 A 
HETATM   36  N2  UNL     1     -10.857   7.909  13.629  1.00  0.00    -0.291 N 
HETATM   37  C13 UNL     1     -10.722   9.924  15.073  1.00  0.00     0.330 C 
HETATM   38  N3  UNL     1     -10.325   6.702  13.375  1.00  0.00    -0.283 N 
HETATM   39  C10 UNL     1     -11.957   8.428  12.843  1.00  0.00     0.179 C 
ATOM     40  H3  UNL     1     -10.583   6.043  12.639  1.00  0.00     0.189 HD
HETATM   41  C11 UNL     1     -12.581   9.645  13.533  1.00  0.00     0.294 C 
HETATM   42  N4  UNL     1     -11.546  10.569  14.029  1.00  0.00     0.091 N 
HETATM   43  C12 UNL     1     -12.144  11.797  14.549  1.00  0.00     0.310 C 
ENDBRANCH  31  33
ENDBRANCH   3  31
TORSDOF 5
ENDMDL
MODEL 2
REMARK minimizedAffinity -10.1564169
REMARK CNNscore 0.198193431
REMARK CNNaffinity 6.88255739
REMARK  5 active torsions:
REMARK  status: ('A' for Active; 'I' for Inactive)
REMARK    1  A    between atoms: C3_3  and  C4_4 
REMARK    2  A    between atoms: C6_6  and  N1_7 
REMARK    3  A    between atoms: N1_7  and  C7_8 
REMARK    4  A    between atoms: C18_28  and  N7_29 
REMARK       I    between atoms: N7_29  and  C19_30 
REMARK    5  A    between atoms: C19_30  and  C20_32 
ROOT
HETATM    1  C4  UNL     1      -5.766   5.853  13.396  1.00  0.00     0.061 A 
HETATM    2  C5  UNL     1      -7.187   6.250  13.422  1.00  0.00     0.067 A 
HETATM    3  C6  UNL     1      -8.137   5.303  13.360  1.00  0.00     0.106 A 
HETATM    4  C14 UNL     1      -7.661   3.873  13.195  1.00  0.00     0.286 A 
HETATM    5  O1  UNL     1      -8.412   2.910  13.060  1.00  0.00    -0.264 OA
HETATM    6  N5  UNL     1      -6.300   3.678  13.175  1.00  0.00    -0.264 N 
HETATM    7  N6  UNL     1      -5.340   4.638  13.271  1.00  0.00    -0.297 N 
ATOM      8  H6  UNL     1      -4.346   4.413  13.247  1.00  0.00     0.187 HD
HETATM    9  H16 UNL     1      -5.978   2.723  13.066  1.00  0.00     0.190 HD
ENDROOT
BRANCH   1  10
HETATM   10  C3  UNL     1      -4.784   6.955  13.516  1.00  0.00     0.000 A 
HETATM   11  C2  UNL     1      -3.431   6.786  13.134  1.00  0.00    -0.020 A 
HETATM   12  C1  UNL     1      -2.970   5.483  12.528  1.00  0.00     0.052 C 
HETATM   13  C18 UNL     1      -2.526   7.856  13.350  1.00  0.00     0.081 A 
HETATM   14  C17 UNL     1      -3.007   9.039  13.942  1.00  0.00     0.143 A 
HETATM   15  C16 UNL     1      -4.349   9.195  14.283  1.00  0.00     0.045 A 
HETATM   16  F1  UNL     1      -2.186  10.033  14.306  1.00  0.00    -0.204 F 
HETATM   17  C15 UNL     1      -5.243   8.155  14.074  1.00  0.00     0.017 A 
BRANCH  13  18
HETATM   18  N7  UNL     1      -1.162   7.667  13.012  1.00  0.00    -0.319 N 
HETATM   19  C19 UNL     1      -0.450   8.245  11.973  1.00  0.00     0.263 C 
HETATM   20  O2  UNL     1      -0.945   8.924  11.082  1.00  0.00    -0.267 OA
HETATM   21  H19 UNL     1      -0.651   6.961  13.523  1.00  0.00     0.169 HD
BRANCH  19  22
HETATM   22  C20 UNL     1       0.982   7.939  11.975  1.00  0.00     0.074 A 
HETATM   23  C21 UNL     1       1.641   7.110  11.089  1.00  0.00     0.037 A 
HETATM   24  C22 UNL     1       3.050   7.013  11.331  1.00  0.00    -0.018 A 
HETATM   25  C23 UNL     1       4.056   6.292  10.644  1.00  0.00     0.013 A 
HETATM   26  C27 UNL     1       3.423   7.777  12.438  1.00  0.00     0.016 A 
HETATM   27  C24 UNL     1       5.386   6.354  11.071  1.00  0.00     0.001 A 
HETATM   28  C25 UNL     1       5.731   7.115  12.179  1.00  0.00     0.001 A 
HETATM   29  C26 UNL     1       4.759   7.832  12.879  1.00  0.00     0.019 A 
HETATM   30  S1  UNL     1       2.069   8.586  13.126  1.00  0.00    -0.084 SA
ENDBRANCH  19  22
ENDBRANCH  13  18
ENDBRANCH   1  10
BRANCH   3  31
HETATM   31  N1  UNL     1      -9.486   5.632  13.346  1.00  0.00    -0.337 N 
HETATM   32  H5  UNL     1     -10.101   4.828  13.307  1.00  0.00     0.167 HD
BRANCH  31  33
HETATM   33  C7  UNL     1     -10.150   6.802  13.439  1.00  0.00     0.122 A 
HETATM   34  C8  UNL     1     -11.167   7.278  12.573  1.00  0.00     0.078 A 
HETATM   35  C9  UNL     1     -11.553   8.493  13.098  1.00  0.00     0.060 A 
HETATM   36  N2  UNL     1     -10.802   8.650  14.222  1.00  0.00    -0.291 N 
HETATM   37  C13 UNL     1     -12.506   9.540  12.652  1.00  0.00     0.330 C 
HETATM   38  N3  UNL     1      -9.974   7.624  14.479  1.00  0.00    -0.283 N 
HETATM   39  C10 UNL     1     -10.889   9.788  15.113  1.00  0.00     0.179 C 
ATOM     40  H3  UNL     1      -9.355   7.500  15.281  1.00  0.00     0.189 HD
HETATM   41  C11 UNL     1     -11.637  10.941  14.437  1.00  0.00     0.294 C 
HETATM   42  N4  UNL     1     -12.852  10.462  13.753  1.00  0.00     0.091 N 
HETATM   43  C12 UNL     1     -13.641  11.582  13.242  1.00  0.00     0.310 C 
ENDBRANCH  31  33
ENDBRANCH   3  31
TORSDOF 5
ENDMDL
MODEL 3
REMARK minimizedAffinity -10.9024763
REMARK CNNscore 0.158420771
REMARK CNNaffinity 7.31489801
REMARK  5 active torsions:
REMARK  status: ('A' for Active; 'I' for Inactive)
REMARK    1  A    between atoms: C3_3  and  C4_4 
REMARK    2  A    between atoms: C6_6  and  N1_7 
REMARK    3  A    between atoms: N1_7  and  C7_8 
REMARK    4  A    between atoms: C18_28  and  N7_29 
REMARK       I    between atoms: N7_29  and  C19_30 
REMARK    5  A    between atoms: C19_30  and  C20_32 
ROOT
HETATM    1  C4  UNL     1      -3.090   2.709  11.664  1.00  0.00     0.061 A 
HETATM    2  C5  UNL     1      -2.446   3.972  12.075  1.00  0.00     0.067 A 
HETATM    3  C6  UNL     1      -1.123   4.124  11.904  1.00  0.00     0.106 A 
HETATM    4  C14 UNL     1      -0.368   2.931  11.353  1.00  0.00     0.286 A 
HETATM    5  O1  UNL     1       0.850   2.898  11.203  1.00  0.00    -0.264 OA
HETATM    6  N5  UNL     1      -1.119   1.823  11.034  1.00  0.00    -0.264 N 
HETATM    7  N6  UNL     1      -2.465   1.686  11.179  1.00  0.00    -0.297 N 
ATOM      8  H6  UNL     1      -2.953   0.828  10.919  1.00  0.00     0.187 HD
HETATM    9  H16 UNL     1      -0.618   1.023  10.664  1.00  0.00     0.190 HD
ENDROOT
BRANCH   1  10
HETATM   10  C3  UNL     1      -4.558   2.642  11.845  1.00  0.00     0.000 A 
HETATM   11  C2  UNL     1      -5.283   3.716  12.415  1.00  0.00    -0.020 A 
HETATM   12  C1  UNL     1      -4.575   4.994  12.796  1.00  0.00     0.052 C 
HETATM   13  C18 UNL     1      -6.674   3.556  12.633  1.00  0.00     0.081 A 
HETATM   14  C17 UNL     1      -7.278   2.333  12.281  1.00  0.00     0.143 A 
HETATM   15  C16 UNL     1      -6.550   1.300  11.694  1.00  0.00     0.045 A 
HETATM   16  F1  UNL     1      -8.552   2.059  12.588  1.00  0.00    -0.204 F 
HETATM   17  C15 UNL     1      -5.189   1.447  11.474  1.00  0.00     0.017 A 
BRANCH  13  18
HETATM   18  N7  UNL     1      -7.389   4.614  13.249  1.00  0.00    -0.319 N 
HETATM   19  C19 UNL     1      -8.348   5.441  12.685  1.00  0.00     0.263 C 
HETATM   20  O2  UNL     1      -8.631   5.469  11.494  1.00  0.00    -0.267 OA
HETATM   21  H19 UNL     1      -7.119   4.872  14.187  1.00  0.00     0.169 HD
BRANCH  19  22
HETATM   22  C20 UNL     1      -8.991   6.356  13.630  1.00  0.00     0.074 A 
HETATM   23  C21 UNL     1     -10.271   6.865  13.531  1.00  0.00     0.037 A 
HETATM   24  C22 UNL     1     -10.632   7.728  14.616  1.00  0.00    -0.018 A 
HETATM   25  C23 UNL     1     -11.839   8.419  14.884  1.00  0.00     0.013 A 
HETATM   26  C27 UNL     1      -9.577   7.869  15.519  1.00  0.00     0.016 A 
HETATM   27  C24 UNL     1     -11.960   9.215  16.026  1.00  0.00     0.001 A 
HETATM   28  C25 UNL     1     -10.894   9.344  16.905  1.00  0.00     0.001 A 
HETATM   29  C26 UNL     1      -9.690   8.679  16.665  1.00  0.00     0.019 A 
HETATM   30  S1  UNL     1      -8.208   6.947  15.031  1.00  0.00    -0.084 SA
ENDBRANCH  19  22
ENDBRANCH  13  18
ENDBRANCH   1  10
BRANCH   3  31
HETATM   31  N1  UNL     1      -0.471   5.281  12.308  1.00  0.00    -0.337 N 
HETATM   32  H5  UNL     1      -0.833   5.673  13.169  1.00  0.00     0.167 HD
BRANCH  31  33
HETATM   33  C7  UNL     1       0.591   5.957  11.824  1.00  0.00     0.122 A 
HETATM   34  C8  UNL     1       1.586   6.632  12.574  1.00  0.00     0.078 A 
HETATM   35  C9  UNL     1       2.469   7.134  11.641  1.00  0.00     0.060 A 
HETATM   36  N2  UNL     1       1.990   6.715  10.437  1.00  0.00    -0.291 N 
HETATM   37  C13 UNL     1       3.677   7.991  11.736  1.00  0.00     0.330 C 
HETATM   38  N3  UNL     1       0.878   5.964  10.519  1.00  0.00    -0.283 N 
HETATM   39  C10 UNL     1       2.617   6.996   9.163  1.00  0.00     0.179 C 
ATOM     40  H3  UNL     1       0.372   5.506   9.760  1.00  0.00     0.189 HD
HETATM   41  C11 UNL     1       3.647   8.120   9.310  1.00  0.00     0.294 C 
HETATM   42  N4  UNL     1       4.489   7.923  10.503  1.00  0.00     0.091 N 
HETATM   43  C12 UNL     1       5.565   8.910  10.555  1.00  0.00     0.310 C 
ENDBRANCH  31  33
ENDBRANCH   3  31
TORSDOF 5
ENDMDL
MODEL 4
REMARK minimizedAffinity -9.70193672
REMARK CNNscore 0.134423554
REMARK CNNaffinity 6.54446793
REMARK  5 active torsions:
REMARK  status: ('A' for Active; 'I' for Inactive)
REMARK    1  A    between atoms: C3_3  and  C4_4 
REMARK    2  A    between atoms: C6_6  and  N1_7 
REMARK    3  A    between atoms: N1_7  and  C7_8 
REMARK    4  A    between atoms: C18_28  and  N7_29 
REMARK       I    between atoms: N7_29  and  C19_30 
REMARK    5  A    between atoms: C19_30  and  C20_32 
ROOT
HETATM    1  C4  UNL     1       4.245   7.274  10.361  1.00  0.00     0.061 A 
HETATM    2  C5  UNL     1       5.038   8.375  10.942  1.00  0.00     0.067 A 
HETATM    3  C6  UNL     1       6.305   8.145  11.324  1.00  0.00     0.106 A 
HETATM    4  C14 UNL     1       6.807   6.721  11.188  1.00  0.00     0.286 A 
HETATM    5  O1  UNL     1       7.918   6.347  11.554  1.00  0.00    -0.264 OA
HETATM    6  N5  UNL     1       5.933   5.812  10.639  1.00  0.00    -0.264 N 
HETATM    7  N6  UNL     1       4.661   6.057  10.222  1.00  0.00    -0.297 N 
ATOM      8  H6  UNL     1       4.072   5.326   9.825  1.00  0.00     0.187 HD
HETATM    9  H16 UNL     1       6.267   4.859  10.545  1.00  0.00     0.190 HD
ENDROOT
BRANCH   1  10
HETATM   10  C3  UNL     1       2.875   7.625   9.923  1.00  0.00     0.000 A 
HETATM   11  C2  UNL     1       1.757   7.443  10.773  1.00  0.00    -0.020 A 
HETATM   12  C1  UNL     1       1.950   6.945  12.185  1.00  0.00     0.052 C 
HETATM   13  C18 UNL     1       0.465   7.724  10.264  1.00  0.00     0.081 A 
HETATM   14  C17 UNL     1       0.344   8.163   8.931  1.00  0.00     0.143 A 
HETATM   15  C16 UNL     1       1.459   8.362   8.121  1.00  0.00     0.045 A 
HETATM   16  F1  UNL     1      -0.850   8.309   8.340  1.00  0.00    -0.204 F 
HETATM   17  C15 UNL     1       2.729   8.093   8.611  1.00  0.00     0.017 A 
BRANCH  13  18
HETATM   18  N7  UNL     1      -0.657   7.496  11.101  1.00  0.00    -0.319 N 
HETATM   19  C19 UNL     1      -1.293   8.394  11.944  1.00  0.00     0.263 C 
HETATM   20  O2  UNL     1      -0.882   9.519  12.200  1.00  0.00    -0.267 OA
HETATM   21  H19 UNL     1      -0.995   6.547  11.175  1.00  0.00     0.169 HD
BRANCH  19  22
HETATM   22  C20 UNL     1      -2.506   7.877  12.577  1.00  0.00     0.074 A 
HETATM   23  C21 UNL     1      -3.565   8.627  13.049  1.00  0.00     0.037 A 
HETATM   24  C22 UNL     1      -4.624   7.840  13.609  1.00  0.00    -0.018 A 
HETATM   25  C23 UNL     1      -5.865   8.229  14.170  1.00  0.00     0.013 A 
HETATM   26  C27 UNL     1      -4.317   6.479  13.563  1.00  0.00     0.016 A 
HETATM   27  C24 UNL     1      -6.752   7.266  14.659  1.00  0.00     0.001 A 
HETATM   28  C25 UNL     1      -6.420   5.919  14.608  1.00  0.00     0.001 A 
HETATM   29  C26 UNL     1      -5.202   5.507  14.065  1.00  0.00     0.019 A 
HETATM   30  S1  UNL     1      -2.780   6.209  12.837  1.00  0.00    -0.084 SA
ENDBRANCH  19  22
ENDBRANCH  13  18
ENDBRANCH   1  10
BRANCH   3  31
HETATM   31  N1  UNL     1       7.076   9.141  11.907  1.00  0.00    -0.337 N 
HETATM   32  H5  UNL     1       7.382   9.853  11.255  1.00  0.00     0.167 HD
BRANCH  31  33
HETATM   33  C7  UNL     1       7.448   9.394  13.179  1.00  0.00     0.122 A 
HETATM   34  C8  UNL     1       7.055  10.495  13.980  1.00  0.00     0.078 A 
HETATM   35  C9  UNL     1       7.663  10.293  15.201  1.00  0.00     0.060 A 
HETATM   36  N2  UNL     1       8.328   9.111  15.075  1.00  0.00    -0.291 N 
HETATM   37  C13 UNL     1       7.732  11.090  16.451  1.00  0.00     0.330 C 
HETATM   38  N3  UNL     1       8.181   8.521  13.877  1.00  0.00    -0.283 N 
HETATM   39  C10 UNL     1       9.100   8.490  16.131  1.00  0.00     0.179 C 
ATOM     40  H3  UNL     1       8.545   7.618  13.572  1.00  0.00     0.189 HD
HETATM   41  C11 UNL     1       9.383   9.496  17.251  1.00  0.00     0.294 C 
HETATM   42  N4  UNL     1       8.175  10.266  17.595  1.00  0.00     0.091 N 
HETATM   43  C12 UNL     1       8.408  11.113  18.764  1.00  0.00     0.310 C 
ENDBRANCH  31  33
ENDBRANCH   3  31
TORSDOF 5
ENDMDL
MODEL 5
REMARK minimizedAffinity -10.1293955
REMARK CNNscore 0.130255193
REMARK CNNaffinity 7.09946585
REMARK  5 active torsions:
REMARK  status: ('A' for Active; 'I' for Inactive)
REMARK    1  A    between atoms: C3_3  and  C4_4 
REMARK    2  A    between atoms: C6_6  and  N1_7 
REMARK    3  A    between atoms: N1_7  and  C7_8 
REMARK    4  A    between atoms: C18_28  and  N7_29 
REMARK       I    between atoms: N7_29  and  C19_30 
REMARK    5  A    between atoms: C19_30  and  C20_32 
ROOT
HETATM    1  C4  UNL     1      -4.807   4.212  12.787  1.00  0.00     0.061 A 
HETATM    2  C5  UNL     1      -5.740   4.881  13.714  1.00  0.00     0.067 A 
HETATM    3  C6  UNL     1      -6.996   4.419  13.834  1.00  0.00     0.106 A 
HETATM    4  C14 UNL     1      -7.381   3.262  12.934  1.00  0.00     0.286 A 
HETATM    5  O1  UNL     1      -8.509   2.776  12.885  1.00  0.00    -0.264 OA
HETATM    6  N5  UNL     1      -6.393   2.764  12.117  1.00  0.00    -0.264 N 
HETATM    7  N6  UNL     1      -5.113   3.215  12.023  1.00  0.00    -0.297 N 
ATOM      8  H6  UNL     1      -4.435   2.792  11.389  1.00  0.00     0.187 HD
HETATM    9  H16 UNL     1      -6.648   1.989  11.514  1.00  0.00     0.190 HD
ENDROOT
BRANCH   1  10
HETATM   10  C3  UNL     1      -3.430   4.756  12.751  1.00  0.00     0.000 A 
HETATM   11  C2  UNL     1      -2.962   5.651  13.743  1.00  0.00    -0.020 A 
HETATM   12  C1  UNL     1      -3.845   6.023  14.909  1.00  0.00     0.052 C 
HETATM   13  C18 UNL     1      -1.661   6.197  13.605  1.00  0.00     0.081 A 
HETATM   14  C17 UNL     1      -0.890   5.833  12.484  1.00  0.00     0.143 A 
HETATM   15  C16 UNL     1      -1.360   4.928  11.535  1.00  0.00     0.045 A 
HETATM   16  F1  UNL     1       0.285   6.416  12.214  1.00  0.00    -0.204 F 
HETATM   17  C15 UNL     1      -2.630   4.386  11.662  1.00  0.00     0.017 A 
BRANCH  13  18
HETATM   18  N7  UNL     1      -1.212   7.130  14.573  1.00  0.00    -0.319 N 
HETATM   19  C19 UNL     1      -1.104   8.507  14.450  1.00  0.00     0.263 C 
HETATM   20  O2  UNL     1      -1.257   9.126  13.404  1.00  0.00    -0.267 OA
HETATM   21  H19 UNL     1      -0.837   6.761  15.435  1.00  0.00     0.169 HD
BRANCH  19  22
HETATM   22  C20 UNL     1      -0.728   9.199  15.683  1.00  0.00     0.074 A 
HETATM   23  C21 UNL     1       0.558   9.428  16.131  1.00  0.00     0.037 A 
HETATM   24  C22 UNL     1       0.616  10.146  17.370  1.00  0.00    -0.018 A 
HETATM   25  C23 UNL     1       1.727  10.582  18.133  1.00  0.00     0.013 A 
HETATM   26  C27 UNL     1      -0.665  10.429  17.848  1.00  0.00     0.016 A 
HETATM   27  C24 UNL     1       1.533  11.279  19.329  1.00  0.00     0.001 A 
HETATM   28  C25 UNL     1       0.250  11.541  19.786  1.00  0.00     0.001 A 
HETATM   29  C26 UNL     1      -0.864  11.119  19.058  1.00  0.00     0.019 A 
HETATM   30  S1  UNL     1      -1.876   9.833  16.780  1.00  0.00    -0.084 SA
ENDBRANCH  19  22
ENDBRANCH  13  18
ENDBRANCH   1  10
BRANCH   3  31
HETATM   31  N1  UNL     1      -7.917   5.039  14.667  1.00  0.00    -0.337 N 
HETATM   32  H5  UNL     1      -7.921   4.674  15.613  1.00  0.00     0.167 HD
BRANCH  31  33
HETATM   33  C7  UNL     1      -8.765   6.073  14.496  1.00  0.00     0.122 A 
HETATM   34  C8  UNL     1      -8.773   7.297  15.211  1.00  0.00     0.078 A 
HETATM   35  C9  UNL     1      -9.794   8.037  14.655  1.00  0.00     0.060 A 
HETATM   36  N2  UNL     1     -10.294   7.259  13.655  1.00  0.00    -0.291 N 
HETATM   37  C13 UNL     1     -10.385   9.362  14.972  1.00  0.00     0.330 C 
HETATM   38  N3  UNL     1      -9.664   6.082  13.507  1.00  0.00    -0.283 N 
HETATM   39  C10 UNL     1     -11.380   7.648  12.780  1.00  0.00     0.179 C 
ATOM     40  H3  UNL     1      -9.832   5.363  12.802  1.00  0.00     0.189 HD
HETATM   41  C11 UNL     1     -12.128   8.854  13.357  1.00  0.00     0.294 C 
HETATM   42  N4  UNL     1     -11.191   9.880  13.847  1.00  0.00     0.091 N 
HETATM   43  C12 UNL     1     -11.904  11.089  14.254  1.00  0.00     0.310 C 
ENDBRANCH  31  33
ENDBRANCH   3  31
TORSDOF 5
ENDMDL
MODEL 6
REMARK minimizedAffinity -9.78839874
REMARK CNNscore 0.121908128
REMARK CNNaffinity 7.06018496
REMARK  5 active torsions:
REMARK  status: ('A' for Active; 'I' for Inactive)
REMARK    1  A    between atoms: C3_3  and  C4_4 
REMARK    2  A    between atoms: C6_6  and  N1_7 
REMARK    3  A    between atoms: N1_7  and  C7_8 
REMARK    4  A    between atoms: C18_28  and  N7_29 
REMARK       I    between atoms: N7_29  and  C19_30 
REMARK    5  A    between atoms: C19_30  and  C20_32 
ROOT
HETATM    1  C4  UNL     1      -6.032   4.852  13.519  1.00  0.00     0.061 A 
HETATM    2  C5  UNL     1      -4.673   5.424  13.438  1.00  0.00     0.067 A 
HETATM    3  C6  UNL     1      -3.775   4.874  12.604  1.00  0.00     0.106 A 
HETATM    4  C14 UNL     1      -4.219   3.639  11.847  1.00  0.00     0.286 A 
HETATM    5  O1  UNL     1      -3.490   2.992  11.100  1.00  0.00    -0.264 OA
HETATM    6  N5  UNL     1      -5.517   3.228  12.049  1.00  0.00    -0.264 N 
HETATM    7  N6  UNL     1      -6.434   3.809  12.870  1.00  0.00    -0.297 N 
ATOM      8  H6  UNL     1      -7.381   3.443  12.967  1.00  0.00     0.187 HD
HETATM    9  H16 UNL     1      -5.817   2.403  11.542  1.00  0.00     0.190 HD
ENDROOT
BRANCH   1  10
HETATM   10  C3  UNL     1      -6.973   5.547  14.427  1.00  0.00     0.000 A 
HETATM   11  C2  UNL     1      -8.266   5.933  13.998  1.00  0.00    -0.020 A 
HETATM   12  C1  UNL     1      -8.743   5.581  12.609  1.00  0.00     0.052 C 
HETATM   13  C18 UNL     1      -9.087   6.665  14.892  1.00  0.00     0.081 A 
HETATM   14  C17 UNL     1      -8.581   6.987  16.166  1.00  0.00     0.143 A 
HETATM   15  C16 UNL     1      -7.316   6.573  16.577  1.00  0.00     0.045 A 
HETATM   16  F1  UNL     1      -9.240   7.795  17.005  1.00  0.00    -0.204 F 
HETATM   17  C15 UNL     1      -6.506   5.853  15.711  1.00  0.00     0.017 A 
BRANCH  13  18
HETATM   18  N7  UNL     1     -10.363   7.092  14.443  1.00  0.00    -0.319 N 
HETATM   19  C19 UNL     1     -10.798   8.387  14.208  1.00  0.00     0.263 C 
HETATM   20  O2  UNL     1     -10.166   9.397  14.492  1.00  0.00    -0.267 OA
HETATM   21  H19 UNL     1     -11.086   6.391  14.364  1.00  0.00     0.169 HD
BRANCH  19  22
HETATM   22  C20 UNL     1     -12.137   8.481  13.624  1.00  0.00     0.074 A 
HETATM   23  C21 UNL     1     -12.819   9.644  13.326  1.00  0.00     0.037 A 
HETATM   24  C22 UNL     1     -14.111   9.421  12.748  1.00  0.00    -0.018 A 
HETATM   25  C23 UNL     1     -15.090  10.339  12.297  1.00  0.00     0.013 A 
HETATM   26  C27 UNL     1     -14.386   8.057  12.642  1.00  0.00     0.016 A 
HETATM   27  C24 UNL     1     -16.295   9.879  11.758  1.00  0.00     0.001 A 
HETATM   28  C25 UNL     1     -16.548   8.517  11.671  1.00  0.00     0.001 A 
HETATM   29  C26 UNL     1     -15.603   7.589  12.113  1.00  0.00     0.019 A 
HETATM   30  S1  UNL     1     -13.075   7.107  13.228  1.00  0.00    -0.084 SA
ENDBRANCH  19  22
ENDBRANCH  13  18
ENDBRANCH   1  10
BRANCH   3  31
HETATM   31  N1  UNL     1      -2.476   5.357  12.522  1.00  0.00    -0.337 N 
HETATM   32  H5  UNL     1      -1.953   4.986  11.738  1.00  0.00     0.167 HD
BRANCH  31  33
HETATM   33  C7  UNL     1      -1.785   6.271  13.234  1.00  0.00     0.122 A 
HETATM   34  C8  UNL     1      -0.966   6.029  14.365  1.00  0.00     0.078 A 
HETATM   35  C9  UNL     1      -0.454   7.261  14.714  1.00  0.00     0.060 A 
HETATM   36  N2  UNL     1      -0.946   8.127  13.785  1.00  0.00    -0.291 N 
HETATM   37  C13 UNL     1       0.403   7.730  15.832  1.00  0.00     0.330 C 
HETATM   38  N3  UNL     1      -1.721   7.550  12.851  1.00  0.00    -0.283 N 
HETATM   39  C10 UNL     1      -0.651   9.543  13.749  1.00  0.00     0.179 C 
ATOM     40  H3  UNL     1      -2.158   7.987  12.039  1.00  0.00     0.189 HD
HETATM   41  C11 UNL     1      -0.041   9.998  15.078  1.00  0.00     0.294 C 
HETATM   42  N4  UNL     1       0.992   9.055  15.543  1.00  0.00     0.091 N 
HETATM   43  C12 UNL     1       1.676   9.569  16.728  1.00  0.00     0.310 C 
ENDBRANCH  31  33
ENDBRANCH   3  31
TORSDOF 5
ENDMDL
MODEL 7
REMARK minimizedAffinity -10.4065104
REMARK CNNscore 0.10883072
REMARK CNNaffinity 7.24218225
REMARK  5 active torsions:
REMARK  status: ('A' for Active; 'I' for Inactive)
REMARK    1  A    between atoms: C3_3  and  C4_4 
REMARK    2  A    between atoms: C6_6  and  N1_7 
REMARK    3  A    between atoms: N1_7  and  C7_8 
REMARK    4  A    between atoms: C18_28  and  N7_29 
REMARK       I    between atoms: N7_29  and  C19_30 
REMARK    5  A    between atoms: C19_30  and  C20_32 
ROOT
HETATM    1  C4  UNL     1      -3.140   3.070  11.732  1.00  0.00     0.061 A 
HETATM    2  C5  UNL     1      -2.547   4.362  12.131  1.00  0.00     0.067 A 
HETATM    3  C6  UNL     1      -1.230   4.562  11.963  1.00  0.00     0.106 A 
HETATM    4  C14 UNL     1      -0.428   3.393  11.427  1.00  0.00     0.286 A 
HETATM    5  O1  UNL     1       0.791   3.405  11.282  1.00  0.00    -0.264 OA
HETATM    6  N5  UNL     1      -1.135   2.254  11.118  1.00  0.00    -0.264 N 
HETATM    7  N6  UNL     1      -2.476   2.067  11.259  1.00  0.00    -0.297 N 
ATOM      8  H6  UNL     1      -2.929   1.189  11.007  1.00  0.00     0.187 HD
HETATM    9  H16 UNL     1      -0.602   1.470  10.758  1.00  0.00     0.190 HD
ENDROOT
BRANCH   1  10
HETATM   10  C3  UNL     1      -4.606   2.950  11.907  1.00  0.00     0.000 A 
HETATM   11  C2  UNL     1      -5.371   3.995  12.480  1.00  0.00    -0.020 A 
HETATM   12  C1  UNL     1      -4.711   5.296  12.867  1.00  0.00     0.052 C 
HETATM   13  C18 UNL     1      -6.756   3.783  12.693  1.00  0.00     0.081 A 
HETATM   14  C17 UNL     1      -7.313   2.540  12.335  1.00  0.00     0.143 A 
HETATM   15  C16 UNL     1      -6.548   1.536  11.746  1.00  0.00     0.045 A 
HETATM   16  F1  UNL     1      -8.578   2.219  12.637  1.00  0.00    -0.204 F 
HETATM   17  C15 UNL     1      -5.192   1.734  11.531  1.00  0.00     0.017 A 
BRANCH  13  18
HETATM   18  N7  UNL     1      -7.511   4.812  13.310  1.00  0.00    -0.319 N 
HETATM   19  C19 UNL     1      -8.489   5.615  12.744  1.00  0.00     0.263 C 
HETATM   20  O2  UNL     1      -8.760   5.645  11.550  1.00  0.00    -0.267 OA
HETATM   21  H19 UNL     1      -7.259   5.070  14.254  1.00  0.00     0.169 HD
BRANCH  19  22
HETATM   22  C20 UNL     1      -9.171   6.500  13.689  1.00  0.00     0.074 A 
HETATM   23  C21 UNL     1     -10.489   6.907  13.622  1.00  0.00     0.037 A 
HETATM   24  C22 UNL     1     -10.881   7.765  14.700  1.00  0.00    -0.018 A 
HETATM   25  C23 UNL     1     -12.129   8.368  14.992  1.00  0.00     0.013 A 
HETATM   26  C27 UNL     1      -9.812   8.007  15.565  1.00  0.00     0.016 A 
HETATM   27  C24 UNL     1     -12.275   9.179  16.121  1.00  0.00     0.001 A 
HETATM   28  C25 UNL     1     -11.195   9.410  16.962  1.00  0.00     0.001 A 
HETATM   29  C26 UNL     1      -9.951   8.833  16.696  1.00  0.00     0.019 A 
HETATM   30  S1  UNL     1      -8.393   7.180  15.051  1.00  0.00    -0.084 SA
ENDBRANCH  19  22
ENDBRANCH  13  18
ENDBRANCH   1  10
BRANCH   3  31
HETATM   31  N1  UNL     1      -0.624   5.747  12.356  1.00  0.00    -0.337 N 
HETATM   32  H5  UNL     1       0.282   5.903  11.930  1.00  0.00     0.167 HD
BRANCH  31  33
HETATM   33  C7  UNL     1      -1.021   6.770  13.141  1.00  0.00     0.122 A 
HETATM   34  C8  UNL     1      -1.397   8.071  12.723  1.00  0.00     0.078 A 
HETATM   35  C9  UNL     1      -1.751   8.737  13.876  1.00  0.00     0.060 A 
HETATM   36  N2  UNL     1      -1.608   7.821  14.874  1.00  0.00    -0.291 N 
HETATM   37  C13 UNL     1      -2.165  10.134  14.162  1.00  0.00     0.330 C 
HETATM   38  N3  UNL     1      -1.209   6.609  14.455  1.00  0.00    -0.283 N 
HETATM   39  C10 UNL     1      -1.892   8.080  16.270  1.00  0.00     0.179 C 
ATOM     40  H3  UNL     1      -1.079   5.762  15.010  1.00  0.00     0.189 HD
HETATM   41  C11 UNL     1      -2.001   9.586  16.525  1.00  0.00     0.294 C 
HETATM   42  N4  UNL     1      -2.812  10.247  15.486  1.00  0.00     0.091 N 
HETATM   43  C12 UNL     1      -3.040  11.653  15.815  1.00  0.00     0.310 C 
ENDBRANCH  31  33
ENDBRANCH   3  31
TORSDOF 5
ENDMDL
MODEL 8
REMARK minimizedAffinity -9.14978123
REMARK CNNscore 0.101190254
REMARK CNNaffinity 6.97965193
REMARK  5 active torsions:
REMARK  status: ('A' for Active; 'I' for Inactive)
REMARK    1  A    between atoms: C3_3  and  C4_4 
REMARK    2  A    between atoms: C6_6  and  N1_7 
REMARK    3  A    between atoms: N1_7  and  C7_8 
REMARK    4  A    between atoms: C18_28  and  N7_29 
REMARK       I    between atoms: N7_29  and  C19_30 
REMARK    5  A    between atoms: C19_30  and  C20_32 
ROOT
HETATM    1  C4  UNL     1      -8.333   5.807  13.695  1.00  0.00     0.061 A 
HETATM    2  C5  UNL     1      -6.982   6.243  14.098  1.00  0.00     0.067 A 
HETATM    3  C6  UNL     1      -5.921   5.486  13.774  1.00  0.00     0.106 A 
HETATM    4  C14 UNL     1      -6.211   4.180  13.063  1.00  0.00     0.286 A 
HETATM    5  O1  UNL     1      -5.351   3.356  12.762  1.00  0.00    -0.264 OA
HETATM    6  N5  UNL     1      -7.530   3.918  12.774  1.00  0.00    -0.264 N 
HETATM    7  N6  UNL     1      -8.600   4.704  13.076  1.00  0.00    -0.297 N 
ATOM      8  H6  UNL     1      -9.553   4.439  12.827  1.00  0.00     0.187 HD
HETATM    9  H16 UNL     1      -7.728   3.045  12.297  1.00  0.00     0.190 HD
ENDROOT
BRANCH   1  10
HETATM   10  C3  UNL     1      -9.442   6.723  14.051  1.00  0.00     0.000 A 
HETATM   11  C2  UNL     1      -9.504   7.352  15.318  1.00  0.00    -0.020 A 
HETATM   12  C1  UNL     1      -8.394   7.151  16.321  1.00  0.00     0.052 C 
HETATM   13  C18 UNL     1     -10.633   8.153  15.623  1.00  0.00     0.081 A 
HETATM   14  C17 UNL     1     -11.650   8.284  14.658  1.00  0.00     0.143 A 
HETATM   15  C16 UNL     1     -11.554   7.680  13.406  1.00  0.00     0.045 A 
HETATM   16  F1  UNL     1     -12.806   8.904  14.928  1.00  0.00    -0.204 F 
HETATM   17  C15 UNL     1     -10.452   6.896  13.097  1.00  0.00     0.017 A 
BRANCH  13  18
HETATM   18  N7  UNL     1     -10.717   8.742  16.910  1.00  0.00    -0.319 N 
HETATM   19  C19 UNL     1     -10.830  10.086  17.231  1.00  0.00     0.263 C 
HETATM   20  O2  UNL     1     -10.734  11.004  16.427  1.00  0.00    -0.267 OA
HETATM   21  H19 UNL     1     -10.591   8.134  17.708  1.00  0.00     0.169 HD
BRANCH  19  22
HETATM   22  C20 UNL     1     -11.024  10.355  18.657  1.00  0.00     0.074 A 
HETATM   23  C21 UNL     1     -11.423   9.442  19.613  1.00  0.00     0.037 A 
HETATM   24  C22 UNL     1     -11.514   9.995  20.932  1.00  0.00    -0.018 A 
HETATM   25  C23 UNL     1     -11.865   9.389  22.163  1.00  0.00     0.013 A 
HETATM   26  C27 UNL     1     -11.193  11.353  20.932  1.00  0.00     0.016 A 
HETATM   27  C24 UNL     1     -11.883  10.142  23.341  1.00  0.00     0.001 A 
HETATM   28  C25 UNL     1     -11.566  11.493  23.313  1.00  0.00     0.001 A 
HETATM   29  C26 UNL     1     -11.221  12.118  22.113  1.00  0.00     0.019 A 
HETATM   30  S1  UNL     1     -10.783  11.899  19.352  1.00  0.00    -0.084 SA
ENDBRANCH  19  22
ENDBRANCH  13  18
ENDBRANCH   1  10
BRANCH   3  31
HETATM   31  N1  UNL     1      -4.636   5.840  14.163  1.00  0.00    -0.337 N 
HETATM   32  H5  UNL     1      -4.492   5.812  15.165  1.00  0.00     0.167 HD
BRANCH  31  33
HETATM   33  C7  UNL     1      -3.518   6.151  13.476  1.00  0.00     0.122 A 
HETATM   34  C8  UNL     1      -2.926   7.432  13.344  1.00  0.00     0.078 A 
HETATM   35  C9  UNL     1      -1.793   7.234  12.585  1.00  0.00     0.060 A 
HETATM   36  N2  UNL     1      -1.753   5.893  12.348  1.00  0.00    -0.291 N 
HETATM   37  C13 UNL     1      -0.770   8.150  12.020  1.00  0.00     0.330 C 
HETATM   38  N3  UNL     1      -2.760   5.205  12.911  1.00  0.00    -0.283 N 
HETATM   39  C10 UNL     1      -0.712   5.225  11.597  1.00  0.00     0.179 C 
ATOM     40  H3  UNL     1      -2.912   4.196  12.908  1.00  0.00     0.189 HD
HETATM   41  C11 UNL     1       0.110   6.241  10.798  1.00  0.00     0.294 C 
HETATM   42  N4  UNL     1       0.450   7.418  11.619  1.00  0.00     0.091 N 
HETATM   43  C12 UNL     1       1.359   8.311  10.903  1.00  0.00     0.310 C 
ENDBRANCH  31  33
ENDBRANCH   3  31
TORSDOF 5
ENDMDL
MODEL 9
REMARK minimizedAffinity -10.475069
REMARK CNNscore 0.0977767631
REMARK CNNaffinity 7.2554822
REMARK  5 active torsions:
REMARK  status: ('A' for Active; 'I' for Inactive)
REMARK    1  A    between atoms: C3_3  and  C4_4 
REMARK    2  A    between atoms: C6_6  and  N1_7 
REMARK    3  A    between atoms: N1_7  and  C7_8 
REMARK    4  A    between atoms: C18_28  and  N7_29 
REMARK       I    between atoms: N7_29  and  C19_30 
REMARK    5  A    between atoms: C19_30  and  C20_32 
ROOT
HETATM    1  C4  UNL     1      -3.183   3.648  11.823  1.00  0.00     0.061 A 
HETATM    2  C5  UNL     1      -4.576   4.090  12.028  1.00  0.00     0.067 A 
HETATM    3  C6  UNL     1      -5.574   3.200  11.907  1.00  0.00     0.106 A 
HETATM    4  C14 UNL     1      -5.185   1.795  11.491  1.00  0.00     0.286 A 
HETATM    5  O1  UNL     1      -5.991   0.893  11.279  1.00  0.00    -0.264 OA
HETATM    6  N5  UNL     1      -3.840   1.554  11.327  1.00  0.00    -0.264 N 
HETATM    7  N6  UNL     1      -2.829   2.451  11.483  1.00  0.00    -0.297 N 
ATOM      8  H6  UNL     1      -1.852   2.196  11.341  1.00  0.00     0.187 HD
HETATM    9  H16 UNL     1      -3.576   0.615  11.050  1.00  0.00     0.190 HD
ENDROOT
BRANCH   1  10
HETATM   10  C3  UNL     1      -2.141   4.682  12.022  1.00  0.00     0.000 A 
HETATM   11  C2  UNL     1      -2.324   5.751  12.931  1.00  0.00    -0.020 A 
HETATM   12  C1  UNL     1      -3.572   5.825  13.776  1.00  0.00     0.052 C 
HETATM   13  C18 UNL     1      -1.321   6.750  13.014  1.00  0.00     0.081 A 
HETATM   14  C17 UNL     1      -0.189   6.642  12.184  1.00  0.00     0.143 A 
HETATM   15  C16 UNL     1      -0.016   5.566  11.317  1.00  0.00     0.045 A 
HETATM   16  F1  UNL     1       0.726   7.618  12.105  1.00  0.00    -0.204 F 
HETATM   17  C15 UNL     1      -0.989   4.582  11.230  1.00  0.00     0.017 A 
BRANCH  13  18
HETATM   18  N7  UNL     1      -1.528   7.845  13.890  1.00  0.00    -0.319 N 
HETATM   19  C19 UNL     1      -1.795   9.165  13.561  1.00  0.00     0.263 C 
HETATM   20  O2  UNL     1      -1.756   9.622  12.426  1.00  0.00    -0.267 OA
HETATM   21  H19 UNL     1      -1.380   7.686  14.876  1.00  0.00     0.169 HD
BRANCH  19  22
HETATM   22  C20 UNL     1      -2.087  10.029  14.707  1.00  0.00     0.074 A 
HETATM   23  C21 UNL     1      -2.711   9.648  15.878  1.00  0.00     0.037 A 
HETATM   24  C22 UNL     1      -2.847  10.712  16.829  1.00  0.00    -0.018 A 
HETATM   25  C23 UNL     1      -3.404  10.720  18.130  1.00  0.00     0.013 A 
HETATM   26  C27 UNL     1      -2.327  11.906  16.326  1.00  0.00     0.016 A 
HETATM   27  C24 UNL     1      -3.425  11.898  18.883  1.00  0.00     0.001 A 
HETATM   28  C25 UNL     1      -2.907  13.073  18.358  1.00  0.00     0.001 A 
HETATM   29  C26 UNL     1      -2.356  13.097  17.075  1.00  0.00     0.019 A 
HETATM   30  S1  UNL     1      -1.685  11.691  14.743  1.00  0.00    -0.084 SA
ENDBRANCH  19  22
ENDBRANCH  13  18
ENDBRANCH   1  10
BRANCH   3  31
HETATM   31  N1  UNL     1      -6.902   3.578  12.057  1.00  0.00    -0.337 N 
HETATM   32  H5  UNL     1      -7.548   3.022  11.510  1.00  0.00     0.167 HD
BRANCH  31  33
HETATM   33  C7  UNL     1      -7.517   4.493  12.833  1.00  0.00     0.122 A 
HETATM   34  C8  UNL     1      -8.558   5.375  12.449  1.00  0.00     0.078 A 
HETATM   35  C9  UNL     1      -8.874   6.084  13.588  1.00  0.00     0.060 A 
HETATM   36  N2  UNL     1      -8.062   5.579  14.558  1.00  0.00    -0.291 N 
HETATM   37  C13 UNL     1      -9.810   7.202  13.869  1.00  0.00     0.330 C 
HETATM   38  N3  UNL     1      -7.260   4.585  14.141  1.00  0.00    -0.283 N 
HETATM   39  C10 UNL     1      -8.063   6.018  15.938  1.00  0.00     0.179 C 
ATOM     40  H3  UNL     1      -6.607   4.030  14.695  1.00  0.00     0.189 HD
HETATM   41  C11 UNL     1      -8.802   7.353  16.075  1.00  0.00     0.294 C 
HETATM   42  N4  UNL     1     -10.066   7.344  15.317  1.00  0.00     0.091 N 
HETATM   43  C12 UNL     1     -10.839   8.558  15.574  1.00  0.00     0.310 C 
ENDBRANCH  31  33
ENDBRANCH   3  31
TORSDOF 5
ENDMDL
