MODEL 1
REMARK minimizedAffinity -9.33649445
REMARK  10 active torsions:
REMARK  status: ('A' for Active; 'I' for Inactive)
REMARK    1  A    between atoms: C2_2  and  C3_3 
REMARK    2  A    between atoms: C2_2  and  O1_9 
REMARK    3  A    between atoms: C4_4  and  C5_5 
REMARK    4  A    between atoms: O1_9  and  C6_10 
REMARK    5  A    between atoms: C8_12  and  C9_13 
REMARK    6  A    between atoms: C11_15  and  C12_16 
REMARK    7  A    between atoms: C14_18  and  C15_19 
REMARK    8  A    between atoms: C15_19  and  N1_20 
REMARK    9  A    between atoms: C20_28  and  N3_29 
REMARK   10  A    between atoms: C23_32  and  C24_33 
REMARK       I    between atoms: C24_33  and  N4_34 
ROOT
HETATM    1  C6  UNL     1      -1.026  51.562 -25.009  1.00  0.00     0.086 A 
HETATM    2  C7  UNL     1      -0.760  51.699 -23.639  1.00  0.00     0.050 A 
HETATM    3  C8  UNL     1       0.100  52.701 -23.166  1.00  0.00    -0.020 A 
HETATM    4  C21 UNL     1       0.644  53.600 -24.094  1.00  0.00     0.013 A 
HETATM    5  C22 UNL     1       0.345  53.498 -25.457  1.00  0.00     0.021 A 
HETATM    6  C23 UNL     1      -0.489  52.474 -25.926  1.00  0.00     0.065 A 
ENDROOT
BRANCH   3   7
HETATM    7  C9  UNL     1       0.427  52.794 -21.735  1.00  0.00     0.013 A 
HETATM    8  C10 UNL     1      -0.050  51.818 -20.841  1.00  0.00     0.029 A 
HETATM    9  C11 UNL     1       0.246  51.888 -19.478  1.00  0.00    -0.003 A 
HETATM   10  C19 UNL     1       1.019  52.967 -19.065  1.00  0.00     0.102 A 
HETATM   11  N2  UNL     1       1.503  53.929 -19.887  1.00  0.00    -0.355 N 
HETATM   12  C20 UNL     1       1.213  53.826 -21.198  1.00  0.00     0.088 A 
ATOM     13  H2  UNL     1       2.066  54.700 -19.527  1.00  0.00     0.166 HD
BRANCH   9  14
HETATM   14  C12 UNL     1      -0.243  50.901 -18.512  1.00  0.00     0.017 A 
HETATM   15  C13 UNL     1      -0.076  50.879 -17.139  1.00  0.00     0.029 A 
HETATM   16  C14 UNL     1      -0.661  49.728 -16.507  1.00  0.00    -0.022 A 
HETATM   17  C18 UNL     1      -1.284  48.930 -17.449  1.00  0.00     0.059 A 
HETATM   18  S1  UNL     1      -1.122  49.527 -19.040  1.00  0.00    -0.101 SA
BRANCH  16  19
HETATM   19  C15 UNL     1      -0.646  49.461 -15.025  1.00  0.00     0.310 C 
BRANCH  19  20
HETATM   20  N1  UNL     1      -1.463  50.392 -14.239  1.00  0.00     0.084 N 
HETATM   21  C16 UNL     1      -0.742  51.581 -13.798  1.00  0.00     0.309 C 
HETATM   22  C17 UNL     1      -2.733  50.738 -14.866  1.00  0.00     0.309 C 
ENDBRANCH  19  20
ENDBRANCH  16  19
ENDBRANCH   9  14
BRANCH  12  23
HETATM   23  N3  UNL     1       1.734  54.850 -21.992  1.00  0.00    -0.288 NA
HETATM   24  H20 UNL     1       2.318  55.423 -21.388  1.00  0.00     0.125 HD
HETATM   25  H21 UNL     1       2.258  54.476 -22.780  1.00  0.00     0.125 HD
ENDBRANCH  12  23
ENDBRANCH   3   7
BRANCH   1  26
HETATM   26  O1  UNL     1      -1.831  50.508 -25.358  1.00  0.00    -0.341 OA
BRANCH  26  27
HETATM   27  C2  UNL     1      -3.208  50.898 -25.508  1.00  0.00     0.147 C 
HETATM   28  C1  UNL     1      -3.472  52.031 -24.517  1.00  0.00     0.044 C 
BRANCH  27  29
HETATM   29  C3  UNL     1      -4.084  49.711 -25.178  1.00  0.00     0.009 C 
HETATM   30  C4  UNL     1      -4.461  48.709 -25.996  1.00  0.00     0.087 C 
BRANCH  30  31
HETATM   31  C5  UNL     1      -4.130  48.457 -27.429  1.00  0.00     0.407 C 
HETATM   32  F1  UNL     1      -2.897  47.898 -27.552  1.00  0.00    -0.167 F 
HETATM   33  F2  UNL     1      -5.009  47.584 -27.981  1.00  0.00    -0.167 F 
HETATM   34  F3  UNL     1      -4.136  49.564 -28.208  1.00  0.00    -0.167 F 
ENDBRANCH  30  31
ENDBRANCH  27  29
ENDBRANCH  26  27
ENDBRANCH   1  26
BRANCH   6  35
HETATM   35  C24 UNL     1      -0.796  52.392 -27.377  1.00  0.00     0.252 C 
HETATM   36  N4  UNL     1      -1.715  53.288 -27.857  1.00  0.00    -0.366 N 
HETATM   37  H24 UNL     1      -1.829  53.312 -28.862  1.00  0.00     0.159 HD
HETATM   38  H25 UNL     1      -1.982  54.110 -27.334  1.00  0.00     0.159 HD
HETATM   39  O2  UNL     1      -0.247  51.602 -28.132  1.00  0.00    -0.268 OA
ENDBRANCH   6  35
TORSDOF 10
ENDMDL
MODEL 2
REMARK minimizedAffinity -9.29724598
REMARK  10 active torsions:
REMARK  status: ('A' for Active; 'I' for Inactive)
REMARK    1  A    between atoms: C2_2  and  C3_3 
REMARK    2  A    between atoms: C2_2  and  O1_9 
REMARK    3  A    between atoms: C4_4  and  C5_5 
REMARK    4  A    between atoms: O1_9  and  C6_10 
REMARK    5  A    between atoms: C8_12  and  C9_13 
REMARK    6  A    between atoms: C11_15  and  C12_16 
REMARK    7  A    between atoms: C14_18  and  C15_19 
REMARK    8  A    between atoms: C15_19  and  N1_20 
REMARK    9  A    between atoms: C20_28  and  N3_29 
REMARK   10  A    between atoms: C23_32  and  C24_33 
REMARK       I    between atoms: C24_33  and  N4_34 
ROOT
HETATM    1  C6  UNL     1      -0.480  51.716 -25.477  1.00  0.00     0.086 A 
HETATM    2  C7  UNL     1      -0.306  51.724 -24.086  1.00  0.00     0.050 A 
HETATM    3  C8  UNL     1       0.225  52.845 -23.431  1.00  0.00    -0.020 A 
HETATM    4  C21 UNL     1       0.525  53.981 -24.196  1.00  0.00     0.013 A 
HETATM    5  C22 UNL     1       0.308  53.996 -25.578  1.00  0.00     0.021 A 
HETATM    6  C23 UNL     1      -0.191  52.861 -26.230  1.00  0.00     0.065 A 
ENDROOT
BRANCH   3   7
HETATM    7  C9  UNL     1       0.468  52.819 -21.980  1.00  0.00     0.013 A 
HETATM    8  C10 UNL     1      -0.050  51.770 -21.200  1.00  0.00     0.029 A 
HETATM    9  C11 UNL     1       0.166  51.727 -19.821  1.00  0.00    -0.003 A 
HETATM   10  C19 UNL     1       0.904  52.771 -19.275  1.00  0.00     0.102 A 
HETATM   11  N2  UNL     1       1.425  53.801 -19.984  1.00  0.00    -0.355 N 
HETATM   12  C20 UNL     1       1.211  53.807 -21.314  1.00  0.00     0.088 A 
ATOM     13  H2  UNL     1       1.958  54.542 -19.529  1.00  0.00     0.166 HD
BRANCH   9  14
HETATM   14  C12 UNL     1      -0.366  50.659 -18.971  1.00  0.00     0.017 A 
HETATM   15  C13 UNL     1      -0.032  50.344 -17.666  1.00  0.00     0.029 A 
HETATM   16  C14 UNL     1      -0.731  49.199 -17.153  1.00  0.00    -0.022 A 
HETATM   17  C18 UNL     1      -1.606  48.707 -18.105  1.00  0.00     0.059 A 
HETATM   18  S1  UNL     1      -1.543  49.569 -19.576  1.00  0.00    -0.101 SA
BRANCH  16  19
HETATM   19  C15 UNL     1      -0.575  48.649 -15.760  1.00  0.00     0.310 C 
BRANCH  19  20
HETATM   20  N1  UNL     1       0.792  48.730 -15.233  1.00  0.00     0.084 N 
HETATM   21  C16 UNL     1       0.947  49.684 -14.141  1.00  0.00     0.309 C 
HETATM   22  C17 UNL     1       1.373  47.435 -14.899  1.00  0.00     0.309 C 
ENDBRANCH  19  20
ENDBRANCH  16  19
ENDBRANCH   9  14
BRANCH  12  23
HETATM   23  N3  UNL     1       1.767  54.897 -21.987  1.00  0.00    -0.288 NA
HETATM   24  H20 UNL     1       2.309  55.421 -21.306  1.00  0.00     0.125 HD
HETATM   25  H21 UNL     1       2.338  54.593 -22.772  1.00  0.00     0.125 HD
ENDBRANCH  12  23
ENDBRANCH   3   7
BRANCH   1  26
HETATM   26  O1  UNL     1      -0.948  50.543 -26.014  1.00  0.00    -0.341 OA
BRANCH  26  27
HETATM   27  C2  UNL     1      -2.222  50.161 -25.465  1.00  0.00     0.147 C 
HETATM   28  C1  UNL     1      -2.580  48.795 -26.052  1.00  0.00     0.044 C 
BRANCH  27  29
HETATM   29  C3  UNL     1      -3.253  51.186 -25.879  1.00  0.00     0.009 C 
HETATM   30  C4  UNL     1      -4.000  51.974 -25.083  1.00  0.00     0.087 C 
BRANCH  30  31
HETATM   31  C5  UNL     1      -4.032  52.091 -23.595  1.00  0.00     0.407 C 
HETATM   32  F1  UNL     1      -3.074  52.949 -23.155  1.00  0.00    -0.167 F 
HETATM   33  F2  UNL     1      -5.222  52.588 -23.175  1.00  0.00    -0.167 F 
HETATM   34  F3  UNL     1      -3.841  50.923 -22.938  1.00  0.00    -0.167 F 
ENDBRANCH  30  31
ENDBRANCH  27  29
ENDBRANCH  26  27
ENDBRANCH   1  26
BRANCH   6  35
HETATM   35  C24 UNL     1      -0.418  52.906 -27.698  1.00  0.00     0.252 C 
HETATM   36  N4  UNL     1      -1.498  53.631 -28.126  1.00  0.00    -0.366 N 
HETATM   37  H24 UNL     1      -1.578  53.762 -29.127  1.00  0.00     0.159 HD
HETATM   38  H25 UNL     1      -1.964  54.298 -27.526  1.00  0.00     0.159 HD
HETATM   39  O2  UNL     1       0.324  52.362 -28.505  1.00  0.00    -0.268 OA
ENDBRANCH   6  35
TORSDOF 10
ENDMDL
MODEL 3
REMARK minimizedAffinity -9.16654873
REMARK  10 active torsions:
REMARK  status: ('A' for Active; 'I' for Inactive)
REMARK    1  A    between atoms: C2_2  and  C3_3 
REMARK    2  A    between atoms: C2_2  and  O1_9 
REMARK    3  A    between atoms: C4_4  and  C5_5 
REMARK    4  A    between atoms: O1_9  and  C6_10 
REMARK    5  A    between atoms: C8_12  and  C9_13 
REMARK    6  A    between atoms: C11_15  and  C12_16 
REMARK    7  A    between atoms: C14_18  and  C15_19 
REMARK    8  A    between atoms: C15_19  and  N1_20 
REMARK    9  A    between atoms: C20_28  and  N3_29 
REMARK   10  A    between atoms: C23_32  and  C24_33 
REMARK       I    between atoms: C24_33  and  N4_34 
ROOT
HETATM    1  C6  UNL     1      -0.828  51.600 -25.221  1.00  0.00     0.086 A 
HETATM    2  C7  UNL     1      -0.626  51.676 -23.836  1.00  0.00     0.050 A 
HETATM    3  C8  UNL     1       0.145  52.703 -23.274  1.00  0.00    -0.020 A 
HETATM    4  C21 UNL     1       0.665  53.687 -24.127  1.00  0.00     0.013 A 
HETATM    5  C22 UNL     1       0.427  53.642 -25.505  1.00  0.00     0.021 A 
HETATM    6  C23 UNL     1      -0.317  52.594 -26.064  1.00  0.00     0.065 A 
ENDROOT
BRANCH   3   7
HETATM    7  C9  UNL     1       0.408  52.737 -21.827  1.00  0.00     0.013 A 
HETATM    8  C10 UNL     1      -0.084  51.711 -21.000  1.00  0.00     0.029 A 
HETATM    9  C11 UNL     1       0.151  51.724 -19.623  1.00  0.00    -0.003 A 
HETATM   10  C19 UNL     1       0.881  52.799 -19.128  1.00  0.00     0.102 A 
HETATM   11  N2  UNL     1       1.378  53.807 -19.883  1.00  0.00    -0.355 N 
HETATM   12  C20 UNL     1       1.147  53.759 -21.209  1.00  0.00     0.088 A 
ATOM     13  H2  UNL     1       1.906  54.573 -19.464  1.00  0.00     0.166 HD
BRANCH   9  14
HETATM   14  C12 UNL     1      -0.355  50.682 -18.726  1.00  0.00     0.017 A 
HETATM   15  C13 UNL     1       0.071  50.358 -17.450  1.00  0.00     0.029 A 
HETATM   16  C14 UNL     1      -0.632  49.245 -16.874  1.00  0.00    -0.022 A 
HETATM   17  C18 UNL     1      -1.601  48.787 -17.749  1.00  0.00     0.059 A 
HETATM   18  S1  UNL     1      -1.622  49.641 -19.226  1.00  0.00    -0.101 SA
BRANCH  16  19
HETATM   19  C15 UNL     1      -0.386  48.694 -15.495  1.00  0.00     0.310 C 
BRANCH  19  20
HETATM   20  N1  UNL     1       1.030  48.645 -15.111  1.00  0.00     0.084 N 
HETATM   21  C16 UNL     1       1.383  49.576 -14.046  1.00  0.00     0.309 C 
HETATM   22  C17 UNL     1       1.520  47.301 -14.832  1.00  0.00     0.309 C 
ENDBRANCH  19  20
ENDBRANCH  16  19
ENDBRANCH   9  14
BRANCH  12  23
HETATM   23  N3  UNL     1       1.678  54.830 -21.931  1.00  0.00    -0.288 NA
HETATM   24  H20 UNL     1       2.221  55.387 -21.278  1.00  0.00     0.125 HD
HETATM   25  H21 UNL     1       2.243  54.504 -22.712  1.00  0.00     0.125 HD
ENDBRANCH  12  23
ENDBRANCH   3   7
BRANCH   1  26
HETATM   26  O1  UNL     1      -1.547  50.517 -25.661  1.00  0.00    -0.341 OA
BRANCH  26  27
HETATM   27  C2  UNL     1      -2.798  50.899 -26.261  1.00  0.00     0.147 C 
HETATM   28  C1  UNL     1      -3.506  51.837 -25.284  1.00  0.00     0.044 C 
BRANCH  27  29
HETATM   29  C3  UNL     1      -3.629  49.654 -26.474  1.00  0.00     0.009 C 
HETATM   30  C4  UNL     1      -4.034  48.763 -25.549  1.00  0.00     0.087 C 
BRANCH  30  31
HETATM   31  C5  UNL     1      -3.810  48.733 -24.074  1.00  0.00     0.407 C 
HETATM   32  F1  UNL     1      -2.492  48.564 -23.788  1.00  0.00    -0.167 F 
HETATM   33  F2  UNL     1      -4.183  49.906 -23.505  1.00  0.00    -0.167 F 
HETATM   34  F3  UNL     1      -4.479  47.752 -23.426  1.00  0.00    -0.167 F 
ENDBRANCH  30  31
ENDBRANCH  27  29
ENDBRANCH  26  27
ENDBRANCH   1  26
BRANCH   6  35
HETATM   35  C24 UNL     1      -0.560  52.575 -27.530  1.00  0.00     0.252 C 
HETATM   36  N4  UNL     1      -1.399  53.539 -28.021  1.00  0.00    -0.366 N 
HETATM   37  H24 UNL     1      -1.465  53.601 -29.029  1.00  0.00     0.159 HD
HETATM   38  H25 UNL     1      -1.641  54.361 -27.484  1.00  0.00     0.159 HD
HETATM   39  O2  UNL     1      -0.025  51.775 -28.284  1.00  0.00    -0.268 OA
ENDBRANCH   6  35
TORSDOF 10
ENDMDL
MODEL 4
REMARK minimizedAffinity -9.15090656
REMARK  10 active torsions:
REMARK  status: ('A' for Active; 'I' for Inactive)
REMARK    1  A    between atoms: C2_2  and  C3_3 
REMARK    2  A    between atoms: C2_2  and  O1_9 
REMARK    3  A    between atoms: C4_4  and  C5_5 
REMARK    4  A    between atoms: O1_9  and  C6_10 
REMARK    5  A    between atoms: C8_12  and  C9_13 
REMARK    6  A    between atoms: C11_15  and  C12_16 
REMARK    7  A    between atoms: C14_18  and  C15_19 
REMARK    8  A    between atoms: C15_19  and  N1_20 
REMARK    9  A    between atoms: C20_28  and  N3_29 
REMARK   10  A    between atoms: C23_32  and  C24_33 
REMARK       I    between atoms: C24_33  and  N4_34 
ROOT
HETATM    1  C6  UNL     1      -0.669  51.846 -25.433  1.00  0.00     0.086 A 
HETATM    2  C7  UNL     1      -0.496  51.856 -24.042  1.00  0.00     0.050 A 
HETATM    3  C8  UNL     1       0.244  52.867 -23.412  1.00  0.00    -0.020 A 
HETATM    4  C21 UNL     1       0.759  53.903 -24.204  1.00  0.00     0.013 A 
HETATM    5  C22 UNL     1       0.549  53.925 -25.587  1.00  0.00     0.021 A 
HETATM    6  C23 UNL     1      -0.163  52.893 -26.213  1.00  0.00     0.065 A 
ENDROOT
BRANCH   3   7
HETATM    7  C9  UNL     1       0.478  52.832 -21.960  1.00  0.00     0.013 A 
HETATM    8  C10 UNL     1      -0.067  51.791 -21.187  1.00  0.00     0.029 A 
HETATM    9  C11 UNL     1       0.140  51.739 -19.806  1.00  0.00    -0.003 A 
HETATM   10  C19 UNL     1       0.898  52.765 -19.253  1.00  0.00     0.102 A 
HETATM   11  N2  UNL     1       1.445  53.785 -19.956  1.00  0.00    -0.355 N 
HETATM   12  C20 UNL     1       1.240  53.800 -21.287  1.00  0.00     0.088 A 
ATOM     13  H2  UNL     1       1.992  54.513 -19.495  1.00  0.00     0.166 HD
BRANCH   9  14
HETATM   14  C12 UNL     1      -0.421  50.680 -18.963  1.00  0.00     0.017 A 
HETATM   15  C13 UNL     1      -1.186  49.591 -19.338  1.00  0.00     0.029 A 
HETATM   16  C14 UNL     1      -1.602  48.771 -18.233  1.00  0.00    -0.022 A 
HETATM   17  C18 UNL     1      -1.094  49.273 -17.049  1.00  0.00     0.059 A 
HETATM   18  S1  UNL     1      -0.193  50.706 -17.264  1.00  0.00    -0.101 SA
BRANCH  16  19
HETATM   19  C15 UNL     1      -2.424  47.516 -18.355  1.00  0.00     0.310 C 
BRANCH  19  20
HETATM   20  N1  UNL     1      -3.832  47.751 -18.696  1.00  0.00     0.084 N 
HETATM   21  C16 UNL     1      -4.461  48.802 -17.904  1.00  0.00     0.309 C 
HETATM   22  C17 UNL     1      -4.072  47.938 -20.121  1.00  0.00     0.309 C 
ENDBRANCH  19  20
ENDBRANCH  16  19
ENDBRANCH   9  14
BRANCH  12  23
HETATM   23  N3  UNL     1       1.823  54.880 -21.953  1.00  0.00    -0.288 NA
HETATM   24  H20 UNL     1       2.373  55.389 -21.267  1.00  0.00     0.125 HD
HETATM   25  H21 UNL     1       2.392  54.566 -22.736  1.00  0.00     0.125 HD
ENDBRANCH  12  23
ENDBRANCH   3   7
BRANCH   1  26
HETATM   26  O1  UNL     1      -1.357  50.774 -25.942  1.00  0.00    -0.341 OA
BRANCH  26  27
HETATM   27  C2  UNL     1      -2.775  51.011 -25.998  1.00  0.00     0.147 C 
HETATM   28  C1  UNL     1      -3.055  52.297 -25.220  1.00  0.00     0.044 C 
BRANCH  27  29
HETATM   29  C3  UNL     1      -3.485  49.848 -25.342  1.00  0.00     0.009 C 
HETATM   30  C4  UNL     1      -4.050  48.782 -25.941  1.00  0.00     0.087 C 
BRANCH  30  31
HETATM   31  C5  UNL     1      -4.137  48.419 -27.386  1.00  0.00     0.407 C 
HETATM   32  F1  UNL     1      -3.019  47.759 -27.788  1.00  0.00    -0.167 F 
HETATM   33  F2  UNL     1      -5.183  47.587 -27.613  1.00  0.00    -0.167 F 
HETATM   34  F3  UNL     1      -4.288  49.474 -28.220  1.00  0.00    -0.167 F 
ENDBRANCH  30  31
ENDBRANCH  27  29
ENDBRANCH  26  27
ENDBRANCH   1  26
BRANCH   6  35
HETATM   35  C24 UNL     1      -0.377  52.944 -27.683  1.00  0.00     0.252 C 
HETATM   36  N4  UNL     1      -1.401  53.741 -28.122  1.00  0.00    -0.366 N 
HETATM   37  H24 UNL     1      -1.466  53.870 -29.124  1.00  0.00     0.159 HD
HETATM   38  H25 UNL     1      -1.824  54.442 -27.529  1.00  0.00     0.159 HD
HETATM   39  O2  UNL     1       0.329  52.345 -28.482  1.00  0.00    -0.268 OA
ENDBRANCH   6  35
TORSDOF 10
ENDMDL
MODEL 5
REMARK minimizedAffinity -9.14705753
REMARK  10 active torsions:
REMARK  status: ('A' for Active; 'I' for Inactive)
REMARK    1  A    between atoms: C2_2  and  C3_3 
REMARK    2  A    between atoms: C2_2  and  O1_9 
REMARK    3  A    between atoms: C4_4  and  C5_5 
REMARK    4  A    between atoms: O1_9  and  C6_10 
REMARK    5  A    between atoms: C8_12  and  C9_13 
REMARK    6  A    between atoms: C11_15  and  C12_16 
REMARK    7  A    between atoms: C14_18  and  C15_19 
REMARK    8  A    between atoms: C15_19  and  N1_20 
REMARK    9  A    between atoms: C20_28  and  N3_29 
REMARK   10  A    between atoms: C23_32  and  C24_33 
REMARK       I    between atoms: C24_33  and  N4_34 
ROOT
HETATM    1  C6  UNL     1      -1.622  52.906 -25.024  1.00  0.00     0.086 A 
HETATM    2  C7  UNL     1      -2.160  52.454 -23.811  1.00  0.00     0.050 A 
HETATM    3  C8  UNL     1      -3.295  51.632 -23.785  1.00  0.00    -0.020 A 
HETATM    4  C21 UNL     1      -3.847  51.224 -25.007  1.00  0.00     0.013 A 
HETATM    5  C22 UNL     1      -3.286  51.632 -26.222  1.00  0.00     0.021 A 
HETATM    6  C23 UNL     1      -2.172  52.481 -26.240  1.00  0.00     0.065 A 
ENDROOT
BRANCH   3   7
HETATM    7  C9  UNL     1      -3.892  51.219 -22.505  1.00  0.00     0.013 A 
HETATM    8  C10 UNL     1      -3.068  50.966 -21.394  1.00  0.00     0.029 A 
HETATM    9  C11 UNL     1      -3.613  50.571 -20.171  1.00  0.00    -0.003 A 
HETATM   10  C19 UNL     1      -4.996  50.436 -20.122  1.00  0.00     0.102 A 
HETATM   11  N2  UNL     1      -5.831  50.671 -21.162  1.00  0.00    -0.355 N 
HETATM   12  C20 UNL     1      -5.277  51.064 -22.325  1.00  0.00     0.088 A 
ATOM     13  H2  UNL     1      -6.841  50.554 -21.068  1.00  0.00     0.166 HD
BRANCH   9  14
HETATM   14  C12 UNL     1      -2.788  50.285 -18.994  1.00  0.00     0.017 A 
HETATM   15  C13 UNL     1      -1.466  50.619 -18.763  1.00  0.00     0.029 A 
HETATM   16  C14 UNL     1      -0.962  50.139 -17.506  1.00  0.00    -0.022 A 
HETATM   17  C18 UNL     1      -1.959  49.475 -16.814  1.00  0.00     0.059 A 
HETATM   18  S1  UNL     1      -3.429  49.395 -17.676  1.00  0.00    -0.101 SA
BRANCH  16  19
HETATM   19  C15 UNL     1       0.433  50.376 -16.993  1.00  0.00     0.310 C 
BRANCH  19  20
HETATM   20  N1  UNL     1       0.541  51.483 -16.035  1.00  0.00     0.084 N 
HETATM   21  C16 UNL     1       0.762  51.051 -14.660  1.00  0.00     0.309 C 
HETATM   22  C17 UNL     1       1.490  52.516 -16.431  1.00  0.00     0.309 C 
ENDBRANCH  19  20
ENDBRANCH  16  19
ENDBRANCH   9  14
BRANCH  12  23
HETATM   23  N3  UNL     1      -6.188  51.283 -23.360  1.00  0.00    -0.288 NA
HETATM   24  H20 UNL     1      -7.118  51.178 -22.962  1.00  0.00     0.125 HD
HETATM   25  H21 UNL     1      -6.058  52.201 -23.778  1.00  0.00     0.125 HD
ENDBRANCH  12  23
ENDBRANCH   3   7
BRANCH   1  26
HETATM   26  O1  UNL     1      -0.549  53.755 -24.923  1.00  0.00    -0.341 OA
BRANCH  26  27
HETATM   27  C2  UNL     1       0.612  53.107 -24.374  1.00  0.00     0.147 C 
HETATM   28  C1  UNL     1       1.083  52.072 -25.395  1.00  0.00     0.044 C 
BRANCH  27  29
HETATM   29  C3  UNL     1       0.216  52.417 -23.087  1.00  0.00     0.009 C 
HETATM   30  C4  UNL     1       0.495  52.799 -21.826  1.00  0.00     0.087 C 
BRANCH  30  31
HETATM   31  C5  UNL     1       1.242  53.988 -21.320  1.00  0.00     0.407 C 
HETATM   32  F1  UNL     1       1.289  54.968 -22.261  1.00  0.00    -0.167 F 
HETATM   33  F2  UNL     1       0.625  54.520 -20.235  1.00  0.00    -0.167 F 
HETATM   34  F3  UNL     1       2.521  53.732 -20.957  1.00  0.00    -0.167 F 
ENDBRANCH  30  31
ENDBRANCH  27  29
ENDBRANCH  26  27
ENDBRANCH   1  26
BRANCH   6  35
HETATM   35  C24 UNL     1      -1.592  52.895 -27.544  1.00  0.00     0.252 C 
HETATM   36  N4  UNL     1      -0.861  51.949 -28.213  1.00  0.00    -0.366 N 
HETATM   37  H24 UNL     1      -0.573  52.192 -29.152  1.00  0.00     0.159 HD
HETATM   38  H25 UNL     1      -0.914  50.968 -27.976  1.00  0.00     0.159 HD
HETATM   39  O2  UNL     1      -1.772  54.001 -28.034  1.00  0.00    -0.268 OA
ENDBRANCH   6  35
TORSDOF 10
ENDMDL
MODEL 6
REMARK minimizedAffinity -9.1111269
REMARK  10 active torsions:
REMARK  status: ('A' for Active; 'I' for Inactive)
REMARK    1  A    between atoms: C2_2  and  C3_3 
REMARK    2  A    between atoms: C2_2  and  O1_9 
REMARK    3  A    between atoms: C4_4  and  C5_5 
REMARK    4  A    between atoms: O1_9  and  C6_10 
REMARK    5  A    between atoms: C8_12  and  C9_13 
REMARK    6  A    between atoms: C11_15  and  C12_16 
REMARK    7  A    between atoms: C14_18  and  C15_19 
REMARK    8  A    between atoms: C15_19  and  N1_20 
REMARK    9  A    between atoms: C20_28  and  N3_29 
REMARK   10  A    between atoms: C23_32  and  C24_33 
REMARK       I    between atoms: C24_33  and  N4_34 
ROOT
HETATM    1  C6  UNL     1      -1.668  52.181 -25.862  1.00  0.00     0.086 A 
HETATM    2  C7  UNL     1      -0.903  52.696 -24.807  1.00  0.00     0.050 A 
HETATM    3  C8  UNL     1      -0.755  51.986 -23.607  1.00  0.00    -0.020 A 
HETATM    4  C21 UNL     1      -1.346  50.718 -23.509  1.00  0.00     0.013 A 
HETATM    5  C22 UNL     1      -2.070  50.177 -24.577  1.00  0.00     0.021 A 
HETATM    6  C23 UNL     1      -2.242  50.908 -25.761  1.00  0.00     0.065 A 
ENDROOT
BRANCH   3   7
HETATM    7  C9  UNL     1      -0.008  52.565 -22.480  1.00  0.00     0.013 A 
HETATM    8  C10 UNL     1      -0.139  52.014 -21.193  1.00  0.00     0.029 A 
HETATM    9  C11 UNL     1       0.559  52.550 -20.108  1.00  0.00    -0.003 A 
HETATM   10  C19 UNL     1       1.370  53.647 -20.373  1.00  0.00     0.102 A 
HETATM   11  N2  UNL     1       1.532  54.211 -21.593  1.00  0.00    -0.355 N 
HETATM   12  C20 UNL     1       0.857  53.663 -22.622  1.00  0.00     0.088 A 
ATOM     13  H2  UNL     1       2.142  55.018 -21.728  1.00  0.00     0.166 HD
BRANCH   9  14
HETATM   14  C12 UNL     1       0.439  52.014 -18.749  1.00  0.00     0.017 A 
HETATM   15  C13 UNL     1       1.008  52.486 -17.581  1.00  0.00     0.029 A 
HETATM   16  C14 UNL     1       0.706  51.683 -16.428  1.00  0.00    -0.022 A 
HETATM   17  C18 UNL     1      -0.122  50.633 -16.781  1.00  0.00     0.059 A 
HETATM   18  S1  UNL     1      -0.477  50.596 -18.450  1.00  0.00    -0.101 SA
BRANCH  16  19
HETATM   19  C15 UNL     1       1.178  51.976 -15.029  1.00  0.00     0.310 C 
BRANCH  19  20
HETATM   20  N1  UNL     1       2.458  51.348 -14.682  1.00  0.00     0.084 N 
HETATM   21  C16 UNL     1       3.618  52.021 -15.256  1.00  0.00     0.309 C 
HETATM   22  C17 UNL     1       2.631  51.106 -13.256  1.00  0.00     0.309 C 
ENDBRANCH  19  20
ENDBRANCH  16  19
ENDBRANCH   9  14
BRANCH  12  23
HETATM   23  N3  UNL     1       1.060  54.292 -23.852  1.00  0.00    -0.288 NA
HETATM   24  H20 UNL     1       1.773  55.001 -23.707  1.00  0.00     0.125 HD
HETATM   25  H21 UNL     1       1.331  53.623 -24.569  1.00  0.00     0.125 HD
ENDBRANCH  12  23
ENDBRANCH   3   7
BRANCH   1  26
HETATM   26  O1  UNL     1      -1.792  52.992 -26.962  1.00  0.00    -0.341 OA
BRANCH  26  27
HETATM   27  C2  UNL     1      -0.539  53.580 -27.352  1.00  0.00     0.147 C 
HETATM   28  C1  UNL     1      -0.852  54.917 -28.024  1.00  0.00     0.044 C 
BRANCH  27  29
HETATM   29  C3  UNL     1       0.142  52.656 -28.337  1.00  0.00     0.009 C 
HETATM   30  C4  UNL     1       1.147  51.792 -28.099  1.00  0.00     0.087 C 
BRANCH  30  31
HETATM   31  C5  UNL     1       1.869  51.476 -26.832  1.00  0.00     0.407 C 
HETATM   32  F1  UNL     1       1.275  50.441 -26.180  1.00  0.00    -0.167 F 
HETATM   33  F2  UNL     1       3.146  51.095 -27.085  1.00  0.00    -0.167 F 
HETATM   34  F3  UNL     1       1.934  52.504 -25.953  1.00  0.00    -0.167 F 
ENDBRANCH  30  31
ENDBRANCH  27  29
ENDBRANCH  26  27
ENDBRANCH   1  26
BRANCH   6  35
HETATM   35  C24 UNL     1      -3.011  50.307 -26.882  1.00  0.00     0.252 C 
HETATM   36  N4  UNL     1      -2.890  50.920 -28.100  1.00  0.00    -0.366 N 
HETATM   37  H24 UNL     1      -3.313  50.440 -28.884  1.00  0.00     0.159 HD
HETATM   38  H25 UNL     1      -2.145  51.574 -28.297  1.00  0.00     0.159 HD
HETATM   39  O2  UNL     1      -3.693  49.300 -26.758  1.00  0.00    -0.268 OA
ENDBRANCH   6  35
TORSDOF 10
ENDMDL
MODEL 7
REMARK minimizedAffinity -9.09272289
REMARK  10 active torsions:
REMARK  status: ('A' for Active; 'I' for Inactive)
REMARK    1  A    between atoms: C2_2  and  C3_3 
REMARK    2  A    between atoms: C2_2  and  O1_9 
REMARK    3  A    between atoms: C4_4  and  C5_5 
REMARK    4  A    between atoms: O1_9  and  C6_10 
REMARK    5  A    between atoms: C8_12  and  C9_13 
REMARK    6  A    between atoms: C11_15  and  C12_16 
REMARK    7  A    between atoms: C14_18  and  C15_19 
REMARK    8  A    between atoms: C15_19  and  N1_20 
REMARK    9  A    between atoms: C20_28  and  N3_29 
REMARK   10  A    between atoms: C23_32  and  C24_33 
REMARK       I    between atoms: C24_33  and  N4_34 
ROOT
HETATM    1  C6  UNL     1      -0.480  51.709 -25.437  1.00  0.00     0.086 A 
HETATM    2  C7  UNL     1      -0.320  51.733 -24.045  1.00  0.00     0.050 A 
HETATM    3  C8  UNL     1       0.237  52.847 -23.400  1.00  0.00    -0.020 A 
HETATM    4  C21 UNL     1       0.581  53.961 -24.179  1.00  0.00     0.013 A 
HETATM    5  C22 UNL     1       0.381  53.961 -25.563  1.00  0.00     0.021 A 
HETATM    6  C23 UNL     1      -0.146  52.832 -26.204  1.00  0.00     0.065 A 
ENDROOT
BRANCH   3   7
HETATM    7  C9  UNL     1       0.463  52.836 -21.946  1.00  0.00     0.013 A 
HETATM    8  C10 UNL     1      -0.076  51.802 -21.160  1.00  0.00     0.029 A 
HETATM    9  C11 UNL     1       0.124  51.773 -19.778  1.00  0.00    -0.003 A 
HETATM   10  C19 UNL     1       0.867  52.816 -19.236  1.00  0.00     0.102 A 
HETATM   11  N2  UNL     1       1.409  53.831 -19.951  1.00  0.00    -0.355 N 
HETATM   12  C20 UNL     1       1.211  53.823 -21.284  1.00  0.00     0.088 A 
ATOM     13  H2  UNL     1       1.945  54.571 -19.499  1.00  0.00     0.166 HD
BRANCH   9  14
HETATM   14  C12 UNL     1      -0.432  50.722 -18.921  1.00  0.00     0.017 A 
HETATM   15  C13 UNL     1      -1.437  49.816 -19.206  1.00  0.00     0.029 A 
HETATM   16  C14 UNL     1      -1.757  48.947 -18.108  1.00  0.00    -0.022 A 
HETATM   17  C18 UNL     1      -0.938  49.220 -17.028  1.00  0.00     0.059 A 
HETATM   18  S1  UNL     1       0.139  50.512 -17.319  1.00  0.00    -0.101 SA
BRANCH  16  19
HETATM   19  C15 UNL     1      -2.795  47.857 -18.149  1.00  0.00     0.310 C 
BRANCH  19  20
HETATM   20  N1  UNL     1      -3.472  47.720 -19.444  1.00  0.00     0.084 N 
HETATM   21  C16 UNL     1      -3.385  46.382 -20.015  1.00  0.00     0.309 C 
HETATM   22  C17 UNL     1      -4.842  48.217 -19.449  1.00  0.00     0.309 C 
ENDBRANCH  19  20
ENDBRANCH  16  19
ENDBRANCH   9  14
BRANCH  12  23
HETATM   23  N3  UNL     1       1.787  54.898 -21.964  1.00  0.00    -0.288 NA
HETATM   24  H20 UNL     1       2.328  55.423 -21.282  1.00  0.00     0.125 HD
HETATM   25  H21 UNL     1       2.364  54.578 -22.738  1.00  0.00     0.125 HD
ENDBRANCH  12  23
ENDBRANCH   3   7
BRANCH   1  26
HETATM   26  O1  UNL     1      -0.978  50.543 -25.961  1.00  0.00    -0.341 OA
BRANCH  26  27
HETATM   27  C2  UNL     1      -2.343  50.678 -26.395  1.00  0.00     0.147 C 
HETATM   28  C1  UNL     1      -3.040  51.629 -25.422  1.00  0.00     0.044 C 
BRANCH  27  29
HETATM   29  C3  UNL     1      -3.001  49.318 -26.347  1.00  0.00     0.009 C 
HETATM   30  C4  UNL     1      -3.339  48.603 -25.257  1.00  0.00     0.087 C 
BRANCH  30  31
HETATM   31  C5  UNL     1      -3.189  48.923 -23.807  1.00  0.00     0.407 C 
HETATM   32  F1  UNL     1      -4.007  49.947 -23.449  1.00  0.00    -0.167 F 
HETATM   33  F2  UNL     1      -3.537  47.861 -23.039  1.00  0.00    -0.167 F 
HETATM   34  F3  UNL     1      -1.935  49.278 -23.439  1.00  0.00    -0.167 F 
ENDBRANCH  30  31
ENDBRANCH  27  29
ENDBRANCH  26  27
ENDBRANCH   1  26
BRANCH   6  35
HETATM   35  C24 UNL     1      -0.355  52.861 -27.676  1.00  0.00     0.252 C 
HETATM   36  N4  UNL     1      -1.349  53.684 -28.133  1.00  0.00    -0.366 N 
HETATM   37  H24 UNL     1      -1.407  53.796 -29.138  1.00  0.00     0.159 HD
HETATM   38  H25 UNL     1      -1.748  54.411 -27.556  1.00  0.00     0.159 HD
HETATM   39  O2  UNL     1       0.333  52.222 -28.460  1.00  0.00    -0.268 OA
ENDBRANCH   6  35
TORSDOF 10
ENDMDL
MODEL 8
REMARK minimizedAffinity -8.96920776
REMARK  10 active torsions:
REMARK  status: ('A' for Active; 'I' for Inactive)
REMARK    1  A    between atoms: C2_2  and  C3_3 
REMARK    2  A    between atoms: C2_2  and  O1_9 
REMARK    3  A    between atoms: C4_4  and  C5_5 
REMARK    4  A    between atoms: O1_9  and  C6_10 
REMARK    5  A    between atoms: C8_12  and  C9_13 
REMARK    6  A    between atoms: C11_15  and  C12_16 
REMARK    7  A    between atoms: C14_18  and  C15_19 
REMARK    8  A    between atoms: C15_19  and  N1_20 
REMARK    9  A    between atoms: C20_28  and  N3_29 
REMARK   10  A    between atoms: C23_32  and  C24_33 
REMARK       I    between atoms: C24_33  and  N4_34 
ROOT
HETATM    1  C6  UNL     1      -1.040  52.693 -24.705  1.00  0.00     0.086 A 
HETATM    2  C7  UNL     1      -1.257  51.926 -23.552  1.00  0.00     0.050 A 
HETATM    3  C8  UNL     1      -0.389  52.009 -22.454  1.00  0.00    -0.020 A 
HETATM    4  C21 UNL     1       0.673  52.922 -22.515  1.00  0.00     0.013 A 
HETATM    5  C22 UNL     1       0.867  53.725 -23.644  1.00  0.00     0.021 A 
HETATM    6  C23 UNL     1       0.015  53.613 -24.751  1.00  0.00     0.065 A 
ENDROOT
BRANCH   3   7
HETATM    7  C9  UNL     1      -0.586  51.149 -21.276  1.00  0.00     0.013 A 
HETATM    8  C10 UNL     1      -0.166  51.589 -20.008  1.00  0.00     0.029 A 
HETATM    9  C11 UNL     1      -0.341  50.789 -18.877  1.00  0.00    -0.003 A 
HETATM   10  C19 UNL     1      -0.937  49.550 -19.079  1.00  0.00     0.102 A 
HETATM   11  N2  UNL     1      -1.361  49.084 -20.278  1.00  0.00    -0.355 N 
HETATM   12  C20 UNL     1      -1.192  49.884 -21.348  1.00  0.00     0.088 A 
ATOM     13  H2  UNL     1      -1.792  48.163 -20.367  1.00  0.00     0.166 HD
BRANCH   9  14
HETATM   14  C12 UNL     1       0.095  51.205 -17.541  1.00  0.00     0.017 A 
HETATM   15  C13 UNL     1      -0.414  50.831 -16.310  1.00  0.00     0.029 A 
HETATM   16  C14 UNL     1       0.238  51.470 -15.200  1.00  0.00    -0.022 A 
HETATM   17  C18 UNL     1       1.253  52.293 -15.651  1.00  0.00     0.059 A 
HETATM   18  S1  UNL     1       1.378  52.327 -17.352  1.00  0.00    -0.101 SA
BRANCH  16  19
HETATM   19  C15 UNL     1      -0.101  51.232 -13.752  1.00  0.00     0.310 C 
BRANCH  19  20
HETATM   20  N1  UNL     1      -0.938  52.277 -13.152  1.00  0.00     0.084 N 
HETATM   21  C16 UNL     1      -2.368  52.011 -13.242  1.00  0.00     0.309 C 
HETATM   22  C17 UNL     1      -0.545  52.641 -11.796  1.00  0.00     0.309 C 
ENDBRANCH  19  20
ENDBRANCH  16  19
ENDBRANCH   9  14
BRANCH  12  23
HETATM   23  N3  UNL     1      -1.642  49.345 -22.555  1.00  0.00    -0.288 NA
HETATM   24  H20 UNL     1      -2.099  48.465 -22.333  1.00  0.00     0.125 HD
HETATM   25  H21 UNL     1      -2.269  49.987 -23.034  1.00  0.00     0.125 HD
ENDBRANCH  12  23
ENDBRANCH   3   7
BRANCH   1  26
HETATM   26  O1  UNL     1      -1.919  52.483 -25.737  1.00  0.00    -0.341 OA
BRANCH  26  27
HETATM   27  C2  UNL     1      -1.981  51.100 -26.129  1.00  0.00     0.147 C 
HETATM   28  C1  UNL     1      -0.554  50.649 -26.441  1.00  0.00     0.044 C 
BRANCH  27  29
HETATM   29  C3  UNL     1      -2.839  50.988 -27.369  1.00  0.00     0.009 C 
HETATM   30  C4  UNL     1      -3.575  49.934 -27.772  1.00  0.00     0.087 C 
BRANCH  30  31
HETATM   31  C5  UNL     1      -3.778  48.599 -27.136  1.00  0.00     0.407 C 
HETATM   32  F1  UNL     1      -4.435  47.757 -27.977  1.00  0.00    -0.167 F 
HETATM   33  F2  UNL     1      -2.589  48.014 -26.851  1.00  0.00    -0.167 F 
HETATM   34  F3  UNL     1      -4.486  48.630 -25.983  1.00  0.00    -0.167 F 
ENDBRANCH  30  31
ENDBRANCH  27  29
ENDBRANCH  26  27
ENDBRANCH   1  26
BRANCH   6  35
HETATM   35  C24 UNL     1       0.240  54.483 -25.934  1.00  0.00     0.252 C 
HETATM   36  N4  UNL     1       0.306  53.853 -27.149  1.00  0.00    -0.366 N 
HETATM   37  H24 UNL     1       0.335  54.456 -27.961  1.00  0.00     0.159 HD
HETATM   38  H25 UNL     1      -0.024  52.907 -27.278  1.00  0.00     0.159 HD
HETATM   39  O2  UNL     1       0.331  55.700 -25.860  1.00  0.00    -0.268 OA
ENDBRANCH   6  35
TORSDOF 10
ENDMDL
MODEL 9
REMARK minimizedAffinity -8.86916542
REMARK  10 active torsions:
REMARK  status: ('A' for Active; 'I' for Inactive)
REMARK    1  A    between atoms: C2_2  and  C3_3 
REMARK    2  A    between atoms: C2_2  and  O1_9 
REMARK    3  A    between atoms: C4_4  and  C5_5 
REMARK    4  A    between atoms: O1_9  and  C6_10 
REMARK    5  A    between atoms: C8_12  and  C9_13 
REMARK    6  A    between atoms: C11_15  and  C12_16 
REMARK    7  A    between atoms: C14_18  and  C15_19 
REMARK    8  A    between atoms: C15_19  and  N1_20 
REMARK    9  A    between atoms: C20_28  and  N3_29 
REMARK   10  A    between atoms: C23_32  and  C24_33 
REMARK       I    between atoms: C24_33  and  N4_34 
ROOT
HETATM    1  C6  UNL     1      -0.748  51.559 -24.264  1.00  0.00     0.086 A 
HETATM    2  C7  UNL     1      -1.003  50.888 -23.059  1.00  0.00     0.050 A 
HETATM    3  C8  UNL     1      -0.341  51.248 -21.877  1.00  0.00    -0.020 A 
HETATM    4  C21 UNL     1       0.544  52.335 -21.917  1.00  0.00     0.013 A 
HETATM    5  C22 UNL     1       0.767  53.039 -23.105  1.00  0.00     0.021 A 
HETATM    6  C23 UNL     1       0.127  52.652 -24.290  1.00  0.00     0.065 A 
ENDROOT
BRANCH   3   7
HETATM    7  C9  UNL     1      -0.564  50.495 -20.633  1.00  0.00     0.013 A 
HETATM    8  C10 UNL     1      -0.197  51.056 -19.397  1.00  0.00     0.029 A 
HETATM    9  C11 UNL     1      -0.398  50.358 -18.204  1.00  0.00    -0.003 A 
HETATM   10  C19 UNL     1      -0.965  49.093 -18.313  1.00  0.00     0.102 A 
HETATM   11  N2  UNL     1      -1.338  48.512 -19.478  1.00  0.00    -0.355 N 
HETATM   12  C20 UNL     1      -1.145  49.216 -20.610  1.00  0.00     0.088 A 
ATOM     13  H2  UNL     1      -1.750  47.579 -19.498  1.00  0.00     0.166 HD
BRANCH   9  14
HETATM   14  C12 UNL     1      -0.016  50.900 -16.898  1.00  0.00     0.017 A 
HETATM   15  C13 UNL     1      -0.572  50.640 -15.658  1.00  0.00     0.029 A 
HETATM   16  C14 UNL     1       0.033  51.386 -14.588  1.00  0.00    -0.022 A 
HETATM   17  C18 UNL     1       1.062  52.170 -15.075  1.00  0.00     0.059 A 
HETATM   18  S1  UNL     1       1.253  52.044 -16.766  1.00  0.00    -0.101 SA
BRANCH  16  19
HETATM   19  C15 UNL     1      -0.362  51.283 -13.139  1.00  0.00     0.310 C 
BRANCH  19  20
HETATM   20  N1  UNL     1      -1.019  52.484 -12.609  1.00  0.00     0.084 N 
HETATM   21  C16 UNL     1      -2.358  52.239 -12.086  1.00  0.00     0.309 C 
HETATM   22  C17 UNL     1      -0.203  53.234 -11.662  1.00  0.00     0.309 C 
ENDBRANCH  19  20
ENDBRANCH  16  19
ENDBRANCH   9  14
BRANCH  12  23
HETATM   23  N3  UNL     1      -1.543  48.562 -21.778  1.00  0.00    -0.288 NA
HETATM   24  H20 UNL     1      -1.992  47.696 -21.493  1.00  0.00     0.125 HD
HETATM   25  H21 UNL     1      -2.164  49.145 -22.334  1.00  0.00     0.125 HD
ENDBRANCH  12  23
ENDBRANCH   3   7
BRANCH   1  26
HETATM   26  O1  UNL     1      -1.407  51.079 -25.366  1.00  0.00    -0.341 OA
BRANCH  26  27
HETATM   27  C2  UNL     1      -2.451  51.965 -25.808  1.00  0.00     0.147 C 
HETATM   28  C1  UNL     1      -3.654  51.747 -24.890  1.00  0.00     0.044 C 
BRANCH  27  29
HETATM   29  C3  UNL     1      -2.818  51.607 -27.231  1.00  0.00     0.009 C 
HETATM   30  C4  UNL     1      -3.151  50.396 -27.718  1.00  0.00     0.087 C 
BRANCH  30  31
HETATM   31  C5  UNL     1      -3.273  49.078 -27.029  1.00  0.00     0.407 C 
HETATM   32  F1  UNL     1      -2.114  48.752 -26.397  1.00  0.00    -0.167 F 
HETATM   33  F2  UNL     1      -4.237  49.119 -26.076  1.00  0.00    -0.167 F 
HETATM   34  F3  UNL     1      -3.575  48.044 -27.848  1.00  0.00    -0.167 F 
ENDBRANCH  30  31
ENDBRANCH  27  29
ENDBRANCH  26  27
ENDBRANCH   1  26
BRANCH   6  35
HETATM   35  C24 UNL     1       0.377  53.421 -25.537  1.00  0.00     0.252 C 
HETATM   36  N4  UNL     1       0.000  54.737 -25.527  1.00  0.00    -0.366 N 
HETATM   37  H24 UNL     1       0.283  55.287 -26.328  1.00  0.00     0.159 HD
HETATM   38  H25 UNL     1      -0.199  55.229 -24.667  1.00  0.00     0.159 HD
HETATM   39  O2  UNL     1       0.921  52.938 -26.521  1.00  0.00    -0.268 OA
ENDBRANCH   6  35
TORSDOF 10
ENDMDL
