MODEL 1
REMARK minimizedAffinity -7.20385313
REMARK CNNscore 0.62575376
REMARK CNNaffinity 6.53311205
REMARK  5 active torsions:
REMARK  status: ('A' for Active; 'I' for Inactive)
REMARK    1  A    between atoms: O1_1  and  C1_2 
REMARK    2  A    between atoms: C5_6  and  N1_7 
REMARK    3  A    between atoms: N1_7  and  C6_8 
REMARK    4  A    between atoms: C7_11  and  C8_12 
REMARK    5  A    between atoms: C9_13  and  C10_14 
ROOT
HETATM    1  C6  UNL     1      13.309  58.572   1.937  1.00  0.00     0.119 A 
HETATM    2  N2  UNL     1      13.278  59.145   3.152  1.00  0.00    -0.328 N 
ATOM      3  H2  UNL     1      13.542  58.626   3.989  1.00  0.00     0.169 HD
HETATM    4  C7  UNL     1      12.885  60.423   3.221  1.00  0.00     0.107 A 
HETATM    5  N3  UNL     1      12.522  61.181   2.179  1.00  0.00    -0.342 N 
ATOM      6  H3  UNL     1      12.228  62.149   2.302  1.00  0.00     0.167 HD
HETATM    7  C17 UNL     1      12.563  60.612   0.972  1.00  0.00     0.047 A 
HETATM    8  C18 UNL     1      12.196  61.374  -0.131  1.00  0.00     0.030 A 
HETATM    9  C19 UNL     1      12.221  60.857  -1.429  1.00  0.00     0.002 A 
HETATM   10  C20 UNL     1      12.630  59.547  -1.641  1.00  0.00     0.001 A 
HETATM   11  C21 UNL     1      13.004  58.763  -0.550  1.00  0.00     0.017 A 
HETATM   12  C22 UNL     1      12.964  59.283   0.770  1.00  0.00     0.035 A 
ENDROOT
BRANCH   4  13
HETATM   13  C8  UNL     1      12.853  61.073   4.532  1.00  0.00     0.049 C 
HETATM   14  C9  UNL     1      11.815  61.781   5.002  1.00  0.00     0.016 C 
BRANCH  14  15
HETATM   15  C10 UNL     1      11.830  62.422   6.326  1.00  0.00    -0.016 A 
HETATM   16  C11 UNL     1      11.489  61.650   7.451  1.00  0.00     0.052 A 
HETATM   17  C12 UNL     1      11.487  62.258   8.689  1.00  0.00     0.105 A 
HETATM   18  C13 UNL     1      11.807  63.585   8.845  1.00  0.00     0.106 A 
HETATM   19  O3  UNL     1      11.180  61.655   9.869  1.00  0.00    -0.323 OA
HETATM   20  C14 UNL     1      12.140  64.384   7.772  1.00  0.00     0.059 A 
HETATM   21  O2  UNL     1      11.745  63.982  10.144  1.00  0.00    -0.323 OA
HETATM   22  C15 UNL     1      12.148  63.793   6.501  1.00  0.00     0.024 A 
HETATM   23 BR1  UNL     1      12.613  64.913   5.034  1.00  0.00    -0.050 Br
HETATM   24  C16 UNL     1      11.344  62.754  10.789  1.00  0.00     0.352 A 
ENDBRANCH  14  15
ENDBRANCH   4  13
BRANCH   1  25
HETATM   25  N1  UNL     1      13.680  57.202   1.822  1.00  0.00    -0.342 N 
HETATM   26  H5  UNL     1      12.959  56.720   1.295  1.00  0.00     0.167 HD
BRANCH  25  27
HETATM   27  C5  UNL     1      14.247  56.364   2.811  1.00  0.00     0.036 A 
HETATM   28  C4  UNL     1      13.468  55.632   3.717  1.00  0.00     0.029 A 
HETATM   29  C3  UNL     1      14.059  54.863   4.725  1.00  0.00     0.005 A 
HETATM   30  C2  UNL     1      15.445  54.833   4.854  1.00  0.00     0.036 A 
HETATM   31  C1  UNL     1      16.225  55.586   3.989  1.00  0.00     0.067 A 
HETATM   32  C23 UNL     1      15.642  56.356   2.982  1.00  0.00     0.066 A 
BRANCH  31  33
HETATM   33  O1  UNL     1      17.579  55.547   4.160  1.00  0.00    -0.361 OA
HETATM   34  H1  UNL     1      17.996  56.115   3.494  1.00  0.00     0.217 HD
ENDBRANCH  31  33
ENDBRANCH  25  27
ENDBRANCH   1  25
TORSDOF 5
ENDMDL
MODEL 2
REMARK minimizedAffinity -7.21075773
REMARK CNNscore 0.622706413
REMARK CNNaffinity 6.36978292
REMARK  5 active torsions:
REMARK  status: ('A' for Active; 'I' for Inactive)
REMARK    1  A    between atoms: O1_1  and  C1_2 
REMARK    2  A    between atoms: C5_6  and  N1_7 
REMARK    3  A    between atoms: N1_7  and  C6_8 
REMARK    4  A    between atoms: C7_11  and  C8_12 
REMARK    5  A    between atoms: C9_13  and  C10_14 
ROOT
HETATM    1  C6  UNL     1      12.494  49.162  -2.914  1.00  0.00     0.119 A 
HETATM    2  N2  UNL     1      12.155  50.419  -2.581  1.00  0.00    -0.328 N 
ATOM      3  H2  UNL     1      11.186  50.671  -2.383  1.00  0.00     0.169 HD
HETATM    4  C7  UNL     1      13.136  51.327  -2.520  1.00  0.00     0.107 A 
HETATM    5  N3  UNL     1      14.431  51.088  -2.761  1.00  0.00    -0.342 N 
ATOM      6  H3  UNL     1      15.129  51.829  -2.702  1.00  0.00     0.167 HD
HETATM    7  C17 UNL     1      14.766  49.837  -3.083  1.00  0.00     0.047 A 
HETATM    8  C18 UNL     1      16.104  49.555  -3.336  1.00  0.00     0.030 A 
HETATM    9  C19 UNL     1      16.540  48.270  -3.668  1.00  0.00     0.002 A 
HETATM   10  C20 UNL     1      15.623  47.230  -3.745  1.00  0.00     0.001 A 
HETATM   11  C21 UNL     1      14.276  47.487  -3.495  1.00  0.00     0.017 A 
HETATM   12  C22 UNL     1      13.830  48.796  -3.172  1.00  0.00     0.035 A 
ENDROOT
BRANCH   4  13
HETATM   13  C8  UNL     1      12.793  52.700  -2.149  1.00  0.00     0.049 C 
HETATM   14  C9  UNL     1      13.660  53.725  -2.148  1.00  0.00     0.016 C 
BRANCH  14  15
HETATM   15  C10 UNL     1      13.270  55.089  -1.762  1.00  0.00    -0.016 A 
HETATM   16  C11 UNL     1      13.829  55.644  -0.596  1.00  0.00     0.052 A 
HETATM   17  C12 UNL     1      13.448  56.917  -0.227  1.00  0.00     0.105 A 
HETATM   18  C13 UNL     1      12.546  57.647  -0.964  1.00  0.00     0.106 A 
HETATM   19  O3  UNL     1      13.891  57.592   0.868  1.00  0.00    -0.323 OA
HETATM   20  C14 UNL     1      11.967  57.143  -2.109  1.00  0.00     0.059 A 
HETATM   21  O2  UNL     1      12.312  58.874  -0.427  1.00  0.00    -0.323 OA
HETATM   22  C15 UNL     1      12.332  55.850  -2.507  1.00  0.00     0.024 A 
HETATM   23 BR1  UNL     1      11.522  55.175  -4.091  1.00  0.00    -0.050 Br
HETATM   24  C16 UNL     1      13.167  58.833   0.736  1.00  0.00     0.352 A 
ENDBRANCH  14  15
ENDBRANCH   4  13
BRANCH   1  25
HETATM   25  N1  UNL     1      11.477  48.173  -3.032  1.00  0.00    -0.342 N 
HETATM   26  H5  UNL     1      10.831  48.464  -3.758  1.00  0.00     0.167 HD
BRANCH  25  27
HETATM   27  C5  UNL     1      10.809  47.478  -1.995  1.00  0.00     0.036 A 
HETATM   28  C4  UNL     1       9.836  48.081  -1.186  1.00  0.00     0.029 A 
HETATM   29  C3  UNL     1       9.241  47.386  -0.128  1.00  0.00     0.005 A 
HETATM   30  C2  UNL     1       9.630  46.079   0.151  1.00  0.00     0.036 A 
HETATM   31  C1  UNL     1      10.622  45.485  -0.616  1.00  0.00     0.067 A 
HETATM   32  C23 UNL     1      11.220  46.173  -1.673  1.00  0.00     0.066 A 
BRANCH  31  33
HETATM   33  O1  UNL     1      10.991  44.209  -0.299  1.00  0.00    -0.361 OA
HETATM   34  H1  UNL     1      11.687  43.924  -0.910  1.00  0.00     0.217 HD
ENDBRANCH  31  33
ENDBRANCH  25  27
ENDBRANCH   1  25
TORSDOF 5
ENDMDL
MODEL 3
REMARK minimizedAffinity -7.43018293
REMARK CNNscore 0.605662107
REMARK CNNaffinity 6.11946678
REMARK  5 active torsions:
REMARK  status: ('A' for Active; 'I' for Inactive)
REMARK    1  A    between atoms: O1_1  and  C1_2 
REMARK    2  A    between atoms: C5_6  and  N1_7 
REMARK    3  A    between atoms: N1_7  and  C6_8 
REMARK    4  A    between atoms: C7_11  and  C8_12 
REMARK    5  A    between atoms: C9_13  and  C10_14 
ROOT
HETATM    1  C6  UNL     1      12.174  54.476  -2.128  1.00  0.00     0.119 A 
HETATM    2  N2  UNL     1      11.771  53.203  -2.275  1.00  0.00    -0.328 N 
ATOM      3  H2  UNL     1      10.783  52.968  -2.370  1.00  0.00     0.169 HD
HETATM    4  C7  UNL     1      12.716  52.255  -2.292  1.00  0.00     0.107 A 
HETATM    5  N3  UNL     1      14.032  52.469  -2.176  1.00  0.00    -0.342 N 
ATOM      6  H3  UNL     1      14.700  51.699  -2.191  1.00  0.00     0.167 HD
HETATM    7  C17 UNL     1      14.431  53.735  -2.039  1.00  0.00     0.047 A 
HETATM    8  C18 UNL     1      15.792  53.991  -1.920  1.00  0.00     0.030 A 
HETATM    9  C19 UNL     1      16.292  55.289  -1.784  1.00  0.00     0.002 A 
HETATM   10  C20 UNL     1      15.417  56.367  -1.773  1.00  0.00     0.001 A 
HETATM   11  C21 UNL     1      14.047  56.136  -1.892  1.00  0.00     0.017 A 
HETATM   12  C22 UNL     1      13.537  54.816  -2.015  1.00  0.00     0.035 A 
ENDROOT
BRANCH   4  13
HETATM   13  C8  UNL     1      12.303  50.861  -2.461  1.00  0.00     0.049 C 
HETATM   14  C9  UNL     1      11.945  50.048  -1.455  1.00  0.00     0.016 C 
BRANCH  14  15
HETATM   15  C10 UNL     1      11.541  48.651  -1.674  1.00  0.00    -0.016 A 
HETATM   16  C11 UNL     1      10.178  48.367  -1.870  1.00  0.00     0.052 A 
HETATM   17  C12 UNL     1       9.800  47.054  -2.057  1.00  0.00     0.105 A 
HETATM   18  C13 UNL     1      10.717  46.029  -2.056  1.00  0.00     0.106 A 
HETATM   19  O3  UNL     1       8.529  46.614  -2.257  1.00  0.00    -0.323 OA
HETATM   20  C14 UNL     1      12.061  46.257  -1.860  1.00  0.00     0.059 A 
HETATM   21  O2  UNL     1      10.135  44.817  -2.258  1.00  0.00    -0.323 OA
HETATM   22  C15 UNL     1      12.474  47.582  -1.664  1.00  0.00     0.024 A 
HETATM   23 BR1  UNL     1      14.336  47.874  -1.398  1.00  0.00    -0.050 Br
HETATM   24  C16 UNL     1       8.748  45.194  -2.383  1.00  0.00     0.352 A 
ENDBRANCH  14  15
ENDBRANCH   4  13
BRANCH   1  25
HETATM   25  N1  UNL     1      11.201  55.513  -2.063  1.00  0.00    -0.342 N 
HETATM   26  H5  UNL     1      10.487  55.239  -1.395  1.00  0.00     0.167 HD
BRANCH  25  27
HETATM   27  C5  UNL     1      10.650  56.263  -3.130  1.00  0.00     0.036 A 
HETATM   28  C4  UNL     1      10.105  57.542  -2.951  1.00  0.00     0.029 A 
HETATM   29  C3  UNL     1       9.510  58.231  -4.013  1.00  0.00     0.005 A 
HETATM   30  C2  UNL     1       9.431  57.637  -5.269  1.00  0.00     0.036 A 
HETATM   31  C1  UNL     1       9.930  56.355  -5.449  1.00  0.00     0.067 A 
HETATM   32  C23 UNL     1      10.524  55.661  -4.393  1.00  0.00     0.066 A 
BRANCH  31  33
HETATM   33  O1  UNL     1       9.815  55.798  -6.691  1.00  0.00    -0.361 OA
HETATM   34  H1  UNL     1      10.200  54.908  -6.671  1.00  0.00     0.217 HD
ENDBRANCH  31  33
ENDBRANCH  25  27
ENDBRANCH   1  25
TORSDOF 5
ENDMDL
MODEL 4
REMARK minimizedAffinity -7.9026432
REMARK CNNscore 0.595666468
REMARK CNNaffinity 6.48248291
REMARK  5 active torsions:
REMARK  status: ('A' for Active; 'I' for Inactive)
REMARK    1  A    between atoms: O1_1  and  C1_2 
REMARK    2  A    between atoms: C5_6  and  N1_7 
REMARK    3  A    between atoms: N1_7  and  C6_8 
REMARK    4  A    between atoms: C7_11  and  C8_12 
REMARK    5  A    between atoms: C9_13  and  C10_14 
ROOT
HETATM    1  C6  UNL     1      13.256  58.243   3.100  1.00  0.00     0.119 A 
HETATM    2  N2  UNL     1      13.120  58.767   4.330  1.00  0.00    -0.328 N 
ATOM      3  H2  UNL     1      13.174  58.181   5.164  1.00  0.00     0.169 HD
HETATM    4  C7  UNL     1      12.911  60.086   4.419  1.00  0.00     0.107 A 
HETATM    5  N3  UNL     1      12.828  60.930   3.384  1.00  0.00    -0.342 N 
ATOM      6  H3  UNL     1      12.661  61.926   3.521  1.00  0.00     0.167 HD
HETATM    7  C17 UNL     1      12.972  60.408   2.163  1.00  0.00     0.047 A 
HETATM    8  C18 UNL     1      12.894  61.260   1.067  1.00  0.00     0.030 A 
HETATM    9  C19 UNL     1      13.045  60.796  -0.242  1.00  0.00     0.002 A 
HETATM   10  C20 UNL     1      13.289  59.448  -0.472  1.00  0.00     0.001 A 
HETATM   11  C21 UNL     1      13.372  58.575   0.611  1.00  0.00     0.017 A 
HETATM   12  C22 UNL     1      13.203  59.043   1.941  1.00  0.00     0.035 A 
ENDROOT
BRANCH   4  13
HETATM   13  C8  UNL     1      12.770  60.681   5.748  1.00  0.00     0.049 C 
HETATM   14  C9  UNL     1      11.727  61.431   6.137  1.00  0.00     0.016 C 
BRANCH  14  15
HETATM   15  C10 UNL     1      11.631  62.014   7.484  1.00  0.00    -0.016 A 
HETATM   16  C11 UNL     1      12.070  63.336   7.677  1.00  0.00     0.052 A 
HETATM   17  C12 UNL     1      11.996  63.875   8.945  1.00  0.00     0.105 A 
HETATM   18  C13 UNL     1      11.507  63.156  10.010  1.00  0.00     0.106 A 
HETATM   19  O3  UNL     1      12.380  65.131   9.297  1.00  0.00    -0.323 OA
HETATM   20  C14 UNL     1      11.072  61.856   9.871  1.00  0.00     0.059 A 
HETATM   21  O2  UNL     1      11.519  63.873  11.165  1.00  0.00    -0.323 OA
HETATM   22  C15 UNL     1      11.139  61.281   8.594  1.00  0.00     0.024 A 
HETATM   23 BR1  UNL     1      10.531  59.486   8.425  1.00  0.00    -0.050 Br
HETATM   24  C16 UNL     1      12.076  65.124  10.708  1.00  0.00     0.352 A 
ENDBRANCH  14  15
ENDBRANCH   4  13
BRANCH   1  25
HETATM   25  N1  UNL     1      13.439  56.838   2.957  1.00  0.00    -0.342 N 
HETATM   26  H5  UNL     1      12.525  56.404   2.875  1.00  0.00     0.167 HD
BRANCH  25  27
HETATM   27  C5  UNL     1      14.350  56.000   3.644  1.00  0.00     0.036 A 
HETATM   28  C4  UNL     1      15.738  56.101   3.482  1.00  0.00     0.029 A 
HETATM   29  C3  UNL     1      16.609  55.215   4.125  1.00  0.00     0.005 A 
HETATM   30  C2  UNL     1      16.099  54.198   4.926  1.00  0.00     0.036 A 
HETATM   31  C1  UNL     1      14.725  54.062   5.062  1.00  0.00     0.067 A 
HETATM   32  C23 UNL     1      13.850  54.942   4.421  1.00  0.00     0.066 A 
BRANCH  31  33
HETATM   33  O1  UNL     1      14.262  53.039   5.839  1.00  0.00    -0.361 OA
HETATM   34  H1  UNL     1      13.293  53.063   5.843  1.00  0.00     0.217 HD
ENDBRANCH  31  33
ENDBRANCH  25  27
ENDBRANCH   1  25
TORSDOF 5
ENDMDL
MODEL 5
REMARK minimizedAffinity -7.00540876
REMARK CNNscore 0.594038606
REMARK CNNaffinity 7.03469038
REMARK  5 active torsions:
REMARK  status: ('A' for Active; 'I' for Inactive)
REMARK    1  A    between atoms: O1_1  and  C1_2 
REMARK    2  A    between atoms: C5_6  and  N1_7 
REMARK    3  A    between atoms: N1_7  and  C6_8 
REMARK    4  A    between atoms: C7_11  and  C8_12 
REMARK    5  A    between atoms: C9_13  and  C10_14 
ROOT
HETATM    1  C6  UNL     1      12.942  56.041  -1.536  1.00  0.00     0.119 A 
HETATM    2  N2  UNL     1      13.170  54.720  -1.443  1.00  0.00    -0.328 N 
ATOM      3  H2  UNL     1      13.877  54.349  -0.809  1.00  0.00     0.169 HD
HETATM    4  C7  UNL     1      12.436  53.911  -2.216  1.00  0.00     0.107 A 
HETATM    5  N3  UNL     1      11.488  54.308  -3.075  1.00  0.00    -0.342 N 
ATOM      6  H3  UNL     1      10.967  53.638  -3.640  1.00  0.00     0.167 HD
HETATM    7  C17 UNL     1      11.256  55.620  -3.157  1.00  0.00     0.047 A 
HETATM    8  C18 UNL     1      10.276  56.064  -4.038  1.00  0.00     0.030 A 
HETATM    9  C19 UNL     1       9.965  57.419  -4.176  1.00  0.00     0.002 A 
HETATM   10  C20 UNL     1      10.640  58.363  -3.415  1.00  0.00     0.001 A 
HETATM   11  C21 UNL     1      11.628  57.942  -2.525  1.00  0.00     0.017 A 
HETATM   12  C22 UNL     1      11.955  56.567  -2.394  1.00  0.00     0.035 A 
ENDROOT
BRANCH   4  13
HETATM   13  C8  UNL     1      12.659  52.468  -2.126  1.00  0.00     0.049 C 
HETATM   14  C9  UNL     1      11.777  51.537  -2.523  1.00  0.00     0.016 C 
BRANCH  14  15
HETATM   15  C10 UNL     1      12.044  50.096  -2.407  1.00  0.00    -0.016 A 
HETATM   16  C11 UNL     1      11.263  49.336  -1.518  1.00  0.00     0.052 A 
HETATM   17  C12 UNL     1      11.527  47.987  -1.398  1.00  0.00     0.105 A 
HETATM   18  C13 UNL     1      12.524  47.377  -2.121  1.00  0.00     0.106 A 
HETATM   19  O3  UNL     1      10.868  47.119  -0.586  1.00  0.00    -0.323 OA
HETATM   20  C14 UNL     1      13.320  48.081  -2.999  1.00  0.00     0.059 A 
HETATM   21  O2  UNL     1      12.615  46.047  -1.855  1.00  0.00    -0.323 OA
HETATM   22  C15 UNL     1      13.077  49.455  -3.138  1.00  0.00     0.024 A 
HETATM   23 BR1  UNL     1      14.186  50.406  -4.357  1.00  0.00    -0.050 Br
HETATM   24  C16 UNL     1      11.563  45.889  -0.879  1.00  0.00     0.352 A 
ENDBRANCH  14  15
ENDBRANCH   4  13
BRANCH   1  25
HETATM   25  N1  UNL     1      13.729  56.941  -0.762  1.00  0.00    -0.342 N 
HETATM   26  H5  UNL     1      14.706  56.774  -0.976  1.00  0.00     0.167 HD
BRANCH  25  27
HETATM   27  C5  UNL     1      13.552  57.315   0.591  1.00  0.00     0.036 A 
HETATM   28  C4  UNL     1      13.348  58.644   0.987  1.00  0.00     0.029 A 
HETATM   29  C3  UNL     1      13.242  58.990   2.338  1.00  0.00     0.005 A 
HETATM   30  C2  UNL     1      13.362  58.009   3.318  1.00  0.00     0.036 A 
HETATM   31  C1  UNL     1      13.605  56.696   2.941  1.00  0.00     0.067 A 
HETATM   32  C23 UNL     1      13.713  56.344   1.594  1.00  0.00     0.066 A 
BRANCH  31  33
HETATM   33  O1  UNL     1      13.737  55.766   3.931  1.00  0.00    -0.361 OA
HETATM   34  H1  UNL     1      13.905  54.900   3.528  1.00  0.00     0.217 HD
ENDBRANCH  31  33
ENDBRANCH  25  27
ENDBRANCH   1  25
TORSDOF 5
ENDMDL
MODEL 6
REMARK minimizedAffinity -7.60441875
REMARK CNNscore 0.537872672
REMARK CNNaffinity 6.76939821
REMARK  5 active torsions:
REMARK  status: ('A' for Active; 'I' for Inactive)
REMARK    1  A    between atoms: O1_1  and  C1_2 
REMARK    2  A    between atoms: C5_6  and  N1_7 
REMARK    3  A    between atoms: N1_7  and  C6_8 
REMARK    4  A    between atoms: C7_11  and  C8_12 
REMARK    5  A    between atoms: C9_13  and  C10_14 
ROOT
HETATM    1  C6  UNL     1      13.402  57.742   2.900  1.00  0.00     0.119 A 
HETATM    2  N2  UNL     1      13.274  56.966   1.810  1.00  0.00    -0.328 N 
ATOM      3  H2  UNL     1      13.355  55.951   1.870  1.00  0.00     0.169 HD
HETATM    4  C7  UNL     1      13.035  57.575   0.643  1.00  0.00     0.107 A 
HETATM    5  N3  UNL     1      12.912  58.897   0.469  1.00  0.00    -0.342 N 
ATOM      6  H3  UNL     1      12.735  59.299  -0.452  1.00  0.00     0.167 HD
HETATM    7  C17 UNL     1      13.030  59.665   1.554  1.00  0.00     0.047 A 
HETATM    8  C18 UNL     1      12.903  61.042   1.407  1.00  0.00     0.030 A 
HETATM    9  C19 UNL     1      13.003  61.914   2.494  1.00  0.00     0.002 A 
HETATM   10  C20 UNL     1      13.229  61.407   3.766  1.00  0.00     0.001 A 
HETATM   11  C21 UNL     1      13.359  60.030   3.939  1.00  0.00     0.017 A 
HETATM   12  C22 UNL     1      13.273  59.144   2.833  1.00  0.00     0.035 A 
ENDROOT
BRANCH   4  13
HETATM   13  C8  UNL     1      12.881  56.751  -0.557  1.00  0.00     0.049 C 
HETATM   14  C9  UNL     1      11.701  56.417  -1.102  1.00  0.00     0.016 C 
BRANCH  14  15
HETATM   15  C10 UNL     1      11.596  55.580  -2.306  1.00  0.00    -0.016 A 
HETATM   16  C11 UNL     1      12.239  54.329  -2.315  1.00  0.00     0.052 A 
HETATM   17  C12 UNL     1      12.153  53.554  -3.452  1.00  0.00     0.105 A 
HETATM   18  C13 UNL     1      11.460  53.972  -4.563  1.00  0.00     0.106 A 
HETATM   19  O3  UNL     1      12.717  52.328  -3.622  1.00  0.00    -0.323 OA
HETATM   20  C14 UNL     1      10.821  55.192  -4.605  1.00  0.00     0.059 A 
HETATM   21  O2  UNL     1      11.500  53.059  -5.570  1.00  0.00    -0.323 OA
HETATM   22  C15 UNL     1      10.894  56.003  -3.464  1.00  0.00     0.024 A 
HETATM   23 BR1  UNL     1      10.002  57.682  -3.542  1.00  0.00    -0.050 Br
HETATM   24  C16 UNL     1      12.300  52.019  -4.968  1.00  0.00     0.352 A 
ENDBRANCH  14  15
ENDBRANCH   4  13
BRANCH   1  25
HETATM   25  N1  UNL     1      13.697  57.138   4.155  1.00  0.00    -0.342 N 
HETATM   26  H5  UNL     1      13.710  57.865   4.862  1.00  0.00     0.167 HD
BRANCH  25  27
HETATM   27  C5  UNL     1      14.644  56.125   4.437  1.00  0.00     0.036 A 
HETATM   28  C4  UNL     1      16.008  56.264   4.146  1.00  0.00     0.029 A 
HETATM   29  C3  UNL     1      16.908  55.218   4.377  1.00  0.00     0.005 A 
HETATM   30  C2  UNL     1      16.450  54.006   4.884  1.00  0.00     0.036 A 
HETATM   31  C1  UNL     1      15.096  53.842   5.137  1.00  0.00     0.067 A 
HETATM   32  C23 UNL     1      14.192  54.880   4.907  1.00  0.00     0.066 A 
BRANCH  31  33
HETATM   33  O1  UNL     1      14.682  52.631   5.614  1.00  0.00    -0.361 OA
HETATM   34  H1  UNL     1      13.721  52.657   5.743  1.00  0.00     0.217 HD
ENDBRANCH  31  33
ENDBRANCH  25  27
ENDBRANCH   1  25
TORSDOF 5
ENDMDL
MODEL 7
REMARK minimizedAffinity -7.76826191
REMARK CNNscore 0.523168147
REMARK CNNaffinity 6.56754684
REMARK  5 active torsions:
REMARK  status: ('A' for Active; 'I' for Inactive)
REMARK    1  A    between atoms: O1_1  and  C1_2 
REMARK    2  A    between atoms: C5_6  and  N1_7 
REMARK    3  A    between atoms: N1_7  and  C6_8 
REMARK    4  A    between atoms: C7_11  and  C8_12 
REMARK    5  A    between atoms: C9_13  and  C10_14 
ROOT
HETATM    1  C6  UNL     1      13.569  57.281   1.728  1.00  0.00     0.119 A 
HETATM    2  N2  UNL     1      13.651  56.189   0.948  1.00  0.00    -0.328 N 
ATOM      3  H2  UNL     1      13.913  55.282   1.333  1.00  0.00     0.169 HD
HETATM    4  C7  UNL     1      13.374  56.339  -0.353  1.00  0.00     0.107 A 
HETATM    5  N3  UNL     1      13.021  57.486  -0.945  1.00  0.00    -0.342 N 
ATOM      6  H3  UNL     1      12.829  57.533  -1.945  1.00  0.00     0.167 HD
HETATM    7  C17 UNL     1      12.931  58.567  -0.166  1.00  0.00     0.047 A 
HETATM    8  C18 UNL     1      12.563  59.774  -0.750  1.00  0.00     0.030 A 
HETATM    9  C19 UNL     1      12.436  60.948  -0.004  1.00  0.00     0.002 A 
HETATM   10  C20 UNL     1      12.675  60.925   1.364  1.00  0.00     0.001 A 
HETATM   11  C21 UNL     1      13.045  59.727   1.972  1.00  0.00     0.017 A 
HETATM   12  C22 UNL     1      13.189  58.536   1.212  1.00  0.00     0.035 A 
ENDROOT
BRANCH   4  13
HETATM   13  C8  UNL     1      13.446  55.163  -1.221  1.00  0.00     0.049 C 
HETATM   14  C9  UNL     1      12.401  54.642  -1.882  1.00  0.00     0.016 C 
BRANCH  14  15
HETATM   15  C10 UNL     1      12.520  53.454  -2.740  1.00  0.00    -0.016 A 
HETATM   16  C11 UNL     1      13.262  52.355  -2.269  1.00  0.00     0.052 A 
HETATM   17  C12 UNL     1      13.387  51.249  -3.083  1.00  0.00     0.105 A 
HETATM   18  C13 UNL     1      12.809  51.197  -4.329  1.00  0.00     0.106 A 
HETATM   19  O3  UNL     1      14.069  50.113  -2.778  1.00  0.00    -0.323 OA
HETATM   20  C14 UNL     1      12.080  52.250  -4.836  1.00  0.00     0.059 A 
HETATM   21  O2  UNL     1      13.053  50.019  -4.962  1.00  0.00    -0.323 OA
HETATM   22  C15 UNL     1      11.939  53.390  -4.032  1.00  0.00     0.024 A 
HETATM   23 BR1  UNL     1      10.926  54.831  -4.752  1.00  0.00    -0.050 Br
HETATM   24  C16 UNL     1      13.854  49.336  -3.975  1.00  0.00     0.352 A 
ENDBRANCH  14  15
ENDBRANCH   4  13
BRANCH   1  25
HETATM   25  N1  UNL     1      13.894  57.176   3.110  1.00  0.00    -0.342 N 
HETATM   26  H5  UNL     1      14.129  58.101   3.453  1.00  0.00     0.167 HD
BRANCH  25  27
HETATM   27  C5  UNL     1      14.661  56.176   3.754  1.00  0.00     0.036 A 
HETATM   28  C4  UNL     1      16.056  56.100   3.637  1.00  0.00     0.029 A 
HETATM   29  C3  UNL     1      16.778  55.061   4.233  1.00  0.00     0.005 A 
HETATM   30  C2  UNL     1      16.109  54.067   4.940  1.00  0.00     0.036 A 
HETATM   31  C1  UNL     1      14.725  54.108   5.029  1.00  0.00     0.067 A 
HETATM   32  C23 UNL     1      13.998  55.141   4.435  1.00  0.00     0.066 A 
BRANCH  31  33
HETATM   33  O1  UNL     1      14.104  53.103   5.714  1.00  0.00    -0.361 OA
HETATM   34  H1  UNL     1      13.146  53.257   5.694  1.00  0.00     0.217 HD
ENDBRANCH  31  33
ENDBRANCH  25  27
ENDBRANCH   1  25
TORSDOF 5
ENDMDL
MODEL 8
REMARK minimizedAffinity -6.87484932
REMARK CNNscore 0.515393913
REMARK CNNaffinity 6.34048605
REMARK  5 active torsions:
REMARK  status: ('A' for Active; 'I' for Inactive)
REMARK    1  A    between atoms: O1_1  and  C1_2 
REMARK    2  A    between atoms: C5_6  and  N1_7 
REMARK    3  A    between atoms: N1_7  and  C6_8 
REMARK    4  A    between atoms: C7_11  and  C8_12 
REMARK    5  A    between atoms: C9_13  and  C10_14 
ROOT
HETATM    1  C6  UNL     1      13.642  57.219   2.978  1.00  0.00     0.119 A 
HETATM    2  N2  UNL     1      13.501  56.385   1.934  1.00  0.00    -0.328 N 
ATOM      3  H2  UNL     1      13.660  55.382   2.032  1.00  0.00     0.169 HD
HETATM    4  C7  UNL     1      13.146  56.921   0.760  1.00  0.00     0.107 A 
HETATM    5  N3  UNL     1      12.917  58.222   0.538  1.00  0.00    -0.342 N 
ATOM      6  H3  UNL     1      12.654  58.566  -0.385  1.00  0.00     0.167 HD
HETATM    7  C17 UNL     1      13.048  59.046   1.580  1.00  0.00     0.047 A 
HETATM    8  C18 UNL     1      12.813  60.402   1.383  1.00  0.00     0.030 A 
HETATM    9  C19 UNL     1      12.918  61.330   2.423  1.00  0.00     0.002 A 
HETATM   10  C20 UNL     1      13.259  60.900   3.698  1.00  0.00     0.001 A 
HETATM   11  C21 UNL     1      13.499  59.545   3.920  1.00  0.00     0.017 A 
HETATM   12  C22 UNL     1      13.407  58.604   2.861  1.00  0.00     0.035 A 
ENDROOT
BRANCH   4  13
HETATM   13  C8  UNL     1      12.977  56.033  -0.390  1.00  0.00     0.049 C 
HETATM   14  C9  UNL     1      13.970  55.659  -1.213  1.00  0.00     0.016 C 
BRANCH  14  15
HETATM   15  C10 UNL     1      13.751  54.767  -2.361  1.00  0.00    -0.016 A 
HETATM   16  C11 UNL     1      12.448  54.641  -2.877  1.00  0.00     0.052 A 
HETATM   17  C12 UNL     1      12.242  53.790  -3.943  1.00  0.00     0.105 A 
HETATM   18  C13 UNL     1      13.270  53.072  -4.506  1.00  0.00     0.106 A 
HETATM   19  O3  UNL     1      11.050  53.555  -4.552  1.00  0.00    -0.323 OA
HETATM   20  C14 UNL     1      14.561  53.157  -4.031  1.00  0.00     0.059 A 
HETATM   21  O2  UNL     1      12.852  52.298  -5.542  1.00  0.00    -0.323 OA
HETATM   22  C15 UNL     1      14.800  54.011  -2.945  1.00  0.00     0.024 A 
HETATM   23 BR1  UNL     1      16.589  54.114  -2.307  1.00  0.00    -0.050 Br
HETATM   24  C16 UNL     1      11.443  52.607  -5.566  1.00  0.00     0.352 A 
ENDBRANCH  14  15
ENDBRANCH   4  13
BRANCH   1  25
HETATM   25  N1  UNL     1      14.058  56.697   4.236  1.00  0.00    -0.342 N 
HETATM   26  H5  UNL     1      14.364  57.471   4.816  1.00  0.00     0.167 HD
BRANCH  25  27
HETATM   27  C5  UNL     1      14.815  55.529   4.490  1.00  0.00     0.036 A 
HETATM   28  C4  UNL     1      14.267  54.390   5.096  1.00  0.00     0.029 A 
HETATM   29  C3  UNL     1      15.058  53.275   5.393  1.00  0.00     0.005 A 
HETATM   30  C2  UNL     1      16.420  53.293   5.107  1.00  0.00     0.036 A 
HETATM   31  C1  UNL     1      16.982  54.430   4.545  1.00  0.00     0.067 A 
HETATM   32  C23 UNL     1      16.200  55.547   4.247  1.00  0.00     0.066 A 
BRANCH  31  33
HETATM   33  O1  UNL     1      18.326  54.417   4.298  1.00  0.00    -0.361 OA
HETATM   34  H1  UNL     1      18.581  55.269   3.911  1.00  0.00     0.217 HD
ENDBRANCH  31  33
ENDBRANCH  25  27
ENDBRANCH   1  25
TORSDOF 5
ENDMDL
MODEL 9
REMARK minimizedAffinity -7.23206758
REMARK CNNscore 0.508660793
REMARK CNNaffinity 6.40412474
REMARK  5 active torsions:
REMARK  status: ('A' for Active; 'I' for Inactive)
REMARK    1  A    between atoms: O1_1  and  C1_2 
REMARK    2  A    between atoms: C5_6  and  N1_7 
REMARK    3  A    between atoms: N1_7  and  C6_8 
REMARK    4  A    between atoms: C7_11  and  C8_12 
REMARK    5  A    between atoms: C9_13  and  C10_14 
ROOT
HETATM    1  C6  UNL     1      11.838  54.384  -2.913  1.00  0.00     0.119 A 
HETATM    2  N2  UNL     1      12.317  54.655  -1.687  1.00  0.00    -0.328 N 
ATOM      3  H2  UNL     1      12.813  53.948  -1.145  1.00  0.00     0.169 HD
HETATM    4  C7  UNL     1      12.117  55.888  -1.206  1.00  0.00     0.107 A 
HETATM    5  N3  UNL     1      11.481  56.877  -1.845  1.00  0.00    -0.342 N 
ATOM      6  H3  UNL     1      11.358  57.795  -1.418  1.00  0.00     0.167 HD
HETATM    7  C17 UNL     1      11.014  56.608  -3.066  1.00  0.00     0.047 A 
HETATM    8  C18 UNL     1      10.351  57.616  -3.758  1.00  0.00     0.030 A 
HETATM    9  C19 UNL     1       9.842  57.419  -5.044  1.00  0.00     0.002 A 
HETATM   10  C20 UNL     1      10.001  56.189  -5.667  1.00  0.00     0.001 A 
HETATM   11  C21 UNL     1      10.663  55.163  -4.994  1.00  0.00     0.017 A 
HETATM   12  C22 UNL     1      11.167  55.357  -3.681  1.00  0.00     0.035 A 
ENDROOT
BRANCH   4  13
HETATM   13  C8  UNL     1      12.639  56.211   0.123  1.00  0.00     0.049 C 
HETATM   14  C9  UNL     1      12.808  57.457   0.589  1.00  0.00     0.016 C 
BRANCH  14  15
HETATM   15  C10 UNL     1      13.342  57.734   1.932  1.00  0.00    -0.016 A 
HETATM   16  C11 UNL     1      13.702  56.647   2.749  1.00  0.00     0.052 A 
HETATM   17  C12 UNL     1      14.185  56.908   4.014  1.00  0.00     0.105 A 
HETATM   18  C13 UNL     1      14.322  58.192   4.487  1.00  0.00     0.106 A 
HETATM   19  O3  UNL     1      14.573  55.975   4.925  1.00  0.00    -0.323 OA
HETATM   20  C14 UNL     1      13.976  59.287   3.726  1.00  0.00     0.059 A 
HETATM   21  O2  UNL     1      14.816  58.226   5.753  1.00  0.00    -0.323 OA
HETATM   22  C15 UNL     1      13.478  59.052   2.437  1.00  0.00     0.024 A 
HETATM   23 BR1  UNL     1      13.008  60.579   1.403  1.00  0.00    -0.050 Br
HETATM   24  C16 UNL     1      14.971  56.817   6.026  1.00  0.00     0.352 A 
ENDBRANCH  14  15
ENDBRANCH   4  13
BRANCH   1  25
HETATM   25  N1  UNL     1      11.991  53.073  -3.448  1.00  0.00    -0.342 N 
HETATM   26  H5  UNL     1      11.262  52.923  -4.137  1.00  0.00     0.167 HD
BRANCH  25  27
HETATM   27  C5  UNL     1      12.303  51.878  -2.757  1.00  0.00     0.036 A 
HETATM   28  C4  UNL     1      13.585  51.311  -2.769  1.00  0.00     0.029 A 
HETATM   29  C3  UNL     1      13.845  50.094  -2.130  1.00  0.00     0.005 A 
HETATM   30  C2  UNL     1      12.817  49.414  -1.485  1.00  0.00     0.036 A 
HETATM   31  C1  UNL     1      11.535  49.945  -1.500  1.00  0.00     0.067 A 
HETATM   32  C23 UNL     1      11.268  51.158  -2.137  1.00  0.00     0.066 A 
BRANCH  31  33
HETATM   33  O1  UNL     1      10.549  49.238  -0.874  1.00  0.00    -0.361 OA
HETATM   34  H1  UNL     1       9.712  49.721  -0.964  1.00  0.00     0.217 HD
ENDBRANCH  31  33
ENDBRANCH  25  27
ENDBRANCH   1  25
TORSDOF 5
ENDMDL
