MODEL 1
REMARK minimizedAffinity -10.4701214
REMARK CNNscore 0.653625131
REMARK CNNaffinity 8.01672649
REMARK  5 active torsions:
REMARK  status: ('A' for Active; 'I' for Inactive)
REMARK    1  A    between atoms: O1_2  and  C2_3 
REMARK    2  A    between atoms: C7_9  and  N1_10 
REMARK    3  A    between atoms: C11_17  and  N3_18 
REMARK    4  A    between atoms: N3_18  and  C12_19 
REMARK    5  A    between atoms: C15_22  and  N4_23 
ROOT
HETATM    1  N1  UNL     1      -0.083  52.046 -23.494  1.00  0.00    -0.107 N 
HETATM    2  C8  UNL     1       0.558  52.909 -22.600  1.00  0.00     0.282 A 
HETATM    3  O2  UNL     1       1.168  53.934 -22.897  1.00  0.00    -0.266 OA
HETATM    4  C9  UNL     1       0.425  52.606 -21.165  1.00  0.00     0.095 A 
HETATM    5  C10 UNL     1       1.021  53.379 -20.200  1.00  0.00     0.127 A 
HETATM    6  N2  UNL     1       0.882  53.148 -18.876  1.00  0.00    -0.201 N 
ATOM      7  H2  UNL     1       1.338  53.748 -18.188  1.00  0.00     0.183 HD
HETATM    8  C11 UNL     1       0.128  52.107 -18.493  1.00  0.00     0.684 A 
HETATM    9  N6  UNL     1      -0.477  51.289 -19.371  1.00  0.00    -0.174 N 
ATOM     10  H6  UNL     1      -1.031  50.493 -19.056  1.00  0.00     0.186 HD
HETATM   11  C23 UNL     1      -0.325  51.561 -20.689  1.00  0.00     0.162 A 
HETATM   12  N7  UNL     1      -0.972  50.762 -21.649  1.00  0.00    -0.128 N 
HETATM   13  C24 UNL     1      -1.790  49.663 -21.471  1.00  0.00     0.086 A 
HETATM   14  C25 UNL     1      -2.264  48.970 -20.347  1.00  0.00     0.033 A 
HETATM   15  C26 UNL     1      -3.104  47.872 -20.571  1.00  0.00     0.002 A 
HETATM   16  C27 UNL     1      -3.453  47.481 -21.863  1.00  0.00     0.002 A 
HETATM   17  C28 UNL     1      -2.967  48.179 -22.974  1.00  0.00     0.032 A 
HETATM   18  C29 UNL     1      -2.126  49.282 -22.769  1.00  0.00     0.077 A 
HETATM   19  N8  UNL     1      -1.542  50.105 -23.694  1.00  0.00    -0.188 N 
ATOM     20  H8  UNL     1      -1.618  50.039 -24.710  1.00  0.00     0.184 HD
HETATM   21  C30 UNL     1      -0.862  50.999 -23.006  1.00  0.00     0.701 A 
ENDROOT
BRANCH   8  22
HETATM   22  N3  UNL     1      -0.094  51.800 -17.156  1.00  0.00    -0.192 N 
HETATM   23  H8  UNL     1      -1.077  51.903 -16.952  1.00  0.00     0.184 HD
BRANCH  22  24
HETATM   24  C12 UNL     1       0.748  51.650 -16.048  1.00  0.00     0.049 A 
HETATM   25  C13 UNL     1       0.234  51.055 -14.892  1.00  0.00     0.032 A 
HETATM   26  C14 UNL     1       1.023  50.878 -13.743  1.00  0.00     0.031 A 
HETATM   27  C15 UNL     1       2.366  51.271 -13.697  1.00  0.00     0.030 A 
HETATM   28  C21 UNL     1       2.877  51.840 -14.871  1.00  0.00     0.031 A 
HETATM   29  C22 UNL     1       2.089  52.023 -16.022  1.00  0.00     0.032 A 
BRANCH  27  30
HETATM   30  N4  UNL     1       3.139  51.108 -12.562  1.00  0.00    -0.378 N 
HETATM   31  C16 UNL     1       3.861  49.853 -12.292  1.00  0.00     0.153 C 
HETATM   32  C17 UNL     1       5.010  50.072 -11.280  1.00  0.00     0.291 C 
HETATM   33  N5  UNL     1       4.615  50.665  -9.985  1.00  0.00     0.087 N 
HETATM   34  C18 UNL     1       4.384  49.639  -8.972  1.00  0.00     0.310 C 
HETATM   35  C19 UNL     1       3.419  51.524 -10.132  1.00  0.00     0.291 C 
HETATM   36  C20 UNL     1       3.244  52.157 -11.533  1.00  0.00     0.153 C 
ENDBRANCH  27  30
ENDBRANCH  22  24
ENDBRANCH   8  22
BRANCH   1  37
HETATM   37  C7  UNL     1       0.022  52.205 -24.909  1.00  0.00     0.095 A 
HETATM   38  C2  UNL     1      -1.096  52.592 -25.684  1.00  0.00     0.096 A 
HETATM   39  C3  UNL     1      -0.976  52.688 -27.077  1.00  0.00     0.041 A 
HETATM   40  C4  UNL     1       0.238  52.403 -27.705  1.00  0.00     0.026 A 
HETATM   41  C5  UNL     1       1.343  52.039 -26.942  1.00  0.00     0.036 A 
HETATM   42 CL1  UNL     1       2.840  51.696 -27.719  1.00  0.00    -0.084 Cl
HETATM   43  C6  UNL     1       1.243  51.943 -25.556  1.00  0.00     0.057 A 
BRANCH  38  44
HETATM   44  O1  UNL     1      -2.224  52.977 -25.002  1.00  0.00    -0.354 OA
HETATM   45  C1  UNL     1      -3.443  52.354 -25.395  1.00  0.00     0.210 C 
ENDBRANCH  38  44
ENDBRANCH   1  37
TORSDOF 5
ENDMDL
MODEL 2
REMARK minimizedAffinity -10.058877
REMARK CNNscore 0.352868825
REMARK CNNaffinity 7.65473795
REMARK  5 active torsions:
REMARK  status: ('A' for Active; 'I' for Inactive)
REMARK    1  A    between atoms: O1_2  and  C2_3 
REMARK    2  A    between atoms: C7_9  and  N1_10 
REMARK    3  A    between atoms: C11_17  and  N3_18 
REMARK    4  A    between atoms: N3_18  and  C12_19 
REMARK    5  A    between atoms: C15_22  and  N4_23 
ROOT
HETATM    1  N1  UNL     1      -0.387  52.025 -23.598  1.00  0.00    -0.107 N 
HETATM    2  C8  UNL     1       0.326  53.058 -22.982  1.00  0.00     0.282 A 
HETATM    3  O2  UNL     1       0.668  54.114 -23.508  1.00  0.00    -0.266 OA
HETATM    4  C9  UNL     1       0.626  52.902 -21.548  1.00  0.00     0.095 A 
HETATM    5  C10 UNL     1       1.328  53.849 -20.845  1.00  0.00     0.127 A 
HETATM    6  N2  UNL     1       1.583  53.750 -19.521  1.00  0.00    -0.201 N 
ATOM      7  H2  UNL     1       2.106  54.477 -19.032  1.00  0.00     0.183 HD
HETATM    8  C11 UNL     1       1.128  52.669 -18.871  1.00  0.00     0.684 A 
HETATM    9  N6  UNL     1       0.447  51.686 -19.484  1.00  0.00    -0.174 N 
ATOM     10  H6  UNL     1       0.127  50.865 -18.972  1.00  0.00     0.186 HD
HETATM   11  C23 UNL     1       0.200  51.828 -20.809  1.00  0.00     0.162 A 
HETATM   12  N7  UNL     1      -0.546  50.850 -21.492  1.00  0.00    -0.128 N 
HETATM   13  C24 UNL     1      -1.106  49.680 -21.016  1.00  0.00     0.086 A 
HETATM   14  C25 UNL     1      -1.152  49.061 -19.757  1.00  0.00     0.033 A 
HETATM   15  C26 UNL     1      -1.840  47.845 -19.660  1.00  0.00     0.002 A 
HETATM   16  C27 UNL     1      -2.453  47.271 -20.773  1.00  0.00     0.002 A 
HETATM   17  C28 UNL     1      -2.394  47.898 -22.021  1.00  0.00     0.032 A 
HETATM   18  C29 UNL     1      -1.710  49.117 -22.137  1.00  0.00     0.077 A 
HETATM   19  N8  UNL     1      -1.527  49.901 -23.245  1.00  0.00    -0.188 N 
ATOM     20  H8  UNL     1      -1.858  49.713 -24.192  1.00  0.00     0.184 HD
HETATM   21  C30 UNL     1      -0.836  50.947 -22.839  1.00  0.00     0.701 A 
ENDROOT
BRANCH   8  22
HETATM   22  N3  UNL     1       1.319  52.486 -17.506  1.00  0.00    -0.192 N 
HETATM   23  H8  UNL     1       2.293  52.630 -17.286  1.00  0.00     0.184 HD
BRANCH  22  24
HETATM   24  C12 UNL     1       0.540  51.918 -16.491  1.00  0.00     0.049 A 
HETATM   25  C13 UNL     1       0.840  52.230 -15.162  1.00  0.00     0.032 A 
HETATM   26  C14 UNL     1       0.102  51.691 -14.095  1.00  0.00     0.031 A 
HETATM   27  C15 UNL     1      -0.979  50.827 -14.302  1.00  0.00     0.030 A 
HETATM   28  C21 UNL     1      -1.288  50.544 -15.640  1.00  0.00     0.031 A 
HETATM   29  C22 UNL     1      -0.549  51.078 -16.711  1.00  0.00     0.032 A 
BRANCH  27  30
HETATM   30  N4  UNL     1      -1.698  50.287 -13.252  1.00  0.00    -0.378 N 
HETATM   31  C16 UNL     1      -3.097  50.669 -12.994  1.00  0.00     0.153 C 
HETATM   32  C17 UNL     1      -3.819  49.611 -12.127  1.00  0.00     0.291 C 
HETATM   33  N5  UNL     1      -3.179  49.303 -10.831  1.00  0.00     0.087 N 
HETATM   34  C18 UNL     1      -3.761  50.085  -9.745  1.00  0.00     0.310 C 
HETATM   35  C19 UNL     1      -1.715  49.516 -10.893  1.00  0.00     0.291 C 
HETATM   36  C20 UNL     1      -1.094  49.339 -12.299  1.00  0.00     0.153 C 
ENDBRANCH  27  30
ENDBRANCH  22  24
ENDBRANCH   8  22
BRANCH   1  37
HETATM   37  C7  UNL     1      -0.687  52.038 -24.994  1.00  0.00     0.095 A 
HETATM   38  C2  UNL     1      -2.010  52.231 -25.454  1.00  0.00     0.096 A 
HETATM   39  C3  UNL     1      -2.282  52.186 -26.828  1.00  0.00     0.041 A 
HETATM   40  C4  UNL     1      -1.255  51.950 -27.746  1.00  0.00     0.026 A 
HETATM   41  C5  UNL     1       0.049  51.777 -27.295  1.00  0.00     0.036 A 
HETATM   42 CL1  UNL     1       1.313  51.495 -28.430  1.00  0.00    -0.084 Cl
HETATM   43  C6  UNL     1       0.338  51.824 -25.934  1.00  0.00     0.057 A 
BRANCH  38  44
HETATM   44  O1  UNL     1      -2.951  52.580 -24.516  1.00  0.00    -0.354 OA
HETATM   45  C1  UNL     1      -4.210  51.919 -24.608  1.00  0.00     0.210 C 
ENDBRANCH  38  44
ENDBRANCH   1  37
TORSDOF 5
ENDMDL
MODEL 3
REMARK minimizedAffinity -10.9226723
REMARK CNNscore 0.347109735
REMARK CNNaffinity 7.62162542
REMARK  5 active torsions:
REMARK  status: ('A' for Active; 'I' for Inactive)
REMARK    1  A    between atoms: O1_2  and  C2_3 
REMARK    2  A    between atoms: C7_9  and  N1_10 
REMARK    3  A    between atoms: C11_17  and  N3_18 
REMARK    4  A    between atoms: N3_18  and  C12_19 
REMARK    5  A    between atoms: C15_22  and  N4_23 
ROOT
HETATM    1  N1  UNL     1      -0.025  52.270 -23.860  1.00  0.00    -0.107 N 
HETATM    2  C8  UNL     1       0.662  53.250 -23.137  1.00  0.00     0.282 A 
HETATM    3  O2  UNL     1       1.167  54.269 -23.601  1.00  0.00    -0.266 OA
HETATM    4  C9  UNL     1       0.717  53.087 -21.674  1.00  0.00     0.095 A 
HETATM    5  C10 UNL     1       1.373  53.983 -20.867  1.00  0.00     0.127 A 
HETATM    6  N2  UNL     1       1.405  53.879 -19.519  1.00  0.00    -0.201 N 
ATOM      7  H2  UNL     1       1.900  54.568 -18.952  1.00  0.00     0.183 HD
HETATM    8  C11 UNL     1       0.767  52.845 -18.951  1.00  0.00     0.684 A 
HETATM    9  N6  UNL     1       0.115  51.913 -19.667  1.00  0.00    -0.174 N 
ATOM     10  H6  UNL     1      -0.347  51.126 -19.213  1.00  0.00     0.186 HD
HETATM   11  C23 UNL     1       0.094  52.059 -21.014  1.00  0.00     0.162 A 
HETATM   12  N7  UNL     1      -0.610  51.135 -21.808  1.00  0.00    -0.128 N 
HETATM   13  C24 UNL     1      -1.330  50.020 -21.428  1.00  0.00     0.086 A 
HETATM   14  C25 UNL     1      -1.626  49.421 -20.194  1.00  0.00     0.033 A 
HETATM   15  C26 UNL     1      -2.415  48.264 -20.209  1.00  0.00     0.002 A 
HETATM   16  C27 UNL     1      -2.889  47.728 -21.406  1.00  0.00     0.002 A 
HETATM   17  C28 UNL     1      -2.582  48.334 -22.629  1.00  0.00     0.032 A 
HETATM   18  C29 UNL     1      -1.792  49.494 -22.633  1.00  0.00     0.077 A 
HETATM   19  N8  UNL     1      -1.374  50.248 -23.696  1.00  0.00    -0.188 N 
ATOM     20  H8  UNL     1      -1.564  50.076 -24.684  1.00  0.00     0.184 HD
HETATM   21  C30 UNL     1      -0.674  51.240 -23.184  1.00  0.00     0.701 A 
ENDROOT
BRANCH   8  22
HETATM   22  N3  UNL     1       0.724  52.663 -17.573  1.00  0.00    -0.192 N 
HETATM   23  H8  UNL     1       0.809  53.560 -17.118  1.00  0.00     0.184 HD
BRANCH  22  24
HETATM   24  C12 UNL     1       0.848  51.542 -16.744  1.00  0.00     0.049 A 
HETATM   25  C13 UNL     1       1.628  51.647 -15.589  1.00  0.00     0.032 A 
HETATM   26  C14 UNL     1       1.799  50.560 -14.716  1.00  0.00     0.031 A 
HETATM   27  C15 UNL     1       1.188  49.322 -14.944  1.00  0.00     0.030 A 
HETATM   28  C21 UNL     1       0.386  49.238 -16.091  1.00  0.00     0.031 A 
HETATM   29  C22 UNL     1       0.215  50.322 -16.970  1.00  0.00     0.032 A 
BRANCH  27  30
HETATM   30  N4  UNL     1       1.366  48.248 -14.091  1.00  0.00    -0.378 N 
HETATM   31  C16 UNL     1       1.303  48.403 -12.628  1.00  0.00     0.153 C 
HETATM   32  C17 UNL     1       1.033  47.050 -11.930  1.00  0.00     0.291 C 
HETATM   33  N5  UNL     1       1.994  45.970 -12.238  1.00  0.00     0.087 N 
HETATM   34  C18 UNL     1       3.048  45.885 -11.231  1.00  0.00     0.310 C 
HETATM   35  C19 UNL     1       2.581  46.144 -13.585  1.00  0.00     0.291 C 
HETATM   36  C20 UNL     1       1.680  46.898 -14.592  1.00  0.00     0.153 C 
ENDBRANCH  27  30
ENDBRANCH  22  24
ENDBRANCH   8  22
BRANCH   1  37
HETATM   37  C7  UNL     1      -0.097  52.292 -25.286  1.00  0.00     0.095 A 
HETATM   38  C2  UNL     1      -1.317  52.553 -25.951  1.00  0.00     0.096 A 
HETATM   39  C3  UNL     1      -1.369  52.514 -27.350  1.00  0.00     0.041 A 
HETATM   40  C4  UNL     1      -0.224  52.218 -28.093  1.00  0.00     0.026 A 
HETATM   41  C5  UNL     1       0.981  51.977 -27.441  1.00  0.00     0.036 A 
HETATM   42 CL1  UNL     1       2.391  51.620 -28.361  1.00  0.00    -0.084 Cl
HETATM   43  C6  UNL     1       1.051  52.016 -26.051  1.00  0.00     0.057 A 
BRANCH  38  44
HETATM   44  O1  UNL     1      -2.376  52.958 -25.174  1.00  0.00    -0.354 OA
HETATM   45  C1  UNL     1      -3.607  52.272 -25.377  1.00  0.00     0.210 C 
ENDBRANCH  38  44
ENDBRANCH   1  37
TORSDOF 5
ENDMDL
MODEL 4
REMARK minimizedAffinity -10.3493624
REMARK CNNscore 0.341343522
REMARK CNNaffinity 7.51964569
REMARK  5 active torsions:
REMARK  status: ('A' for Active; 'I' for Inactive)
REMARK    1  A    between atoms: O1_2  and  C2_3 
REMARK    2  A    between atoms: C7_9  and  N1_10 
REMARK    3  A    between atoms: C11_17  and  N3_18 
REMARK    4  A    between atoms: N3_18  and  C12_19 
REMARK    5  A    between atoms: C15_22  and  N4_23 
ROOT
HETATM    1  N1  UNL     1      -0.868  51.514 -23.676  1.00  0.00    -0.107 N 
HETATM    2  C8  UNL     1      -0.091  52.625 -23.334  1.00  0.00     0.282 A 
HETATM    3  O2  UNL     1       0.243  53.534 -24.090  1.00  0.00    -0.266 OA
HETATM    4  C9  UNL     1       0.299  52.760 -21.920  1.00  0.00     0.095 A 
HETATM    5  C10 UNL     1       1.069  53.805 -21.474  1.00  0.00     0.127 A 
HETATM    6  N2  UNL     1       1.407  53.975 -20.177  1.00  0.00    -0.201 N 
ATOM      7  H2  UNL     1       1.978  54.767 -19.882  1.00  0.00     0.183 HD
HETATM    8  C11 UNL     1       0.969  53.071 -19.288  1.00  0.00     0.684 A 
HETATM    9  N6  UNL     1       0.225  52.008 -19.640  1.00  0.00    -0.174 N 
ATOM     10  H6  UNL     1      -0.081  51.324 -18.948  1.00  0.00     0.186 HD
HETATM   11  C23 UNL     1      -0.104  51.880 -20.948  1.00  0.00     0.162 A 
HETATM   12  N7  UNL     1      -0.917  50.810 -21.365  1.00  0.00    -0.128 N 
HETATM   13  C24 UNL     1      -1.473  49.787 -20.621  1.00  0.00     0.086 A 
HETATM   14  C25 UNL     1      -1.452  49.446 -19.260  1.00  0.00     0.033 A 
HETATM   15  C26 UNL     1      -2.162  48.304 -18.869  1.00  0.00     0.002 A 
HETATM   16  C27 UNL     1      -2.861  47.534 -19.798  1.00  0.00     0.002 A 
HETATM   17  C28 UNL     1      -2.867  47.884 -21.152  1.00  0.00     0.032 A 
HETATM   18  C29 UNL     1      -2.163  49.026 -21.562  1.00  0.00     0.077 A 
HETATM   19  N8  UNL     1      -2.034  49.555 -22.819  1.00  0.00    -0.188 N 
ATOM     20  H8  UNL     1      -2.431  49.186 -23.683  1.00  0.00     0.184 HD
HETATM   21  C30 UNL     1      -1.292  50.635 -22.683  1.00  0.00     0.701 A 
ENDROOT
BRANCH   8  22
HETATM   22  N3  UNL     1       1.244  53.169 -17.928  1.00  0.00    -0.192 N 
HETATM   23  H8  UNL     1       1.495  54.121 -17.710  1.00  0.00     0.184 HD
BRANCH  22  24
HETATM   24  C12 UNL     1       1.488  52.226 -16.923  1.00  0.00     0.049 A 
HETATM   25  C13 UNL     1       0.546  51.216 -16.709  1.00  0.00     0.032 A 
HETATM   26  C14 UNL     1       0.726  50.240 -15.714  1.00  0.00     0.031 A 
HETATM   27  C15 UNL     1       1.861  50.216 -14.896  1.00  0.00     0.030 A 
HETATM   28  C21 UNL     1       2.812  51.217 -15.139  1.00  0.00     0.031 A 
HETATM   29  C22 UNL     1       2.633  52.198 -16.132  1.00  0.00     0.032 A 
BRANCH  27  30
HETATM   30  N4  UNL     1       2.033  49.263 -13.909  1.00  0.00    -0.378 N 
HETATM   31  C16 UNL     1       0.948  48.345 -13.522  1.00  0.00     0.153 C 
HETATM   32  C17 UNL     1       1.500  47.095 -12.798  1.00  0.00     0.291 C 
HETATM   33  N5  UNL     1       2.325  47.363 -11.601  1.00  0.00     0.087 N 
HETATM   34  C18 UNL     1       1.535  47.296 -10.376  1.00  0.00     0.310 C 
HETATM   35  C19 UNL     1       3.008  48.673 -11.704  1.00  0.00     0.291 C 
HETATM   36  C20 UNL     1       3.291  49.144 -13.151  1.00  0.00     0.153 C 
ENDBRANCH  27  30
ENDBRANCH  22  24
ENDBRANCH   8  22
BRANCH   1  37
HETATM   37  C7  UNL     1      -1.257  51.247 -25.024  1.00  0.00     0.095 A 
HETATM   38  C2  UNL     1      -1.002  52.181 -26.055  1.00  0.00     0.096 A 
HETATM   39  C3  UNL     1      -1.443  51.916 -27.358  1.00  0.00     0.041 A 
HETATM   40  C4  UNL     1      -2.135  50.737 -27.646  1.00  0.00     0.026 A 
HETATM   41  C5  UNL     1      -2.371  49.810 -26.636  1.00  0.00     0.036 A 
HETATM   42 CL1  UNL     1      -3.217  48.355 -26.996  1.00  0.00    -0.084 Cl
HETATM   43  C6  UNL     1      -1.936  50.055 -25.336  1.00  0.00     0.057 A 
BRANCH  38  44
HETATM   44  O1  UNL     1      -0.213  53.260 -25.737  1.00  0.00    -0.354 OA
HETATM   45  C1  UNL     1       0.072  54.168 -26.796  1.00  0.00     0.210 C 
ENDBRANCH  38  44
ENDBRANCH   1  37
TORSDOF 5
ENDMDL
MODEL 5
REMARK minimizedAffinity -10.1188602
REMARK CNNscore 0.295145571
REMARK CNNaffinity 7.64367485
REMARK  5 active torsions:
REMARK  status: ('A' for Active; 'I' for Inactive)
REMARK    1  A    between atoms: O1_2  and  C2_3 
REMARK    2  A    between atoms: C7_9  and  N1_10 
REMARK    3  A    between atoms: C11_17  and  N3_18 
REMARK    4  A    between atoms: N3_18  and  C12_19 
REMARK    5  A    between atoms: C15_22  and  N4_23 
ROOT
HETATM    1  N1  UNL     1      -0.665  51.502 -23.519  1.00  0.00    -0.107 N 
HETATM    2  C8  UNL     1       0.022  52.035 -22.424  1.00  0.00     0.282 A 
HETATM    3  O2  UNL     1       0.848  52.944 -22.463  1.00  0.00    -0.266 OA
HETATM    4  C9  UNL     1      -0.332  51.514 -21.093  1.00  0.00     0.095 A 
HETATM    5  C10 UNL     1       0.286  51.958 -19.950  1.00  0.00     0.127 A 
HETATM    6  N2  UNL     1      -0.047  51.527 -18.713  1.00  0.00    -0.201 N 
ATOM      7  H2  UNL     1       0.433  51.883 -17.886  1.00  0.00     0.183 HD
HETATM    8  C11 UNL     1      -1.027  50.618 -18.605  1.00  0.00     0.684 A 
HETATM    9  N6  UNL     1      -1.673  50.117 -19.672  1.00  0.00    -0.174 N 
ATOM     10  H6  UNL     1      -2.402  49.412 -19.566  1.00  0.00     0.186 HD
HETATM   11  C23 UNL     1      -1.319  50.583 -20.894  1.00  0.00     0.162 A 
HETATM   12  N7  UNL     1      -1.993  50.125 -22.041  1.00  0.00    -0.128 N 
HETATM   13  C24 UNL     1      -3.021  49.209 -22.149  1.00  0.00     0.086 A 
HETATM   14  C25 UNL     1      -3.748  48.443 -21.225  1.00  0.00     0.033 A 
HETATM   15  C26 UNL     1      -4.751  47.605 -21.728  1.00  0.00     0.002 A 
HETATM   16  C27 UNL     1      -5.017  47.535 -23.095  1.00  0.00     0.002 A 
HETATM   17  C28 UNL     1      -4.281  48.302 -24.003  1.00  0.00     0.032 A 
HETATM   18  C29 UNL     1      -3.272  49.148 -23.518  1.00  0.00     0.077 A 
HETATM   19  N8  UNL     1      -2.438  49.981 -24.213  1.00  0.00    -0.188 N 
ATOM     20  H8  UNL     1      -2.407  50.116 -25.224  1.00  0.00     0.184 HD
HETATM   21  C30 UNL     1      -1.682  50.573 -23.311  1.00  0.00     0.701 A 
ENDROOT
BRANCH   8  22
HETATM   22  N3  UNL     1      -1.457  50.129 -17.377  1.00  0.00    -0.192 N 
HETATM   23  H8  UNL     1      -1.967  49.270 -17.523  1.00  0.00     0.184 HD
BRANCH  22  24
HETATM   24  C12 UNL     1      -1.554  50.687 -16.097  1.00  0.00     0.049 A 
HETATM   25  C13 UNL     1      -2.824  50.910 -15.557  1.00  0.00     0.032 A 
HETATM   26  C14 UNL     1      -2.993  51.470 -14.280  1.00  0.00     0.031 A 
HETATM   27  C15 UNL     1      -1.904  51.822 -13.474  1.00  0.00     0.030 A 
HETATM   28  C21 UNL     1      -0.636  51.568 -14.015  1.00  0.00     0.031 A 
HETATM   29  C22 UNL     1      -0.462  51.010 -15.295  1.00  0.00     0.032 A 
BRANCH  27  30
HETATM   30  N4  UNL     1      -2.069  52.386 -12.222  1.00  0.00    -0.378 N 
HETATM   31  C16 UNL     1      -0.924  52.872 -11.435  1.00  0.00     0.153 C 
HETATM   32  C17 UNL     1      -1.374  53.876 -10.348  1.00  0.00     0.291 C 
HETATM   33  N5  UNL     1      -2.402  53.381  -9.409  1.00  0.00     0.087 N 
HETATM   34  C18 UNL     1      -1.805  52.856  -8.185  1.00  0.00     0.310 C 
HETATM   35  C19 UNL     1      -3.259  52.356 -10.045  1.00  0.00     0.291 C 
HETATM   36  C20 UNL     1      -3.392  52.485 -11.581  1.00  0.00     0.153 C 
ENDBRANCH  27  30
ENDBRANCH  22  24
ENDBRANCH   8  22
BRANCH   1  37
HETATM   37  C7  UNL     1      -0.368  51.887 -24.861  1.00  0.00     0.095 A 
HETATM   38  C2  UNL     1      -1.335  52.535 -25.665  1.00  0.00     0.096 A 
HETATM   39  C3  UNL     1      -1.033  52.852 -26.996  1.00  0.00     0.041 A 
HETATM   40  C4  UNL     1       0.215  52.532 -27.535  1.00  0.00     0.026 A 
HETATM   41  C5  UNL     1       1.173  51.911 -26.740  1.00  0.00     0.036 A 
HETATM   42 CL1  UNL     1       2.713  51.525 -27.405  1.00  0.00    -0.084 Cl
HETATM   43  C6  UNL     1       0.892  51.592 -25.414  1.00  0.00     0.057 A 
BRANCH  38  44
HETATM   44  O1  UNL     1      -2.495  52.932 -25.045  1.00  0.00    -0.354 OA
HETATM   45  C1  UNL     1      -3.706  52.389 -25.562  1.00  0.00     0.210 C 
ENDBRANCH  38  44
ENDBRANCH   1  37
TORSDOF 5
ENDMDL
MODEL 6
REMARK minimizedAffinity -9.97996616
REMARK CNNscore 0.262878746
REMARK CNNaffinity 7.66617727
REMARK  5 active torsions:
REMARK  status: ('A' for Active; 'I' for Inactive)
REMARK    1  A    between atoms: O1_2  and  C2_3 
REMARK    2  A    between atoms: C7_9  and  N1_10 
REMARK    3  A    between atoms: C11_17  and  N3_18 
REMARK    4  A    between atoms: N3_18  and  C12_19 
REMARK    5  A    between atoms: C15_22  and  N4_23 
ROOT
HETATM    1  N1  UNL     1      -0.027  52.627 -24.555  1.00  0.00    -0.107 N 
HETATM    2  C8  UNL     1       0.695  53.535 -23.775  1.00  0.00     0.282 A 
HETATM    3  O2  UNL     1       1.266  54.544 -24.183  1.00  0.00    -0.266 OA
HETATM    4  C9  UNL     1       0.708  53.307 -22.320  1.00  0.00     0.095 A 
HETATM    5  C10 UNL     1       1.392  54.130 -21.461  1.00  0.00     0.127 A 
HETATM    6  N2  UNL     1       1.387  53.967 -20.119  1.00  0.00    -0.201 N 
ATOM      7  H2  UNL     1       1.905  54.602 -19.511  1.00  0.00     0.183 HD
HETATM    8  C11 UNL     1       0.681  52.947 -19.610  1.00  0.00     0.684 A 
HETATM    9  N6  UNL     1      -0.004  52.083 -20.380  1.00  0.00    -0.174 N 
ATOM     10  H6  UNL     1      -0.518  51.303 -19.971  1.00  0.00     0.186 HD
HETATM   11  C23 UNL     1       0.015  52.287 -21.719  1.00  0.00     0.162 A 
HETATM   12  N7  UNL     1      -0.719  51.439 -22.568  1.00  0.00    -0.128 N 
HETATM   13  C24 UNL     1      -1.508  50.349 -22.253  1.00  0.00     0.086 A 
HETATM   14  C25 UNL     1      -1.864  49.715 -21.053  1.00  0.00     0.033 A 
HETATM   15  C26 UNL     1      -2.714  48.605 -21.136  1.00  0.00     0.002 A 
HETATM   16  C27 UNL     1      -3.188  48.148 -22.365  1.00  0.00     0.002 A 
HETATM   17  C28 UNL     1      -2.820  48.788 -23.553  1.00  0.00     0.032 A 
HETATM   18  C29 UNL     1      -1.969  49.902 -23.489  1.00  0.00     0.077 A 
HETATM   19  N8  UNL     1      -1.486  50.676 -24.509  1.00  0.00    -0.188 N 
ATOM     20  H8  UNL     1      -1.662  50.558 -25.507  1.00  0.00     0.184 HD
HETATM   21  C30 UNL     1      -0.746  51.606 -23.939  1.00  0.00     0.701 A 
ENDROOT
BRANCH   8  22
HETATM   22  N3  UNL     1       0.595  52.708 -18.243  1.00  0.00    -0.192 N 
HETATM   23  H8  UNL     1       0.831  53.554 -17.745  1.00  0.00     0.184 HD
BRANCH  22  24
HETATM   24  C12 UNL     1       0.517  51.544 -17.470  1.00  0.00     0.049 A 
HETATM   25  C13 UNL     1       1.263  51.473 -16.290  1.00  0.00     0.032 A 
HETATM   26  C14 UNL     1       1.234  50.333 -15.469  1.00  0.00     0.031 A 
HETATM   27  C15 UNL     1       0.451  49.215 -15.779  1.00  0.00     0.030 A 
HETATM   28  C21 UNL     1      -0.313  49.310 -16.950  1.00  0.00     0.031 A 
HETATM   29  C22 UNL     1      -0.285  50.448 -17.776  1.00  0.00     0.032 A 
BRANCH  27  30
HETATM   30  N4  UNL     1       0.432  48.088 -14.978  1.00  0.00    -0.378 N 
HETATM   31  C16 UNL     1       1.669  47.373 -14.620  1.00  0.00     0.153 C 
HETATM   32  C17 UNL     1       1.467  46.493 -13.364  1.00  0.00     0.291 C 
HETATM   33  N5  UNL     1       0.371  45.505 -13.447  1.00  0.00     0.087 N 
HETATM   34  C18 UNL     1       0.859  44.193 -13.862  1.00  0.00     0.310 C 
HETATM   35  C19 UNL     1      -0.700  45.968 -14.359  1.00  0.00     0.291 C 
HETATM   36  C20 UNL     1      -0.826  47.506 -14.480  1.00  0.00     0.153 C 
ENDBRANCH  27  30
ENDBRANCH  22  24
ENDBRANCH   8  22
BRANCH   1  37
HETATM   37  C7  UNL     1      -0.064  52.713 -25.980  1.00  0.00     0.095 A 
HETATM   38  C2  UNL     1       0.742  51.873 -26.783  1.00  0.00     0.096 A 
HETATM   39  C3  UNL     1       0.725  52.017 -28.176  1.00  0.00     0.041 A 
HETATM   40  C4  UNL     1      -0.082  52.985 -28.778  1.00  0.00     0.026 A 
HETATM   41  C5  UNL     1      -0.888  53.800 -27.991  1.00  0.00     0.036 A 
HETATM   42 CL1  UNL     1      -1.887  54.987 -28.737  1.00  0.00    -0.084 Cl
HETATM   43  C6  UNL     1      -0.887  53.668 -26.604  1.00  0.00     0.057 A 
BRANCH  38  44
HETATM   44  O1  UNL     1       1.419  50.862 -26.143  1.00  0.00    -0.354 OA
HETATM   45  C1  UNL     1       2.840  50.911 -26.212  1.00  0.00     0.210 C 
ENDBRANCH  38  44
ENDBRANCH   1  37
TORSDOF 5
ENDMDL
MODEL 7
REMARK minimizedAffinity -9.57662106
REMARK CNNscore 0.242384344
REMARK CNNaffinity 7.25920486
REMARK  5 active torsions:
REMARK  status: ('A' for Active; 'I' for Inactive)
REMARK    1  A    between atoms: O1_2  and  C2_3 
REMARK    2  A    between atoms: C7_9  and  N1_10 
REMARK    3  A    between atoms: C11_17  and  N3_18 
REMARK    4  A    between atoms: N3_18  and  C12_19 
REMARK    5  A    between atoms: C15_22  and  N4_23 
ROOT
HETATM    1  N1  UNL     1      -0.688  51.310 -23.165  1.00  0.00    -0.107 N 
HETATM    2  C8  UNL     1      -0.031  52.350 -22.501  1.00  0.00     0.282 A 
HETATM    3  O2  UNL     1       0.374  53.392 -23.012  1.00  0.00    -0.266 OA
HETATM    4  C9  UNL     1       0.119  52.224 -21.041  1.00  0.00     0.095 A 
HETATM    5  C10 UNL     1       0.754  53.180 -20.289  1.00  0.00     0.127 A 
HETATM    6  N2  UNL     1       0.870  53.109 -18.945  1.00  0.00    -0.201 N 
ATOM      7  H2  UNL     1       1.348  53.842 -18.419  1.00  0.00     0.183 HD
HETATM    8  C11 UNL     1       0.340  52.046 -18.322  1.00  0.00     0.684 A 
HETATM    9  N6  UNL     1      -0.285  51.056 -18.981  1.00  0.00    -0.174 N 
ATOM     10  H6  UNL     1      -0.665  50.249 -18.487  1.00  0.00     0.186 HD
HETATM   11  C23 UNL     1      -0.392  51.170 -20.327  1.00  0.00     0.162 A 
HETATM   12  N7  UNL     1      -1.074  50.183 -21.062  1.00  0.00    -0.128 N 
HETATM   13  C24 UNL     1      -1.692  49.029 -20.622  1.00  0.00     0.086 A 
HETATM   14  C25 UNL     1      -1.874  48.439 -19.361  1.00  0.00     0.033 A 
HETATM   15  C26 UNL     1      -2.581  47.230 -19.310  1.00  0.00     0.002 A 
HETATM   16  C27 UNL     1      -3.082  46.636 -20.468  1.00  0.00     0.002 A 
HETATM   17  C28 UNL     1      -2.888  47.235 -21.717  1.00  0.00     0.032 A 
HETATM   18  C29 UNL     1      -2.184  48.446 -21.788  1.00  0.00     0.077 A 
HETATM   19  N8  UNL     1      -1.880  49.204 -22.887  1.00  0.00    -0.188 N 
ATOM     20  H8  UNL     1      -2.114  48.998 -23.859  1.00  0.00     0.184 HD
HETATM   21  C30 UNL     1      -1.224  50.253 -22.434  1.00  0.00     0.701 A 
ENDROOT
BRANCH   8  22
HETATM   22  N3  UNL     1       0.387  51.892 -16.941  1.00  0.00    -0.192 N 
HETATM   23  H8  UNL     1       0.263  52.793 -16.503  1.00  0.00     0.184 HD
BRANCH  22  24
HETATM   24  C12 UNL     1       0.811  50.856 -16.100  1.00  0.00     0.049 A 
HETATM   25  C13 UNL     1       0.291  49.574 -16.302  1.00  0.00     0.032 A 
HETATM   26  C14 UNL     1       0.671  48.491 -15.492  1.00  0.00     0.031 A 
HETATM   27  C15 UNL     1       1.597  48.631 -14.452  1.00  0.00     0.030 A 
HETATM   28  C21 UNL     1       2.131  49.914 -14.278  1.00  0.00     0.031 A 
HETATM   29  C22 UNL     1       1.752  51.003 -15.084  1.00  0.00     0.032 A 
BRANCH  27  30
HETATM   30  N4  UNL     1       1.961  47.567 -13.647  1.00  0.00    -0.378 N 
HETATM   31  C16 UNL     1       1.954  46.181 -14.146  1.00  0.00     0.153 C 
HETATM   32  C17 UNL     1       2.843  45.265 -13.273  1.00  0.00     0.291 C 
HETATM   33  N5  UNL     1       2.513  45.238 -11.833  1.00  0.00     0.087 N 
HETATM   34  C18 UNL     1       1.636  44.119 -11.502  1.00  0.00     0.310 C 
HETATM   35  C19 UNL     1       1.903  46.516 -11.400  1.00  0.00     0.291 C 
HETATM   36  C20 UNL     1       2.327  47.750 -12.232  1.00  0.00     0.153 C 
ENDBRANCH  27  30
ENDBRANCH  22  24
ENDBRANCH   8  22
BRANCH   1  37
HETATM   37  C7  UNL     1      -0.842  51.295 -24.585  1.00  0.00     0.095 A 
HETATM   38  C2  UNL     1      -2.116  51.144 -25.178  1.00  0.00     0.096 A 
HETATM   39  C3  UNL     1      -2.230  51.078 -26.573  1.00  0.00     0.041 A 
HETATM   40  C4  UNL     1      -1.094  51.160 -27.381  1.00  0.00     0.026 A 
HETATM   41  C5  UNL     1       0.158  51.326 -26.799  1.00  0.00     0.036 A 
HETATM   42 CL1  UNL     1       1.556  51.434 -27.799  1.00  0.00    -0.084 Cl
HETATM   43  C6  UNL     1       0.290  51.398 -25.415  1.00  0.00     0.057 A 
BRANCH  38  44
HETATM   44  O1  UNL     1      -3.204  51.193 -24.340  1.00  0.00    -0.354 OA
HETATM   45  C1  UNL     1      -4.203  52.156 -24.658  1.00  0.00     0.210 C 
ENDBRANCH  38  44
ENDBRANCH   1  37
TORSDOF 5
ENDMDL
MODEL 8
REMARK minimizedAffinity -9.37647915
REMARK CNNscore 0.24178037
REMARK CNNaffinity 7.2564621
REMARK  5 active torsions:
REMARK  status: ('A' for Active; 'I' for Inactive)
REMARK    1  A    between atoms: O1_2  and  C2_3 
REMARK    2  A    between atoms: C7_9  and  N1_10 
REMARK    3  A    between atoms: C11_17  and  N3_18 
REMARK    4  A    between atoms: N3_18  and  C12_19 
REMARK    5  A    between atoms: C15_22  and  N4_23 
ROOT
HETATM    1  N1  UNL     1      -2.286  50.586 -22.043  1.00  0.00    -0.107 N 
HETATM    2  C8  UNL     1      -1.454  51.688 -22.257  1.00  0.00     0.282 A 
HETATM    3  O2  UNL     1      -1.456  52.414 -23.248  1.00  0.00    -0.266 OA
HETATM    4  C9  UNL     1      -0.545  52.064 -21.160  1.00  0.00     0.095 A 
HETATM    5  C10 UNL     1       0.322  53.123 -21.264  1.00  0.00     0.127 A 
HETATM    6  N2  UNL     1       1.137  53.514 -20.260  1.00  0.00    -0.201 N 
ATOM      7  H2  UNL     1       1.766  54.309 -20.373  1.00  0.00     0.183 HD
HETATM    8  C11 UNL     1       1.095  52.826 -19.109  1.00  0.00     0.684 A 
HETATM    9  N6  UNL     1       0.288  51.766 -18.927  1.00  0.00    -0.174 N 
ATOM     10  H6  UNL     1       0.287  51.247 -18.050  1.00  0.00     0.186 HD
HETATM   11  C23 UNL     1      -0.523  51.413 -19.953  1.00  0.00     0.162 A 
HETATM   12  N7  UNL     1      -1.418  50.338 -19.801  1.00  0.00    -0.128 N 
HETATM   13  C24 UNL     1      -1.624  49.513 -18.712  1.00  0.00     0.086 A 
HETATM   14  C25 UNL     1      -1.068  49.437 -17.426  1.00  0.00     0.033 A 
HETATM   15  C26 UNL     1      -1.551  48.437 -16.572  1.00  0.00     0.002 A 
HETATM   16  C27 UNL     1      -2.546  47.551 -16.986  1.00  0.00     0.002 A 
HETATM   17  C28 UNL     1      -3.087  47.638 -18.273  1.00  0.00     0.032 A 
HETATM   18  C29 UNL     1      -2.615  48.634 -19.142  1.00  0.00     0.077 A 
HETATM   19  N8  UNL     1      -2.995  48.904 -20.429  1.00  0.00    -0.188 N 
ATOM     20  H8  UNL     1      -3.693  48.405 -20.982  1.00  0.00     0.184 HD
HETATM   21  C30 UNL     1      -2.276  49.940 -20.809  1.00  0.00     0.701 A 
ENDROOT
BRANCH   8  22
HETATM   22  N3  UNL     1       1.877  53.162 -18.011  1.00  0.00    -0.192 N 
HETATM   23  H8  UNL     1       2.553  53.859 -18.287  1.00  0.00     0.184 HD
BRANCH  22  24
HETATM   24  C12 UNL     1       2.080  52.576 -16.756  1.00  0.00     0.049 A 
HETATM   25  C13 UNL     1       3.392  52.387 -16.310  1.00  0.00     0.032 A 
HETATM   26  C14 UNL     1       3.667  51.801 -15.063  1.00  0.00     0.031 A 
HETATM   27  C15 UNL     1       2.649  51.390 -14.195  1.00  0.00     0.030 A 
HETATM   28  C21 UNL     1       1.339  51.611 -14.642  1.00  0.00     0.031 A 
HETATM   29  C22 UNL     1       1.059  52.194 -15.891  1.00  0.00     0.032 A 
BRANCH  27  30
HETATM   30  N4  UNL     1       2.920  50.802 -12.973  1.00  0.00    -0.378 N 
HETATM   31  C16 UNL     1       2.095  51.074 -11.784  1.00  0.00     0.153 C 
HETATM   32  C17 UNL     1       2.265  49.968 -10.716  1.00  0.00     0.291 C 
HETATM   33  N5  UNL     1       3.652  49.721 -10.269  1.00  0.00     0.087 N 
HETATM   34  C18 UNL     1       3.964  50.462  -9.051  1.00  0.00     0.310 C 
HETATM   35  C19 UNL     1       4.625  50.048 -11.335  1.00  0.00     0.291 C 
HETATM   36  C20 UNL     1       4.077  49.911 -12.776  1.00  0.00     0.153 C 
ENDBRANCH  27  30
ENDBRANCH  22  24
ENDBRANCH   8  22
BRANCH   1  37
HETATM   37  C7  UNL     1      -3.167  50.094 -23.054  1.00  0.00     0.095 A 
HETATM   38  C2  UNL     1      -4.570  50.161 -22.894  1.00  0.00     0.096 A 
HETATM   39  C3  UNL     1      -5.409  49.621 -23.878  1.00  0.00     0.041 A 
HETATM   40  C4  UNL     1      -4.869  49.017 -25.015  1.00  0.00     0.026 A 
HETATM   41  C5  UNL     1      -3.489  48.965 -25.182  1.00  0.00     0.036 A 
HETATM   42 CL1  UNL     1      -2.827  48.226 -26.589  1.00  0.00    -0.084 Cl
HETATM   43  C6  UNL     1      -2.640  49.500 -24.216  1.00  0.00     0.057 A 
BRANCH  38  44
HETATM   44  O1  UNL     1      -5.041  50.874 -21.818  1.00  0.00    -0.354 OA
HETATM   45  C1  UNL     1      -6.047  50.242 -21.032  1.00  0.00     0.210 C 
ENDBRANCH  38  44
ENDBRANCH   1  37
TORSDOF 5
ENDMDL
MODEL 9
REMARK minimizedAffinity -8.67784405
REMARK CNNscore 0.214346528
REMARK CNNaffinity 7.13354254
REMARK  5 active torsions:
REMARK  status: ('A' for Active; 'I' for Inactive)
REMARK    1  A    between atoms: O1_2  and  C2_3 
REMARK    2  A    between atoms: C7_9  and  N1_10 
REMARK    3  A    between atoms: C11_17  and  N3_18 
REMARK    4  A    between atoms: N3_18  and  C12_19 
REMARK    5  A    between atoms: C15_22  and  N4_23 
ROOT
HETATM    1  N1  UNL     1      -0.948  51.619 -22.083  1.00  0.00    -0.107 N 
HETATM    2  C8  UNL     1      -0.118  52.535 -21.430  1.00  0.00     0.282 A 
HETATM    3  O2  UNL     1       0.322  53.579 -21.907  1.00  0.00    -0.266 OA
HETATM    4  C9  UNL     1       0.195  52.266 -20.017  1.00  0.00     0.095 A 
HETATM    5  C10 UNL     1       1.007  53.093 -19.281  1.00  0.00     0.127 A 
HETATM    6  N2  UNL     1       1.278  52.892 -17.972  1.00  0.00    -0.201 N 
ATOM      7  H2  UNL     1       1.885  53.531 -17.458  1.00  0.00     0.183 HD
HETATM    8  C11 UNL     1       0.727  51.828 -17.371  1.00  0.00     0.684 A 
HETATM    9  N6  UNL     1      -0.067  50.958 -18.019  1.00  0.00    -0.174 N 
ATOM     10  H6  UNL     1      -0.460  50.146 -17.544  1.00  0.00     0.186 HD
HETATM   11  C23 UNL     1      -0.325  51.201 -19.327  1.00  0.00     0.162 A 
HETATM   12  N7  UNL     1      -1.183  50.346 -20.042  1.00  0.00    -0.128 N 
HETATM   13  C24 UNL     1      -1.852  49.215 -19.617  1.00  0.00     0.086 A 
HETATM   14  C25 UNL     1      -1.937  48.533 -18.393  1.00  0.00     0.033 A 
HETATM   15  C26 UNL     1      -2.745  47.390 -18.345  1.00  0.00     0.002 A 
HETATM   16  C27 UNL     1      -3.439  46.948 -19.471  1.00  0.00     0.002 A 
HETATM   17  C28 UNL     1      -3.341  47.637 -20.684  1.00  0.00     0.032 A 
HETATM   18  C29 UNL     1      -2.536  48.784 -20.751  1.00  0.00     0.077 A 
HETATM   19  N8  UNL     1      -2.296  49.607 -21.818  1.00  0.00    -0.188 N 
ATOM     20  H8  UNL     1      -2.665  49.510 -22.764  1.00  0.00     0.184 HD
HETATM   21  C30 UNL     1      -1.491  50.551 -21.374  1.00  0.00     0.701 A 
ENDROOT
BRANCH   8  22
HETATM   22  N3  UNL     1       0.926  51.547 -16.024  1.00  0.00    -0.192 N 
HETATM   23  H8  UNL     1       1.913  51.416 -15.856  1.00  0.00     0.184 HD
BRANCH  22  24
HETATM   24  C12 UNL     1       0.073  51.169 -14.981  1.00  0.00     0.049 A 
HETATM   25  C13 UNL     1      -0.419  49.860 -14.959  1.00  0.00     0.032 A 
HETATM   26  C14 UNL     1      -1.282  49.416 -13.944  1.00  0.00     0.031 A 
HETATM   27  C15 UNL     1      -1.686  50.250 -12.895  1.00  0.00     0.030 A 
HETATM   28  C21 UNL     1      -1.165  51.551 -12.913  1.00  0.00     0.031 A 
HETATM   29  C22 UNL     1      -0.302  52.001 -13.929  1.00  0.00     0.032 A 
BRANCH  27  30
HETATM   30  N4  UNL     1      -2.546  49.817 -11.903  1.00  0.00    -0.378 N 
HETATM   31  C16 UNL     1      -2.411  50.271 -10.509  1.00  0.00     0.153 C 
HETATM   32  C17 UNL     1      -3.726  50.069  -9.720  1.00  0.00     0.291 C 
HETATM   33  N5  UNL     1      -4.255  48.689  -9.706  1.00  0.00     0.087 N 
HETATM   34  C18 UNL     1      -3.834  47.964  -8.511  1.00  0.00     0.310 C 
HETATM   35  C19 UNL     1      -3.857  47.950 -10.925  1.00  0.00     0.291 C 
HETATM   36  C20 UNL     1      -3.614  48.837 -12.169  1.00  0.00     0.153 C 
ENDBRANCH  27  30
ENDBRANCH  22  24
ENDBRANCH   8  22
BRANCH   1  37
HETATM   37  C7  UNL     1      -1.274  51.744 -23.468  1.00  0.00     0.095 A 
HETATM   38  C2  UNL     1      -2.567  52.139 -23.880  1.00  0.00     0.096 A 
HETATM   39  C3  UNL     1      -2.874  52.201 -25.246  1.00  0.00     0.041 A 
HETATM   40  C4  UNL     1      -1.911  51.874 -26.203  1.00  0.00     0.026 A 
HETATM   41  C5  UNL     1      -0.633  51.502 -25.800  1.00  0.00     0.036 A 
HETATM   42 CL1  UNL     1       0.554  51.107 -26.983  1.00  0.00    -0.084 Cl
HETATM   43  C6  UNL     1      -0.310  51.439 -24.446  1.00  0.00     0.057 A 
BRANCH  38  44
HETATM   44  O1  UNL     1      -3.431  52.566 -22.899  1.00  0.00    -0.354 OA
HETATM   45  C1  UNL     1      -4.713  51.947 -22.874  1.00  0.00     0.210 C 
ENDBRANCH  38  44
ENDBRANCH   1  37
TORSDOF 5
ENDMDL
