MODEL 1
REMARK minimizedAffinity -8.41119766
REMARK  5 active torsions:
REMARK  status: ('A' for Active; 'I' for Inactive)
REMARK    1  A    between atoms: O1_1  and  C1_2 
REMARK    2  A    between atoms: C5_6  and  N1_7 
REMARK    3  A    between atoms: N1_7  and  C6_8 
REMARK    4  A    between atoms: C7_11  and  C8_12 
REMARK    5  A    between atoms: C9_13  and  C10_14 
ROOT
HETATM    1  C6  UNL     1      11.383  35.423  19.984  1.00  0.00     0.119 A 
HETATM    2  N2  UNL     1      12.487  35.161  19.265  1.00  0.00    -0.328 N 
ATOM      3  H2  UNL     1      13.375  34.947  19.719  1.00  0.00     0.169 HD
HETATM    4  C7  UNL     1      12.378  35.193  17.932  1.00  0.00     0.107 A 
HETATM    5  N3  UNL     1      11.257  35.463  17.251  1.00  0.00    -0.342 N 
ATOM      6  H3  UNL     1      11.243  35.476  16.232  1.00  0.00     0.167 HD
HETATM    7  C17 UNL     1      10.159  35.713  17.967  1.00  0.00     0.047 A 
HETATM    8  C18 UNL     1       8.977  35.994  17.290  1.00  0.00     0.030 A 
HETATM    9  C19 UNL     1       7.782  36.256  17.964  1.00  0.00     0.002 A 
HETATM   10  C20 UNL     1       7.755  36.233  19.352  1.00  0.00     0.001 A 
HETATM   11  C21 UNL     1       8.927  35.954  20.054  1.00  0.00     0.017 A 
HETATM   12  C22 UNL     1      10.145  35.702  19.369  1.00  0.00     0.035 A 
ENDROOT
BRANCH   4  13
HETATM   13  C8  UNL     1      13.565  34.901  17.127  1.00  0.00     0.049 C 
HETATM   14  C9  UNL     1      14.558  35.773  16.895  1.00  0.00     0.016 C 
BRANCH  14  15
HETATM   15  C10 UNL     1      15.730  35.436  16.074  1.00  0.00    -0.016 A 
HETATM   16  C11 UNL     1      15.596  35.443  14.674  1.00  0.00     0.052 A 
HETATM   17  C12 UNL     1      16.693  35.109  13.907  1.00  0.00     0.105 A 
HETATM   18  C13 UNL     1      17.899  34.775  14.474  1.00  0.00     0.106 A 
HETATM   19  O3  UNL     1      16.727  35.065  12.548  1.00  0.00    -0.323 OA
HETATM   20  C14 UNL     1      18.077  34.748  15.840  1.00  0.00     0.059 A 
HETATM   21  O2  UNL     1      18.845  34.482  13.542  1.00  0.00    -0.323 OA
HETATM   22  C15 UNL     1      16.979  35.079  16.646  1.00  0.00     0.024 A 
HETATM   23 BR1  UNL     1      17.247  35.037  18.529  1.00  0.00    -0.050 Br
HETATM   24  C16 UNL     1      18.095  34.666  12.322  1.00  0.00     0.352 A 
ENDBRANCH  14  15
ENDBRANCH   4  13
BRANCH   1  25
HETATM   25  N1  UNL     1      11.463  35.441  21.405  1.00  0.00    -0.342 N 
HETATM   26  H5  UNL     1      12.285  34.916  21.684  1.00  0.00     0.167 HD
BRANCH  25  27
HETATM   27  C5  UNL     1      10.412  35.294  22.342  1.00  0.00     0.036 A 
HETATM   28  C4  UNL     1      10.037  36.319  23.222  1.00  0.00     0.029 A 
HETATM   29  C3  UNL     1       9.038  36.120  24.181  1.00  0.00     0.005 A 
HETATM   30  C2  UNL     1       8.413  34.881  24.287  1.00  0.00     0.036 A 
HETATM   31  C1  UNL     1       8.804  33.847  23.449  1.00  0.00     0.067 A 
HETATM   32  C23 UNL     1       9.802  34.038  22.492  1.00  0.00     0.066 A 
BRANCH  31  33
HETATM   33  O1  UNL     1       8.183  32.640  23.598  1.00  0.00    -0.361 OA
HETATM   34  H1  UNL     1       8.553  32.016  22.955  1.00  0.00     0.217 HD
ENDBRANCH  31  33
ENDBRANCH  25  27
ENDBRANCH   1  25
TORSDOF 5
ENDMDL
MODEL 2
REMARK minimizedAffinity -8.22397518
REMARK  5 active torsions:
REMARK  status: ('A' for Active; 'I' for Inactive)
REMARK    1  A    between atoms: O1_1  and  C1_2 
REMARK    2  A    between atoms: C5_6  and  N1_7 
REMARK    3  A    between atoms: N1_7  and  C6_8 
REMARK    4  A    between atoms: C7_11  and  C8_12 
REMARK    5  A    between atoms: C9_13  and  C10_14 
ROOT
HETATM    1  C6  UNL     1      16.397  36.795  16.042  1.00  0.00     0.119 A 
HETATM    2  N2  UNL     1      15.463  36.312  16.879  1.00  0.00    -0.328 N 
ATOM      3  H2  UNL     1      15.419  35.319  17.107  1.00  0.00     0.169 HD
HETATM    4  C7  UNL     1      14.593  37.185  17.402  1.00  0.00     0.107 A 
HETATM    5  N3  UNL     1      14.575  38.502  17.162  1.00  0.00    -0.342 N 
ATOM      6  H3  UNL     1      13.879  39.112  17.590  1.00  0.00     0.167 HD
HETATM    7  C17 UNL     1      15.510  38.980  16.338  1.00  0.00     0.047 A 
HETATM    8  C18 UNL     1      15.521  40.345  16.072  1.00  0.00     0.030 A 
HETATM    9  C19 UNL     1      16.472  40.926  15.229  1.00  0.00     0.002 A 
HETATM   10  C20 UNL     1      17.446  40.133  14.638  1.00  0.00     0.001 A 
HETATM   11  C21 UNL     1      17.456  38.762  14.890  1.00  0.00     0.017 A 
HETATM   12  C22 UNL     1      16.481  38.168  15.734  1.00  0.00     0.035 A 
ENDROOT
BRANCH   4  13
HETATM   13  C8  UNL     1      13.573  36.685  18.324  1.00  0.00     0.049 C 
HETATM   14  C9  UNL     1      12.664  35.746  18.015  1.00  0.00     0.016 C 
BRANCH  14  15
HETATM   15  C10 UNL     1      11.653  35.278  18.974  1.00  0.00    -0.016 A 
HETATM   16  C11 UNL     1      10.293  35.419  18.641  1.00  0.00     0.052 A 
HETATM   17  C12 UNL     1       9.347  34.996  19.550  1.00  0.00     0.105 A 
HETATM   18  C13 UNL     1       9.699  34.445  20.759  1.00  0.00     0.106 A 
HETATM   19  O3  UNL     1       7.999  35.063  19.382  1.00  0.00    -0.323 OA
HETATM   20  C14 UNL     1      11.017  34.294  21.133  1.00  0.00     0.059 A 
HETATM   21  O2  UNL     1       8.615  34.095  21.502  1.00  0.00    -0.323 OA
HETATM   22  C15 UNL     1      12.001  34.719  20.230  1.00  0.00     0.024 A 
HETATM   23 BR1  UNL     1      13.814  34.499  20.765  1.00  0.00    -0.050 Br
HETATM   24  C16 UNL     1       7.540  34.491  20.625  1.00  0.00     0.352 A 
ENDBRANCH  14  15
ENDBRANCH   4  13
BRANCH   1  25
HETATM   25  N1  UNL     1      17.317  35.897  15.431  1.00  0.00    -0.342 N 
HETATM   26  H5  UNL     1      18.215  36.363  15.355  1.00  0.00     0.167 HD
BRANCH  25  27
HETATM   27  C5  UNL     1      17.094  35.025  14.339  1.00  0.00     0.036 A 
HETATM   28  C4  UNL     1      18.074  34.144  13.864  1.00  0.00     0.029 A 
HETATM   29  C3  UNL     1      17.844  33.341  12.741  1.00  0.00     0.005 A 
HETATM   30  C2  UNL     1      16.632  33.426  12.063  1.00  0.00     0.036 A 
HETATM   31  C1  UNL     1      15.669  34.324  12.500  1.00  0.00     0.067 A 
HETATM   32  C23 UNL     1      15.892  35.129  13.618  1.00  0.00     0.066 A 
BRANCH  31  33
HETATM   33  O1  UNL     1      14.500  34.393  11.796  1.00  0.00    -0.361 OA
HETATM   34  H1  UNL     1      13.926  35.057  12.207  1.00  0.00     0.217 HD
ENDBRANCH  31  33
ENDBRANCH  25  27
ENDBRANCH   1  25
TORSDOF 5
ENDMDL
MODEL 3
REMARK minimizedAffinity -8.13056564
REMARK  5 active torsions:
REMARK  status: ('A' for Active; 'I' for Inactive)
REMARK    1  A    between atoms: O1_1  and  C1_2 
REMARK    2  A    between atoms: C5_6  and  N1_7 
REMARK    3  A    between atoms: N1_7  and  C6_8 
REMARK    4  A    between atoms: C7_11  and  C8_12 
REMARK    5  A    between atoms: C9_13  and  C10_14 
ROOT
HETATM    1  C6  UNL     1       3.866  65.338  -4.367  1.00  0.00     0.119 A 
HETATM    2  N2  UNL     1       4.822  64.406  -4.214  1.00  0.00    -0.328 N 
ATOM      3  H2  UNL     1       4.859  63.816  -3.383  1.00  0.00     0.169 HD
HETATM    4  C7  UNL     1       5.724  64.280  -5.196  1.00  0.00     0.107 A 
HETATM    5  N3  UNL     1       5.753  65.006  -6.320  1.00  0.00    -0.342 N 
ATOM      6  H3  UNL     1       6.474  64.863  -7.027  1.00  0.00     0.167 HD
HETATM    7  C17 UNL     1       4.797  65.925  -6.473  1.00  0.00     0.047 A 
HETATM    8  C18 UNL     1       4.798  66.693  -7.632  1.00  0.00     0.030 A 
HETATM    9  C19 UNL     1       3.827  67.668  -7.874  1.00  0.00     0.002 A 
HETATM   10  C20 UNL     1       2.821  67.884  -6.943  1.00  0.00     0.001 A 
HETATM   11  C21 UNL     1       2.798  67.126  -5.773  1.00  0.00     0.017 A 
HETATM   12  C22 UNL     1       3.793  66.146  -5.520  1.00  0.00     0.035 A 
ENDROOT
BRANCH   4  13
HETATM   13  C8  UNL     1       6.768  63.265  -5.057  1.00  0.00     0.049 C 
HETATM   14  C9  UNL     1       7.087  62.370  -6.005  1.00  0.00     0.016 C 
BRANCH  14  15
HETATM   15  C10 UNL     1       8.143  61.363  -5.819  1.00  0.00    -0.016 A 
HETATM   16  C11 UNL     1       7.782  60.091  -5.338  1.00  0.00     0.052 A 
HETATM   17  C12 UNL     1       8.776  59.154  -5.147  1.00  0.00     0.105 A 
HETATM   18  C13 UNL     1      10.095  59.433  -5.414  1.00  0.00     0.106 A 
HETATM   19  O3  UNL     1       8.594  57.887  -4.688  1.00  0.00    -0.323 OA
HETATM   20  C14 UNL     1      10.498  60.666  -5.880  1.00  0.00     0.059 A 
HETATM   21  O2  UNL     1      10.908  58.373  -5.160  1.00  0.00    -0.323 OA
HETATM   22  C15 UNL     1       9.509  61.640  -6.080  1.00  0.00     0.024 A 
HETATM   23 BR1  UNL     1      10.087  63.334  -6.725  1.00  0.00    -0.050 Br
HETATM   24  C16 UNL     1       9.951  57.396  -4.698  1.00  0.00     0.352 A 
ENDBRANCH  14  15
ENDBRANCH   4  13
BRANCH   1  25
HETATM   25  N1  UNL     1       2.911  65.534  -3.330  1.00  0.00    -0.342 N 
HETATM   26  H5  UNL     1       3.399  65.522  -2.440  1.00  0.00     0.167 HD
BRANCH  25  27
HETATM   27  C5  UNL     1       1.617  64.973  -3.216  1.00  0.00     0.036 A 
HETATM   28  C4  UNL     1       0.457  65.757  -3.152  1.00  0.00     0.029 A 
HETATM   29  C3  UNL     1      -0.803  65.175  -2.974  1.00  0.00     0.005 A 
HETATM   30  C2  UNL     1      -0.917  63.795  -2.836  1.00  0.00     0.036 A 
HETATM   31  C1  UNL     1       0.227  63.012  -2.856  1.00  0.00     0.067 A 
HETATM   32  C23 UNL     1       1.487  63.586  -3.032  1.00  0.00     0.066 A 
BRANCH  31  33
HETATM   33  O1  UNL     1       0.076  61.664  -2.696  1.00  0.00    -0.361 OA
HETATM   34  H1  UNL     1       0.950  61.245  -2.729  1.00  0.00     0.217 HD
ENDBRANCH  31  33
ENDBRANCH  25  27
ENDBRANCH   1  25
TORSDOF 5
ENDMDL
MODEL 4
REMARK minimizedAffinity -8.09541702
REMARK  5 active torsions:
REMARK  status: ('A' for Active; 'I' for Inactive)
REMARK    1  A    between atoms: O1_1  and  C1_2 
REMARK    2  A    between atoms: C5_6  and  N1_7 
REMARK    3  A    between atoms: N1_7  and  C6_8 
REMARK    4  A    between atoms: C7_11  and  C8_12 
REMARK    5  A    between atoms: C9_13  and  C10_14 
ROOT
HETATM    1  C6  UNL     1      17.104  49.121   5.693  1.00  0.00     0.119 A 
HETATM    2  N2  UNL     1      16.785  50.346   5.242  1.00  0.00    -0.328 N 
ATOM      3  H2  UNL     1      15.972  50.495   4.645  1.00  0.00     0.169 HD
HETATM    4  C7  UNL     1      17.576  51.363   5.605  1.00  0.00     0.107 A 
HETATM    5  N3  UNL     1      18.661  51.262   6.384  1.00  0.00    -0.342 N 
ATOM      6  H3  UNL     1      19.225  52.078   6.619  1.00  0.00     0.167 HD
HETATM    7  C17 UNL     1      18.969  50.046   6.839  1.00  0.00     0.047 A 
HETATM    8  C18 UNL     1      20.088  49.908   7.653  1.00  0.00     0.030 A 
HETATM    9  C19 UNL     1      20.473  48.673   8.179  1.00  0.00     0.002 A 
HETATM   10  C20 UNL     1      19.724  47.539   7.895  1.00  0.00     0.001 A 
HETATM   11  C21 UNL     1      18.598  47.651   7.081  1.00  0.00     0.017 A 
HETATM   12  C22 UNL     1      18.214  48.904   6.534  1.00  0.00     0.035 A 
ENDROOT
BRANCH   4  13
HETATM   13  C8  UNL     1      17.244  52.708   5.134  1.00  0.00     0.049 C 
HETATM   14  C9  UNL     1      16.004  53.220   5.114  1.00  0.00     0.016 C 
BRANCH  14  15
HETATM   15  C10 UNL     1      15.717  54.577   4.626  1.00  0.00    -0.016 A 
HETATM   16  C11 UNL     1      14.381  55.016   4.604  1.00  0.00     0.052 A 
HETATM   17  C12 UNL     1      14.112  56.283   4.129  1.00  0.00     0.105 A 
HETATM   18  C13 UNL     1      15.111  57.116   3.684  1.00  0.00     0.106 A 
HETATM   19  O3  UNL     1      12.881  56.853   4.040  1.00  0.00    -0.323 OA
HETATM   20  C14 UNL     1      16.433  56.728   3.679  1.00  0.00     0.059 A 
HETATM   21  O2  UNL     1      14.631  58.316   3.261  1.00  0.00    -0.323 OA
HETATM   22  C15 UNL     1      16.735  55.444   4.153  1.00  0.00     0.024 A 
HETATM   23 BR1  UNL     1      18.567  54.930   4.140  1.00  0.00    -0.050 Br
HETATM   24  C16 UNL     1      13.216  58.143   3.488  1.00  0.00     0.352 A 
ENDBRANCH  14  15
ENDBRANCH   4  13
BRANCH   1  25
HETATM   25  N1  UNL     1      16.314  48.005   5.298  1.00  0.00    -0.342 N 
HETATM   26  H5  UNL     1      16.169  47.413   6.109  1.00  0.00     0.167 HD
BRANCH  25  27
HETATM   27  C5  UNL     1      16.413  47.239   4.111  1.00  0.00     0.036 A 
HETATM   28  C4  UNL     1      17.542  47.275   3.282  1.00  0.00     0.029 A 
HETATM   29  C3  UNL     1      17.583  46.556   2.082  1.00  0.00     0.005 A 
HETATM   30  C2  UNL     1      16.481  45.806   1.683  1.00  0.00     0.036 A 
HETATM   31  C1  UNL     1      15.342  45.796   2.476  1.00  0.00     0.067 A 
HETATM   32  C23 UNL     1      15.294  46.511   3.673  1.00  0.00     0.066 A 
BRANCH  31  33
HETATM   33  O1  UNL     1      14.274  45.065   2.040  1.00  0.00    -0.361 OA
HETATM   34  H1  UNL     1      13.554  45.149   2.685  1.00  0.00     0.217 HD
ENDBRANCH  31  33
ENDBRANCH  25  27
ENDBRANCH   1  25
TORSDOF 5
ENDMDL
MODEL 5
REMARK minimizedAffinity -8.08710194
REMARK  5 active torsions:
REMARK  status: ('A' for Active; 'I' for Inactive)
REMARK    1  A    between atoms: O1_1  and  C1_2 
REMARK    2  A    between atoms: C5_6  and  N1_7 
REMARK    3  A    between atoms: N1_7  and  C6_8 
REMARK    4  A    between atoms: C7_11  and  C8_12 
REMARK    5  A    between atoms: C9_13  and  C10_14 
ROOT
HETATM    1  C6  UNL     1      15.749  35.698  15.369  1.00  0.00     0.119 A 
HETATM    2  N2  UNL     1      14.480  35.553  15.785  1.00  0.00    -0.328 N 
ATOM      3  H2  UNL     1      13.696  35.682  15.146  1.00  0.00     0.169 HD
HETATM    4  C7  UNL     1      14.284  35.235  17.070  1.00  0.00     0.107 A 
HETATM    5  N3  UNL     1      15.249  35.045  17.978  1.00  0.00    -0.342 N 
ATOM      6  H3  UNL     1      15.031  34.809  18.946  1.00  0.00     0.167 HD
HETATM    7  C17 UNL     1      16.509  35.180  17.560  1.00  0.00     0.047 A 
HETATM    8  C18 UNL     1      17.535  34.986  18.479  1.00  0.00     0.030 A 
HETATM    9  C19 UNL     1      18.881  35.098  18.120  1.00  0.00     0.002 A 
HETATM   10  C20 UNL     1      19.221  35.404  16.810  1.00  0.00     0.001 A 
HETATM   11  C21 UNL     1      18.211  35.602  15.870  1.00  0.00     0.017 A 
HETATM   12  C22 UNL     1      16.843  35.504  16.237  1.00  0.00     0.035 A 
ENDROOT
BRANCH   4  13
HETATM   13  C8  UNL     1      12.910  35.062  17.544  1.00  0.00     0.049 C 
HETATM   14  C9  UNL     1      12.360  35.763  18.548  1.00  0.00     0.016 C 
BRANCH  14  15
HETATM   15  C10 UNL     1      10.976  35.551  18.995  1.00  0.00    -0.016 A 
HETATM   16  C11 UNL     1       9.961  36.357  18.448  1.00  0.00     0.052 A 
HETATM   17  C12 UNL     1       8.665  36.168  18.882  1.00  0.00     0.105 A 
HETATM   18  C13 UNL     1       8.348  35.219  19.824  1.00  0.00     0.106 A 
HETATM   19  O3  UNL     1       7.577  36.863  18.457  1.00  0.00    -0.323 OA
HETATM   20  C14 UNL     1       9.308  34.410  20.393  1.00  0.00     0.059 A 
HETATM   21  O2  UNL     1       7.018  35.197  20.107  1.00  0.00    -0.323 OA
HETATM   22  C15 UNL     1      10.635  34.583  19.974  1.00  0.00     0.024 A 
HETATM   23 BR1  UNL     1      11.943  33.455  20.771  1.00  0.00    -0.050 Br
HETATM   24  C16 UNL     1       6.534  36.243  19.238  1.00  0.00     0.352 A 
ENDBRANCH  14  15
ENDBRANCH   4  13
BRANCH   1  25
HETATM   25  N1  UNL     1      16.003  36.077  14.020  1.00  0.00    -0.342 N 
HETATM   26  H5  UNL     1      15.140  36.431  13.621  1.00  0.00     0.167 HD
BRANCH  25  27
HETATM   27  C5  UNL     1      16.779  35.396  13.052  1.00  0.00     0.036 A 
HETATM   28  C4  UNL     1      17.618  36.065  12.151  1.00  0.00     0.029 A 
HETATM   29  C3  UNL     1      18.322  35.368  11.162  1.00  0.00     0.005 A 
HETATM   30  C2  UNL     1      18.178  33.989  11.048  1.00  0.00     0.036 A 
HETATM   31  C1  UNL     1      17.318  33.320  11.908  1.00  0.00     0.067 A 
HETATM   32  C23 UNL     1      16.612  34.009  12.895  1.00  0.00     0.066 A 
BRANCH  31  33
HETATM   33  O1  UNL     1      17.188  31.970  11.752  1.00  0.00    -0.361 OA
HETATM   34  H1  UNL     1      16.560  31.638  12.412  1.00  0.00     0.217 HD
ENDBRANCH  31  33
ENDBRANCH  25  27
ENDBRANCH   1  25
TORSDOF 5
ENDMDL
MODEL 6
REMARK minimizedAffinity -8.03614998
REMARK  5 active torsions:
REMARK  status: ('A' for Active; 'I' for Inactive)
REMARK    1  A    between atoms: O1_1  and  C1_2 
REMARK    2  A    between atoms: C5_6  and  N1_7 
REMARK    3  A    between atoms: N1_7  and  C6_8 
REMARK    4  A    between atoms: C7_11  and  C8_12 
REMARK    5  A    between atoms: C9_13  and  C10_14 
ROOT
HETATM    1  C6  UNL     1      14.732  37.272  16.148  1.00  0.00     0.119 A 
HETATM    2  N2  UNL     1      13.715  37.154  17.019  1.00  0.00    -0.328 N 
ATOM      3  H2  UNL     1      12.928  37.802  17.004  1.00  0.00     0.169 HD
HETATM    4  C7  UNL     1      13.775  36.154  17.906  1.00  0.00     0.107 A 
HETATM    5  N3  UNL     1      14.766  35.257  17.999  1.00  0.00    -0.342 N 
ATOM      6  H3  UNL     1      14.753  34.521  18.704  1.00  0.00     0.167 HD
HETATM    7  C17 UNL     1      15.770  35.371  17.127  1.00  0.00     0.047 A 
HETATM    8  C18 UNL     1      16.812  34.453  17.195  1.00  0.00     0.030 A 
HETATM    9  C19 UNL     1      17.895  34.497  16.314  1.00  0.00     0.002 A 
HETATM   10  C20 UNL     1      17.943  35.475  15.330  1.00  0.00     0.001 A 
HETATM   11  C21 UNL     1      16.910  36.406  15.241  1.00  0.00     0.017 A 
HETATM   12  C22 UNL     1      15.817  36.372  16.146  1.00  0.00     0.035 A 
ENDROOT
BRANCH   4  13
HETATM   13  C8  UNL     1      12.675  35.998  18.858  1.00  0.00     0.049 C 
HETATM   14  C9  UNL     1      11.730  35.049  18.776  1.00  0.00     0.016 C 
BRANCH  14  15
HETATM   15  C10 UNL     1      10.638  34.935  19.755  1.00  0.00    -0.016 A 
HETATM   16  C11 UNL     1      10.915  34.364  21.010  1.00  0.00     0.052 A 
HETATM   17  C12 UNL     1       9.885  34.241  21.919  1.00  0.00     0.105 A 
HETATM   18  C13 UNL     1       8.609  34.662  21.629  1.00  0.00     0.106 A 
HETATM   19  O3  UNL     1       9.987  33.712  23.167  1.00  0.00    -0.323 OA
HETATM   20  C14 UNL     1       8.287  35.220  20.411  1.00  0.00     0.059 A 
HETATM   21  O2  UNL     1       7.749  34.451  22.660  1.00  0.00    -0.323 OA
HETATM   22  C15 UNL     1       9.314  35.353  19.465  1.00  0.00     0.024 A 
HETATM   23 BR1  UNL     1       8.847  36.129  17.791  1.00  0.00    -0.050 Br
HETATM   24  C16 UNL     1       8.628  33.847  23.633  1.00  0.00     0.352 A 
ENDBRANCH  14  15
ENDBRANCH   4  13
BRANCH   1  25
HETATM   25  N1  UNL     1      14.729  38.346  15.214  1.00  0.00    -0.342 N 
HETATM   26  H5  UNL     1      14.778  37.955  14.279  1.00  0.00     0.167 HD
BRANCH  25  27
HETATM   27  C5  UNL     1      15.421  39.578  15.296  1.00  0.00     0.036 A 
HETATM   28  C4  UNL     1      16.352  39.987  14.332  1.00  0.00     0.029 A 
HETATM   29  C3  UNL     1      17.067  41.181  14.475  1.00  0.00     0.005 A 
HETATM   30  C2  UNL     1      16.875  41.975  15.602  1.00  0.00     0.036 A 
HETATM   31  C1  UNL     1      15.986  41.561  16.583  1.00  0.00     0.067 A 
HETATM   32  C23 UNL     1      15.270  40.370  16.447  1.00  0.00     0.066 A 
BRANCH  31  33
HETATM   33  O1  UNL     1      15.840  42.357  17.683  1.00  0.00    -0.361 OA
HETATM   34  H1  UNL     1      15.195  41.948  18.281  1.00  0.00     0.217 HD
ENDBRANCH  31  33
ENDBRANCH  25  27
ENDBRANCH   1  25
TORSDOF 5
ENDMDL
MODEL 7
REMARK minimizedAffinity -7.91802073
REMARK  5 active torsions:
REMARK  status: ('A' for Active; 'I' for Inactive)
REMARK    1  A    between atoms: O1_1  and  C1_2 
REMARK    2  A    between atoms: C5_6  and  N1_7 
REMARK    3  A    between atoms: N1_7  and  C6_8 
REMARK    4  A    between atoms: C7_11  and  C8_12 
REMARK    5  A    between atoms: C9_13  and  C10_14 
ROOT
HETATM    1  C6  UNL     1      13.672  56.835   4.024  1.00  0.00     0.119 A 
HETATM    2  N2  UNL     1      13.521  57.715   5.028  1.00  0.00    -0.328 N 
ATOM      3  H2  UNL     1      13.588  57.423   6.003  1.00  0.00     0.169 HD
HETATM    4  C7  UNL     1      13.278  58.990   4.699  1.00  0.00     0.107 A 
HETATM    5  N3  UNL     1      13.175  59.463   3.451  1.00  0.00    -0.342 N 
ATOM      6  H3  UNL     1      12.983  60.448   3.270  1.00  0.00     0.167 HD
HETATM    7  C17 UNL     1      13.335  58.588   2.456  1.00  0.00     0.047 A 
HETATM    8  C18 UNL     1      13.237  59.050   1.148  1.00  0.00     0.030 A 
HETATM    9  C19 UNL     1      13.401  58.202   0.050  1.00  0.00     0.002 A 
HETATM   10  C20 UNL     1      13.679  56.857   0.254  1.00  0.00     0.001 A 
HETATM   11  C21 UNL     1      13.782  56.371   1.556  1.00  0.00     0.017 A 
HETATM   12  C22 UNL     1      13.600  57.229   2.672  1.00  0.00     0.035 A 
ENDROOT
BRANCH   4  13
HETATM   13  C8  UNL     1      13.120  59.969   5.775  1.00  0.00     0.049 C 
HETATM   14  C9  UNL     1      11.954  60.535   6.121  1.00  0.00     0.016 C 
BRANCH  14  15
HETATM   15  C10 UNL     1      11.844  61.520   7.207  1.00  0.00    -0.016 A 
HETATM   16  C11 UNL     1      12.210  62.853   6.946  1.00  0.00     0.052 A 
HETATM   17  C12 UNL     1      12.123  63.772   7.971  1.00  0.00     0.105 A 
HETATM   18  C13 UNL     1      11.692  63.417   9.227  1.00  0.00     0.106 A 
HETATM   19  O3  UNL     1      12.440  65.091   7.883  1.00  0.00    -0.323 OA
HETATM   20  C14 UNL     1      11.330  62.123   9.533  1.00  0.00     0.059 A 
HETATM   21  O2  UNL     1      11.680  64.471  10.086  1.00  0.00    -0.323 OA
HETATM   22  C15 UNL     1      11.411  61.167   8.511  1.00  0.00     0.024 A 
HETATM   23 BR1  UNL     1      10.905  59.387   8.954  1.00  0.00    -0.050 Br
HETATM   24  C16 UNL     1      12.157  65.530   9.228  1.00  0.00     0.352 A 
ENDBRANCH  14  15
ENDBRANCH   4  13
BRANCH   1  25
HETATM   25  N1  UNL     1      13.890  55.461   4.328  1.00  0.00    -0.342 N 
HETATM   26  H5  UNL     1      13.170  55.160   4.976  1.00  0.00     0.167 HD
BRANCH  25  27
HETATM   27  C5  UNL     1      15.119  54.806   4.579  1.00  0.00     0.036 A 
HETATM   28  C4  UNL     1      16.356  55.356   4.215  1.00  0.00     0.029 A 
HETATM   29  C3  UNL     1      17.549  54.653   4.419  1.00  0.00     0.005 A 
HETATM   30  C2  UNL     1      17.519  53.377   4.972  1.00  0.00     0.036 A 
HETATM   31  C1  UNL     1      16.297  52.805   5.298  1.00  0.00     0.067 A 
HETATM   32  C23 UNL     1      15.103  53.499   5.096  1.00  0.00     0.066 A 
BRANCH  31  33
HETATM   33  O1  UNL     1      16.307  51.543   5.819  1.00  0.00    -0.361 OA
HETATM   34  H1  UNL     1      15.393  51.271   5.997  1.00  0.00     0.217 HD
ENDBRANCH  31  33
ENDBRANCH  25  27
ENDBRANCH   1  25
TORSDOF 5
ENDMDL
MODEL 8
REMARK minimizedAffinity -7.81473351
REMARK  5 active torsions:
REMARK  status: ('A' for Active; 'I' for Inactive)
REMARK    1  A    between atoms: O1_1  and  C1_2 
REMARK    2  A    between atoms: C5_6  and  N1_7 
REMARK    3  A    between atoms: N1_7  and  C6_8 
REMARK    4  A    between atoms: C7_11  and  C8_12 
REMARK    5  A    between atoms: C9_13  and  C10_14 
ROOT
HETATM    1  C6  UNL     1      17.249  37.748  14.846  1.00  0.00     0.119 A 
HETATM    2  N2  UNL     1      16.369  37.531  15.837  1.00  0.00    -0.328 N 
ATOM      3  H2  UNL     1      16.304  38.162  16.636  1.00  0.00     0.169 HD
HETATM    4  C7  UNL     1      15.581  36.454  15.738  1.00  0.00     0.107 A 
HETATM    5  N3  UNL     1      15.594  35.573  14.730  1.00  0.00    -0.342 N 
ATOM      6  H3  UNL     1      14.968  34.768  14.718  1.00  0.00     0.167 HD
HETATM    7  C17 UNL     1      16.463  35.797  13.741  1.00  0.00     0.047 A 
HETATM    8  C18 UNL     1      16.498  34.902  12.677  1.00  0.00     0.030 A 
HETATM    9  C19 UNL     1      17.371  35.069  11.599  1.00  0.00     0.002 A 
HETATM   10  C20 UNL     1      18.228  36.160  11.569  1.00  0.00     0.001 A 
HETATM   11  C21 UNL     1      18.211  37.072  12.624  1.00  0.00     0.017 A 
HETATM   12  C22 UNL     1      17.335  36.894  13.728  1.00  0.00     0.035 A 
ENDROOT
BRANCH   4  13
HETATM   13  C8  UNL     1      14.607  36.201  16.801  1.00  0.00     0.049 C 
HETATM   14  C9  UNL     1      14.098  34.994  17.093  1.00  0.00     0.016 C 
BRANCH  14  15
HETATM   15  C10 UNL     1      13.116  34.789  18.168  1.00  0.00    -0.016 A 
HETATM   16  C11 UNL     1      11.758  35.027  17.893  1.00  0.00     0.052 A 
HETATM   17  C12 UNL     1      10.841  34.851  18.908  1.00  0.00     0.105 A 
HETATM   18  C13 UNL     1      11.221  34.453  20.167  1.00  0.00     0.106 A 
HETATM   19  O3  UNL     1       9.498  35.041  18.806  1.00  0.00    -0.323 OA
HETATM   20  C14 UNL     1      12.541  34.215  20.486  1.00  0.00     0.059 A 
HETATM   21  O2  UNL     1      10.164  34.339  21.014  1.00  0.00    -0.323 OA
HETATM   22  C15 UNL     1      13.495  34.389  19.475  1.00  0.00     0.024 A 
HETATM   23 BR1  UNL     1      15.311  34.053  19.937  1.00  0.00    -0.050 Br
HETATM   24  C16 UNL     1       9.074  34.715  20.146  1.00  0.00     0.352 A 
ENDBRANCH  14  15
ENDBRANCH   4  13
BRANCH   1  25
HETATM   25  N1  UNL     1      18.135  38.859  14.931  1.00  0.00    -0.342 N 
HETATM   26  H5  UNL     1      18.750  38.716  15.725  1.00  0.00     0.167 HD
BRANCH  25  27
HETATM   27  C5  UNL     1      17.838  40.231  14.747  1.00  0.00     0.036 A 
HETATM   28  C4  UNL     1      18.343  40.976  13.673  1.00  0.00     0.029 A 
HETATM   29  C3  UNL     1      18.084  42.346  13.555  1.00  0.00     0.005 A 
HETATM   30  C2  UNL     1      17.330  42.996  14.527  1.00  0.00     0.036 A 
HETATM   31  C1  UNL     1      16.859  42.278  15.617  1.00  0.00     0.067 A 
HETATM   32  C23 UNL     1      17.116  40.912  15.742  1.00  0.00     0.066 A 
BRANCH  31  33
HETATM   33  O1  UNL     1      16.142  42.956  16.561  1.00  0.00    -0.361 OA
HETATM   34  H1  UNL     1      15.880  42.337  17.260  1.00  0.00     0.217 HD
ENDBRANCH  31  33
ENDBRANCH  25  27
ENDBRANCH   1  25
TORSDOF 5
ENDMDL
MODEL 9
REMARK minimizedAffinity -7.81178045
REMARK  5 active torsions:
REMARK  status: ('A' for Active; 'I' for Inactive)
REMARK    1  A    between atoms: O1_1  and  C1_2 
REMARK    2  A    between atoms: C5_6  and  N1_7 
REMARK    3  A    between atoms: N1_7  and  C6_8 
REMARK    4  A    between atoms: C7_11  and  C8_12 
REMARK    5  A    between atoms: C9_13  and  C10_14 
ROOT
HETATM    1  C6  UNL     1      12.233  54.424  -2.134  1.00  0.00     0.119 A 
HETATM    2  N2  UNL     1      11.751  53.170  -2.154  1.00  0.00    -0.328 N 
ATOM      3  H2  UNL     1      10.748  52.988  -2.158  1.00  0.00     0.169 HD
HETATM    4  C7  UNL     1      12.639  52.168  -2.168  1.00  0.00     0.107 A 
HETATM    5  N3  UNL     1      13.970  52.311  -2.166  1.00  0.00    -0.342 N 
ATOM      6  H3  UNL     1      14.593  51.504  -2.172  1.00  0.00     0.167 HD
HETATM    7  C17 UNL     1      14.446  53.559  -2.156  1.00  0.00     0.047 A 
HETATM    8  C18 UNL     1      15.825  53.741  -2.157  1.00  0.00     0.030 A 
HETATM    9  C19 UNL     1      16.403  55.013  -2.157  1.00  0.00     0.002 A 
HETATM   10  C20 UNL     1      15.591  56.139  -2.164  1.00  0.00     0.001 A 
HETATM   11  C21 UNL     1      14.205  55.982  -2.164  1.00  0.00     0.017 A 
HETATM   12  C22 UNL     1      13.617  54.690  -2.148  1.00  0.00     0.035 A 
ENDROOT
BRANCH   4  13
HETATM   13  C8  UNL     1      12.140  50.793  -2.200  1.00  0.00     0.049 C 
HETATM   14  C9  UNL     1      10.869  50.442  -1.949  1.00  0.00     0.016 C 
BRANCH  14  15
HETATM   15  C10 UNL     1      10.414  49.044  -1.987  1.00  0.00    -0.016 A 
HETATM   16  C11 UNL     1      10.786  48.186  -0.937  1.00  0.00     0.052 A 
HETATM   17  C12 UNL     1      10.372  46.871  -0.985  1.00  0.00     0.105 A 
HETATM   18  C13 UNL     1       9.612  46.387  -2.023  1.00  0.00     0.106 A 
HETATM   19  O3  UNL     1      10.648  45.917  -0.055  1.00  0.00    -0.323 OA
HETATM   20  C14 UNL     1       9.229  47.188  -3.077  1.00  0.00     0.059 A 
HETATM   21  O2  UNL     1       9.313  45.070  -1.874  1.00  0.00    -0.323 OA
HETATM   22  C15 UNL     1       9.639  48.529  -3.058  1.00  0.00     0.024 A 
HETATM   23 BR1  UNL     1       9.097  49.616  -4.522  1.00  0.00    -0.050 Br
HETATM   24  C16 UNL     1       9.974  44.776  -0.625  1.00  0.00     0.352 A 
ENDBRANCH  14  15
ENDBRANCH   4  13
BRANCH   1  25
HETATM   25  N1  UNL     1      11.324  55.519  -2.078  1.00  0.00    -0.342 N 
HETATM   26  H5  UNL     1      10.649  55.335  -1.343  1.00  0.00     0.167 HD
BRANCH  25  27
HETATM   27  C5  UNL     1      10.738  56.225  -3.155  1.00  0.00     0.036 A 
HETATM   28  C4  UNL     1      10.164  57.495  -3.002  1.00  0.00     0.029 A 
HETATM   29  C3  UNL     1       9.534  58.139  -4.073  1.00  0.00     0.005 A 
HETATM   30  C2  UNL     1       9.450  57.509  -5.310  1.00  0.00     0.036 A 
HETATM   31  C1  UNL     1       9.978  56.235  -5.463  1.00  0.00     0.067 A 
HETATM   32  C23 UNL     1      10.606  55.586  -4.399  1.00  0.00     0.066 A 
BRANCH  31  33
HETATM   33  O1  UNL     1       9.857  55.641  -6.687  1.00  0.00    -0.361 OA
HETATM   34  H1  UNL     1      10.264  54.762  -6.650  1.00  0.00     0.217 HD
ENDBRANCH  31  33
ENDBRANCH  25  27
ENDBRANCH   1  25
TORSDOF 5
ENDMDL
