MODEL 1
REMARK minimizedAffinity -9.64328861
REMARK  6 active torsions:
REMARK  status: ('A' for Active; 'I' for Inactive)
REMARK    1  A    between atoms: C2_2  and  S1_3 
REMARK    2  A    between atoms: S1_3  and  C3_6 
REMARK    3  A    between atoms: C10_13  and  C11_14 
REMARK    4  A    between atoms: C14_18  and  C15_19 
REMARK    5  A    between atoms: C15_19  and  C16_20 
REMARK    6  A    between atoms: C16_20  and  C17_21 
REMARK       I    between atoms: C17_21  and  N2_22 
ROOT
HETATM    1  C11 UNL     1      -3.281   5.198  12.553  1.00  0.00     0.040 A 
HETATM    2  N1  UNL     1      -4.032   5.919  13.453  1.00  0.00    -0.359 N 
HETATM    3  C12 UNL     1      -5.255   5.332  13.605  1.00  0.00     0.016 A 
HETATM    4  C13 UNL     1      -5.319   4.227  12.787  1.00  0.00    -0.027 A 
HETATM    5  C14 UNL     1      -4.068   4.133  12.110  1.00  0.00    -0.023 A 
HETATM    6  C18 UNL     1      -6.529   3.353  12.733  1.00  0.00     0.041 C 
HETATM    7  C19 UNL     1      -7.759   4.078  13.312  1.00  0.00     0.005 C 
HETATM    8  C20 UNL     1      -7.438   4.785  14.642  1.00  0.00     0.006 C 
HETATM    9  C21 UNL     1      -6.339   5.852  14.482  1.00  0.00     0.057 C 
HETATM   10  H10 UNL     1      -3.720   6.747  13.954  1.00  0.00     0.166 HD
ENDROOT
BRANCH   1  11
HETATM   11  C10 UNL     1      -1.950   5.564  12.209  1.00  0.00     0.048 C 
HETATM   12  C9  UNL     1      -1.037   6.249  12.915  1.00  0.00     0.047 A 
HETATM   13  C7  UNL     1       0.350   6.430  12.448  1.00  0.00     0.008 A 
HETATM   14  C22 UNL     1      -1.114   6.908  14.270  1.00  0.00     0.257 A 
HETATM   15  C6  UNL     1       1.024   7.111  13.464  1.00  0.00     0.046 A 
HETATM   16  C8  UNL     1       1.022   6.040  11.303  1.00  0.00     0.038 A 
HETATM   17  C5  UNL     1       2.365   7.431  13.389  1.00  0.00     0.032 A 
HETATM   18  N3  UNL     1       0.160   7.388  14.517  1.00  0.00    -0.322 N 
HETATM   19  C4  UNL     1       3.058   7.033  12.244  1.00  0.00     0.026 A 
HETATM   20  C3  UNL     1       2.391   6.328  11.222  1.00  0.00     0.060 A 
HETATM   21  H25 UNL     1       0.402   7.872  15.369  1.00  0.00     0.169 HD
HETATM   22  O4  UNL     1      -2.077   7.013  15.007  1.00  0.00    -0.267 OA
BRANCH  20  23
HETATM   23  S1  UNL     1       3.296   5.828   9.772  1.00  0.00     0.175 S 
HETATM   24  O1  UNL     1       4.653   6.319   9.913  1.00  0.00    -0.223 OA
HETATM   25  O2  UNL     1       3.049   4.407   9.595  1.00  0.00    -0.223 OA
BRANCH  23  26
HETATM   26  C2  UNL     1       2.506   6.686   8.429  1.00  0.00     0.141 C 
HETATM   27  C1  UNL     1       2.918   8.138   8.298  1.00  0.00     0.021 C 
ENDBRANCH  23  26
ENDBRANCH  20  23
ENDBRANCH   1  11
BRANCH   5  28
HETATM   28  C15 UNL     1      -3.671   3.069  11.122  1.00  0.00     0.051 C 
BRANCH  28  29
HETATM   29  C16 UNL     1      -2.256   3.255  10.590  1.00  0.00     0.107 C 
BRANCH  29  30
HETATM   30  C17 UNL     1      -1.347   2.123  11.002  1.00  0.00     0.215 C 
HETATM   31  N2  UNL     1      -1.940   0.893  11.030  1.00  0.00    -0.370 N 
HETATM   32  H15 UNL     1      -2.938   0.827  11.187  1.00  0.00     0.159 HD
HETATM   33  H16 UNL     1      -1.377   0.148  11.422  1.00  0.00     0.159 HD
HETATM   34  O3  UNL     1      -0.158   2.257  11.275  1.00  0.00    -0.274 OA
ENDBRANCH  29  30
ENDBRANCH  28  29
ENDBRANCH   5  28
TORSDOF 6
ENDMDL
MODEL 2
REMARK minimizedAffinity -9.35550213
REMARK  6 active torsions:
REMARK  status: ('A' for Active; 'I' for Inactive)
REMARK    1  A    between atoms: C2_2  and  S1_3 
REMARK    2  A    between atoms: S1_3  and  C3_6 
REMARK    3  A    between atoms: C10_13  and  C11_14 
REMARK    4  A    between atoms: C14_18  and  C15_19 
REMARK    5  A    between atoms: C15_19  and  C16_20 
REMARK    6  A    between atoms: C16_20  and  C17_21 
REMARK       I    between atoms: C17_21  and  N2_22 
ROOT
HETATM    1  C11 UNL     1      -3.265   4.276  11.873  1.00  0.00     0.040 A 
HETATM    2  N1  UNL     1      -3.535   2.990  11.463  1.00  0.00    -0.359 N 
HETATM    3  C12 UNL     1      -4.812   2.658  11.807  1.00  0.00     0.016 A 
HETATM    4  C13 UNL     1      -5.384   3.723  12.464  1.00  0.00    -0.027 A 
HETATM    5  C14 UNL     1      -4.407   4.760  12.514  1.00  0.00    -0.023 A 
HETATM    6  C18 UNL     1      -6.793   3.682  12.959  1.00  0.00     0.041 C 
HETATM    7  C19 UNL     1      -7.305   2.232  13.047  1.00  0.00     0.005 C 
HETATM    8  C20 UNL     1      -6.960   1.422  11.782  1.00  0.00     0.006 C 
HETATM    9  C21 UNL     1      -5.442   1.334  11.545  1.00  0.00     0.057 C 
HETATM   10  H10 UNL     1      -2.894   2.385  10.957  1.00  0.00     0.166 HD
ENDROOT
BRANCH   1  11
HETATM   11  C10 UNL     1      -2.010   4.901  11.634  1.00  0.00     0.048 C 
HETATM   12  C9  UNL     1      -1.115   5.396  12.504  1.00  0.00     0.047 A 
HETATM   13  C7  UNL     1       0.205   5.900  12.080  1.00  0.00     0.008 A 
HETATM   14  C22 UNL     1      -1.147   5.514  14.007  1.00  0.00     0.257 A 
HETATM   15  C6  UNL     1       0.888   6.251  13.246  1.00  0.00     0.046 A 
HETATM   16  C8  UNL     1       0.818   6.028  10.845  1.00  0.00     0.038 A 
HETATM   17  C5  UNL     1       2.180   6.738  13.239  1.00  0.00     0.032 A 
HETATM   18  N3  UNL     1       0.089   6.027  14.361  1.00  0.00    -0.322 N 
HETATM   19  C4  UNL     1       2.814   6.862  12.001  1.00  0.00     0.026 A 
HETATM   20  C3  UNL     1       2.139   6.492  10.820  1.00  0.00     0.060 A 
HETATM   21  H25 UNL     1       0.350   6.201  15.320  1.00  0.00     0.169 HD
HETATM   22  O4  UNL     1      -2.052   5.231  14.769  1.00  0.00    -0.267 OA
BRANCH  20  23
HETATM   23  S1  UNL     1       2.969   6.655   9.252  1.00  0.00     0.175 S 
HETATM   24  O1  UNL     1       4.220   7.349   9.491  1.00  0.00    -0.223 OA
HETATM   25  O2  UNL     1       2.971   5.338   8.641  1.00  0.00    -0.223 OA
BRANCH  23  26
HETATM   26  C2  UNL     1       1.903   7.699   8.284  1.00  0.00     0.141 C 
HETATM   27  C1  UNL     1       1.839   7.324   6.818  1.00  0.00     0.021 C 
ENDBRANCH  23  26
ENDBRANCH  20  23
ENDBRANCH   1  11
BRANCH   5  28
HETATM   28  C15 UNL     1      -4.589   6.122  13.125  1.00  0.00     0.051 C 
BRANCH  28  29
HETATM   29  C16 UNL     1      -5.893   6.252  13.903  1.00  0.00     0.107 C 
BRANCH  29  30
HETATM   30  C17 UNL     1      -5.658   6.290  15.393  1.00  0.00     0.215 C 
HETATM   31  N2  UNL     1      -4.378   6.592  15.764  1.00  0.00    -0.370 N 
HETATM   32  H15 UNL     1      -3.615   6.378  15.133  1.00  0.00     0.159 HD
HETATM   33  H16 UNL     1      -4.178   6.500  16.752  1.00  0.00     0.159 HD
HETATM   34  O3  UNL     1      -6.528   6.094  16.235  1.00  0.00    -0.274 OA
ENDBRANCH  29  30
ENDBRANCH  28  29
ENDBRANCH   5  28
TORSDOF 6
ENDMDL
MODEL 3
REMARK minimizedAffinity -9.01614952
REMARK  6 active torsions:
REMARK  status: ('A' for Active; 'I' for Inactive)
REMARK    1  A    between atoms: C2_2  and  S1_3 
REMARK    2  A    between atoms: S1_3  and  C3_6 
REMARK    3  A    between atoms: C10_13  and  C11_14 
REMARK    4  A    between atoms: C14_18  and  C15_19 
REMARK    5  A    between atoms: C15_19  and  C16_20 
REMARK    6  A    between atoms: C16_20  and  C17_21 
REMARK       I    between atoms: C17_21  and  N2_22 
ROOT
HETATM    1  C11 UNL     1      -0.767   5.596  12.246  1.00  0.00     0.040 A 
HETATM    2  N1  UNL     1       0.086   5.646  11.167  1.00  0.00    -0.359 N 
HETATM    3  C12 UNL     1       1.278   6.189  11.550  1.00  0.00     0.016 A 
HETATM    4  C13 UNL     1       1.206   6.516  12.885  1.00  0.00    -0.027 A 
HETATM    5  C14 UNL     1      -0.093   6.145  13.339  1.00  0.00    -0.023 A 
HETATM    6  C18 UNL     1       2.362   7.119  13.614  1.00  0.00     0.041 C 
HETATM    7  C19 UNL     1       3.386   7.713  12.628  1.00  0.00     0.005 C 
HETATM    8  C20 UNL     1       3.689   6.750  11.464  1.00  0.00     0.006 C 
HETATM    9  C21 UNL     1       2.432   6.422  10.639  1.00  0.00     0.057 C 
HETATM   10  H10 UNL     1      -0.124   5.307  10.232  1.00  0.00     0.166 HD
ENDROOT
BRANCH   1  11
HETATM   11  C10 UNL     1      -2.082   5.060  12.151  1.00  0.00     0.048 C 
HETATM   12  C9  UNL     1      -2.485   3.834  11.779  1.00  0.00     0.047 A 
HETATM   13  C7  UNL     1      -3.895   3.408  11.861  1.00  0.00     0.008 A 
HETATM   14  C22 UNL     1      -1.712   2.636  11.288  1.00  0.00     0.257 A 
HETATM   15  C6  UNL     1      -3.925   2.066  11.477  1.00  0.00     0.046 A 
HETATM   16  C8  UNL     1      -5.057   4.050  12.253  1.00  0.00     0.038 A 
HETATM   17  C5  UNL     1      -5.086   1.318  11.461  1.00  0.00     0.032 A 
HETATM   18  N3  UNL     1      -2.649   1.630  11.141  1.00  0.00    -0.322 N 
HETATM   19  C4  UNL     1      -6.264   1.951  11.865  1.00  0.00     0.026 A 
HETATM   20  C3  UNL     1      -6.240   3.299  12.272  1.00  0.00     0.060 A 
HETATM   21  H25 UNL     1      -2.405   0.701  10.831  1.00  0.00     0.169 HD
HETATM   22  O4  UNL     1      -0.520   2.547  11.059  1.00  0.00    -0.267 OA
BRANCH  20  23
HETATM   23  S1  UNL     1      -7.754   4.084  12.786  1.00  0.00     0.175 S 
HETATM   24  O1  UNL     1      -7.980   5.215  11.906  1.00  0.00    -0.223 OA
HETATM   25  O2  UNL     1      -8.752   3.034  12.896  1.00  0.00    -0.223 OA
BRANCH  23  26
HETATM   26  C2  UNL     1      -7.418   4.684  14.427  1.00  0.00     0.141 C 
HETATM   27  C1  UNL     1      -7.243   6.186  14.510  1.00  0.00     0.021 C 
ENDBRANCH  23  26
ENDBRANCH  20  23
ENDBRANCH   1  11
BRANCH   5  28
HETATM   28  C15 UNL     1      -0.622   6.299  14.739  1.00  0.00     0.051 C 
BRANCH  28  29
HETATM   29  C16 UNL     1      -1.486   7.542  14.911  1.00  0.00     0.107 C 
BRANCH  29  30
HETATM   30  C17 UNL     1      -2.938   7.192  15.126  1.00  0.00     0.215 C 
HETATM   31  N2  UNL     1      -3.207   6.566  16.310  1.00  0.00    -0.370 N 
HETATM   32  H15 UNL     1      -2.481   6.024  16.761  1.00  0.00     0.159 HD
HETATM   33  H16 UNL     1      -4.152   6.217  16.413  1.00  0.00     0.159 HD
HETATM   34  O3  UNL     1      -3.837   7.455  14.333  1.00  0.00    -0.274 OA
ENDBRANCH  29  30
ENDBRANCH  28  29
ENDBRANCH   5  28
TORSDOF 6
ENDMDL
MODEL 4
REMARK minimizedAffinity -8.8237009
REMARK  6 active torsions:
REMARK  status: ('A' for Active; 'I' for Inactive)
REMARK    1  A    between atoms: C2_2  and  S1_3 
REMARK    2  A    between atoms: S1_3  and  C3_6 
REMARK    3  A    between atoms: C10_13  and  C11_14 
REMARK    4  A    between atoms: C14_18  and  C15_19 
REMARK    5  A    between atoms: C15_19  and  C16_20 
REMARK    6  A    between atoms: C16_20  and  C17_21 
REMARK       I    between atoms: C17_21  and  N2_22 
ROOT
HETATM    1  C11 UNL     1      -0.740   6.027  12.718  1.00  0.00     0.040 A 
HETATM    2  N1  UNL     1      -0.219   6.240  13.974  1.00  0.00    -0.359 N 
HETATM    3  C12 UNL     1       0.994   6.857  13.869  1.00  0.00     0.016 A 
HETATM    4  C13 UNL     1       1.284   7.037  12.536  1.00  0.00    -0.027 A 
HETATM    5  C14 UNL     1       0.187   6.510  11.793  1.00  0.00    -0.023 A 
HETATM    6  C18 UNL     1       2.542   7.704  12.084  1.00  0.00     0.041 C 
HETATM    7  C19 UNL     1       3.591   7.724  13.211  1.00  0.00     0.005 C 
HETATM    8  C20 UNL     1       2.983   8.165  14.556  1.00  0.00     0.006 C 
HETATM    9  C21 UNL     1       1.861   7.220  15.024  1.00  0.00     0.057 C 
HETATM   10  H10 UNL     1      -0.675   6.001  14.852  1.00  0.00     0.166 HD
ENDROOT
BRANCH   1  11
HETATM   11  C10 UNL     1      -2.008   5.414  12.517  1.00  0.00     0.048 C 
HETATM   12  C9  UNL     1      -2.309   4.200  12.031  1.00  0.00     0.047 A 
HETATM   13  C7  UNL     1      -3.687   3.676  12.010  1.00  0.00     0.008 A 
HETATM   14  C22 UNL     1      -1.433   3.100  11.483  1.00  0.00     0.257 A 
HETATM   15  C6  UNL     1      -3.607   2.371  11.520  1.00  0.00     0.046 A 
HETATM   16  C8  UNL     1      -4.907   4.205  12.395  1.00  0.00     0.038 A 
HETATM   17  C5  UNL     1      -4.711   1.552  11.389  1.00  0.00     0.032 A 
HETATM   18  N3  UNL     1      -2.291   2.049  11.212  1.00  0.00    -0.322 N 
HETATM   19  C4  UNL     1      -5.947   2.069  11.784  1.00  0.00     0.026 A 
HETATM   20  C3  UNL     1      -6.034   3.378  12.298  1.00  0.00     0.060 A 
HETATM   21  H25 UNL     1      -1.969   1.167  10.841  1.00  0.00     0.169 HD
HETATM   22  O4  UNL     1      -0.229   3.110  11.305  1.00  0.00    -0.267 OA
BRANCH  20  23
HETATM   23  S1  UNL     1      -7.620   4.015  12.799  1.00  0.00     0.175 S 
HETATM   24  O1  UNL     1      -7.930   5.141  11.939  1.00  0.00    -0.223 OA
HETATM   25  O2  UNL     1      -8.524   2.880  12.869  1.00  0.00    -0.223 OA
BRANCH  23  26
HETATM   26  C2  UNL     1      -7.366   4.606  14.458  1.00  0.00     0.141 C 
HETATM   27  C1  UNL     1      -7.270   6.114  14.568  1.00  0.00     0.021 C 
ENDBRANCH  23  26
ENDBRANCH  20  23
ENDBRANCH   1  11
BRANCH   5  28
HETATM   28  C15 UNL     1       0.054   6.500  10.294  1.00  0.00     0.051 C 
BRANCH  28  29
HETATM   29  C16 UNL     1       0.980   7.499   9.612  1.00  0.00     0.107 C 
BRANCH  29  30
HETATM   30  C17 UNL     1       1.818   6.847   8.539  1.00  0.00     0.215 C 
HETATM   31  N2  UNL     1       1.860   7.525   7.354  1.00  0.00    -0.370 N 
HETATM   32  H15 UNL     1       1.088   8.129   7.100  1.00  0.00     0.159 HD
HETATM   33  H16 UNL     1       2.315   7.039   6.591  1.00  0.00     0.159 HD
HETATM   34  O3  UNL     1       2.445   5.804   8.692  1.00  0.00    -0.274 OA
ENDBRANCH  29  30
ENDBRANCH  28  29
ENDBRANCH   5  28
TORSDOF 6
ENDMDL
MODEL 5
REMARK minimizedAffinity -8.80791664
REMARK  6 active torsions:
REMARK  status: ('A' for Active; 'I' for Inactive)
REMARK    1  A    between atoms: C2_2  and  S1_3 
REMARK    2  A    between atoms: S1_3  and  C3_6 
REMARK    3  A    between atoms: C10_13  and  C11_14 
REMARK    4  A    between atoms: C14_18  and  C15_19 
REMARK    5  A    between atoms: C15_19  and  C16_20 
REMARK    6  A    between atoms: C16_20  and  C17_21 
REMARK       I    between atoms: C17_21  and  N2_22 
ROOT
HETATM    1  C11 UNL     1      -6.702   4.865  12.914  1.00  0.00     0.040 A 
HETATM    2  N1  UNL     1      -6.814   3.589  12.409  1.00  0.00    -0.359 N 
HETATM    3  C12 UNL     1      -5.571   3.081  12.168  1.00  0.00     0.016 A 
HETATM    4  C13 UNL     1      -4.633   4.032  12.499  1.00  0.00    -0.027 A 
HETATM    5  C14 UNL     1      -5.342   5.174  12.973  1.00  0.00    -0.023 A 
HETATM    6  C18 UNL     1      -3.167   3.776  12.364  1.00  0.00     0.041 C 
HETATM    7  C19 UNL     1      -2.900   2.580  11.431  1.00  0.00     0.005 C 
HETATM    8  C20 UNL     1      -3.815   1.383  11.753  1.00  0.00     0.006 C 
HETATM    9  C21 UNL     1      -5.306   1.733  11.595  1.00  0.00     0.057 C 
HETATM   10  H10 UNL     1      -7.686   3.087  12.262  1.00  0.00     0.166 HD
ENDROOT
BRANCH   1  11
HETATM   11  C10 UNL     1      -7.839   5.640  13.278  1.00  0.00     0.048 C 
HETATM   12  C9  UNL     1      -8.152   6.209  14.452  1.00  0.00     0.047 A 
HETATM   13  C7  UNL     1      -9.322   7.092  14.615  1.00  0.00     0.008 A 
HETATM   14  C22 UNL     1      -7.455   6.183  15.789  1.00  0.00     0.257 A 
HETATM   15  C6  UNL     1      -9.284   7.560  15.930  1.00  0.00     0.046 A 
HETATM   16  C8  UNL     1     -10.318   7.513  13.752  1.00  0.00     0.038 A 
HETATM   17  C5  UNL     1     -10.216   8.444  16.438  1.00  0.00     0.032 A 
HETATM   18  N3  UNL     1      -8.196   7.020  16.605  1.00  0.00    -0.322 N 
HETATM   19  C4  UNL     1     -11.220   8.885  15.574  1.00  0.00     0.026 A 
HETATM   20  C3  UNL     1     -11.255   8.434  14.239  1.00  0.00     0.060 A 
HETATM   21  H25 UNL     1      -7.948   7.200  17.567  1.00  0.00     0.169 HD
HETATM   22  O4  UNL     1      -6.457   5.565  16.111  1.00  0.00    -0.267 OA
BRANCH  20  23
HETATM   23  S1  UNL     1     -12.545   9.013  13.155  1.00  0.00     0.175 S 
HETATM   24  O1  UNL     1     -13.258  10.067  13.849  1.00  0.00    -0.223 OA
HETATM   25  O2  UNL     1     -11.922   9.277  11.869  1.00  0.00    -0.223 OA
BRANCH  23  26
HETATM   26  C2  UNL     1     -13.627   7.615  12.954  1.00  0.00     0.141 C 
HETATM   27  C1  UNL     1     -15.047   7.984  12.577  1.00  0.00     0.021 C 
ENDBRANCH  23  26
ENDBRANCH  20  23
ENDBRANCH   1  11
BRANCH   5  28
HETATM   28  C15 UNL     1      -4.730   6.457  13.464  1.00  0.00     0.051 C 
BRANCH  28  29
HETATM   29  C16 UNL     1      -3.239   6.328  13.754  1.00  0.00     0.107 C 
BRANCH  29  30
HETATM   30  C17 UNL     1      -2.893   6.812  15.141  1.00  0.00     0.215 C 
HETATM   31  N2  UNL     1      -3.632   6.252  16.145  1.00  0.00    -0.370 N 
HETATM   32  H15 UNL     1      -4.563   5.910  15.943  1.00  0.00     0.159 HD
HETATM   33  H16 UNL     1      -3.495   6.657  17.063  1.00  0.00     0.159 HD
HETATM   34  O3  UNL     1      -2.007   7.624  15.387  1.00  0.00    -0.274 OA
ENDBRANCH  29  30
ENDBRANCH  28  29
ENDBRANCH   5  28
TORSDOF 6
ENDMDL
MODEL 6
REMARK minimizedAffinity -8.76481724
REMARK  6 active torsions:
REMARK  status: ('A' for Active; 'I' for Inactive)
REMARK    1  A    between atoms: C2_2  and  S1_3 
REMARK    2  A    between atoms: S1_3  and  C3_6 
REMARK    3  A    between atoms: C10_13  and  C11_14 
REMARK    4  A    between atoms: C14_18  and  C15_19 
REMARK    5  A    between atoms: C15_19  and  C16_20 
REMARK    6  A    between atoms: C16_20  and  C17_21 
REMARK       I    between atoms: C17_21  and  N2_22 
ROOT
HETATM    1  C11 UNL     1      -7.567   6.273  13.812  1.00  0.00     0.040 A 
HETATM    2  N1  UNL     1      -8.779   6.101  13.182  1.00  0.00    -0.359 N 
HETATM    3  C12 UNL     1      -9.701   6.951  13.720  1.00  0.00     0.016 A 
HETATM    4  C13 UNL     1      -9.100   7.676  14.724  1.00  0.00    -0.027 A 
HETATM    5  C14 UNL     1      -7.741   7.252  14.793  1.00  0.00    -0.023 A 
HETATM    6  C18 UNL     1      -9.842   8.712  15.504  1.00  0.00     0.041 C 
HETATM    7  C19 UNL     1     -11.364   8.524  15.360  1.00  0.00     0.005 C 
HETATM    8  C20 UNL     1     -11.779   8.287  13.895  1.00  0.00     0.006 C 
HETATM    9  C21 UNL     1     -11.128   7.025  13.303  1.00  0.00     0.057 C 
HETATM   10  H10 UNL     1      -8.959   5.459  12.414  1.00  0.00     0.166 HD
ENDROOT
BRANCH   1  11
HETATM   11  C10 UNL     1      -6.410   5.531  13.447  1.00  0.00     0.048 C 
HETATM   12  C9  UNL     1      -6.305   4.282  12.967  1.00  0.00     0.047 A 
HETATM   13  C7  UNL     1      -5.020   3.712  12.519  1.00  0.00     0.008 A 
HETATM   14  C22 UNL     1      -7.348   3.224  12.705  1.00  0.00     0.257 A 
HETATM   15  C6  UNL     1      -5.306   2.443  12.012  1.00  0.00     0.046 A 
HETATM   16  C8  UNL     1      -3.726   4.202  12.490  1.00  0.00     0.038 A 
HETATM   17  C5  UNL     1      -4.339   1.618  11.470  1.00  0.00     0.032 A 
HETATM   18  N3  UNL     1      -6.663   2.168  12.131  1.00  0.00    -0.322 N 
HETATM   19  C4  UNL     1      -3.031   2.105  11.424  1.00  0.00     0.026 A 
HETATM   20  C3  UNL     1      -2.737   3.392  11.916  1.00  0.00     0.060 A 
HETATM   21  H25 UNL     1      -7.121   1.317  11.840  1.00  0.00     0.169 HD
HETATM   22  O4  UNL     1      -8.541   3.263  12.941  1.00  0.00    -0.267 OA
BRANCH  20  23
HETATM   23  S1  UNL     1      -1.061   3.993  11.844  1.00  0.00     0.175 S 
HETATM   24  O1  UNL     1      -0.183   2.862  12.074  1.00  0.00    -0.223 OA
HETATM   25  O2  UNL     1      -0.948   4.770  10.622  1.00  0.00    -0.223 OA
BRANCH  23  26
HETATM   26  C2  UNL     1      -0.927   5.119  13.215  1.00  0.00     0.141 C 
HETATM   27  C1  UNL     1      -0.686   6.558  12.809  1.00  0.00     0.021 C 
ENDBRANCH  23  26
ENDBRANCH  20  23
ENDBRANCH   1  11
BRANCH   5  28
HETATM   28  C15 UNL     1      -6.692   7.780  15.734  1.00  0.00     0.051 C 
BRANCH  28  29
HETATM   29  C16 UNL     1      -5.676   8.679  15.041  1.00  0.00     0.107 C 
BRANCH  29  30
HETATM   30  C17 UNL     1      -4.260   8.337  15.438  1.00  0.00     0.215 C 
HETATM   31  N2  UNL     1      -4.048   7.018  15.724  1.00  0.00    -0.370 N 
HETATM   32  H15 UNL     1      -4.820   6.452  16.054  1.00  0.00     0.159 HD
HETATM   33  H16 UNL     1      -3.138   6.798  16.109  1.00  0.00     0.159 HD
HETATM   34  O3  UNL     1      -3.342   9.148  15.486  1.00  0.00    -0.274 OA
ENDBRANCH  29  30
ENDBRANCH  28  29
ENDBRANCH   5  28
TORSDOF 6
ENDMDL
MODEL 7
REMARK minimizedAffinity -8.68672276
REMARK  6 active torsions:
REMARK  status: ('A' for Active; 'I' for Inactive)
REMARK    1  A    between atoms: C2_2  and  S1_3 
REMARK    2  A    between atoms: S1_3  and  C3_6 
REMARK    3  A    between atoms: C10_13  and  C11_14 
REMARK    4  A    between atoms: C14_18  and  C15_19 
REMARK    5  A    between atoms: C15_19  and  C16_20 
REMARK    6  A    between atoms: C16_20  and  C17_21 
REMARK       I    between atoms: C17_21  and  N2_22 
ROOT
HETATM    1  C11 UNL     1      -3.149   5.220  12.288  1.00  0.00     0.040 A 
HETATM    2  N1  UNL     1      -3.604   4.000  11.842  1.00  0.00    -0.359 N 
HETATM    3  C12 UNL     1      -4.871   3.788  12.302  1.00  0.00     0.016 A 
HETATM    4  C13 UNL     1      -5.249   4.866  13.070  1.00  0.00    -0.027 A 
HETATM    5  C14 UNL     1      -4.158   5.784  13.070  1.00  0.00    -0.023 A 
HETATM    6  C18 UNL     1      -6.597   4.948  13.708  1.00  0.00     0.041 C 
HETATM    7  C19 UNL     1      -7.261   3.559  13.774  1.00  0.00     0.005 C 
HETATM    8  C20 UNL     1      -7.139   2.799  12.440  1.00  0.00     0.006 C 
HETATM    9  C21 UNL     1      -5.672   2.560  12.039  1.00  0.00     0.057 C 
HETATM   10  H10 UNL     1      -3.091   3.361  11.240  1.00  0.00     0.166 HD
ENDROOT
BRANCH   1  11
HETATM   11  C10 UNL     1      -1.859   5.718  11.950  1.00  0.00     0.048 C 
HETATM   12  C9  UNL     1      -0.827   6.041  12.744  1.00  0.00     0.047 A 
HETATM   13  C7  UNL     1       0.493   6.425  12.208  1.00  0.00     0.008 A 
HETATM   14  C22 UNL     1      -0.687   6.045  14.246  1.00  0.00     0.257 A 
HETATM   15  C6  UNL     1       1.330   6.607  13.310  1.00  0.00     0.046 A 
HETATM   16  C8  UNL     1       0.984   6.580  10.923  1.00  0.00     0.038 A 
HETATM   17  C5  UNL     1       2.663   6.946  13.190  1.00  0.00     0.032 A 
HETATM   18  N3  UNL     1       0.631   6.387  14.491  1.00  0.00    -0.322 N 
HETATM   19  C4  UNL     1       3.175   7.094  11.899  1.00  0.00     0.026 A 
HETATM   20  C3  UNL     1       2.342   6.894  10.780  1.00  0.00     0.060 A 
HETATM   21  H25 UNL     1       1.010   6.456  15.424  1.00  0.00     0.169 HD
HETATM   22  O4  UNL     1      -1.536   5.805  15.085  1.00  0.00    -0.267 OA
BRANCH  20  23
HETATM   23  S1  UNL     1       3.017   7.086   9.143  1.00  0.00     0.175 S 
HETATM   24  O1  UNL     1       3.810   8.300   9.137  1.00  0.00    -0.223 OA
HETATM   25  O2  UNL     1       3.626   5.815   8.791  1.00  0.00    -0.223 OA
BRANCH  23  26
HETATM   26  C2  UNL     1       1.599   7.315   8.093  1.00  0.00     0.141 C 
HETATM   27  C1  UNL     1       1.891   7.144   6.617  1.00  0.00     0.021 C 
ENDBRANCH  23  26
ENDBRANCH  20  23
ENDBRANCH   1  11
BRANCH   5  28
HETATM   28  C15 UNL     1      -4.120   7.116  13.767  1.00  0.00     0.051 C 
BRANCH  28  29
HETATM   29  C16 UNL     1      -4.022   8.288  12.797  1.00  0.00     0.107 C 
BRANCH  29  30
HETATM   30  C17 UNL     1      -2.732   9.052  12.968  1.00  0.00     0.215 C 
HETATM   31  N2  UNL     1      -2.430   9.388  14.257  1.00  0.00    -0.370 N 
HETATM   32  H15 UNL     1      -3.179   9.498  14.929  1.00  0.00     0.159 HD
HETATM   33  H16 UNL     1      -1.635  10.004  14.371  1.00  0.00     0.159 HD
HETATM   34  O3  UNL     1      -1.977   9.345  12.046  1.00  0.00    -0.274 OA
ENDBRANCH  29  30
ENDBRANCH  28  29
ENDBRANCH   5  28
TORSDOF 6
ENDMDL
MODEL 8
REMARK minimizedAffinity -8.43180275
REMARK  6 active torsions:
REMARK  status: ('A' for Active; 'I' for Inactive)
REMARK    1  A    between atoms: C2_2  and  S1_3 
REMARK    2  A    between atoms: S1_3  and  C3_6 
REMARK    3  A    between atoms: C10_13  and  C11_14 
REMARK    4  A    between atoms: C14_18  and  C15_19 
REMARK    5  A    between atoms: C15_19  and  C16_20 
REMARK    6  A    between atoms: C16_20  and  C17_21 
REMARK       I    between atoms: C17_21  and  N2_22 
ROOT
HETATM    1  C11 UNL     1       1.156   6.997  12.083  1.00  0.00     0.040 A 
HETATM    2  N1  UNL     1       1.974   7.302  13.148  1.00  0.00    -0.359 N 
HETATM    3  C12 UNL     1       3.204   7.674  12.689  1.00  0.00     0.016 A 
HETATM    4  C13 UNL     1       3.204   7.599  11.315  1.00  0.00    -0.027 A 
HETATM    5  C14 UNL     1       1.905   7.167  10.918  1.00  0.00    -0.023 A 
HETATM    6  C18 UNL     1       4.406   7.961  10.504  1.00  0.00     0.041 C 
HETATM    7  C19 UNL     1       5.677   7.966  11.374  1.00  0.00     0.005 C 
HETATM    8  C20 UNL     1       5.458   8.703  12.709  1.00  0.00     0.006 C 
HETATM    9  C21 UNL     1       4.353   8.050  13.558  1.00  0.00     0.057 C 
HETATM   10  H10 UNL     1       1.702   7.280  14.127  1.00  0.00     0.166 HD
ENDROOT
BRANCH   1  11
HETATM   11  C10 UNL     1      -0.196   6.592  12.258  1.00  0.00     0.048 C 
HETATM   12  C9  UNL     1      -0.771   5.399  12.040  1.00  0.00     0.047 A 
HETATM   13  C7  UNL     1      -2.175   5.120  12.400  1.00  0.00     0.008 A 
HETATM   14  C22 UNL     1      -0.214   4.108  11.492  1.00  0.00     0.257 A 
HETATM   15  C6  UNL     1      -2.398   3.773  12.110  1.00  0.00     0.046 A 
HETATM   16  C8  UNL     1      -3.181   5.893  12.953  1.00  0.00     0.038 A 
HETATM   17  C5  UNL     1      -3.605   3.146  12.348  1.00  0.00     0.032 A 
HETATM   18  N3  UNL     1      -1.251   3.196  11.578  1.00  0.00    -0.322 N 
HETATM   19  C4  UNL     1      -4.625   3.910  12.917  1.00  0.00     0.026 A 
HETATM   20  C3  UNL     1      -4.403   5.266  13.231  1.00  0.00     0.060 A 
HETATM   21  H25 UNL     1      -1.154   2.235  11.285  1.00  0.00     0.169 HD
HETATM   22  O4  UNL     1       0.902   3.890  11.059  1.00  0.00    -0.267 OA
BRANCH  20  23
HETATM   23  S1  UNL     1      -5.719   6.221  13.959  1.00  0.00     0.175 S 
HETATM   24  O1  UNL     1      -6.974   5.639  13.522  1.00  0.00    -0.223 OA
HETATM   25  O2  UNL     1      -5.420   6.331  15.376  1.00  0.00    -0.223 OA
BRANCH  23  26
HETATM   26  C2  UNL     1      -5.551   7.840  13.243  1.00  0.00     0.141 C 
HETATM   27  C1  UNL     1      -4.120   8.331  13.158  1.00  0.00     0.021 C 
ENDBRANCH  23  26
ENDBRANCH  20  23
ENDBRANCH   1  11
BRANCH   5  28
HETATM   28  C15 UNL     1       1.434   6.956   9.505  1.00  0.00     0.051 C 
BRANCH  28  29
HETATM   29  C16 UNL     1       2.582   6.823   8.512  1.00  0.00     0.107 C 
BRANCH  29  30
HETATM   30  C17 UNL     1       2.430   7.768   7.346  1.00  0.00     0.215 C 
HETATM   31  N2  UNL     1       1.612   7.320   6.347  1.00  0.00    -0.370 N 
HETATM   32  H15 UNL     1       1.493   6.324   6.214  1.00  0.00     0.159 HD
HETATM   33  H16 UNL     1       1.599   7.887   5.508  1.00  0.00     0.159 HD
HETATM   34  O3  UNL     1       2.964   8.871   7.276  1.00  0.00    -0.274 OA
ENDBRANCH  29  30
ENDBRANCH  28  29
ENDBRANCH   5  28
TORSDOF 6
ENDMDL
MODEL 9
REMARK minimizedAffinity -8.38581467
REMARK  6 active torsions:
REMARK  status: ('A' for Active; 'I' for Inactive)
REMARK    1  A    between atoms: C2_2  and  S1_3 
REMARK    2  A    between atoms: S1_3  and  C3_6 
REMARK    3  A    between atoms: C10_13  and  C11_14 
REMARK    4  A    between atoms: C14_18  and  C15_19 
REMARK    5  A    between atoms: C15_19  and  C16_20 
REMARK    6  A    between atoms: C16_20  and  C17_21 
REMARK       I    between atoms: C17_21  and  N2_22 
ROOT
HETATM    1  C11 UNL     1      -3.209   4.554  13.087  1.00  0.00     0.040 A 
HETATM    2  N1  UNL     1      -3.090   3.304  12.523  1.00  0.00    -0.359 N 
HETATM    3  C12 UNL     1      -4.327   2.825  12.204  1.00  0.00     0.016 A 
HETATM    4  C13 UNL     1      -5.270   3.756  12.576  1.00  0.00    -0.027 A 
HETATM    5  C14 UNL     1      -4.569   4.861  13.142  1.00  0.00    -0.023 A 
HETATM    6  C18 UNL     1      -6.730   3.537  12.345  1.00  0.00     0.041 C 
HETATM    7  C19 UNL     1      -7.031   2.047  12.096  1.00  0.00     0.005 C 
HETATM    8  C20 UNL     1      -6.040   1.419  11.097  1.00  0.00     0.006 C 
HETATM    9  C21 UNL     1      -4.586   1.490  11.599  1.00  0.00     0.057 C 
HETATM   10  H10 UNL     1      -2.215   2.818  12.343  1.00  0.00     0.166 HD
ENDROOT
BRANCH   1  11
HETATM   11  C10 UNL     1      -2.077   5.309  13.505  1.00  0.00     0.048 C 
HETATM   12  C9  UNL     1      -0.883   5.467  12.913  1.00  0.00     0.047 A 
HETATM   13  C7  UNL     1       0.138   6.398  13.430  1.00  0.00     0.008 A 
HETATM   14  C22 UNL     1      -0.307   4.869  11.654  1.00  0.00     0.257 A 
HETATM   15  C6  UNL     1       1.201   6.360  12.526  1.00  0.00     0.046 A 
HETATM   16  C8  UNL     1       0.184   7.238  14.529  1.00  0.00     0.038 A 
HETATM   17  C5  UNL     1       2.335   7.135  12.671  1.00  0.00     0.032 A 
HETATM   18  N3  UNL     1       0.932   5.463  11.499  1.00  0.00    -0.322 N 
HETATM   19  C4  UNL     1       2.390   7.996  13.770  1.00  0.00     0.026 A 
HETATM   20  C3  UNL     1       1.313   8.054  14.677  1.00  0.00     0.060 A 
HETATM   21  H25 UNL     1       1.542   5.253  10.722  1.00  0.00     0.169 HD
HETATM   22  O4  UNL     1      -0.803   4.038  10.916  1.00  0.00    -0.267 OA
BRANCH  20  23
HETATM   23  S1  UNL     1       1.404   9.161  16.069  1.00  0.00     0.175 S 
HETATM   24  O1  UNL     1       0.045   9.497  16.450  1.00  0.00    -0.223 OA
HETATM   25  O2  UNL     1       2.302   8.548  17.033  1.00  0.00    -0.223 OA
BRANCH  23  26
HETATM   26  C2  UNL     1       2.205  10.618  15.436  1.00  0.00     0.141 C 
HETATM   27  C1  UNL     1       2.104  11.823  16.349  1.00  0.00     0.021 C 
ENDBRANCH  23  26
ENDBRANCH  20  23
ENDBRANCH   1  11
BRANCH   5  28
HETATM   28  C15 UNL     1      -5.188   6.125  13.675  1.00  0.00     0.051 C 
BRANCH  28  29
HETATM   29  C16 UNL     1      -5.783   5.950  15.066  1.00  0.00     0.107 C 
BRANCH  29  30
HETATM   30  C17 UNL     1      -7.285   5.806  15.022  1.00  0.00     0.215 C 
HETATM   31  N2  UNL     1      -7.800   4.897  15.901  1.00  0.00    -0.370 N 
HETATM   32  H15 UNL     1      -7.224   4.124  16.210  1.00  0.00     0.159 HD
HETATM   33  H16 UNL     1      -8.788   4.701  15.796  1.00  0.00     0.159 HD
HETATM   34  O3  UNL     1      -8.019   6.455  14.283  1.00  0.00    -0.274 OA
ENDBRANCH  29  30
ENDBRANCH  28  29
ENDBRANCH   5  28
TORSDOF 6
ENDMDL
