MODEL 1
REMARK minimizedAffinity -8.93186283
REMARK CNNscore 0.769776464
REMARK CNNaffinity 7.94793129
REMARK  8 active torsions:
REMARK  status: ('A' for Active; 'I' for Inactive)
REMARK    1  A    between atoms: C2_2  and  C3_3 
REMARK       I    between atoms: C3_3  and  N1_5 
REMARK    2  A    between atoms: N2_8  and  C6_9 
REMARK    3  A    between atoms: C6_9  and  C7_10 
REMARK    4  A    between atoms: C7_10  and  C8_11 
REMARK    5  A    between atoms: C8_11  and  C9_12 
REMARK    6  A    between atoms: C10_13  and  C11_14 
REMARK    7  A    between atoms: C17_22  and  S1_23 
REMARK    8  A    between atoms: S1_23  and  N4_26 
ROOT
HETATM    1  C9  UNL     1      -7.245   6.790  14.806  1.00  0.00    -0.023 A 
HETATM    2  C10 UNL     1      -6.998   6.082  13.627  1.00  0.00     0.040 A 
HETATM    3  N5  UNL     1      -8.193   5.999  12.947  1.00  0.00    -0.359 N 
HETATM    4  C21 UNL     1      -9.182   6.598  13.671  1.00  0.00     0.016 A 
HETATM    5  C22 UNL     1      -8.632   7.114  14.822  1.00  0.00    -0.027 A 
HETATM    6  C23 UNL     1      -9.451   7.823  15.851  1.00  0.00     0.041 C 
HETATM    7  C24 UNL     1     -10.834   8.213  15.294  1.00  0.00     0.005 C 
HETATM    8  C25 UNL     1     -11.473   7.077  14.472  1.00  0.00     0.006 C 
HETATM    9  C26 UNL     1     -10.608   6.683  13.259  1.00  0.00     0.057 C 
HETATM   10  H25 UNL     1      -8.332   5.542  12.051  1.00  0.00     0.166 HD
ENDROOT
BRANCH   2  11
HETATM   11  C11 UNL     1      -5.794   5.504  13.133  1.00  0.00     0.048 C 
HETATM   12  C12 UNL     1      -5.567   4.269  12.655  1.00  0.00     0.047 A 
HETATM   13  C13 UNL     1      -6.494   3.093  12.450  1.00  0.00     0.257 A 
HETATM   14  C20 UNL     1      -4.227   3.807  12.236  1.00  0.00     0.008 A 
HETATM   15  O2  UNL     1      -7.695   3.031  12.637  1.00  0.00    -0.267 OA
HETATM   16  N3  UNL     1      -5.692   2.064  11.985  1.00  0.00    -0.322 N 
HETATM   17  C14 UNL     1      -4.370   2.467  11.855  1.00  0.00     0.046 A 
HETATM   18  H17 UNL     1      -6.059   1.153  11.751  1.00  0.00     0.169 HD
HETATM   19  C15 UNL     1      -3.314   1.697  11.409  1.00  0.00     0.032 A 
HETATM   20  C16 UNL     1      -2.056   2.301  11.353  1.00  0.00     0.027 A 
HETATM   21  C17 UNL     1      -1.896   3.648  11.745  1.00  0.00     0.080 A 
HETATM   22  C19 UNL     1      -2.985   4.420  12.175  1.00  0.00     0.040 A 
BRANCH  21  23
HETATM   23  S1  UNL     1      -0.289   4.397  11.627  1.00  0.00     0.258 S 
HETATM   24  O3  UNL     1       0.626   3.393  11.127  1.00  0.00    -0.201 OA
HETATM   25  O4  UNL     1      -0.427   5.691  10.993  1.00  0.00    -0.201 OA
BRANCH  23  26
HETATM   26  N4  UNL     1       0.109   4.627  13.240  1.00  0.00    -0.320 N 
HETATM   27  C18 UNL     1      -0.462   5.761  13.955  1.00  0.00     0.159 C 
HETATM   28  H20 UNL     1       1.072   4.361  13.446  1.00  0.00     0.171 HD
ENDBRANCH  23  26
ENDBRANCH  21  23
ENDBRANCH   2  11
BRANCH   1  29
HETATM   29  C8  UNL     1      -6.263   7.127  15.890  1.00  0.00     0.043 C 
BRANCH  29  30
HETATM   30  C7  UNL     1      -4.974   7.728  15.316  1.00  0.00     0.035 C 
BRANCH  30  31
HETATM   31  C6  UNL     1      -5.067   9.246  15.108  1.00  0.00     0.273 C 
BRANCH  31  32
HETATM   32  N2  UNL     1      -3.867   9.971  15.538  1.00  0.00     0.091 N 
HETATM   33  C5  UNL     1      -3.065   9.182  16.484  1.00  0.00     0.292 C 
HETATM   34  C4  UNL     1      -1.855   9.974  17.011  1.00  0.00     0.156 C 
HETATM   35  N1  UNL     1      -2.241  11.229  17.662  1.00  0.00    -0.349 N 
HETATM   36  C3  UNL     1      -1.417  11.967  18.497  1.00  0.00     0.219 C 
HETATM   37  C28 UNL     1      -3.621  11.663  17.454  1.00  0.00     0.156 C 
HETATM   38  O1  UNL     1      -1.823  12.951  19.112  1.00  0.00    -0.273 OA
HETATM   39  C27 UNL     1      -4.151  11.334  16.042  1.00  0.00     0.292 C 
BRANCH  36  40
HETATM   40  C2  UNL     1       0.022  11.487  18.619  1.00  0.00     0.098 C 
HETATM   41  C1  UNL     1       0.370  11.064  20.038  1.00  0.00     0.014 C 
ENDBRANCH  36  40
ENDBRANCH  31  32
ENDBRANCH  30  31
ENDBRANCH  29  30
ENDBRANCH   1  29
TORSDOF 8
ENDMDL
MODEL 2
REMARK minimizedAffinity -9.37973595
REMARK CNNscore 0.405014455
REMARK CNNaffinity 7.71766806
REMARK  8 active torsions:
REMARK  status: ('A' for Active; 'I' for Inactive)
REMARK    1  A    between atoms: C2_2  and  C3_3 
REMARK       I    between atoms: C3_3  and  N1_5 
REMARK    2  A    between atoms: N2_8  and  C6_9 
REMARK    3  A    between atoms: C6_9  and  C7_10 
REMARK    4  A    between atoms: C7_10  and  C8_11 
REMARK    5  A    between atoms: C8_11  and  C9_12 
REMARK    6  A    between atoms: C10_13  and  C11_14 
REMARK    7  A    between atoms: C17_22  and  S1_23 
REMARK    8  A    between atoms: S1_23  and  N4_26 
ROOT
HETATM    1  C9  UNL     1      -0.727   7.417  12.416  1.00  0.00    -0.023 A 
HETATM    2  C10 UNL     1      -1.006   6.066  12.197  1.00  0.00     0.040 A 
HETATM    3  N5  UNL     1       0.172   5.467  11.804  1.00  0.00    -0.359 N 
HETATM    4  C21 UNL     1       1.166   6.400  11.738  1.00  0.00     0.016 A 
HETATM    5  C22 UNL     1       0.653   7.616  12.125  1.00  0.00    -0.027 A 
HETATM    6  C23 UNL     1       1.479   8.861  12.148  1.00  0.00     0.041 C 
HETATM    7  C24 UNL     1       2.983   8.536  12.062  1.00  0.00     0.005 C 
HETATM    8  C25 UNL     1       3.285   7.449  11.012  1.00  0.00     0.006 C 
HETATM    9  C26 UNL     1       2.569   6.122  11.330  1.00  0.00     0.057 C 
HETATM   10  H25 UNL     1       0.288   4.486  11.575  1.00  0.00     0.166 HD
ENDROOT
BRANCH   2  11
HETATM   11  C11 UNL     1      -2.229   5.345  12.311  1.00  0.00     0.048 C 
HETATM   12  C12 UNL     1      -2.536   4.103  11.901  1.00  0.00     0.047 A 
HETATM   13  C13 UNL     1      -1.703   3.045  11.215  1.00  0.00     0.257 A 
HETATM   14  C20 UNL     1      -3.889   3.524  12.045  1.00  0.00     0.008 A 
HETATM   15  O2  UNL     1      -0.523   3.079  10.923  1.00  0.00    -0.267 OA
HETATM   16  N3  UNL     1      -2.566   1.987  10.980  1.00  0.00    -0.322 N 
HETATM   17  C14 UNL     1      -3.841   2.253  11.460  1.00  0.00     0.046 A 
HETATM   18  H17 UNL     1      -2.267   1.130  10.539  1.00  0.00     0.169 HD
HETATM   19  C15 UNL     1      -4.936   1.413  11.400  1.00  0.00     0.032 A 
HETATM   20  C16 UNL     1      -6.135   1.879  11.946  1.00  0.00     0.027 A 
HETATM   21  C17 UNL     1      -6.199   3.163  12.529  1.00  0.00     0.080 A 
HETATM   22  C19 UNL     1      -5.070   3.993  12.599  1.00  0.00     0.040 A 
BRANCH  21  23
HETATM   23  S1  UNL     1      -7.729   3.711  13.248  1.00  0.00     0.258 S 
HETATM   24  O3  UNL     1      -8.797   2.948  12.637  1.00  0.00    -0.201 OA
HETATM   25  O4  UNL     1      -7.565   3.785  14.685  1.00  0.00    -0.201 OA
BRANCH  23  26
HETATM   26  N4  UNL     1      -7.864   5.268  12.640  1.00  0.00    -0.320 N 
HETATM   27  C18 UNL     1      -9.168   5.919  12.645  1.00  0.00     0.159 C 
HETATM   28  H20 UNL     1      -7.244   5.432  11.848  1.00  0.00     0.171 HD
ENDBRANCH  23  26
ENDBRANCH  21  23
ENDBRANCH   2  11
BRANCH   1  29
HETATM   29  C8  UNL     1      -1.688   8.489  12.840  1.00  0.00     0.043 C 
BRANCH  29  30
HETATM   30  C7  UNL     1      -1.693   8.671  14.363  1.00  0.00     0.035 C 
BRANCH  30  31
HETATM   31  C6  UNL     1      -2.581   7.645  15.081  1.00  0.00     0.273 C 
BRANCH  31  32
HETATM   32  N2  UNL     1      -4.005   7.774  14.753  1.00  0.00     0.091 N 
HETATM   33  C5  UNL     1      -4.636   8.877  15.491  1.00  0.00     0.292 C 
HETATM   34  C4  UNL     1      -6.150   8.956  15.223  1.00  0.00     0.156 C 
HETATM   35  N1  UNL     1      -6.849   7.712  15.557  1.00  0.00    -0.349 N 
HETATM   36  C3  UNL     1      -8.221   7.602  15.725  1.00  0.00     0.219 C 
HETATM   37  C28 UNL     1      -6.004   6.543  15.795  1.00  0.00     0.156 C 
HETATM   38  O1  UNL     1      -8.749   6.564  16.119  1.00  0.00    -0.273 OA
HETATM   39  C27 UNL     1      -4.758   6.505  14.885  1.00  0.00     0.292 C 
BRANCH  36  40
HETATM   40  C2  UNL     1      -9.040   8.844  15.403  1.00  0.00     0.098 C 
HETATM   41  C1  UNL     1     -10.447   8.501  14.938  1.00  0.00     0.014 C 
ENDBRANCH  36  40
ENDBRANCH  31  32
ENDBRANCH  30  31
ENDBRANCH  29  30
ENDBRANCH   1  29
TORSDOF 8
ENDMDL
MODEL 3
REMARK minimizedAffinity -9.40238857
REMARK CNNscore 0.373161018
REMARK CNNaffinity 7.27420759
REMARK  8 active torsions:
REMARK  status: ('A' for Active; 'I' for Inactive)
REMARK    1  A    between atoms: C2_2  and  C3_3 
REMARK       I    between atoms: C3_3  and  N1_5 
REMARK    2  A    between atoms: N2_8  and  C6_9 
REMARK    3  A    between atoms: C6_9  and  C7_10 
REMARK    4  A    between atoms: C7_10  and  C8_11 
REMARK    5  A    between atoms: C8_11  and  C9_12 
REMARK    6  A    between atoms: C10_13  and  C11_14 
REMARK    7  A    between atoms: C17_22  and  S1_23 
REMARK    8  A    between atoms: S1_23  and  N4_26 
ROOT
HETATM    1  C9  UNL     1      -0.028   6.157  13.038  1.00  0.00    -0.023 A 
HETATM    2  C10 UNL     1      -0.818   5.504  12.090  1.00  0.00     0.040 A 
HETATM    3  N5  UNL     1      -0.107   5.491  10.910  1.00  0.00    -0.359 N 
HETATM    4  C21 UNL     1       1.082   6.139  11.077  1.00  0.00     0.016 A 
HETATM    5  C22 UNL     1       1.175   6.552  12.386  1.00  0.00    -0.027 A 
HETATM    6  C23 UNL     1       2.354   7.313  12.902  1.00  0.00     0.041 C 
HETATM    7  C24 UNL     1       3.543   7.232  11.925  1.00  0.00     0.005 C 
HETATM    8  C25 UNL     1       3.107   7.417  10.459  1.00  0.00     0.006 C 
HETATM    9  C26 UNL     1       2.101   6.339  10.013  1.00  0.00     0.057 C 
HETATM   10  H25 UNL     1      -0.421   5.082  10.035  1.00  0.00     0.166 HD
ENDROOT
BRANCH   2  11
HETATM   11  C11 UNL     1      -2.121   4.939  12.205  1.00  0.00     0.048 C 
HETATM   12  C12 UNL     1      -2.555   3.708  11.886  1.00  0.00     0.047 A 
HETATM   13  C13 UNL     1      -1.825   2.506  11.332  1.00  0.00     0.257 A 
HETATM   14  C20 UNL     1      -3.970   3.301  12.013  1.00  0.00     0.008 A 
HETATM   15  O2  UNL     1      -0.639   2.380  11.095  1.00  0.00    -0.267 OA
HETATM   16  N3  UNL     1      -2.797   1.535  11.146  1.00  0.00    -0.322 N 
HETATM   17  C14 UNL     1      -4.049   1.986  11.539  1.00  0.00     0.046 A 
HETATM   18  H17 UNL     1      -2.582   0.615  10.792  1.00  0.00     0.169 HD
HETATM   19  C15 UNL     1      -5.231   1.273  11.498  1.00  0.00     0.032 A 
HETATM   20  C16 UNL     1      -6.387   1.918  11.944  1.00  0.00     0.027 A 
HETATM   21  C17 UNL     1      -6.323   3.247  12.414  1.00  0.00     0.080 A 
HETATM   22  C19 UNL     1      -5.109   3.948  12.468  1.00  0.00     0.040 A 
BRANCH  21  23
HETATM   23  S1  UNL     1      -7.806   4.026  13.010  1.00  0.00     0.258 S 
HETATM   24  O3  UNL     1      -7.762   5.415  12.607  1.00  0.00    -0.201 OA
HETATM   25  O4  UNL     1      -8.933   3.173  12.700  1.00  0.00    -0.201 OA
BRANCH  23  26
HETATM   26  N4  UNL     1      -7.563   4.016  14.669  1.00  0.00    -0.320 N 
HETATM   27  C18 UNL     1      -7.514   5.284  15.385  1.00  0.00     0.159 C 
HETATM   28  H20 UNL     1      -6.938   3.267  14.968  1.00  0.00     0.171 HD
ENDBRANCH  23  26
ENDBRANCH  21  23
ENDBRANCH   2  11
BRANCH   1  29
HETATM   29  C8  UNL     1      -0.370   6.439  14.473  1.00  0.00     0.043 C 
BRANCH  29  30
HETATM   30  C7  UNL     1      -1.397   7.571  14.595  1.00  0.00     0.035 C 
BRANCH  30  31
HETATM   31  C6  UNL     1      -1.755   7.893  16.052  1.00  0.00     0.273 C 
BRANCH  31  32
HETATM   32  N2  UNL     1      -2.002   9.318  16.293  1.00  0.00     0.091 N 
HETATM   33  C5  UNL     1      -2.463   9.566  17.667  1.00  0.00     0.292 C 
HETATM   34  C4  UNL     1      -2.813  11.048  17.897  1.00  0.00     0.156 C 
HETATM   35  N1  UNL     1      -3.834  11.537  16.967  1.00  0.00    -0.349 N 
HETATM   36  C3  UNL     1      -4.564  12.703  17.144  1.00  0.00     0.219 C 
HETATM   37  C28 UNL     1      -4.131  10.676  15.824  1.00  0.00     0.156 C 
HETATM   38  O1  UNL     1      -5.491  13.013  16.398  1.00  0.00    -0.273 OA
HETATM   39  C27 UNL     1      -2.885   9.943  15.282  1.00  0.00     0.292 C 
BRANCH  36  40
HETATM   40  C2  UNL     1      -4.160  13.578  18.322  1.00  0.00     0.098 C 
HETATM   41  C1  UNL     1      -5.123  13.450  19.492  1.00  0.00     0.014 C 
ENDBRANCH  36  40
ENDBRANCH  31  32
ENDBRANCH  30  31
ENDBRANCH  29  30
ENDBRANCH   1  29
TORSDOF 8
ENDMDL
MODEL 4
REMARK minimizedAffinity -7.92452908
REMARK CNNscore 0.265157819
REMARK CNNaffinity 6.93653631
REMARK  8 active torsions:
REMARK  status: ('A' for Active; 'I' for Inactive)
REMARK    1  A    between atoms: C2_2  and  C3_3 
REMARK       I    between atoms: C3_3  and  N1_5 
REMARK    2  A    between atoms: N2_8  and  C6_9 
REMARK    3  A    between atoms: C6_9  and  C7_10 
REMARK    4  A    between atoms: C7_10  and  C8_11 
REMARK    5  A    between atoms: C8_11  and  C9_12 
REMARK    6  A    between atoms: C10_13  and  C11_14 
REMARK    7  A    between atoms: C17_22  and  S1_23 
REMARK    8  A    between atoms: S1_23  and  N4_26 
ROOT
HETATM    1  C9  UNL     1      -9.824   8.296  15.166  1.00  0.00    -0.023 A 
HETATM    2  C10 UNL     1      -9.187   7.206  14.568  1.00  0.00     0.040 A 
HETATM    3  N5  UNL     1     -10.174   6.355  14.121  1.00  0.00    -0.359 N 
HETATM    4  C21 UNL     1     -11.401   6.856  14.446  1.00  0.00     0.016 A 
HETATM    5  C22 UNL     1     -11.227   8.065  15.080  1.00  0.00    -0.027 A 
HETATM    6  C23 UNL     1     -12.377   8.874  15.586  1.00  0.00     0.041 C 
HETATM    7  C24 UNL     1     -13.711   8.385  14.989  1.00  0.00     0.005 C 
HETATM    8  C25 UNL     1     -13.817   6.849  14.978  1.00  0.00     0.006 C 
HETATM    9  C26 UNL     1     -12.699   6.197  14.141  1.00  0.00     0.057 C 
HETATM   10  H25 UNL     1     -10.022   5.474  13.640  1.00  0.00     0.166 HD
ENDROOT
BRANCH   2  11
HETATM   11  C11 UNL     1      -7.801   6.920  14.410  1.00  0.00     0.048 C 
HETATM   12  C12 UNL     1      -7.200   5.930  13.729  1.00  0.00     0.047 A 
HETATM   13  C13 UNL     1      -7.768   4.813  12.885  1.00  0.00     0.257 A 
HETATM   14  C20 UNL     1      -5.734   5.742  13.719  1.00  0.00     0.008 A 
HETATM   15  O2  UNL     1      -8.929   4.595  12.595  1.00  0.00    -0.267 OA
HETATM   16  N3  UNL     1      -6.677   4.060  12.482  1.00  0.00    -0.322 N 
HETATM   17  C14 UNL     1      -5.487   4.591  12.960  1.00  0.00     0.046 A 
HETATM   18  H17 UNL     1      -6.767   3.248  11.890  1.00  0.00     0.169 HD
HETATM   19  C15 UNL     1      -4.216   4.097  12.738  1.00  0.00     0.032 A 
HETATM   20  C16 UNL     1      -3.148   4.787  13.315  1.00  0.00     0.027 A 
HETATM   21  C17 UNL     1      -3.384   5.943  14.092  1.00  0.00     0.080 A 
HETATM   22  C19 UNL     1      -4.680   6.441  14.288  1.00  0.00     0.040 A 
BRANCH  21  23
HETATM   23  S1  UNL     1      -2.000   6.819  14.780  1.00  0.00     0.258 S 
HETATM   24  O3  UNL     1      -0.941   5.859  15.003  1.00  0.00    -0.201 OA
HETATM   25  O4  UNL     1      -1.789   8.028  14.012  1.00  0.00    -0.201 OA
BRANCH  23  26
HETATM   26  N4  UNL     1      -2.573   7.240  16.299  1.00  0.00    -0.320 N 
HETATM   27  C18 UNL     1      -2.403   8.610  16.765  1.00  0.00     0.159 C 
HETATM   28  H20 UNL     1      -2.475   6.483  16.976  1.00  0.00     0.171 HD
ENDBRANCH  23  26
ENDBRANCH  21  23
ENDBRANCH   2  11
BRANCH   1  29
HETATM   29  C8  UNL     1      -9.180   9.484  15.820  1.00  0.00     0.043 C 
BRANCH  29  30
HETATM   30  C7  UNL     1      -9.649  10.799  15.186  1.00  0.00     0.035 C 
BRANCH  30  31
HETATM   31  C6  UNL     1     -10.130  11.821  16.226  1.00  0.00     0.273 C 
BRANCH  31  32
HETATM   32  N2  UNL     1     -10.757  13.007  15.634  1.00  0.00     0.091 N 
HETATM   33  C5  UNL     1     -11.665  12.651  14.534  1.00  0.00     0.292 C 
HETATM   34  C4  UNL     1     -12.253  13.898  13.848  1.00  0.00     0.156 C 
HETATM   35  N1  UNL     1     -11.220  14.797  13.328  1.00  0.00    -0.349 N 
HETATM   36  C3  UNL     1     -11.447  15.803  12.401  1.00  0.00     0.219 C 
HETATM   37  C28 UNL     1      -9.855  14.540  13.782  1.00  0.00     0.156 C 
HETATM   38  O1  UNL     1     -10.530  16.455  11.907  1.00  0.00    -0.273 OA
HETATM   39  C27 UNL     1      -9.787  14.057  15.247  1.00  0.00     0.292 C 
BRANCH  36  40
HETATM   40  C2  UNL     1     -12.900  16.051  12.020  1.00  0.00     0.098 C 
HETATM   41  C1  UNL     1     -13.224  15.544  10.623  1.00  0.00     0.014 C 
ENDBRANCH  36  40
ENDBRANCH  31  32
ENDBRANCH  30  31
ENDBRANCH  29  30
ENDBRANCH   1  29
TORSDOF 8
ENDMDL
MODEL 5
REMARK minimizedAffinity -8.16275311
REMARK CNNscore 0.247560143
REMARK CNNaffinity 6.40078974
REMARK  8 active torsions:
REMARK  status: ('A' for Active; 'I' for Inactive)
REMARK    1  A    between atoms: C2_2  and  C3_3 
REMARK       I    between atoms: C3_3  and  N1_5 
REMARK    2  A    between atoms: N2_8  and  C6_9 
REMARK    3  A    between atoms: C6_9  and  C7_10 
REMARK    4  A    between atoms: C7_10  and  C8_11 
REMARK    5  A    between atoms: C8_11  and  C9_12 
REMARK    6  A    between atoms: C10_13  and  C11_14 
REMARK    7  A    between atoms: C17_22  and  S1_23 
REMARK    8  A    between atoms: S1_23  and  N4_26 
ROOT
HETATM    1  C9  UNL     1     -10.694   8.778  16.160  1.00  0.00    -0.023 A 
HETATM    2  C10 UNL     1     -11.497   9.512  17.037  1.00  0.00     0.040 A 
HETATM    3  N5  UNL     1     -12.502  10.082  16.286  1.00  0.00    -0.359 N 
HETATM    4  C21 UNL     1     -12.339   9.758  14.970  1.00  0.00     0.016 A 
HETATM    5  C22 UNL     1     -11.239   8.939  14.854  1.00  0.00    -0.027 A 
HETATM    6  C23 UNL     1     -10.770   8.414  13.536  1.00  0.00     0.041 C 
HETATM    7  C24 UNL     1     -11.848   8.589  12.449  1.00  0.00     0.005 C 
HETATM    8  C25 UNL     1     -12.523   9.972  12.513  1.00  0.00     0.006 C 
HETATM    9  C26 UNL     1     -13.223  10.211  13.865  1.00  0.00     0.057 C 
HETATM   10  H25 UNL     1     -13.245  10.673  16.645  1.00  0.00     0.166 HD
ENDROOT
BRANCH   2  11
HETATM   11  C11 UNL     1     -11.383   9.715  18.442  1.00  0.00     0.048 C 
HETATM   12  C12 UNL     1     -10.964  10.794  19.124  1.00  0.00     0.047 A 
HETATM   13  C13 UNL     1     -10.504  12.154  18.653  1.00  0.00     0.257 A 
HETATM   14  C20 UNL     1     -10.849  10.814  20.598  1.00  0.00     0.008 A 
HETATM   15  O2  UNL     1     -10.459  12.590  17.518  1.00  0.00    -0.267 OA
HETATM   16  N3  UNL     1     -10.136  12.840  19.800  1.00  0.00    -0.322 N 
HETATM   17  C14 UNL     1     -10.333  12.071  20.938  1.00  0.00     0.046 A 
HETATM   18  H17 UNL     1      -9.797  13.790  19.778  1.00  0.00     0.169 HD
HETATM   19  C15 UNL     1     -10.080  12.450  22.242  1.00  0.00     0.032 A 
HETATM   20  C16 UNL     1     -10.351  11.518  23.247  1.00  0.00     0.027 A 
HETATM   21  C17 UNL     1     -10.861  10.244  22.916  1.00  0.00     0.080 A 
HETATM   22  C19 UNL     1     -11.131   9.885  21.587  1.00  0.00     0.040 A 
BRANCH  21  23
HETATM   23  S1  UNL     1     -11.230   9.095  24.221  1.00  0.00     0.258 S 
HETATM   24  O3  UNL     1     -10.620   7.829  23.874  1.00  0.00    -0.201 OA
HETATM   25  O4  UNL     1     -10.981   9.743  25.491  1.00  0.00    -0.201 OA
BRANCH  23  26
HETATM   26  N4  UNL     1     -12.883   8.879  24.040  1.00  0.00    -0.320 N 
HETATM   27  C18 UNL     1     -13.794   9.749  24.773  1.00  0.00     0.159 C 
HETATM   28  H20 UNL     1     -13.138   7.898  23.925  1.00  0.00     0.171 HD
ENDBRANCH  23  26
ENDBRANCH  21  23
ENDBRANCH   2  11
BRANCH   1  29
HETATM   29  C8  UNL     1      -9.461   7.990  16.495  1.00  0.00     0.043 C 
BRANCH  29  30
HETATM   30  C7  UNL     1      -8.392   8.128  15.405  1.00  0.00     0.035 C 
BRANCH  30  31
HETATM   31  C6  UNL     1      -6.997   7.702  15.884  1.00  0.00     0.273 C 
BRANCH  31  32
HETATM   32  N2  UNL     1      -6.533   6.444  15.291  1.00  0.00     0.091 N 
HETATM   33  C5  UNL     1      -6.314   6.573  13.843  1.00  0.00     0.292 C 
HETATM   34  C4  UNL     1      -5.918   5.231  13.200  1.00  0.00     0.156 C 
HETATM   35  N1  UNL     1      -6.912   4.180  13.429  1.00  0.00    -0.349 N 
HETATM   36  C3  UNL     1      -6.982   2.994  12.714  1.00  0.00     0.219 C 
HETATM   37  C28 UNL     1      -7.931   4.465  14.438  1.00  0.00     0.156 C 
HETATM   38  O1  UNL     1      -7.904   2.194  12.863  1.00  0.00    -0.273 OA
HETATM   39  C27 UNL     1      -7.386   5.282  15.630  1.00  0.00     0.292 C 
BRANCH  36  40
HETATM   40  C2  UNL     1      -5.856   2.739  11.722  1.00  0.00     0.098 C 
HETATM   41  C1  UNL     1      -5.830   1.298  11.238  1.00  0.00     0.014 C 
ENDBRANCH  36  40
ENDBRANCH  31  32
ENDBRANCH  30  31
ENDBRANCH  29  30
ENDBRANCH   1  29
TORSDOF 8
ENDMDL
MODEL 6
REMARK minimizedAffinity -9.10685158
REMARK CNNscore 0.211545452
REMARK CNNaffinity 7.03808832
REMARK  8 active torsions:
REMARK  status: ('A' for Active; 'I' for Inactive)
REMARK    1  A    between atoms: C2_2  and  C3_3 
REMARK       I    between atoms: C3_3  and  N1_5 
REMARK    2  A    between atoms: N2_8  and  C6_9 
REMARK    3  A    between atoms: C6_9  and  C7_10 
REMARK    4  A    between atoms: C7_10  and  C8_11 
REMARK    5  A    between atoms: C8_11  and  C9_12 
REMARK    6  A    between atoms: C10_13  and  C11_14 
REMARK    7  A    between atoms: C17_22  and  S1_23 
REMARK    8  A    between atoms: S1_23  and  N4_26 
ROOT
HETATM    1  C9  UNL     1      -0.086   6.396  12.962  1.00  0.00    -0.023 A 
HETATM    2  C10 UNL     1      -0.752   5.477  12.147  1.00  0.00     0.040 A 
HETATM    3  N5  UNL     1       0.110   5.141  11.126  1.00  0.00    -0.359 N 
HETATM    4  C21 UNL     1       1.276   5.840  11.254  1.00  0.00     0.016 A 
HETATM    5  C22 UNL     1       1.199   6.615  12.388  1.00  0.00    -0.027 A 
HETATM    6  C23 UNL     1       2.309   7.522  12.812  1.00  0.00     0.041 C 
HETATM    7  C24 UNL     1       3.617   7.192  12.067  1.00  0.00     0.005 C 
HETATM    8  C25 UNL     1       3.384   6.935  10.566  1.00  0.00     0.006 C 
HETATM    9  C26 UNL     1       2.431   5.749  10.322  1.00  0.00     0.057 C 
HETATM   10  H25 UNL     1      -0.090   4.490  10.373  1.00  0.00     0.166 HD
ENDROOT
BRANCH   2  11
HETATM   11  C11 UNL     1      -2.066   4.937  12.247  1.00  0.00     0.048 C 
HETATM   12  C12 UNL     1      -2.523   3.720  11.909  1.00  0.00     0.047 A 
HETATM   13  C13 UNL     1      -1.814   2.510  11.344  1.00  0.00     0.257 A 
HETATM   14  C20 UNL     1      -3.947   3.340  12.023  1.00  0.00     0.008 A 
HETATM   15  O2  UNL     1      -0.629   2.364  11.112  1.00  0.00    -0.267 OA
HETATM   16  N3  UNL     1      -2.804   1.562  11.139  1.00  0.00    -0.322 N 
HETATM   17  C14 UNL     1      -4.049   2.033  11.532  1.00  0.00     0.046 A 
HETATM   18  H17 UNL     1      -2.606   0.642  10.775  1.00  0.00     0.169 HD
HETATM   19  C15 UNL     1      -5.245   1.344  11.474  1.00  0.00     0.032 A 
HETATM   20  C16 UNL     1      -6.391   2.006  11.923  1.00  0.00     0.027 A 
HETATM   21  C17 UNL     1      -6.303   3.328  12.410  1.00  0.00     0.080 A 
HETATM   22  C19 UNL     1      -5.075   4.003  12.480  1.00  0.00     0.040 A 
BRANCH  21  23
HETATM   23  S1  UNL     1      -7.773   4.128  13.008  1.00  0.00     0.258 S 
HETATM   24  O3  UNL     1      -7.687   5.527  12.645  1.00  0.00    -0.201 OA
HETATM   25  O4  UNL     1      -8.917   3.314  12.659  1.00  0.00    -0.201 OA
BRANCH  23  26
HETATM   26  N4  UNL     1      -7.554   4.065  14.670  1.00  0.00    -0.320 N 
HETATM   27  C18 UNL     1      -7.454   5.312  15.418  1.00  0.00     0.159 C 
HETATM   28  H20 UNL     1      -6.970   3.280  14.957  1.00  0.00     0.171 HD
ENDBRANCH  23  26
ENDBRANCH  21  23
ENDBRANCH   2  11
BRANCH   1  29
HETATM   29  C8  UNL     1      -0.613   7.071  14.194  1.00  0.00     0.043 C 
BRANCH  29  30
HETATM   30  C7  UNL     1      -0.855   8.567  13.957  1.00  0.00     0.035 C 
BRANCH  30  31
HETATM   31  C6  UNL     1      -1.782   9.192  15.009  1.00  0.00     0.273 C 
BRANCH  31  32
HETATM   32  N2  UNL     1      -1.087   9.599  16.234  1.00  0.00     0.091 N 
HETATM   33  C5  UNL     1      -0.858  11.050  16.275  1.00  0.00     0.292 C 
HETATM   34  C4  UNL     1      -0.046  11.470  17.513  1.00  0.00     0.156 C 
HETATM   35  N1  UNL     1       1.250  10.792  17.596  1.00  0.00    -0.349 N 
HETATM   36  C3  UNL     1       2.302  11.202  18.400  1.00  0.00     0.219 C 
HETATM   37  C28 UNL     1       1.438   9.652  16.700  1.00  0.00     0.156 C 
HETATM   38  O1  UNL     1       3.409  10.670  18.349  1.00  0.00    -0.273 OA
HETATM   39  C27 UNL     1       0.149   8.827  16.495  1.00  0.00     0.292 C 
BRANCH  36  40
HETATM   40  C2  UNL     1       2.014  12.358  19.348  1.00  0.00     0.098 C 
HETATM   41  C1  UNL     1       1.796  11.889  20.778  1.00  0.00     0.014 C 
ENDBRANCH  36  40
ENDBRANCH  31  32
ENDBRANCH  30  31
ENDBRANCH  29  30
ENDBRANCH   1  29
TORSDOF 8
ENDMDL
MODEL 7
REMARK minimizedAffinity -8.64906216
REMARK CNNscore 0.170143992
REMARK CNNaffinity 7.25571489
REMARK  8 active torsions:
REMARK  status: ('A' for Active; 'I' for Inactive)
REMARK    1  A    between atoms: C2_2  and  C3_3 
REMARK       I    between atoms: C3_3  and  N1_5 
REMARK    2  A    between atoms: N2_8  and  C6_9 
REMARK    3  A    between atoms: C6_9  and  C7_10 
REMARK    4  A    between atoms: C7_10  and  C8_11 
REMARK    5  A    between atoms: C8_11  and  C9_12 
REMARK    6  A    between atoms: C10_13  and  C11_14 
REMARK    7  A    between atoms: C17_22  and  S1_23 
REMARK    8  A    between atoms: S1_23  and  N4_26 
ROOT
HETATM    1  C9  UNL     1      -0.342   6.961  11.940  1.00  0.00    -0.023 A 
HETATM    2  C10 UNL     1      -0.796   5.667  11.676  1.00  0.00     0.040 A 
HETATM    3  N5  UNL     1       0.245   4.985  11.085  1.00  0.00    -0.359 N 
HETATM    4  C21 UNL     1       1.321   5.813  10.941  1.00  0.00     0.016 A 
HETATM    5  C22 UNL     1       1.001   7.041  11.472  1.00  0.00    -0.027 A 
HETATM    6  C23 UNL     1       1.957   8.190  11.459  1.00  0.00     0.041 C 
HETATM    7  C24 UNL     1       3.391   7.721  11.143  1.00  0.00     0.005 C 
HETATM    8  C25 UNL     1       3.429   6.695   9.995  1.00  0.00     0.006 C 
HETATM    9  C26 UNL     1       2.617   5.427  10.324  1.00  0.00     0.057 C 
HETATM   10  H25 UNL     1       0.220   4.017  10.779  1.00  0.00     0.166 HD
ENDROOT
BRANCH   2  11
HETATM   11  C11 UNL     1      -2.066   5.068  11.913  1.00  0.00     0.048 C 
HETATM   12  C12 UNL     1      -2.492   3.821  11.646  1.00  0.00     0.047 A 
HETATM   13  C13 UNL     1      -1.781   2.633  11.042  1.00  0.00     0.257 A 
HETATM   14  C20 UNL     1      -3.878   3.377  11.905  1.00  0.00     0.008 A 
HETATM   15  O2  UNL     1      -0.617   2.537  10.700  1.00  0.00    -0.267 OA
HETATM   16  N3  UNL     1      -2.737   1.634  10.953  1.00  0.00    -0.322 N 
HETATM   17  C14 UNL     1      -3.961   2.055  11.453  1.00  0.00     0.046 A 
HETATM   18  H17 UNL     1      -2.529   0.715  10.591  1.00  0.00     0.169 HD
HETATM   19  C15 UNL     1      -5.121   1.309  11.525  1.00  0.00     0.032 A 
HETATM   20  C16 UNL     1      -6.251   1.927  12.067  1.00  0.00     0.027 A 
HETATM   21  C17 UNL     1      -6.183   3.264  12.516  1.00  0.00     0.080 A 
HETATM   22  C19 UNL     1      -4.989   3.998  12.454  1.00  0.00     0.040 A 
BRANCH  21  23
HETATM   23  S1  UNL     1      -7.628   4.009  13.235  1.00  0.00     0.258 S 
HETATM   24  O3  UNL     1      -8.758   3.162  12.920  1.00  0.00    -0.201 OA
HETATM   25  O4  UNL     1      -7.318   4.401  14.594  1.00  0.00    -0.201 OA
BRANCH  23  26
HETATM   26  N4  UNL     1      -7.809   5.391  12.304  1.00  0.00    -0.320 N 
HETATM   27  C18 UNL     1      -9.099   6.069  12.287  1.00  0.00     0.159 C 
HETATM   28  H20 UNL     1      -7.272   5.352  11.438  1.00  0.00     0.171 HD
ENDBRANCH  23  26
ENDBRANCH  21  23
ENDBRANCH   2  11
BRANCH   1  29
HETATM   29  C8  UNL     1      -1.112   8.089  12.562  1.00  0.00     0.043 C 
BRANCH  29  30
HETATM   30  C7  UNL     1      -1.197   7.941  14.085  1.00  0.00     0.035 C 
BRANCH  30  31
HETATM   31  C6  UNL     1      -0.403   9.021  14.832  1.00  0.00     0.273 C 
BRANCH  31  32
HETATM   32  N2  UNL     1       1.035   8.997  14.541  1.00  0.00     0.091 N 
HETATM   33  C5  UNL     1       1.693   7.828  15.141  1.00  0.00     0.292 C 
HETATM   34  C4  UNL     1       3.216   7.848  14.918  1.00  0.00     0.156 C 
HETATM   35  N1  UNL     1       3.848   9.060  15.445  1.00  0.00    -0.349 N 
HETATM   36  C3  UNL     1       5.208   9.201  15.675  1.00  0.00     0.219 C 
HETATM   37  C28 UNL     1       2.945  10.149  15.812  1.00  0.00     0.156 C 
HETATM   38  O1  UNL     1       5.678  10.194  16.226  1.00  0.00    -0.273 OA
HETATM   39  C27 UNL     1       1.725  10.264  14.873  1.00  0.00     0.292 C 
BRANCH  36  40
HETATM   40  C2  UNL     1       6.091   8.050  15.214  1.00  0.00     0.098 C 
HETATM   41  C1  UNL     1       7.518   8.496  14.933  1.00  0.00     0.014 C 
ENDBRANCH  36  40
ENDBRANCH  31  32
ENDBRANCH  30  31
ENDBRANCH  29  30
ENDBRANCH   1  29
TORSDOF 8
ENDMDL
MODEL 8
REMARK minimizedAffinity -7.85516405
REMARK CNNscore 0.143278956
REMARK CNNaffinity 6.46350861
REMARK  8 active torsions:
REMARK  status: ('A' for Active; 'I' for Inactive)
REMARK    1  A    between atoms: C2_2  and  C3_3 
REMARK       I    between atoms: C3_3  and  N1_5 
REMARK    2  A    between atoms: N2_8  and  C6_9 
REMARK    3  A    between atoms: C6_9  and  C7_10 
REMARK    4  A    between atoms: C7_10  and  C8_11 
REMARK    5  A    between atoms: C8_11  and  C9_12 
REMARK    6  A    between atoms: C10_13  and  C11_14 
REMARK    7  A    between atoms: C17_22  and  S1_23 
REMARK    8  A    between atoms: S1_23  and  N4_26 
ROOT
HETATM    1  C9  UNL     1      -6.669   6.763  14.040  1.00  0.00    -0.023 A 
HETATM    2  C10 UNL     1      -8.000   6.493  14.363  1.00  0.00     0.040 A 
HETATM    3  N5  UNL     1      -8.243   5.181  14.019  1.00  0.00    -0.359 N 
HETATM    4  C21 UNL     1      -7.123   4.632  13.463  1.00  0.00     0.016 A 
HETATM    5  C22 UNL     1      -6.122   5.576  13.473  1.00  0.00    -0.027 A 
HETATM    6  C23 UNL     1      -4.762   5.304  12.917  1.00  0.00     0.041 C 
HETATM    7  C24 UNL     1      -4.537   3.795  12.703  1.00  0.00     0.005 C 
HETATM    8  C25 UNL     1      -5.762   3.106  12.073  1.00  0.00     0.006 C 
HETATM    9  C26 UNL     1      -7.019   3.240  12.954  1.00  0.00     0.057 C 
HETATM   10  H25 UNL     1      -9.125   4.692  14.136  1.00  0.00     0.166 HD
ENDROOT
BRANCH   2  11
HETATM   11  C11 UNL     1      -9.003   7.334  14.926  1.00  0.00     0.048 C 
HETATM   12  C12 UNL     1     -10.164   7.757  14.399  1.00  0.00     0.047 A 
HETATM   13  C13 UNL     1     -10.816   7.474  13.065  1.00  0.00     0.257 A 
HETATM   14  C20 UNL     1     -11.070   8.688  15.105  1.00  0.00     0.008 A 
HETATM   15  O2  UNL     1     -10.435   6.739  12.175  1.00  0.00    -0.267 OA
HETATM   16  N3  UNL     1     -11.976   8.233  13.051  1.00  0.00    -0.322 N 
HETATM   17  C14 UNL     1     -12.135   8.943  14.233  1.00  0.00     0.046 A 
HETATM   18  H17 UNL     1     -12.618   8.225  12.273  1.00  0.00     0.169 HD
HETATM   19  C15 UNL     1     -13.182   9.785  14.553  1.00  0.00     0.032 A 
HETATM   20  C16 UNL     1     -13.149  10.405  15.804  1.00  0.00     0.027 A 
HETATM   21  C17 UNL     1     -12.075  10.166  16.688  1.00  0.00     0.080 A 
HETATM   22  C19 UNL     1     -11.032   9.290  16.353  1.00  0.00     0.040 A 
BRANCH  21  23
HETATM   23  S1  UNL     1     -12.083  10.942  18.287  1.00  0.00     0.258 S 
HETATM   24  O3  UNL     1     -13.464  11.129  18.676  1.00  0.00    -0.201 OA
HETATM   25  O4  UNL     1     -11.133  10.256  19.138  1.00  0.00    -0.201 OA
BRANCH  23  26
HETATM   26  N4  UNL     1     -11.487  12.470  17.937  1.00  0.00    -0.320 N 
HETATM   27  C18 UNL     1     -10.045  12.679  17.914  1.00  0.00     0.159 C 
HETATM   28  H20 UNL     1     -12.078  13.213  18.309  1.00  0.00     0.171 HD
ENDBRANCH  23  26
ENDBRANCH  21  23
ENDBRANCH   2  11
BRANCH   1  29
HETATM   29  C8  UNL     1      -5.934   8.061  14.210  1.00  0.00     0.043 C 
BRANCH  29  30
HETATM   30  C7  UNL     1      -5.063   8.055  15.472  1.00  0.00     0.035 C 
BRANCH  30  31
HETATM   31  C6  UNL     1      -3.562   8.011  15.157  1.00  0.00     0.273 C 
BRANCH  31  32
HETATM   32  N2  UNL     1      -2.714   8.378  16.296  1.00  0.00     0.091 N 
HETATM   33  C5  UNL     1      -3.061   9.704  16.827  1.00  0.00     0.292 C 
HETATM   34  C4  UNL     1      -2.113  10.135  17.962  1.00  0.00     0.156 C 
HETATM   35  N1  UNL     1      -0.708  10.152  17.548  1.00  0.00    -0.349 N 
HETATM   36  C3  UNL     1       0.308  10.795  18.238  1.00  0.00     0.219 C 
HETATM   37  C28 UNL     1      -0.403   9.499  16.276  1.00  0.00     0.156 C 
HETATM   38  O1  UNL     1       1.450  10.880  17.792  1.00  0.00    -0.273 OA
HETATM   39  C27 UNL     1      -1.265   8.243  16.021  1.00  0.00     0.292 C 
BRANCH  36  40
HETATM   40  C2  UNL     1      -0.071  11.402  19.582  1.00  0.00     0.098 C 
HETATM   41  C1  UNL     1       0.023  12.920  19.576  1.00  0.00     0.014 C 
ENDBRANCH  36  40
ENDBRANCH  31  32
ENDBRANCH  30  31
ENDBRANCH  29  30
ENDBRANCH   1  29
TORSDOF 8
ENDMDL
MODEL 9
REMARK minimizedAffinity -7.98854065
REMARK CNNscore 0.125163749
REMARK CNNaffinity 5.58695984
REMARK  8 active torsions:
REMARK  status: ('A' for Active; 'I' for Inactive)
REMARK    1  A    between atoms: C2_2  and  C3_3 
REMARK       I    between atoms: C3_3  and  N1_5 
REMARK    2  A    between atoms: N2_8  and  C6_9 
REMARK    3  A    between atoms: C6_9  and  C7_10 
REMARK    4  A    between atoms: C7_10  and  C8_11 
REMARK    5  A    between atoms: C8_11  and  C9_12 
REMARK    6  A    between atoms: C10_13  and  C11_14 
REMARK    7  A    between atoms: C17_22  and  S1_23 
REMARK    8  A    between atoms: S1_23  and  N4_26 
ROOT
HETATM    1  C9  UNL     1     -11.640   8.149  14.413  1.00  0.00    -0.023 A 
HETATM    2  C10 UNL     1     -12.750   7.678  15.117  1.00  0.00     0.040 A 
HETATM    3  N5  UNL     1     -12.995   8.575  16.134  1.00  0.00    -0.359 N 
HETATM    4  C21 UNL     1     -12.060   9.569  16.112  1.00  0.00     0.016 A 
HETATM    5  C22 UNL     1     -11.213   9.350  15.050  1.00  0.00    -0.027 A 
HETATM    6  C23 UNL     1     -10.059  10.251  14.750  1.00  0.00     0.041 C 
HETATM    7  C24 UNL     1     -10.179  11.586  15.509  1.00  0.00     0.005 C 
HETATM    8  C25 UNL     1     -10.621  11.387  16.972  1.00  0.00     0.006 C 
HETATM    9  C26 UNL     1     -11.997  10.701  17.073  1.00  0.00     0.057 C 
HETATM   10  H25 UNL     1     -13.742   8.504  16.818  1.00  0.00     0.166 HD
ENDROOT
BRANCH   2  11
HETATM   11  C11 UNL     1     -13.540   6.510  14.921  1.00  0.00     0.048 C 
HETATM   12  C12 UNL     1     -14.746   6.374  14.343  1.00  0.00     0.047 A 
HETATM   13  C13 UNL     1     -15.656   7.385  13.686  1.00  0.00     0.257 A 
HETATM   14  C20 UNL     1     -15.460   5.081  14.277  1.00  0.00     0.008 A 
HETATM   15  O2  UNL     1     -15.460   8.570  13.492  1.00  0.00    -0.267 OA
HETATM   16  N3  UNL     1     -16.794   6.682  13.325  1.00  0.00    -0.322 N 
HETATM   17  C14 UNL     1     -16.691   5.340  13.663  1.00  0.00     0.046 A 
HETATM   18  H17 UNL     1     -17.571   7.116  12.850  1.00  0.00     0.169 HD
HETATM   19  C15 UNL     1     -17.638   4.359  13.437  1.00  0.00     0.032 A 
HETATM   20  C16 UNL     1     -17.333   3.062  13.859  1.00  0.00     0.027 A 
HETATM   21  C17 UNL     1     -16.100   2.791  14.489  1.00  0.00     0.080 A 
HETATM   22  C19 UNL     1     -15.143   3.796  14.690  1.00  0.00     0.040 A 
BRANCH  21  23
HETATM   23  S1  UNL     1     -15.728   1.123  14.979  1.00  0.00     0.258 S 
HETATM   24  O3  UNL     1     -14.505   1.158  15.752  1.00  0.00    -0.201 OA
HETATM   25  O4  UNL     1     -16.937   0.509  15.485  1.00  0.00    -0.201 OA
BRANCH  23  26
HETATM   26  N4  UNL     1     -15.332   0.408  13.515  1.00  0.00    -0.320 N 
HETATM   27  C18 UNL     1     -15.735  -0.971  13.269  1.00  0.00     0.159 C 
HETATM   28  H20 UNL     1     -14.427   0.718  13.161  1.00  0.00     0.171 HD
ENDBRANCH  23  26
ENDBRANCH  21  23
ENDBRANCH   2  11
BRANCH   1  29
HETATM   29  C8  UNL     1     -10.974   7.513  13.227  1.00  0.00     0.043 C 
BRANCH  29  30
HETATM   30  C7  UNL     1     -10.116   6.312  13.640  1.00  0.00     0.035 C 
BRANCH  30  31
HETATM   31  C6  UNL     1      -8.746   6.723  14.197  1.00  0.00     0.273 C 
BRANCH  31  32
HETATM   32  N2  UNL     1      -7.618   6.224  13.404  1.00  0.00     0.091 N 
HETATM   33  C5  UNL     1      -7.521   4.759  13.456  1.00  0.00     0.292 C 
HETATM   34  C4  UNL     1      -6.284   4.237  12.703  1.00  0.00     0.156 C 
HETATM   35  N1  UNL     1      -5.033   4.805  13.211  1.00  0.00    -0.349 N 
HETATM   36  C3  UNL     1      -3.773   4.286  12.953  1.00  0.00     0.219 C 
HETATM   37  C28 UNL     1      -5.163   5.952  14.107  1.00  0.00     0.156 C 
HETATM   38  O1  UNL     1      -2.762   4.728  13.495  1.00  0.00    -0.273 OA
HETATM   39  C27 UNL     1      -6.332   6.885  13.725  1.00  0.00     0.292 C 
BRANCH  36  40
HETATM   40  C2  UNL     1      -3.710   3.129  11.966  1.00  0.00     0.098 C 
HETATM   41  C1  UNL     1      -3.053   3.527  10.654  1.00  0.00     0.014 C 
ENDBRANCH  36  40
ENDBRANCH  31  32
ENDBRANCH  30  31
ENDBRANCH  29  30
ENDBRANCH   1  29
TORSDOF 8
ENDMDL
