MODEL 1
REMARK minimizedAffinity -7.98353052
REMARK CNNscore 0.387908727
REMARK CNNaffinity 6.37620878
REMARK  5 active torsions:
REMARK  status: ('A' for Active; 'I' for Inactive)
REMARK    1  A    between atoms: O1_1  and  C1_2 
REMARK    2  A    between atoms: C5_6  and  N1_7 
REMARK    3  A    between atoms: N1_7  and  C6_8 
REMARK    4  A    between atoms: C7_11  and  C8_12 
REMARK    5  A    between atoms: C9_13  and  C10_14 
ROOT
HETATM    1  C6  UNL     1      -0.346  50.821 -13.197  1.00  0.00     0.119 A 
HETATM    2  N2  UNL     1      -0.327  51.275 -14.461  1.00  0.00    -0.328 N 
ATOM      3  H2  UNL     1      -1.164  51.661 -14.897  1.00  0.00     0.169 HD
HETATM    4  C7  UNL     1       0.832  51.199 -15.127  1.00  0.00     0.107 A 
HETATM    5  N3  UNL     1       1.978  50.711 -14.637  1.00  0.00    -0.342 N 
ATOM      6  H3  UNL     1       2.827  50.677 -15.201  1.00  0.00     0.167 HD
HETATM    7  C17 UNL     1       1.959  50.269 -13.377  1.00  0.00     0.047 A 
HETATM    8  C18 UNL     1       3.134  49.759 -12.838  1.00  0.00     0.030 A 
HETATM    9  C19 UNL     1       3.202  49.287 -11.525  1.00  0.00     0.002 A 
HETATM   10  C20 UNL     1       2.072  49.328 -10.719  1.00  0.00     0.001 A 
HETATM   11  C21 UNL     1       0.882  49.836 -11.237  1.00  0.00     0.017 A 
HETATM   12  C22 UNL     1       0.808  50.302 -12.576  1.00  0.00     0.035 A 
ENDROOT
BRANCH   4  13
HETATM   13  C8  UNL     1       0.880  51.696 -16.503  1.00  0.00     0.049 C 
HETATM   14  C9  UNL     1       0.290  51.096 -17.548  1.00  0.00     0.016 C 
BRANCH  14  15
HETATM   15  C10 UNL     1       0.370  51.630 -18.915  1.00  0.00    -0.016 A 
HETATM   16  C11 UNL     1       1.028  52.856 -19.121  1.00  0.00     0.052 A 
HETATM   17  C12 UNL     1       1.086  53.364 -20.402  1.00  0.00     0.105 A 
HETATM   18  C13 UNL     1       0.523  52.705 -21.469  1.00  0.00     0.106 A 
HETATM   19  O3  UNL     1       1.679  54.532 -20.767  1.00  0.00    -0.323 OA
HETATM   20  C14 UNL     1      -0.137  51.506 -21.316  1.00  0.00     0.059 A 
HETATM   21  O2  UNL     1       0.695  53.376 -22.639  1.00  0.00    -0.323 OA
HETATM   22  C15 UNL     1      -0.216  50.967 -20.024  1.00  0.00     0.024 A 
HETATM   23 BR1  UNL     1      -1.130  49.309 -19.836  1.00  0.00    -0.050 Br
HETATM   24  C16 UNL     1       1.428  54.535 -22.187  1.00  0.00     0.352 A 
ENDBRANCH  14  15
ENDBRANCH   4  13
BRANCH   1  25
HETATM   25  N1  UNL     1      -1.567  50.843 -12.466  1.00  0.00    -0.342 N 
HETATM   26  H5  UNL     1      -2.254  50.298 -12.975  1.00  0.00     0.167 HD
BRANCH  25  27
HETATM   27  C5  UNL     1      -2.167  51.939 -11.800  1.00  0.00     0.036 A 
HETATM   28  C4  UNL     1      -3.548  52.179 -11.835  1.00  0.00     0.029 A 
HETATM   29  C3  UNL     1      -4.103  53.308 -11.221  1.00  0.00     0.005 A 
HETATM   30  C2  UNL     1      -3.277  54.226 -10.580  1.00  0.00     0.036 A 
HETATM   31  C1  UNL     1      -1.905  54.021 -10.574  1.00  0.00     0.067 A 
HETATM   32  C23 UNL     1      -1.345  52.898 -11.186  1.00  0.00     0.066 A 
BRANCH  31  33
HETATM   33  O1  UNL     1      -1.127  54.955  -9.953  1.00  0.00    -0.361 OA
HETATM   34  H1  UNL     1      -0.198  54.688 -10.027  1.00  0.00     0.217 HD
ENDBRANCH  31  33
ENDBRANCH  25  27
ENDBRANCH   1  25
TORSDOF 5
ENDMDL
MODEL 2
REMARK minimizedAffinity -10.0218287
REMARK CNNscore 0.316647053
REMARK CNNaffinity 6.92603064
REMARK  5 active torsions:
REMARK  status: ('A' for Active; 'I' for Inactive)
REMARK    1  A    between atoms: O1_1  and  C1_2 
REMARK    2  A    between atoms: C5_6  and  N1_7 
REMARK    3  A    between atoms: N1_7  and  C6_8 
REMARK    4  A    between atoms: C7_11  and  C8_12 
REMARK    5  A    between atoms: C9_13  and  C10_14 
ROOT
HETATM    1  C6  UNL     1      -0.175  52.130 -23.261  1.00  0.00     0.119 A 
HETATM    2  N2  UNL     1      -1.269  51.441 -23.627  1.00  0.00    -0.328 N 
ATOM      3  H2  UNL     1      -1.457  51.226 -24.606  1.00  0.00     0.169 HD
HETATM    4  C7  UNL     1      -2.105  51.050 -22.657  1.00  0.00     0.107 A 
HETATM    5  N3  UNL     1      -1.940  51.285 -21.349  1.00  0.00    -0.342 N 
ATOM      6  H3  UNL     1      -2.619  50.962 -20.660  1.00  0.00     0.167 HD
HETATM    7  C17 UNL     1      -0.847  51.961 -20.988  1.00  0.00     0.047 A 
HETATM    8  C18 UNL     1      -0.646  52.218 -19.636  1.00  0.00     0.030 A 
HETATM    9  C19 UNL     1       0.477  52.909 -19.174  1.00  0.00     0.002 A 
HETATM   10  C20 UNL     1       1.433  53.353 -20.078  1.00  0.00     0.001 A 
HETATM   11  C21 UNL     1       1.254  53.107 -21.438  1.00  0.00     0.017 A 
HETATM   12  C22 UNL     1       0.106  52.417 -21.910  1.00  0.00     0.035 A 
ENDROOT
BRANCH   4  13
HETATM   13  C8  UNL     1      -3.298  50.290 -23.029  1.00  0.00     0.049 C 
HETATM   14  C9  UNL     1      -3.409  49.547 -24.141  1.00  0.00     0.016 C 
BRANCH  14  15
HETATM   15  C10 UNL     1      -4.633  48.804 -24.477  1.00  0.00    -0.016 A 
HETATM   16  C11 UNL     1      -5.507  48.442 -23.436  1.00  0.00     0.052 A 
HETATM   17  C12 UNL     1      -6.645  47.730 -23.752  1.00  0.00     0.105 A 
HETATM   18  C13 UNL     1      -6.940  47.370 -25.046  1.00  0.00     0.106 A 
HETATM   19  O3  UNL     1      -7.586  47.304 -22.867  1.00  0.00    -0.323 OA
HETATM   20  C14 UNL     1      -6.110  47.695 -26.097  1.00  0.00     0.059 A 
HETATM   21  O2  UNL     1      -8.105  46.676 -25.136  1.00  0.00    -0.323 OA
HETATM   22  C15 UNL     1      -4.944  48.416 -25.806  1.00  0.00     0.024 A 
HETATM   23 BR1  UNL     1      -3.814  48.856 -27.272  1.00  0.00    -0.050 Br
HETATM   24  C16 UNL     1      -8.510  46.636 -23.751  1.00  0.00     0.352 A 
ENDBRANCH  14  15
ENDBRANCH   4  13
BRANCH   1  25
HETATM   25  N1  UNL     1       0.719  52.601 -24.263  1.00  0.00    -0.342 N 
HETATM   26  H5  UNL     1       1.086  53.499 -23.966  1.00  0.00     0.167 HD
BRANCH  25  27
HETATM   27  C5  UNL     1       0.565  52.546 -25.669  1.00  0.00     0.036 A 
HETATM   28  C4  UNL     1       1.444  51.835 -26.498  1.00  0.00     0.029 A 
HETATM   29  C3  UNL     1       1.303  51.854 -27.889  1.00  0.00     0.005 A 
HETATM   30  C2  UNL     1       0.288  52.604 -28.475  1.00  0.00     0.036 A 
HETATM   31  C1  UNL     1      -0.564  53.344 -27.667  1.00  0.00     0.067 A 
HETATM   32  C23 UNL     1      -0.427  53.332 -26.278  1.00  0.00     0.066 A 
BRANCH  31  33
HETATM   33  O1  UNL     1      -1.535  54.084 -28.280  1.00  0.00    -0.361 OA
HETATM   34  H1  UNL     1      -2.050  54.548 -27.601  1.00  0.00     0.217 HD
ENDBRANCH  31  33
ENDBRANCH  25  27
ENDBRANCH   1  25
TORSDOF 5
ENDMDL
MODEL 3
REMARK minimizedAffinity -8.54977036
REMARK CNNscore 0.264663279
REMARK CNNaffinity 6.48299265
REMARK  5 active torsions:
REMARK  status: ('A' for Active; 'I' for Inactive)
REMARK    1  A    between atoms: O1_1  and  C1_2 
REMARK    2  A    between atoms: C5_6  and  N1_7 
REMARK    3  A    between atoms: N1_7  and  C6_8 
REMARK    4  A    between atoms: C7_11  and  C8_12 
REMARK    5  A    between atoms: C9_13  and  C10_14 
ROOT
HETATM    1  C6  UNL     1      -0.148  51.274 -21.068  1.00  0.00     0.119 A 
HETATM    2  N2  UNL     1      -0.052  51.279 -19.727  1.00  0.00    -0.328 N 
ATOM      3  H2  UNL     1      -0.389  50.494 -19.170  1.00  0.00     0.169 HD
HETATM    4  C7  UNL     1       0.502  52.353 -19.152  1.00  0.00     0.107 A 
HETATM    5  N3  UNL     1       0.972  53.425 -19.802  1.00  0.00    -0.342 N 
ATOM      6  H3  UNL     1       1.379  54.215 -19.301  1.00  0.00     0.167 HD
HETATM    7  C17 UNL     1       0.884  53.414 -21.133  1.00  0.00     0.047 A 
HETATM    8  C18 UNL     1       1.367  54.512 -21.837  1.00  0.00     0.030 A 
HETATM    9  C19 UNL     1       1.322  54.574 -23.232  1.00  0.00     0.002 A 
HETATM   10  C20 UNL     1       0.789  53.513 -23.953  1.00  0.00     0.001 A 
HETATM   11  C21 UNL     1       0.299  52.401 -23.269  1.00  0.00     0.017 A 
HETATM   12  C22 UNL     1       0.331  52.343 -21.851  1.00  0.00     0.035 A 
ENDROOT
BRANCH   4  13
HETATM   13  C8  UNL     1       0.628  52.377 -17.694  1.00  0.00     0.049 C 
HETATM   14  C9  UNL     1       1.188  51.400 -16.964  1.00  0.00     0.016 C 
BRANCH  14  15
HETATM   15  C10 UNL     1       1.287  51.466 -15.499  1.00  0.00    -0.016 A 
HETATM   16  C11 UNL     1       0.136  51.203 -14.734  1.00  0.00     0.052 A 
HETATM   17  C12 UNL     1       0.226  51.283 -13.360  1.00  0.00     0.105 A 
HETATM   18  C13 UNL     1       1.404  51.609 -12.730  1.00  0.00     0.106 A 
HETATM   19  O3  UNL     1      -0.789  51.062 -12.484  1.00  0.00    -0.323 OA
HETATM   20  C14 UNL     1       2.555  51.881 -13.436  1.00  0.00     0.059 A 
HETATM   21  O2  UNL     1       1.276  51.630 -11.376  1.00  0.00    -0.323 OA
HETATM   22  C15 UNL     1       2.492  51.812 -14.835  1.00  0.00     0.024 A 
HETATM   23 BR1  UNL     1       4.094  52.190 -15.790  1.00  0.00    -0.050 Br
HETATM   24  C16 UNL     1      -0.118  51.284 -11.226  1.00  0.00     0.352 A 
ENDBRANCH  14  15
ENDBRANCH   4  13
BRANCH   1  25
HETATM   25  N1  UNL     1      -0.768  50.170 -21.718  1.00  0.00    -0.342 N 
HETATM   26  H5  UNL     1      -0.263  49.982 -22.578  1.00  0.00     0.167 HD
BRANCH  25  27
HETATM   27  C5  UNL     1      -2.151  49.904 -21.862  1.00  0.00     0.036 A 
HETATM   28  C4  UNL     1      -2.637  48.783 -22.549  1.00  0.00     0.029 A 
HETATM   29  C3  UNL     1      -4.010  48.583 -22.730  1.00  0.00     0.005 A 
HETATM   30  C2  UNL     1      -4.918  49.518 -22.243  1.00  0.00     0.036 A 
HETATM   31  C1  UNL     1      -4.448  50.652 -21.597  1.00  0.00     0.067 A 
HETATM   32  C23 UNL     1      -3.080  50.859 -21.414  1.00  0.00     0.066 A 
BRANCH  31  33
HETATM   33  O1  UNL     1      -5.370  51.556 -21.151  1.00  0.00    -0.361 OA
HETATM   34  H1  UNL     1      -4.905  52.293 -20.725  1.00  0.00     0.217 HD
ENDBRANCH  31  33
ENDBRANCH  25  27
ENDBRANCH   1  25
TORSDOF 5
ENDMDL
MODEL 4
REMARK minimizedAffinity -9.8681345
REMARK CNNscore 0.229621217
REMARK CNNaffinity 6.73644209
REMARK  5 active torsions:
REMARK  status: ('A' for Active; 'I' for Inactive)
REMARK    1  A    between atoms: O1_1  and  C1_2 
REMARK    2  A    between atoms: C5_6  and  N1_7 
REMARK    3  A    between atoms: N1_7  and  C6_8 
REMARK    4  A    between atoms: C7_11  and  C8_12 
REMARK    5  A    between atoms: C9_13  and  C10_14 
ROOT
HETATM    1  C6  UNL     1      -0.183  52.107 -23.270  1.00  0.00     0.119 A 
HETATM    2  N2  UNL     1      -1.303  51.455 -23.624  1.00  0.00    -0.328 N 
ATOM      3  H2  UNL     1      -1.495  51.222 -24.598  1.00  0.00     0.169 HD
HETATM    4  C7  UNL     1      -2.158  51.123 -22.649  1.00  0.00     0.107 A 
HETATM    5  N3  UNL     1      -1.989  51.384 -21.347  1.00  0.00    -0.342 N 
ATOM      6  H3  UNL     1      -2.683  51.107 -20.653  1.00  0.00     0.167 HD
HETATM    7  C17 UNL     1      -0.870  52.024 -20.997  1.00  0.00     0.047 A 
HETATM    8  C18 UNL     1      -0.664  52.307 -19.652  1.00  0.00     0.030 A 
HETATM    9  C19 UNL     1       0.485  52.964 -19.202  1.00  0.00     0.002 A 
HETATM   10  C20 UNL     1       1.462  53.344 -20.111  1.00  0.00     0.001 A 
HETATM   11  C21 UNL     1       1.278  53.071 -21.466  1.00  0.00     0.017 A 
HETATM   12  C22 UNL     1       0.104  52.417 -21.926  1.00  0.00     0.035 A 
ENDROOT
BRANCH   4  13
HETATM   13  C8  UNL     1      -3.380  50.403 -23.007  1.00  0.00     0.049 C 
HETATM   14  C9  UNL     1      -3.414  49.132 -23.437  1.00  0.00     0.016 C 
BRANCH  14  15
HETATM   15  C10 UNL     1      -4.668  48.451 -23.792  1.00  0.00    -0.016 A 
HETATM   16  C11 UNL     1      -5.070  48.440 -25.140  1.00  0.00     0.052 A 
HETATM   17  C12 UNL     1      -6.255  47.816 -25.468  1.00  0.00     0.105 A 
HETATM   18  C13 UNL     1      -7.042  47.211 -24.517  1.00  0.00     0.106 A 
HETATM   19  O3  UNL     1      -6.783  47.720 -26.717  1.00  0.00    -0.323 OA
HETATM   20  C14 UNL     1      -6.694  47.202 -23.183  1.00  0.00     0.059 A 
HETATM   21  O2  UNL     1      -8.163  46.656 -25.051  1.00  0.00    -0.323 OA
HETATM   22  C15 UNL     1      -5.496  47.832 -22.820  1.00  0.00     0.024 A 
HETATM   23 BR1  UNL     1      -5.034  47.806 -20.975  1.00  0.00    -0.050 Br
HETATM   24  C16 UNL     1      -7.994  46.983 -26.447  1.00  0.00     0.352 A 
ENDBRANCH  14  15
ENDBRANCH   4  13
BRANCH   1  25
HETATM   25  N1  UNL     1       0.734  52.516 -24.280  1.00  0.00    -0.342 N 
HETATM   26  H5  UNL     1       1.174  53.379 -23.980  1.00  0.00     0.167 HD
BRANCH  25  27
HETATM   27  C5  UNL     1       0.559  52.486 -25.684  1.00  0.00     0.036 A 
HETATM   28  C4  UNL     1       1.433  51.801 -26.539  1.00  0.00     0.029 A 
HETATM   29  C3  UNL     1       1.270  51.844 -27.928  1.00  0.00     0.005 A 
HETATM   30  C2  UNL     1       0.239  52.596 -28.484  1.00  0.00     0.036 A 
HETATM   31  C1  UNL     1      -0.608  53.311 -27.649  1.00  0.00     0.067 A 
HETATM   32  C23 UNL     1      -0.450  53.274 -26.263  1.00  0.00     0.066 A 
BRANCH  31  33
HETATM   33  O1  UNL     1      -1.595  54.053 -28.233  1.00  0.00    -0.361 OA
HETATM   34  H1  UNL     1      -2.105  54.498 -27.538  1.00  0.00     0.217 HD
ENDBRANCH  31  33
ENDBRANCH  25  27
ENDBRANCH   1  25
TORSDOF 5
ENDMDL
MODEL 5
REMARK minimizedAffinity -8.46160889
REMARK CNNscore 0.227222696
REMARK CNNaffinity 6.52176428
REMARK  5 active torsions:
REMARK  status: ('A' for Active; 'I' for Inactive)
REMARK    1  A    between atoms: O1_1  and  C1_2 
REMARK    2  A    between atoms: C5_6  and  N1_7 
REMARK    3  A    between atoms: N1_7  and  C6_8 
REMARK    4  A    between atoms: C7_11  and  C8_12 
REMARK    5  A    between atoms: C9_13  and  C10_14 
ROOT
HETATM    1  C6  UNL     1       0.731  52.462 -18.149  1.00  0.00     0.119 A 
HETATM    2  N2  UNL     1      -0.477  51.880 -18.233  1.00  0.00    -0.328 N 
ATOM      3  H2  UNL     1      -1.091  52.048 -19.030  1.00  0.00     0.169 HD
HETATM    4  C7  UNL     1      -0.844  51.072 -17.232  1.00  0.00     0.107 A 
HETATM    5  N3  UNL     1      -0.106  50.792 -16.151  1.00  0.00    -0.342 N 
ATOM      6  H3  UNL     1      -0.448  50.169 -15.419  1.00  0.00     0.167 HD
HETATM    7  C17 UNL     1       1.098  51.364 -16.074  1.00  0.00     0.047 A 
HETATM    8  C18 UNL     1       1.890  51.090 -14.964  1.00  0.00     0.030 A 
HETATM    9  C19 UNL     1       3.166  51.640 -14.813  1.00  0.00     0.002 A 
HETATM   10  C20 UNL     1       3.675  52.480 -15.793  1.00  0.00     0.001 A 
HETATM   11  C21 UNL     1       2.899  52.770 -16.915  1.00  0.00     0.017 A 
HETATM   12  C22 UNL     1       1.597  52.223 -17.063  1.00  0.00     0.035 A 
ENDROOT
BRANCH   4  13
HETATM   13  C8  UNL     1      -2.151  50.418 -17.306  1.00  0.00     0.049 C 
HETATM   14  C9  UNL     1      -2.378  49.242 -17.912  1.00  0.00     0.016 C 
BRANCH  14  15
HETATM   15  C10 UNL     1      -3.712  48.626 -17.966  1.00  0.00    -0.016 A 
HETATM   16  C11 UNL     1      -4.674  49.177 -18.832  1.00  0.00     0.052 A 
HETATM   17  C12 UNL     1      -5.930  48.608 -18.868  1.00  0.00     0.105 A 
HETATM   18  C13 UNL     1      -6.257  47.526 -18.086  1.00  0.00     0.106 A 
HETATM   19  O3  UNL     1      -6.967  49.021 -19.645  1.00  0.00    -0.323 OA
HETATM   20  C14 UNL     1      -5.352  46.956 -17.218  1.00  0.00     0.059 A 
HETATM   21  O2  UNL     1      -7.541  47.122 -18.276  1.00  0.00    -0.323 OA
HETATM   22  C15 UNL     1      -4.068  47.516 -17.157  1.00  0.00     0.024 A 
HETATM   23 BR1  UNL     1      -2.833  46.712 -15.953  1.00  0.00    -0.050 Br
HETATM   24  C16 UNL     1      -7.987  48.075 -19.264  1.00  0.00     0.352 A 
ENDBRANCH  14  15
ENDBRANCH   4  13
BRANCH   1  25
HETATM   25  N1  UNL     1       1.145  53.362 -19.171  1.00  0.00    -0.342 N 
HETATM   26  H5  UNL     1       1.004  54.310 -18.838  1.00  0.00     0.167 HD
BRANCH  25  27
HETATM   27  C5  UNL     1       0.919  53.265 -20.565  1.00  0.00     0.036 A 
HETATM   28  C4  UNL     1       0.350  52.131 -21.161  1.00  0.00     0.029 A 
HETATM   29  C3  UNL     1       0.199  52.040 -22.549  1.00  0.00     0.005 A 
HETATM   30  C2  UNL     1       0.639  53.078 -23.365  1.00  0.00     0.036 A 
HETATM   31  C1  UNL     1       1.241  54.188 -22.790  1.00  0.00     0.067 A 
HETATM   32  C23 UNL     1       1.395  54.285 -21.407  1.00  0.00     0.066 A 
BRANCH  31  33
HETATM   33  O1  UNL     1       1.678  55.176 -23.626  1.00  0.00    -0.361 OA
HETATM   34  H1  UNL     1       2.076  55.882 -23.094  1.00  0.00     0.217 HD
ENDBRANCH  31  33
ENDBRANCH  25  27
ENDBRANCH   1  25
TORSDOF 5
ENDMDL
MODEL 6
REMARK minimizedAffinity -9.75804234
REMARK CNNscore 0.200375825
REMARK CNNaffinity 6.63243484
REMARK  5 active torsions:
REMARK  status: ('A' for Active; 'I' for Inactive)
REMARK    1  A    between atoms: O1_1  and  C1_2 
REMARK    2  A    between atoms: C5_6  and  N1_7 
REMARK    3  A    between atoms: N1_7  and  C6_8 
REMARK    4  A    between atoms: C7_11  and  C8_12 
REMARK    5  A    between atoms: C9_13  and  C10_14 
ROOT
HETATM    1  C6  UNL     1      -0.774  50.966 -24.711  1.00  0.00     0.119 A 
HETATM    2  N2  UNL     1      -2.017  50.493 -24.900  1.00  0.00    -0.328 N 
ATOM      3  H2  UNL     1      -2.632  50.288 -24.112  1.00  0.00     0.169 HD
HETATM    4  C7  UNL     1      -2.418  50.299 -26.163  1.00  0.00     0.107 A 
HETATM    5  N3  UNL     1      -1.684  50.540 -27.256  1.00  0.00    -0.342 N 
ATOM      6  H3  UNL     1      -2.049  50.365 -28.192  1.00  0.00     0.167 HD
HETATM    7  C17 UNL     1      -0.453  51.019 -27.065  1.00  0.00     0.047 A 
HETATM    8  C18 UNL     1       0.334  51.283 -28.180  1.00  0.00     0.030 A 
HETATM    9  C19 UNL     1       1.629  51.796 -28.068  1.00  0.00     0.002 A 
HETATM   10  C20 UNL     1       2.158  52.062 -26.812  1.00  0.00     0.001 A 
HETATM   11  C21 UNL     1       1.388  51.806 -25.678  1.00  0.00     0.017 A 
HETATM   12  C22 UNL     1       0.078  51.271 -25.791  1.00  0.00     0.035 A 
ENDROOT
BRANCH   4  13
HETATM   13  C8  UNL     1      -3.772  49.793 -26.395  1.00  0.00     0.049 C 
HETATM   14  C9  UNL     1      -4.122  48.500 -26.318  1.00  0.00     0.016 C 
BRANCH  14  15
HETATM   15  C10 UNL     1      -5.496  48.037 -26.566  1.00  0.00    -0.016 A 
HETATM   16  C11 UNL     1      -5.900  47.810 -27.894  1.00  0.00     0.052 A 
HETATM   17  C12 UNL     1      -7.194  47.393 -28.125  1.00  0.00     0.105 A 
HETATM   18  C13 UNL     1      -8.086  47.197 -27.098  1.00  0.00     0.106 A 
HETATM   19  O3  UNL     1      -7.739  47.133 -29.344  1.00  0.00    -0.323 OA
HETATM   20  C14 UNL     1      -7.739  47.413 -25.782  1.00  0.00     0.059 A 
HETATM   21  O2  UNL     1      -9.304  46.786 -27.543  1.00  0.00    -0.323 OA
HETATM   22  C15 UNL     1      -6.430  47.841 -25.517  1.00  0.00     0.024 A 
HETATM   23 BR1  UNL     1      -5.971  48.132 -23.694  1.00  0.00    -0.050 Br
HETATM   24  C16 UNL     1      -9.078  46.749 -28.968  1.00  0.00     0.352 A 
ENDBRANCH  14  15
ENDBRANCH   4  13
BRANCH   1  25
HETATM   25  N1  UNL     1      -0.292  51.148 -23.384  1.00  0.00    -0.342 N 
HETATM   26  H5  UNL     1      -0.998  50.810 -22.739  1.00  0.00     0.167 HD
BRANCH  25  27
HETATM   27  C5  UNL     1       0.404  52.260 -22.851  1.00  0.00     0.036 A 
HETATM   28  C4  UNL     1       0.847  52.307 -21.522  1.00  0.00     0.029 A 
HETATM   29  C3  UNL     1       1.475  53.447 -21.008  1.00  0.00     0.005 A 
HETATM   30  C2  UNL     1       1.649  54.568 -21.814  1.00  0.00     0.036 A 
HETATM   31  C1  UNL     1       1.178  54.548 -23.119  1.00  0.00     0.067 A 
HETATM   32  C23 UNL     1       0.549  53.415 -23.638  1.00  0.00     0.066 A 
BRANCH  31  33
HETATM   33  O1  UNL     1       1.349  55.674 -23.872  1.00  0.00    -0.361 OA
HETATM   34  H1  UNL     1       0.974  55.522 -24.753  1.00  0.00     0.217 HD
ENDBRANCH  31  33
ENDBRANCH  25  27
ENDBRANCH   1  25
TORSDOF 5
ENDMDL
MODEL 7
REMARK minimizedAffinity -8.42362118
REMARK CNNscore 0.183907181
REMARK CNNaffinity 5.96889639
REMARK  5 active torsions:
REMARK  status: ('A' for Active; 'I' for Inactive)
REMARK    1  A    between atoms: O1_1  and  C1_2 
REMARK    2  A    between atoms: C5_6  and  N1_7 
REMARK    3  A    between atoms: N1_7  and  C6_8 
REMARK    4  A    between atoms: C7_11  and  C8_12 
REMARK    5  A    between atoms: C9_13  and  C10_14 
ROOT
HETATM    1  C6  UNL     1      -1.449  50.445 -24.197  1.00  0.00     0.119 A 
HETATM    2  N2  UNL     1      -1.545  50.213 -22.877  1.00  0.00    -0.328 N 
ATOM      3  H2  UNL     1      -0.915  50.664 -22.213  1.00  0.00     0.169 HD
HETATM    4  C7  UNL     1      -2.499  49.369 -22.466  1.00  0.00     0.107 A 
HETATM    5  N3  UNL     1      -3.369  48.735 -23.262  1.00  0.00    -0.342 N 
ATOM      6  H3  UNL     1      -4.071  48.098 -22.884  1.00  0.00     0.167 HD
HETATM    7  C17 UNL     1      -3.278  48.974 -24.572  1.00  0.00     0.047 A 
HETATM    8  C18 UNL     1      -4.169  48.333 -25.425  1.00  0.00     0.030 A 
HETATM    9  C19 UNL     1      -4.147  48.537 -26.807  1.00  0.00     0.002 A 
HETATM   10  C20 UNL     1      -3.218  49.407 -27.361  1.00  0.00     0.001 A 
HETATM   11  C21 UNL     1      -2.313  50.061 -26.526  1.00  0.00     0.017 A 
HETATM   12  C22 UNL     1      -2.325  49.844 -25.123  1.00  0.00     0.035 A 
ENDROOT
BRANCH   4  13
HETATM   13  C8  UNL     1      -2.631  49.109 -21.032  1.00  0.00     0.049 C 
HETATM   14  C9  UNL     1      -2.166  48.012 -20.414  1.00  0.00     0.016 C 
BRANCH  14  15
HETATM   15  C10 UNL     1      -2.327  47.791 -18.970  1.00  0.00    -0.016 A 
HETATM   16  C11 UNL     1      -1.679  48.666 -18.079  1.00  0.00     0.052 A 
HETATM   17  C12 UNL     1      -1.817  48.446 -16.724  1.00  0.00     0.105 A 
HETATM   18  C13 UNL     1      -2.565  47.403 -16.232  1.00  0.00     0.106 A 
HETATM   19  O3  UNL     1      -1.257  49.194 -15.737  1.00  0.00    -0.323 OA
HETATM   20  C14 UNL     1      -3.212  46.515 -17.065  1.00  0.00     0.059 A 
HETATM   21  O2  UNL     1      -2.571  47.368 -14.873  1.00  0.00    -0.323 OA
HETATM   22  C15 UNL     1      -3.086  46.713 -18.447  1.00  0.00     0.024 A 
HETATM   23 BR1  UNL     1      -3.989  45.477 -19.579  1.00  0.00    -0.050 Br
HETATM   24  C16 UNL     1      -1.738  48.505 -14.564  1.00  0.00     0.352 A 
ENDBRANCH  14  15
ENDBRANCH   4  13
BRANCH   1  25
HETATM   25  N1  UNL     1      -0.422  51.304 -24.681  1.00  0.00    -0.342 N 
HETATM   26  H5  UNL     1      -0.258  52.027 -23.989  1.00  0.00     0.167 HD
BRANCH  25  27
HETATM   27  C5  UNL     1      -0.243  51.797 -25.996  1.00  0.00     0.036 A 
HETATM   28  C4  UNL     1       0.747  51.307 -26.858  1.00  0.00     0.029 A 
HETATM   29  C3  UNL     1       0.941  51.861 -28.128  1.00  0.00     0.005 A 
HETATM   30  C2  UNL     1       0.158  52.932 -28.546  1.00  0.00     0.036 A 
HETATM   31  C1  UNL     1      -0.798  53.453 -27.686  1.00  0.00     0.067 A 
HETATM   32  C23 UNL     1      -0.996  52.907 -26.417  1.00  0.00     0.066 A 
BRANCH  31  33
HETATM   33  O1  UNL     1      -1.533  54.518 -28.124  1.00  0.00    -0.361 OA
HETATM   34  H1  UNL     1      -2.155  54.777 -27.427  1.00  0.00     0.217 HD
ENDBRANCH  31  33
ENDBRANCH  25  27
ENDBRANCH   1  25
TORSDOF 5
ENDMDL
MODEL 8
REMARK minimizedAffinity -8.64349842
REMARK CNNscore 0.165500194
REMARK CNNaffinity 6.10923529
REMARK  5 active torsions:
REMARK  status: ('A' for Active; 'I' for Inactive)
REMARK    1  A    between atoms: O1_1  and  C1_2 
REMARK    2  A    between atoms: C5_6  and  N1_7 
REMARK    3  A    between atoms: N1_7  and  C6_8 
REMARK    4  A    between atoms: C7_11  and  C8_12 
REMARK    5  A    between atoms: C9_13  and  C10_14 
ROOT
HETATM    1  C6  UNL     1      -0.813  50.539 -17.293  1.00  0.00     0.119 A 
HETATM    2  N2  UNL     1      -0.675  51.215 -18.446  1.00  0.00    -0.328 N 
ATOM      3  H2  UNL     1      -0.154  52.091 -18.487  1.00  0.00     0.169 HD
HETATM    4  C7  UNL     1      -1.249  50.695 -19.538  1.00  0.00     0.107 A 
HETATM    5  N3  UNL     1      -1.948  49.555 -19.579  1.00  0.00    -0.342 N 
ATOM      6  H3  UNL     1      -2.365  49.217 -20.446  1.00  0.00     0.167 HD
HETATM    7  C17 UNL     1      -2.076  48.881 -18.434  1.00  0.00     0.047 A 
HETATM    8  C18 UNL     1      -2.794  47.690 -18.444  1.00  0.00     0.030 A 
HETATM    9  C19 UNL     1      -2.965  46.919 -17.291  1.00  0.00     0.002 A 
HETATM   10  C20 UNL     1      -2.401  47.337 -16.094  1.00  0.00     0.001 A 
HETATM   11  C21 UNL     1      -1.676  48.527 -16.058  1.00  0.00     0.017 A 
HETATM   12  C22 UNL     1      -1.515  49.319 -17.226  1.00  0.00     0.035 A 
ENDROOT
BRANCH   4  13
HETATM   13  C8  UNL     1      -1.104  51.408 -20.808  1.00  0.00     0.049 C 
HETATM   14  C9  UNL     1      -0.012  51.358 -21.586  1.00  0.00     0.016 C 
BRANCH  14  15
HETATM   15  C10 UNL     1       0.090  52.096 -22.854  1.00  0.00    -0.016 A 
HETATM   16  C11 UNL     1      -0.448  51.516 -24.016  1.00  0.00     0.052 A 
HETATM   17  C12 UNL     1      -0.335  52.203 -25.207  1.00  0.00     0.105 A 
HETATM   18  C13 UNL     1       0.284  53.428 -25.281  1.00  0.00     0.106 A 
HETATM   19  O3  UNL     1      -0.797  51.780 -26.414  1.00  0.00    -0.323 OA
HETATM   20  C14 UNL     1       0.833  54.033 -24.171  1.00  0.00     0.059 A 
HETATM   21  O2  UNL     1       0.285  53.930 -26.544  1.00  0.00    -0.323 OA
HETATM   22  C15 UNL     1       0.736  53.356 -22.947  1.00  0.00     0.024 A 
HETATM   23 BR1  UNL     1       1.499  54.210 -21.427  1.00  0.00    -0.050 Br
HETATM   24  C16 UNL     1      -0.401  52.880 -27.259  1.00  0.00     0.352 A 
ENDBRANCH  14  15
ENDBRANCH   4  13
BRANCH   1  25
HETATM   25  N1  UNL     1      -0.255  51.076 -16.099  1.00  0.00    -0.342 N 
HETATM   26  H5  UNL     1      -0.923  51.727 -15.699  1.00  0.00     0.167 HD
BRANCH  25  27
HETATM   27  C5  UNL     1       1.077  51.496 -15.868  1.00  0.00     0.036 A 
HETATM   28  C4  UNL     1       1.714  52.460 -16.663  1.00  0.00     0.029 A 
HETATM   29  C3  UNL     1       3.053  52.806 -16.449  1.00  0.00     0.005 A 
HETATM   30  C2  UNL     1       3.782  52.173 -15.448  1.00  0.00     0.036 A 
HETATM   31  C1  UNL     1       3.176  51.189 -14.681  1.00  0.00     0.067 A 
HETATM   32  C23 UNL     1       1.841  50.837 -14.889  1.00  0.00     0.066 A 
BRANCH  31  33
HETATM   33  O1  UNL     1       3.930  50.577 -13.722  1.00  0.00    -0.361 OA
HETATM   34  H1  UNL     1       3.385  49.915 -13.269  1.00  0.00     0.217 HD
ENDBRANCH  31  33
ENDBRANCH  25  27
ENDBRANCH   1  25
TORSDOF 5
ENDMDL
MODEL 9
REMARK minimizedAffinity -9.89205933
REMARK CNNscore 0.15536353
REMARK CNNaffinity 6.5528698
REMARK  5 active torsions:
REMARK  status: ('A' for Active; 'I' for Inactive)
REMARK    1  A    between atoms: O1_1  and  C1_2 
REMARK    2  A    between atoms: C5_6  and  N1_7 
REMARK    3  A    between atoms: N1_7  and  C6_8 
REMARK    4  A    between atoms: C7_11  and  C8_12 
REMARK    5  A    between atoms: C9_13  and  C10_14 
ROOT
HETATM    1  C6  UNL     1      -2.372  49.831 -24.922  1.00  0.00     0.119 A 
HETATM    2  N2  UNL     1      -1.797  50.387 -23.842  1.00  0.00    -0.328 N 
ATOM      3  H2  UNL     1      -0.884  50.837 -23.902  1.00  0.00     0.169 HD
HETATM    4  C7  UNL     1      -2.468  50.328 -22.686  1.00  0.00     0.107 A 
HETATM    5  N3  UNL     1      -3.668  49.761 -22.513  1.00  0.00    -0.342 N 
ATOM      6  H3  UNL     1      -4.124  49.745 -21.601  1.00  0.00     0.167 HD
HETATM    7  C17 UNL     1      -4.242  49.217 -23.589  1.00  0.00     0.047 A 
HETATM    8  C18 UNL     1      -5.491  48.623 -23.444  1.00  0.00     0.030 A 
HETATM    9  C19 UNL     1      -6.163  48.042 -24.522  1.00  0.00     0.002 A 
HETATM   10  C20 UNL     1      -5.584  48.055 -25.783  1.00  0.00     0.001 A 
HETATM   11  C21 UNL     1      -4.333  48.645 -25.954  1.00  0.00     0.017 A 
HETATM   12  C22 UNL     1      -3.642  49.223 -24.857  1.00  0.00     0.035 A 
ENDROOT
BRANCH   4  13
HETATM   13  C8  UNL     1      -1.867  50.936 -21.498  1.00  0.00     0.049 C 
HETATM   14  C9  UNL     1      -0.697  50.556 -20.961  1.00  0.00     0.016 C 
BRANCH  14  15
HETATM   15  C10 UNL     1      -0.134  51.194 -19.761  1.00  0.00    -0.016 A 
HETATM   16  C11 UNL     1      -0.340  50.579 -18.513  1.00  0.00     0.052 A 
HETATM   17  C12 UNL     1       0.173  51.189 -17.387  1.00  0.00     0.105 A 
HETATM   18  C13 UNL     1       0.875  52.369 -17.459  1.00  0.00     0.106 A 
HETATM   19  O3  UNL     1       0.059  50.728 -16.113  1.00  0.00    -0.323 OA
HETATM   20  C14 UNL     1       1.096  53.011 -18.657  1.00  0.00     0.059 A 
HETATM   21  O2  UNL     1       1.293  52.795 -16.237  1.00  0.00    -0.323 OA
HETATM   22  C15 UNL     1       0.582  52.417 -19.818  1.00  0.00     0.024 A 
HETATM   23 BR1  UNL     1       0.902  53.320 -21.462  1.00  0.00    -0.050 Br
HETATM   24  C16 UNL     1       0.771  51.752 -15.387  1.00  0.00     0.352 A 
ENDBRANCH  14  15
ENDBRANCH   4  13
BRANCH   1  25
HETATM   25  N1  UNL     1      -1.675  49.835 -26.163  1.00  0.00    -0.342 N 
HETATM   26  H5  UNL     1      -1.128  48.983 -26.224  1.00  0.00     0.167 HD
BRANCH  25  27
HETATM   27  C5  UNL     1      -1.018  50.919 -26.793  1.00  0.00     0.036 A 
HETATM   28  C4  UNL     1       0.378  51.026 -26.849  1.00  0.00     0.029 A 
HETATM   29  C3  UNL     1       0.997  52.142 -27.422  1.00  0.00     0.005 A 
HETATM   30  C2  UNL     1       0.223  53.181 -27.930  1.00  0.00     0.036 A 
HETATM   31  C1  UNL     1      -1.160  53.105 -27.844  1.00  0.00     0.067 A 
HETATM   32  C23 UNL     1      -1.784  51.996 -27.272  1.00  0.00     0.066 A 
BRANCH  31  33
HETATM   33  O1  UNL     1      -1.884  54.154 -28.335  1.00  0.00    -0.361 OA
HETATM   34  H1  UNL     1      -2.828  53.969 -28.208  1.00  0.00     0.217 HD
ENDBRANCH  31  33
ENDBRANCH  25  27
ENDBRANCH   1  25
TORSDOF 5
ENDMDL
