MODEL 1
REMARK minimizedAffinity -8.12870216
REMARK CNNscore 0.621109605
REMARK CNNaffinity 7.27647161
REMARK  16 active torsions:
REMARK  status: ('A' for Active; 'I' for Inactive)
REMARK    1  A    between atoms: N1_2  and  C2_3 
REMARK    2  A    between atoms: N1_2  and  C5_14 
REMARK    3  A    between atoms: C2_3  and  C3_4 
REMARK    4  A    between atoms: C3_4  and  O1_5 
REMARK    5  A    between atoms: O1_5  and  P1_6 
REMARK    6  A    between atoms: P1_6  and  O3_8 
REMARK    7  A    between atoms: P1_6  and  C4_9 
REMARK    8  A    between atoms: C4_9  and  P2_10 
REMARK    9  A    between atoms: P2_10  and  O5_12 
REMARK   10  A    between atoms: P2_10  and  O6_13 
REMARK   11  A    between atoms: C5_14  and  C6_15 
REMARK   12  A    between atoms: C6_15  and  C7_16 
REMARK   13  A    between atoms: C10_19  and  N2_20 
REMARK   14  A    between atoms: C12_22  and  C13_23 
REMARK   15  A    between atoms: C17_27  and  O7_28 
REMARK   16  A    between atoms: C20_31  and  N3_32 
ROOT
HETATM    1  C7  UNL     1      -2.466  48.234 -19.382  1.00  0.00    -0.056 A 
HETATM    2  C8  UNL     1      -1.309  47.941 -20.110  1.00  0.00     0.009 A 
HETATM    3  C9  UNL     1      -0.758  48.873 -21.000  1.00  0.00     0.030 A 
HETATM    4  C10 UNL     1      -1.347  50.135 -21.183  1.00  0.00     0.040 A 
HETATM    5  C23 UNL     1      -2.504  50.425 -20.449  1.00  0.00     0.030 A 
HETATM    6  C24 UNL     1      -3.050  49.491 -19.555  1.00  0.00     0.009 A 
ENDROOT
BRANCH   4   7
HETATM    7  N2  UNL     1      -0.763  51.092 -22.088  1.00  0.00    -0.307 N 
HETATM    8  C11 UNL     1      -0.828  51.015 -23.473  1.00  0.00     0.112 A 
HETATM    9  C12 UNL     1      -0.139  52.070 -24.031  1.00  0.00     0.008 A 
HETATM   10  C19 UNL     1       0.369  52.857 -22.969  1.00  0.00     0.065 A 
HETATM   11  C20 UNL     1       1.133  54.032 -22.865  1.00  0.00     0.114 A 
HETATM   12  C22 UNL     1      -0.031  52.247 -21.779  1.00  0.00     0.128 A 
HETATM   13  N4  UNL     1       1.425  54.519 -21.648  1.00  0.00    -0.338 N 
HETATM   14  C21 UNL     1       0.985  53.844 -20.576  1.00  0.00     0.183 A 
ATOM     15  H4  UNL     1       1.967  55.377 -21.542  1.00  0.00     0.168 HD
HETATM   16  N5  UNL     1       0.261  52.718 -20.549  1.00  0.00    -0.337 N 
ATOM     17  H5  UNL     1      -0.040  52.263 -19.687  1.00  0.00     0.168 HD
BRANCH   9  18
HETATM   18  C13 UNL     1      -0.017  52.245 -25.462  1.00  0.00    -0.021 A 
HETATM   19  C14 UNL     1       1.113  51.758 -26.130  1.00  0.00     0.012 A 
HETATM   20  C15 UNL     1       1.244  51.943 -27.508  1.00  0.00     0.004 A 
HETATM   21  C16 UNL     1       0.250  52.615 -28.221  1.00  0.00     0.036 A 
HETATM   22  C17 UNL     1      -0.867  53.099 -27.547  1.00  0.00     0.066 A 
HETATM   23  C18 UNL     1      -1.011  52.921 -26.174  1.00  0.00     0.049 A 
BRANCH  22  24
HETATM   24  O7  UNL     1      -1.856  53.770 -28.205  1.00  0.00    -0.361 OA
HETATM   25  H23 UNL     1      -1.662  53.759 -29.156  1.00  0.00     0.217 HD
ENDBRANCH  22  24
ENDBRANCH   9  18
BRANCH  11  26
HETATM   26  N3  UNL     1       1.611  54.747 -23.953  1.00  0.00    -0.385 N 
HETATM   27  H25 UNL     1       1.101  54.628 -24.818  1.00  0.00     0.157 HD
HETATM   28  H26 UNL     1       1.863  55.692 -23.694  1.00  0.00     0.157 HD
ENDBRANCH  11  26
ENDBRANCH   4   7
BRANCH   1  29
HETATM   29  C6  UNL     1      -2.998  47.227 -18.387  1.00  0.00     0.068 C 
BRANCH  29  30
HETATM   30  C5  UNL     1      -3.814  46.042 -18.950  1.00  0.00     0.276 C 
BRANCH  30  31
HETATM   31  N1  UNL     1      -5.123  45.781 -18.314  1.00  0.00     0.086 N 
HETATM   32  C1  UNL     1      -5.590  46.940 -17.547  1.00  0.00     0.310 C 
BRANCH  31  33
HETATM   33  C2  UNL     1      -6.106  45.393 -19.343  1.00  0.00     0.298 C 
BRANCH  33  34
HETATM   34  C3  UNL     1      -6.495  46.538 -20.287  1.00  0.00     0.208 C 
BRANCH  34  35
HETATM   35  O1  UNL     1      -6.508  46.045 -21.625  1.00  0.00    -0.317 OA
BRANCH  35  36
HETATM   36  P1  UNL     1      -7.776  46.310 -22.579  1.00  0.00     0.249 P 
HETATM   37  O2  UNL     1      -7.556  45.829 -23.976  1.00  0.00    -0.653 OA
BRANCH  36  38
HETATM   38  O3  UNL     1      -8.935  45.464 -21.857  1.00  0.00    -0.329 OA
HETATM   39  H8  UNL     1      -8.874  44.513 -22.075  1.00  0.00     0.220 HD
ENDBRANCH  36  38
BRANCH  36  40
HETATM   40  C4  UNL     1      -8.190  48.017 -22.373  1.00  0.00     0.249 C 
BRANCH  40  41
HETATM   41  P2  UNL     1      -7.831  49.191 -23.652  1.00  0.00     0.247 P 
HETATM   42  O4  UNL     1      -8.885  49.355 -24.696  1.00  0.00    -0.653 OA
BRANCH  41  43
HETATM   43  O5  UNL     1      -7.425  50.573 -22.949  1.00  0.00    -0.329 OA
HETATM   44  H11 UNL     1      -6.866  50.512 -22.149  1.00  0.00     0.220 HD
ENDBRANCH  41  43
BRANCH  41  45
HETATM   45  O6  UNL     1      -6.426  48.781 -24.294  1.00  0.00    -0.329 OA
HETATM   46  H12 UNL     1      -6.244  49.291 -25.109  1.00  0.00     0.220 HD
ENDBRANCH  41  45
ENDBRANCH  40  41
ENDBRANCH  36  40
ENDBRANCH  35  36
ENDBRANCH  34  35
ENDBRANCH  33  34
ENDBRANCH  31  33
ENDBRANCH  30  31
ENDBRANCH  29  30
ENDBRANCH   1  29
TORSDOF 16
ENDMDL
MODEL 2
REMARK minimizedAffinity -9.07784462
REMARK CNNscore 0.377347201
REMARK CNNaffinity 6.81992579
REMARK  16 active torsions:
REMARK  status: ('A' for Active; 'I' for Inactive)
REMARK    1  A    between atoms: N1_2  and  C2_3 
REMARK    2  A    between atoms: N1_2  and  C5_14 
REMARK    3  A    between atoms: C2_3  and  C3_4 
REMARK    4  A    between atoms: C3_4  and  O1_5 
REMARK    5  A    between atoms: O1_5  and  P1_6 
REMARK    6  A    between atoms: P1_6  and  O3_8 
REMARK    7  A    between atoms: P1_6  and  C4_9 
REMARK    8  A    between atoms: C4_9  and  P2_10 
REMARK    9  A    between atoms: P2_10  and  O5_12 
REMARK   10  A    between atoms: P2_10  and  O6_13 
REMARK   11  A    between atoms: C5_14  and  C6_15 
REMARK   12  A    between atoms: C6_15  and  C7_16 
REMARK   13  A    between atoms: C10_19  and  N2_20 
REMARK   14  A    between atoms: C12_22  and  C13_23 
REMARK   15  A    between atoms: C17_27  and  O7_28 
REMARK   16  A    between atoms: C20_31  and  N3_32 
ROOT
HETATM    1  C7  UNL     1      -4.462  48.587 -27.822  1.00  0.00    -0.056 A 
HETATM    2  C8  UNL     1      -3.770  49.660 -28.394  1.00  0.00     0.009 A 
HETATM    3  C9  UNL     1      -2.931  50.473 -27.621  1.00  0.00     0.030 A 
HETATM    4  C10 UNL     1      -2.752  50.233 -26.249  1.00  0.00     0.040 A 
HETATM    5  C23 UNL     1      -3.445  49.156 -25.683  1.00  0.00     0.030 A 
HETATM    6  C24 UNL     1      -4.280  48.340 -26.460  1.00  0.00     0.009 A 
ENDROOT
BRANCH   4   7
HETATM    7  N2  UNL     1      -1.873  51.066 -25.467  1.00  0.00    -0.307 N 
HETATM    8  C11 UNL     1      -1.610  50.889 -24.115  1.00  0.00     0.112 A 
HETATM    9  C12 UNL     1      -0.756  51.876 -23.674  1.00  0.00     0.008 A 
HETATM   10  C19 UNL     1      -0.450  52.702 -24.783  1.00  0.00     0.065 A 
HETATM   11  C20 UNL     1       0.339  53.845 -24.997  1.00  0.00     0.114 A 
HETATM   12  C22 UNL     1      -1.139  52.185 -25.881  1.00  0.00     0.128 A 
HETATM   13  N4  UNL     1       0.409  54.372 -26.231  1.00  0.00    -0.338 N 
HETATM   14  C21 UNL     1      -0.298  53.786 -27.208  1.00  0.00     0.183 A 
ATOM     15  H4  UNL     1       0.984  55.194 -26.418  1.00  0.00     0.168 HD
HETATM   16  N5  UNL     1      -1.085  52.707 -27.125  1.00  0.00    -0.337 N 
ATOM     17  H5  UNL     1      -1.592  52.318 -27.920  1.00  0.00     0.168 HD
BRANCH   9  18
HETATM   18  C13 UNL     1      -0.316  51.961 -22.299  1.00  0.00    -0.021 A 
HETATM   19  C14 UNL     1      -0.597  50.917 -21.410  1.00  0.00     0.012 A 
HETATM   20  C15 UNL     1      -0.191  51.006 -20.076  1.00  0.00     0.004 A 
HETATM   21  C16 UNL     1       0.494  52.137 -19.628  1.00  0.00     0.036 A 
HETATM   22  C17 UNL     1       0.764  53.172 -20.518  1.00  0.00     0.066 A 
HETATM   23  C18 UNL     1       0.366  53.096 -21.849  1.00  0.00     0.049 A 
BRANCH  22  24
HETATM   24  O7  UNL     1       1.421  54.298 -20.117  1.00  0.00    -0.361 OA
HETATM   25  H23 UNL     1       1.698  54.186 -19.194  1.00  0.00     0.217 HD
ENDBRANCH  22  24
ENDBRANCH   9  18
BRANCH  11  26
HETATM   26  N3  UNL     1       1.073  54.479 -24.007  1.00  0.00    -0.385 N 
HETATM   27  H25 UNL     1       1.334  53.906 -23.215  1.00  0.00     0.157 HD
HETATM   28  H26 UNL     1       1.792  55.073 -24.400  1.00  0.00     0.157 HD
ENDBRANCH  11  26
ENDBRANCH   4   7
BRANCH   1  29
HETATM   29  C6  UNL     1      -5.313  47.694 -28.699  1.00  0.00     0.068 C 
BRANCH  29  30
HETATM   30  C5  UNL     1      -5.478  48.108 -30.178  1.00  0.00     0.276 C 
BRANCH  30  31
HETATM   31  N1  UNL     1      -6.077  47.103 -31.082  1.00  0.00     0.086 N 
HETATM   32  C1  UNL     1      -6.799  47.738 -32.189  1.00  0.00     0.310 C 
BRANCH  31  33
HETATM   33  C2  UNL     1      -5.026  46.197 -31.583  1.00  0.00     0.298 C 
BRANCH  33  34
HETATM   34  C3  UNL     1      -5.569  44.876 -32.146  1.00  0.00     0.208 C 
BRANCH  34  35
HETATM   35  O1  UNL     1      -6.457  44.301 -31.190  1.00  0.00    -0.317 OA
BRANCH  35  36
HETATM   36  P1  UNL     1      -7.510  43.168 -31.635  1.00  0.00     0.249 P 
HETATM   37  O2  UNL     1      -6.844  41.935 -32.151  1.00  0.00    -0.653 OA
BRANCH  36  38
HETATM   38  O3  UNL     1      -8.292  42.866 -30.264  1.00  0.00    -0.329 OA
HETATM   39  H8  UNL     1      -7.781  42.270 -29.682  1.00  0.00     0.220 HD
ENDBRANCH  36  38
BRANCH  36  40
HETATM   40  C4  UNL     1      -8.662  43.971 -32.710  1.00  0.00     0.249 C 
BRANCH  40  41
HETATM   41  P2  UNL     1      -8.732  43.548 -34.431  1.00  0.00     0.247 P 
HETATM   42  O4  UNL     1      -9.890  42.703 -34.843  1.00  0.00    -0.653 OA
BRANCH  41  43
HETATM   43  O5  UNL     1      -8.615  44.906 -35.274  1.00  0.00    -0.329 OA
HETATM   44  H11 UNL     1      -7.983  45.576 -34.945  1.00  0.00     0.220 HD
ENDBRANCH  41  43
BRANCH  41  45
HETATM   45  O6  UNL     1      -7.338  42.863 -34.810  1.00  0.00    -0.329 OA
HETATM   46  H12 UNL     1      -7.369  42.463 -35.702  1.00  0.00     0.220 HD
ENDBRANCH  41  45
ENDBRANCH  40  41
ENDBRANCH  36  40
ENDBRANCH  35  36
ENDBRANCH  34  35
ENDBRANCH  33  34
ENDBRANCH  31  33
ENDBRANCH  30  31
ENDBRANCH  29  30
ENDBRANCH   1  29
TORSDOF 16
ENDMDL
MODEL 3
REMARK minimizedAffinity -9.79519272
REMARK CNNscore 0.371399701
REMARK CNNaffinity 6.62273359
REMARK  16 active torsions:
REMARK  status: ('A' for Active; 'I' for Inactive)
REMARK    1  A    between atoms: N1_2  and  C2_3 
REMARK    2  A    between atoms: N1_2  and  C5_14 
REMARK    3  A    between atoms: C2_3  and  C3_4 
REMARK    4  A    between atoms: C3_4  and  O1_5 
REMARK    5  A    between atoms: O1_5  and  P1_6 
REMARK    6  A    between atoms: P1_6  and  O3_8 
REMARK    7  A    between atoms: P1_6  and  C4_9 
REMARK    8  A    between atoms: C4_9  and  P2_10 
REMARK    9  A    between atoms: P2_10  and  O5_12 
REMARK   10  A    between atoms: P2_10  and  O6_13 
REMARK   11  A    between atoms: C5_14  and  C6_15 
REMARK   12  A    between atoms: C6_15  and  C7_16 
REMARK   13  A    between atoms: C10_19  and  N2_20 
REMARK   14  A    between atoms: C12_22  and  C13_23 
REMARK   15  A    between atoms: C17_27  and  O7_28 
REMARK   16  A    between atoms: C20_31  and  N3_32 
ROOT
HETATM    1  C7  UNL     1      -4.332  48.649 -27.838  1.00  0.00    -0.056 A 
HETATM    2  C8  UNL     1      -3.717  49.787 -28.373  1.00  0.00     0.009 A 
HETATM    3  C9  UNL     1      -2.897  50.604 -27.583  1.00  0.00     0.030 A 
HETATM    4  C10 UNL     1      -2.663  50.305 -26.231  1.00  0.00     0.040 A 
HETATM    5  C23 UNL     1      -3.278  49.163 -25.702  1.00  0.00     0.030 A 
HETATM    6  C24 UNL     1      -4.094  48.343 -26.497  1.00  0.00     0.009 A 
ENDROOT
BRANCH   4   7
HETATM    7  N2  UNL     1      -1.805  51.143 -25.432  1.00  0.00    -0.307 N 
HETATM    8  C11 UNL     1      -1.564  50.966 -24.076  1.00  0.00     0.112 A 
HETATM    9  C12 UNL     1      -0.727  51.959 -23.618  1.00  0.00     0.008 A 
HETATM   10  C19 UNL     1      -0.408  52.790 -24.720  1.00  0.00     0.065 A 
HETATM   11  C20 UNL     1       0.375  53.940 -24.918  1.00  0.00     0.114 A 
HETATM   12  C22 UNL     1      -1.073  52.270 -25.831  1.00  0.00     0.128 A 
HETATM   13  N4  UNL     1       0.463  54.470 -26.149  1.00  0.00    -0.338 N 
HETATM   14  C21 UNL     1      -0.222  53.880 -27.140  1.00  0.00     0.183 A 
ATOM     15  H4  UNL     1       1.033  55.297 -26.325  1.00  0.00     0.168 HD
HETATM   16  N5  UNL     1      -1.002  52.794 -27.073  1.00  0.00    -0.337 N 
ATOM     17  H5  UNL     1      -1.491  52.402 -27.877  1.00  0.00     0.168 HD
BRANCH   9  18
HETATM   18  C13 UNL     1      -0.312  52.046 -22.235  1.00  0.00    -0.021 A 
HETATM   19  C14 UNL     1      -0.723  51.070 -21.321  1.00  0.00     0.012 A 
HETATM   20  C15 UNL     1      -0.341  51.162 -19.980  1.00  0.00     0.004 A 
HETATM   21  C16 UNL     1       0.450  52.228 -19.550  1.00  0.00     0.036 A 
HETATM   22  C17 UNL     1       0.850  53.197 -20.467  1.00  0.00     0.066 A 
HETATM   23  C18 UNL     1       0.477  53.116 -21.805  1.00  0.00     0.049 A 
BRANCH  22  24
HETATM   24  O7  UNL     1       1.615  54.260 -20.085  1.00  0.00    -0.361 OA
HETATM   25  H23 UNL     1       1.857  54.152 -19.151  1.00  0.00     0.217 HD
ENDBRANCH  22  24
ENDBRANCH   9  18
BRANCH  11  26
HETATM   26  N3  UNL     1       1.086  54.579 -23.914  1.00  0.00    -0.385 N 
HETATM   27  H25 UNL     1       1.337  54.006 -23.118  1.00  0.00     0.157 HD
HETATM   28  H26 UNL     1       1.807  55.179 -24.293  1.00  0.00     0.157 HD
ENDBRANCH  11  26
ENDBRANCH   4   7
BRANCH   1  29
HETATM   29  C6  UNL     1      -5.161  47.758 -28.736  1.00  0.00     0.068 C 
BRANCH  29  30
HETATM   30  C5  UNL     1      -5.766  48.399 -30.004  1.00  0.00     0.276 C 
BRANCH  30  31
HETATM   31  N1  UNL     1      -6.997  47.775 -30.537  1.00  0.00     0.086 N 
HETATM   32  C1  UNL     1      -6.693  46.806 -31.595  1.00  0.00     0.310 C 
BRANCH  31  33
HETATM   33  C2  UNL     1      -7.750  47.144 -29.438  1.00  0.00     0.298 C 
BRANCH  33  34
HETATM   34  C3  UNL     1      -8.961  47.963 -28.971  1.00  0.00     0.208 C 
BRANCH  34  35
HETATM   35  O1  UNL     1      -8.691  48.481 -27.670  1.00  0.00    -0.317 OA
BRANCH  35  36
HETATM   36  P1  UNL     1      -9.665  48.137 -26.436  1.00  0.00     0.249 P 
HETATM   37  O2  UNL     1      -8.916  47.783 -25.194  1.00  0.00    -0.653 OA
BRANCH  36  38
HETATM   38  O3  UNL     1     -10.478  49.509 -26.245  1.00  0.00    -0.329 OA
HETATM   39  H8  UNL     1      -9.957  50.170 -25.748  1.00  0.00     0.220 HD
ENDBRANCH  36  38
BRANCH  36  40
HETATM   40  C4  UNL     1     -10.818  46.944 -27.048  1.00  0.00     0.249 C 
BRANCH  40  41
HETATM   41  P2  UNL     1     -12.529  47.364 -27.245  1.00  0.00     0.247 P 
HETATM   42  O4  UNL     1     -13.305  46.499 -28.182  1.00  0.00    -0.653 OA
BRANCH  41  43
HETATM   43  O5  UNL     1     -13.184  47.450 -25.785  1.00  0.00    -0.329 OA
HETATM   44  H11 UNL     1     -12.641  47.862 -25.083  1.00  0.00     0.220 HD
ENDBRANCH  41  43
BRANCH  41  45
HETATM   45  O6  UNL     1     -12.595  48.903 -27.672  1.00  0.00    -0.329 OA
HETATM   46  H12 UNL     1     -13.497  49.156 -27.952  1.00  0.00     0.220 HD
ENDBRANCH  41  45
ENDBRANCH  40  41
ENDBRANCH  36  40
ENDBRANCH  35  36
ENDBRANCH  34  35
ENDBRANCH  33  34
ENDBRANCH  31  33
ENDBRANCH  30  31
ENDBRANCH  29  30
ENDBRANCH   1  29
TORSDOF 16
ENDMDL
MODEL 4
REMARK minimizedAffinity -8.99325466
REMARK CNNscore 0.365906805
REMARK CNNaffinity 6.56770182
REMARK  16 active torsions:
REMARK  status: ('A' for Active; 'I' for Inactive)
REMARK    1  A    between atoms: N1_2  and  C2_3 
REMARK    2  A    between atoms: N1_2  and  C5_14 
REMARK    3  A    between atoms: C2_3  and  C3_4 
REMARK    4  A    between atoms: C3_4  and  O1_5 
REMARK    5  A    between atoms: O1_5  and  P1_6 
REMARK    6  A    between atoms: P1_6  and  O3_8 
REMARK    7  A    between atoms: P1_6  and  C4_9 
REMARK    8  A    between atoms: C4_9  and  P2_10 
REMARK    9  A    between atoms: P2_10  and  O5_12 
REMARK   10  A    between atoms: P2_10  and  O6_13 
REMARK   11  A    between atoms: C5_14  and  C6_15 
REMARK   12  A    between atoms: C6_15  and  C7_16 
REMARK   13  A    between atoms: C10_19  and  N2_20 
REMARK   14  A    between atoms: C12_22  and  C13_23 
REMARK   15  A    between atoms: C17_27  and  O7_28 
REMARK   16  A    between atoms: C20_31  and  N3_32 
ROOT
HETATM    1  C7  UNL     1      -4.764  48.384 -27.478  1.00  0.00    -0.056 A 
HETATM    2  C8  UNL     1      -3.886  49.249 -28.139  1.00  0.00     0.009 A 
HETATM    3  C9  UNL     1      -2.995  50.061 -27.425  1.00  0.00     0.030 A 
HETATM    4  C10 UNL     1      -2.951  50.027 -26.021  1.00  0.00     0.040 A 
HETATM    5  C23 UNL     1      -3.830  49.156 -25.364  1.00  0.00     0.030 A 
HETATM    6  C24 UNL     1      -4.717  48.341 -26.083  1.00  0.00     0.009 A 
ENDROOT
BRANCH   4   7
HETATM    7  N2  UNL     1      -2.019  50.854 -25.296  1.00  0.00    -0.307 N 
HETATM    8  C11 UNL     1      -1.752  50.743 -23.938  1.00  0.00     0.112 A 
HETATM    9  C12 UNL     1      -0.841  51.705 -23.562  1.00  0.00     0.008 A 
HETATM   10  C19 UNL     1      -0.501  52.446 -24.721  1.00  0.00     0.065 A 
HETATM   11  C20 UNL     1       0.348  53.528 -25.008  1.00  0.00     0.114 A 
HETATM   12  C22 UNL     1      -1.228  51.904 -25.782  1.00  0.00     0.128 A 
HETATM   13  N4  UNL     1       0.435  53.976 -26.271  1.00  0.00    -0.338 N 
HETATM   14  C21 UNL     1      -0.313  53.374 -27.207  1.00  0.00     0.183 A 
ATOM     15  H4  UNL     1       1.052  54.752 -26.511  1.00  0.00     0.168 HD
HETATM   16  N5  UNL     1      -1.158  52.347 -27.055  1.00  0.00    -0.337 N 
ATOM     17  H5  UNL     1      -1.694  51.941 -27.821  1.00  0.00     0.168 HD
BRANCH   9  18
HETATM   18  C13 UNL     1      -0.383  51.847 -22.198  1.00  0.00    -0.021 A 
HETATM   19  C14 UNL     1      -0.650  50.840 -21.263  1.00  0.00     0.012 A 
HETATM   20  C15 UNL     1      -0.226  50.984 -19.940  1.00  0.00     0.004 A 
HETATM   21  C16 UNL     1       0.462  52.133 -19.547  1.00  0.00     0.036 A 
HETATM   22  C17 UNL     1       0.718  53.131 -20.483  1.00  0.00     0.066 A 
HETATM   23  C18 UNL     1       0.303  53.000 -21.804  1.00  0.00     0.049 A 
BRANCH  22  24
HETATM   24  O7  UNL     1       1.378  54.274 -20.136  1.00  0.00    -0.361 OA
HETATM   25  H23 UNL     1       1.668  54.200 -19.213  1.00  0.00     0.217 HD
ENDBRANCH  22  24
ENDBRANCH   9  18
BRANCH  11  26
HETATM   26  N3  UNL     1       1.126  54.178 -24.062  1.00  0.00    -0.385 N 
HETATM   27  H25 UNL     1       1.363  53.639 -23.239  1.00  0.00     0.157 HD
HETATM   28  H26 UNL     1       1.873  54.706 -24.495  1.00  0.00     0.157 HD
ENDBRANCH  11  26
ENDBRANCH   4   7
BRANCH   1  29
HETATM   29  C6  UNL     1      -5.669  47.479 -28.285  1.00  0.00     0.068 C 
BRANCH  29  30
HETATM   30  C5  UNL     1      -5.819  47.791 -29.790  1.00  0.00     0.276 C 
BRANCH  30  31
HETATM   31  N1  UNL     1      -7.147  47.533 -30.389  1.00  0.00     0.086 N 
HETATM   32  C1  UNL     1      -7.773  48.772 -30.862  1.00  0.00     0.310 C 
BRANCH  31  33
HETATM   33  C2  UNL     1      -7.016  46.552 -31.482  1.00  0.00     0.298 C 
BRANCH  33  34
HETATM   34  C3  UNL     1      -7.909  45.316 -31.311  1.00  0.00     0.208 C 
BRANCH  34  35
HETATM   35  O1  UNL     1      -7.795  44.503 -32.477  1.00  0.00    -0.317 OA
BRANCH  35  36
HETATM   36  P1  UNL     1      -8.677  44.824 -33.785  1.00  0.00     0.249 P 
HETATM   37  O2  UNL     1      -8.531  46.238 -34.243  1.00  0.00    -0.653 OA
BRANCH  36  38
HETATM   38  O3  UNL     1      -8.072  43.805 -34.868  1.00  0.00    -0.329 OA
HETATM   39  H8  UNL     1      -7.239  44.142 -35.254  1.00  0.00     0.220 HD
ENDBRANCH  36  38
BRANCH  36  40
HETATM   40  C4  UNL     1     -10.312  44.263 -33.416  1.00  0.00     0.249 C 
BRANCH  40  41
HETATM   41  P2  UNL     1     -11.541  44.169 -34.691  1.00  0.00     0.247 P 
HETATM   42  O4  UNL     1     -12.492  45.317 -34.760  1.00  0.00    -0.653 OA
BRANCH  41  43
HETATM   43  O5  UNL     1     -10.788  43.895 -36.078  1.00  0.00    -0.329 OA
HETATM   44  H11 UNL     1     -10.037  43.269 -36.055  1.00  0.00     0.220 HD
ENDBRANCH  41  43
BRANCH  41  45
HETATM   45  O6  UNL     1     -12.309  42.779 -34.510  1.00  0.00    -0.329 OA
HETATM   46  H12 UNL     1     -13.103  42.734 -35.080  1.00  0.00     0.220 HD
ENDBRANCH  41  45
ENDBRANCH  40  41
ENDBRANCH  36  40
ENDBRANCH  35  36
ENDBRANCH  34  35
ENDBRANCH  33  34
ENDBRANCH  31  33
ENDBRANCH  30  31
ENDBRANCH  29  30
ENDBRANCH   1  29
TORSDOF 16
ENDMDL
MODEL 5
REMARK minimizedAffinity -8.31891823
REMARK CNNscore 0.309344262
REMARK CNNaffinity 6.82445526
REMARK  16 active torsions:
REMARK  status: ('A' for Active; 'I' for Inactive)
REMARK    1  A    between atoms: N1_2  and  C2_3 
REMARK    2  A    between atoms: N1_2  and  C5_14 
REMARK    3  A    between atoms: C2_3  and  C3_4 
REMARK    4  A    between atoms: C3_4  and  O1_5 
REMARK    5  A    between atoms: O1_5  and  P1_6 
REMARK    6  A    between atoms: P1_6  and  O3_8 
REMARK    7  A    between atoms: P1_6  and  C4_9 
REMARK    8  A    between atoms: C4_9  and  P2_10 
REMARK    9  A    between atoms: P2_10  and  O5_12 
REMARK   10  A    between atoms: P2_10  and  O6_13 
REMARK   11  A    between atoms: C5_14  and  C6_15 
REMARK   12  A    between atoms: C6_15  and  C7_16 
REMARK   13  A    between atoms: C10_19  and  N2_20 
REMARK   14  A    between atoms: C12_22  and  C13_23 
REMARK   15  A    between atoms: C17_27  and  O7_28 
REMARK   16  A    between atoms: C20_31  and  N3_32 
ROOT
HETATM    1  C7  UNL     1      -2.947  48.362 -19.541  1.00  0.00    -0.056 A 
HETATM    2  C8  UNL     1      -3.500  49.594 -19.907  1.00  0.00     0.009 A 
HETATM    3  C9  UNL     1      -2.797  50.487 -20.727  1.00  0.00     0.030 A 
HETATM    4  C10 UNL     1      -1.518  50.171 -21.213  1.00  0.00     0.040 A 
HETATM    5  C23 UNL     1      -0.971  48.935 -20.846  1.00  0.00     0.030 A 
HETATM    6  C24 UNL     1      -1.679  48.040 -20.029  1.00  0.00     0.009 A 
ENDROOT
BRANCH   4   7
HETATM    7  N2  UNL     1      -0.811  51.090 -22.069  1.00  0.00    -0.307 N 
HETATM    8  C11 UNL     1      -0.683  50.952 -23.445  1.00  0.00     0.112 A 
HETATM    9  C12 UNL     1       0.080  51.982 -23.947  1.00  0.00     0.008 A 
HETATM   10  C19 UNL     1       0.439  52.816 -22.861  1.00  0.00     0.065 A 
HETATM   11  C20 UNL     1       1.185  53.997 -22.704  1.00  0.00     0.114 A 
HETATM   12  C22 UNL     1      -0.124  52.258 -21.712  1.00  0.00     0.128 A 
HETATM   13  N4  UNL     1       1.308  54.538 -21.480  1.00  0.00    -0.338 N 
HETATM   14  C21 UNL     1       0.721  53.910 -20.451  1.00  0.00     0.183 A 
ATOM     15  H4  UNL     1       1.834  55.401 -21.338  1.00  0.00     0.168 HD
HETATM   16  N5  UNL     1      -0.004  52.784 -20.475  1.00  0.00    -0.337 N 
ATOM     17  H5  UNL     1      -0.422  52.366 -19.644  1.00  0.00     0.168 HD
BRANCH   9  18
HETATM   18  C13 UNL     1       0.400  52.095 -25.354  1.00  0.00    -0.021 A 
HETATM   19  C14 UNL     1      -0.583  52.502 -26.263  1.00  0.00     0.012 A 
HETATM   20  C15 UNL     1      -0.282  52.592 -27.624  1.00  0.00     0.004 A 
HETATM   21  C16 UNL     1       0.998  52.274 -28.080  1.00  0.00     0.036 A 
HETATM   22  C17 UNL     1       1.968  51.866 -27.168  1.00  0.00     0.066 A 
HETATM   23  C18 UNL     1       1.681  51.773 -25.810  1.00  0.00     0.049 A 
BRANCH  22  24
HETATM   24  O7  UNL     1       3.228  51.537 -27.574  1.00  0.00    -0.361 OA
HETATM   25  H23 UNL     1       3.306  51.715 -28.525  1.00  0.00     0.217 HD
ENDBRANCH  22  24
ENDBRANCH   9  18
BRANCH  11  26
HETATM   26  N3  UNL     1       1.812  54.665 -23.744  1.00  0.00    -0.385 N 
HETATM   27  H25 UNL     1       1.426  54.507 -24.666  1.00  0.00     0.157 HD
HETATM   28  H26 UNL     1       2.029  55.621 -23.495  1.00  0.00     0.157 HD
ENDBRANCH  11  26
ENDBRANCH   4   7
BRANCH   1  29
HETATM   29  C6  UNL     1      -3.759  47.398 -18.704  1.00  0.00     0.068 C 
BRANCH  29  30
HETATM   30  C5  UNL     1      -5.297  47.478 -18.829  1.00  0.00     0.276 C 
BRANCH  30  31
HETATM   31  N1  UNL     1      -5.977  46.286 -19.380  1.00  0.00     0.086 N 
HETATM   32  C1  UNL     1      -6.798  45.618 -18.366  1.00  0.00     0.310 C 
BRANCH  31  33
HETATM   33  C2  UNL     1      -6.789  46.674 -20.549  1.00  0.00     0.298 C 
BRANCH  33  34
HETATM   34  C3  UNL     1      -6.296  47.950 -21.246  1.00  0.00     0.208 C 
BRANCH  34  35
HETATM   35  O1  UNL     1      -7.416  48.621 -21.818  1.00  0.00    -0.317 OA
BRANCH  35  36
HETATM   36  P1  UNL     1      -7.849  48.331 -23.342  1.00  0.00     0.249 P 
HETATM   37  O2  UNL     1      -9.081  47.494 -23.440  1.00  0.00    -0.653 OA
BRANCH  36  38
HETATM   38  O3  UNL     1      -8.113  49.809 -23.912  1.00  0.00    -0.329 OA
HETATM   39  H8  UNL     1      -8.992  50.145 -23.647  1.00  0.00     0.220 HD
ENDBRANCH  36  38
BRANCH  36  40
HETATM   40  C4  UNL     1      -6.398  47.726 -24.151  1.00  0.00     0.249 C 
BRANCH  40  41
HETATM   41  P2  UNL     1      -5.038  48.811 -24.492  1.00  0.00     0.247 P 
HETATM   42  O4  UNL     1      -3.756  48.479 -23.803  1.00  0.00    -0.653 OA
BRANCH  41  43
HETATM   43  O5  UNL     1      -4.884  48.919 -26.083  1.00  0.00    -0.329 OA
HETATM   44  H11 UNL     1      -5.711  48.968 -26.603  1.00  0.00     0.220 HD
ENDBRANCH  41  43
BRANCH  41  45
HETATM   45  O6  UNL     1      -5.519  50.298 -24.156  1.00  0.00    -0.329 OA
HETATM   46  H12 UNL     1      -4.770  50.926 -24.170  1.00  0.00     0.220 HD
ENDBRANCH  41  45
ENDBRANCH  40  41
ENDBRANCH  36  40
ENDBRANCH  35  36
ENDBRANCH  34  35
ENDBRANCH  33  34
ENDBRANCH  31  33
ENDBRANCH  30  31
ENDBRANCH  29  30
ENDBRANCH   1  29
TORSDOF 16
ENDMDL
MODEL 6
REMARK minimizedAffinity -8.07660294
REMARK CNNscore 0.305886477
REMARK CNNaffinity 6.93047523
REMARK  16 active torsions:
REMARK  status: ('A' for Active; 'I' for Inactive)
REMARK    1  A    between atoms: N1_2  and  C2_3 
REMARK    2  A    between atoms: N1_2  and  C5_14 
REMARK    3  A    between atoms: C2_3  and  C3_4 
REMARK    4  A    between atoms: C3_4  and  O1_5 
REMARK    5  A    between atoms: O1_5  and  P1_6 
REMARK    6  A    between atoms: P1_6  and  O3_8 
REMARK    7  A    between atoms: P1_6  and  C4_9 
REMARK    8  A    between atoms: C4_9  and  P2_10 
REMARK    9  A    between atoms: P2_10  and  O5_12 
REMARK   10  A    between atoms: P2_10  and  O6_13 
REMARK   11  A    between atoms: C5_14  and  C6_15 
REMARK   12  A    between atoms: C6_15  and  C7_16 
REMARK   13  A    between atoms: C10_19  and  N2_20 
REMARK   14  A    between atoms: C12_22  and  C13_23 
REMARK   15  A    between atoms: C17_27  and  O7_28 
REMARK   16  A    between atoms: C20_31  and  N3_32 
ROOT
HETATM    1  C7  UNL     1       0.384  51.157 -17.132  1.00  0.00    -0.056 A 
HETATM    2  C8  UNL     1      -0.237  50.248 -17.995  1.00  0.00     0.009 A 
HETATM    3  C9  UNL     1      -0.400  50.538 -19.356  1.00  0.00     0.030 A 
HETATM    4  C10 UNL     1       0.060  51.749 -19.898  1.00  0.00     0.040 A 
HETATM    5  C23 UNL     1       0.684  52.654 -19.031  1.00  0.00     0.030 A 
HETATM    6  C24 UNL     1       0.851  52.359 -17.669  1.00  0.00     0.009 A 
ENDROOT
BRANCH   4   7
HETATM    7  N2  UNL     1      -0.098  52.030 -21.303  1.00  0.00    -0.307 N 
HETATM    8  C11 UNL     1      -0.906  51.306 -22.170  1.00  0.00     0.112 A 
HETATM    9  C12 UNL     1      -0.800  51.820 -23.444  1.00  0.00     0.008 A 
HETATM   10  C19 UNL     1       0.092  52.918 -23.387  1.00  0.00     0.065 A 
HETATM   11  C20 UNL     1       0.609  53.842 -24.313  1.00  0.00     0.114 A 
HETATM   12  C22 UNL     1       0.509  53.040 -22.061  1.00  0.00     0.128 A 
HETATM   13  N4  UNL     1       1.453  54.796 -23.886  1.00  0.00    -0.338 N 
HETATM   14  C21 UNL     1       1.780  54.813 -22.586  1.00  0.00     0.183 A 
ATOM     15  H4  UNL     1       1.834  55.487 -24.532  1.00  0.00     0.168 HD
HETATM   16  N5  UNL     1       1.362  53.988 -21.617  1.00  0.00    -0.337 N 
ATOM     17  H5  UNL     1       1.657  54.067 -20.644  1.00  0.00     0.168 HD
BRANCH   9  18
HETATM   18  C13 UNL     1      -1.515  51.257 -24.568  1.00  0.00    -0.021 A 
HETATM   19  C14 UNL     1      -1.919  49.917 -24.538  1.00  0.00     0.012 A 
HETATM   20  C15 UNL     1      -2.592  49.365 -25.631  1.00  0.00     0.004 A 
HETATM   21  C16 UNL     1      -2.861  50.148 -26.754  1.00  0.00     0.036 A 
HETATM   22  C17 UNL     1      -2.452  51.478 -26.776  1.00  0.00     0.066 A 
HETATM   23  C18 UNL     1      -1.781  52.041 -25.694  1.00  0.00     0.049 A 
BRANCH  22  24
HETATM   24  O7  UNL     1      -2.687  52.274 -27.859  1.00  0.00    -0.361 OA
HETATM   25  H23 UNL     1      -3.218  51.778 -28.502  1.00  0.00     0.217 HD
ENDBRANCH  22  24
ENDBRANCH   9  18
BRANCH  11  26
HETATM   26  N3  UNL     1       0.298  53.845 -25.664  1.00  0.00    -0.385 N 
HETATM   27  H25 UNL     1      -0.583  53.415 -25.915  1.00  0.00     0.157 HD
HETATM   28  H26 UNL     1       0.513  54.736 -26.092  1.00  0.00     0.157 HD
ENDBRANCH  11  26
ENDBRANCH   4   7
BRANCH   1  29
HETATM   29  C6  UNL     1       0.595  50.785 -15.681  1.00  0.00     0.068 C 
BRANCH  29  30
HETATM   30  C5  UNL     1      -0.604  50.168 -14.928  1.00  0.00     0.276 C 
BRANCH  30  31
HETATM   31  N1  UNL     1      -1.573  51.117 -14.340  1.00  0.00     0.086 N 
HETATM   32  C1  UNL     1      -2.891  51.002 -14.972  1.00  0.00     0.310 C 
BRANCH  31  33
HETATM   33  C2  UNL     1      -1.661  50.898 -12.884  1.00  0.00     0.298 C 
BRANCH  33  34
HETATM   34  C3  UNL     1      -0.397  51.316 -12.120  1.00  0.00     0.208 C 
BRANCH  34  35
HETATM   35  O1  UNL     1      -0.319  52.739 -12.107  1.00  0.00    -0.317 OA
BRANCH  35  36
HETATM   36  P1  UNL     1      -0.720  53.566 -10.785  1.00  0.00     0.249 P 
HETATM   37  O2  UNL     1      -2.135  54.042 -10.812  1.00  0.00    -0.653 OA
BRANCH  36  38
HETATM   38  O3  UNL     1      -0.501  52.482  -9.620  1.00  0.00    -0.329 OA
HETATM   39  H8  UNL     1      -1.257  51.865  -9.556  1.00  0.00     0.220 HD
ENDBRANCH  36  38
BRANCH  36  40
HETATM   40  C4  UNL     1       0.538  54.792 -10.581  1.00  0.00     0.249 C 
BRANCH  40  41
HETATM   41  P2  UNL     1       2.185  54.325 -10.119  1.00  0.00     0.247 P 
HETATM   42  O4  UNL     1       2.923  53.490 -11.112  1.00  0.00    -0.653 OA
BRANCH  41  43
HETATM   43  O5  UNL     1       2.976  55.657  -9.710  1.00  0.00    -0.329 OA
HETATM   44  H11 UNL     1       2.478  56.324  -9.195  1.00  0.00     0.220 HD
ENDBRANCH  41  43
BRANCH  41  45
HETATM   45  O6  UNL     1       2.094  53.605  -8.695  1.00  0.00    -0.329 OA
HETATM   46  H12 UNL     1       2.942  53.182  -8.455  1.00  0.00     0.220 HD
ENDBRANCH  41  45
ENDBRANCH  40  41
ENDBRANCH  36  40
ENDBRANCH  35  36
ENDBRANCH  34  35
ENDBRANCH  33  34
ENDBRANCH  31  33
ENDBRANCH  30  31
ENDBRANCH  29  30
ENDBRANCH   1  29
TORSDOF 16
ENDMDL
MODEL 7
REMARK minimizedAffinity -8.93853951
REMARK CNNscore 0.274772614
REMARK CNNaffinity 6.43183327
REMARK  16 active torsions:
REMARK  status: ('A' for Active; 'I' for Inactive)
REMARK    1  A    between atoms: N1_2  and  C2_3 
REMARK    2  A    between atoms: N1_2  and  C5_14 
REMARK    3  A    between atoms: C2_3  and  C3_4 
REMARK    4  A    between atoms: C3_4  and  O1_5 
REMARK    5  A    between atoms: O1_5  and  P1_6 
REMARK    6  A    between atoms: P1_6  and  O3_8 
REMARK    7  A    between atoms: P1_6  and  C4_9 
REMARK    8  A    between atoms: C4_9  and  P2_10 
REMARK    9  A    between atoms: P2_10  and  O5_12 
REMARK   10  A    between atoms: P2_10  and  O6_13 
REMARK   11  A    between atoms: C5_14  and  C6_15 
REMARK   12  A    between atoms: C6_15  and  C7_16 
REMARK   13  A    between atoms: C10_19  and  N2_20 
REMARK   14  A    between atoms: C12_22  and  C13_23 
REMARK   15  A    between atoms: C17_27  and  O7_28 
REMARK   16  A    between atoms: C20_31  and  N3_32 
ROOT
HETATM    1  C7  UNL     1      -4.498  48.500 -27.563  1.00  0.00    -0.056 A 
HETATM    2  C8  UNL     1      -3.736  49.503 -28.172  1.00  0.00     0.009 A 
HETATM    3  C9  UNL     1      -2.880  50.318 -27.420  1.00  0.00     0.030 A 
HETATM    4  C10 UNL     1      -2.754  50.151 -26.031  1.00  0.00     0.040 A 
HETATM    5  C23 UNL     1      -3.517  49.143 -25.427  1.00  0.00     0.030 A 
HETATM    6  C24 UNL     1      -4.370  48.325 -26.183  1.00  0.00     0.009 A 
ENDROOT
BRANCH   4   7
HETATM    7  N2  UNL     1      -1.858  50.983 -25.270  1.00  0.00    -0.307 N 
HETATM    8  C11 UNL     1      -1.621  50.854 -23.908  1.00  0.00     0.112 A 
HETATM    9  C12 UNL     1      -0.740  51.828 -23.494  1.00  0.00     0.008 A 
HETATM   10  C19 UNL     1      -0.387  52.595 -24.631  1.00  0.00     0.065 A 
HETATM   11  C20 UNL     1       0.446  53.700 -24.878  1.00  0.00     0.114 A 
HETATM   12  C22 UNL     1      -1.077  52.058 -25.718  1.00  0.00     0.128 A 
HETATM   13  N4  UNL     1       0.554  54.172 -26.131  1.00  0.00    -0.338 N 
HETATM   14  C21 UNL     1      -0.159  53.571 -27.096  1.00  0.00     0.183 A 
ATOM     15  H4  UNL     1       1.161  54.964 -26.343  1.00  0.00     0.168 HD
HETATM   16  N5  UNL     1      -0.986  52.524 -26.981  1.00  0.00    -0.337 N 
ATOM     17  H5  UNL     1      -1.495  52.120 -27.767  1.00  0.00     0.168 HD
BRANCH   9  18
HETATM   18  C13 UNL     1      -0.318  51.955 -22.116  1.00  0.00    -0.021 A 
HETATM   19  C14 UNL     1      -0.692  50.986 -21.179  1.00  0.00     0.012 A 
HETATM   20  C15 UNL     1      -0.303  51.117 -19.843  1.00  0.00     0.004 A 
HETATM   21  C16 UNL     1       0.458  52.216 -19.441  1.00  0.00     0.036 A 
HETATM   22  C17 UNL     1       0.821  53.177 -20.380  1.00  0.00     0.066 A 
HETATM   23  C18 UNL     1       0.441  53.058 -21.713  1.00  0.00     0.049 A 
BRANCH  22  24
HETATM   24  O7  UNL     1       1.556  54.271 -20.026  1.00  0.00    -0.361 OA
HETATM   25  H23 UNL     1       1.808  54.189 -19.092  1.00  0.00     0.217 HD
ENDBRANCH  22  24
ENDBRANCH   9  18
BRANCH  11  26
HETATM   26  N3  UNL     1       1.188  54.348 -23.903  1.00  0.00    -0.385 N 
HETATM   27  H25 UNL     1       1.415  53.800 -23.084  1.00  0.00     0.157 HD
HETATM   28  H26 UNL     1       1.933  54.899 -24.308  1.00  0.00     0.157 HD
ENDBRANCH  11  26
ENDBRANCH   4   7
BRANCH   1  29
HETATM   29  C6  UNL     1      -5.367  47.601 -28.414  1.00  0.00     0.068 C 
BRANCH  29  30
HETATM   30  C5  UNL     1      -5.789  48.135 -29.801  1.00  0.00     0.276 C 
BRANCH  30  31
HETATM   31  N1  UNL     1      -7.167  47.822 -30.238  1.00  0.00     0.086 N 
HETATM   32  C1  UNL     1      -7.230  47.576 -31.682  1.00  0.00     0.310 C 
BRANCH  31  33
HETATM   33  C2  UNL     1      -7.678  46.665 -29.479  1.00  0.00     0.298 C 
BRANCH  33  34
HETATM   34  C3  UNL     1      -8.759  45.869 -30.222  1.00  0.00     0.208 C 
BRANCH  34  35
HETATM   35  O1  UNL     1      -9.985  45.980 -29.503  1.00  0.00    -0.317 OA
BRANCH  35  36
HETATM   36  P1  UNL     1     -10.941  44.698 -29.318  1.00  0.00     0.249 P 
HETATM   37  O2  UNL     1     -11.498  44.205 -30.613  1.00  0.00    -0.653 OA
BRANCH  36  38
HETATM   38  O3  UNL     1      -9.946  43.615 -28.673  1.00  0.00    -0.329 OA
HETATM   39  H8  UNL     1      -9.384  43.193 -29.352  1.00  0.00     0.220 HD
ENDBRANCH  36  38
BRANCH  36  40
HETATM   40  C4  UNL     1     -12.102  45.136 -28.058  1.00  0.00     0.249 C 
BRANCH  40  41
HETATM   41  P2  UNL     1     -13.690  45.798 -28.488  1.00  0.00     0.247 P 
HETATM   42  O4  UNL     1     -14.747  44.793 -28.802  1.00  0.00    -0.653 OA
BRANCH  41  43
HETATM   43  O5  UNL     1     -14.122  46.822 -27.334  1.00  0.00    -0.329 OA
HETATM   44  H11 UNL     1     -13.419  47.395 -26.968  1.00  0.00     0.220 HD
ENDBRANCH  41  43
BRANCH  41  45
HETATM   45  O6  UNL     1     -13.468  46.818 -29.698  1.00  0.00    -0.329 OA
HETATM   46  H12 UNL     1     -14.320  47.098 -30.088  1.00  0.00     0.220 HD
ENDBRANCH  41  45
ENDBRANCH  40  41
ENDBRANCH  36  40
ENDBRANCH  35  36
ENDBRANCH  34  35
ENDBRANCH  33  34
ENDBRANCH  31  33
ENDBRANCH  30  31
ENDBRANCH  29  30
ENDBRANCH   1  29
TORSDOF 16
ENDMDL
MODEL 8
REMARK minimizedAffinity -8.62200165
REMARK CNNscore 0.272062421
REMARK CNNaffinity 7.00270319
REMARK  16 active torsions:
REMARK  status: ('A' for Active; 'I' for Inactive)
REMARK    1  A    between atoms: N1_2  and  C2_3 
REMARK    2  A    between atoms: N1_2  and  C5_14 
REMARK    3  A    between atoms: C2_3  and  C3_4 
REMARK    4  A    between atoms: C3_4  and  O1_5 
REMARK    5  A    between atoms: O1_5  and  P1_6 
REMARK    6  A    between atoms: P1_6  and  O3_8 
REMARK    7  A    between atoms: P1_6  and  C4_9 
REMARK    8  A    between atoms: C4_9  and  P2_10 
REMARK    9  A    between atoms: P2_10  and  O5_12 
REMARK   10  A    between atoms: P2_10  and  O6_13 
REMARK   11  A    between atoms: C5_14  and  C6_15 
REMARK   12  A    between atoms: C6_15  and  C7_16 
REMARK   13  A    between atoms: C10_19  and  N2_20 
REMARK   14  A    between atoms: C12_22  and  C13_23 
REMARK   15  A    between atoms: C17_27  and  O7_28 
REMARK   16  A    between atoms: C20_31  and  N3_32 
ROOT
HETATM    1  C7  UNL     1       0.041  51.155 -17.983  1.00  0.00    -0.056 A 
HETATM    2  C8  UNL     1      -0.446  50.065 -18.713  1.00  0.00     0.009 A 
HETATM    3  C9  UNL     1      -0.693  50.169 -20.089  1.00  0.00     0.030 A 
HETATM    4  C10 UNL     1      -0.455  51.368 -20.779  1.00  0.00     0.040 A 
HETATM    5  C23 UNL     1       0.035  52.455 -20.044  1.00  0.00     0.030 A 
HETATM    6  C24 UNL     1       0.287  52.347 -18.668  1.00  0.00     0.009 A 
ENDROOT
BRANCH   4   7
HETATM    7  N2  UNL     1      -0.697  51.459 -22.197  1.00  0.00    -0.307 N 
HETATM    8  C11 UNL     1      -1.541  50.619 -22.912  1.00  0.00     0.112 A 
HETATM    9  C12 UNL     1      -1.517  50.960 -24.246  1.00  0.00     0.008 A 
HETATM   10  C19 UNL     1      -0.641  52.064 -24.388  1.00  0.00     0.065 A 
HETATM   11  C20 UNL     1      -0.194  52.861 -25.456  1.00  0.00     0.114 A 
HETATM   12  C22 UNL     1      -0.151  52.365 -23.116  1.00  0.00     0.128 A 
HETATM   13  N4  UNL     1       0.657  53.871 -25.209  1.00  0.00    -0.338 N 
HETATM   14  C21 UNL     1       1.058  54.063 -23.944  1.00  0.00     0.183 A 
ATOM     15  H4  UNL     1       0.989  54.473 -25.963  1.00  0.00     0.168 HD
HETATM   16  N5  UNL     1       0.710  53.370 -22.852  1.00  0.00    -0.337 N 
ATOM     17  H5  UNL     1       1.058  53.581 -21.917  1.00  0.00     0.168 HD
BRANCH   9  18
HETATM   18  C13 UNL     1      -2.286  50.247 -25.242  1.00  0.00    -0.021 A 
HETATM   19  C14 UNL     1      -2.907  49.037 -24.909  1.00  0.00     0.012 A 
HETATM   20  C15 UNL     1      -3.634  48.336 -25.874  1.00  0.00     0.004 A 
HETATM   21  C16 UNL     1      -3.739  48.838 -27.172  1.00  0.00     0.036 A 
HETATM   22  C17 UNL     1      -3.114  50.040 -27.494  1.00  0.00     0.066 A 
HETATM   23  C18 UNL     1      -2.388  50.749 -26.542  1.00  0.00     0.049 A 
BRANCH  22  24
HETATM   24  O7  UNL     1      -3.184  50.559 -28.754  1.00  0.00    -0.361 OA
HETATM   25  H23 UNL     1      -3.774  50.004 -29.289  1.00  0.00     0.217 HD
ENDBRANCH  22  24
ENDBRANCH   9  18
BRANCH  11  26
HETATM   26  N3  UNL     1      -0.581  52.682 -26.775  1.00  0.00    -0.385 N 
HETATM   27  H25 UNL     1      -1.467  52.215 -26.915  1.00  0.00     0.157 HD
HETATM   28  H26 UNL     1      -0.406  53.510 -27.329  1.00  0.00     0.157 HD
ENDBRANCH  11  26
ENDBRANCH   4   7
BRANCH   1  29
HETATM   29  C6  UNL     1       0.353  50.989 -16.512  1.00  0.00     0.068 C 
BRANCH  29  30
HETATM   30  C5  UNL     1       1.168  52.111 -15.832  1.00  0.00     0.276 C 
BRANCH  30  31
HETATM   31  N1  UNL     1       2.619  51.871 -15.677  1.00  0.00     0.086 N 
HETATM   32  C1  UNL     1       3.410  52.855 -16.424  1.00  0.00     0.310 C 
BRANCH  31  33
HETATM   33  C2  UNL     1       2.973  51.881 -14.245  1.00  0.00     0.298 C 
BRANCH  33  34
HETATM   34  C3  UNL     1       1.829  51.438 -13.324  1.00  0.00     0.208 C 
BRANCH  34  35
HETATM   35  O1  UNL     1       1.984  52.079 -12.060  1.00  0.00    -0.317 OA
BRANCH  35  36
HETATM   36  P1  UNL     1       0.758  52.888 -11.400  1.00  0.00     0.249 P 
HETATM   37  O2  UNL     1      -0.449  52.919 -12.278  1.00  0.00    -0.653 OA
BRANCH  36  38
HETATM   38  O3  UNL     1       0.473  52.050 -10.060  1.00  0.00    -0.329 OA
HETATM   39  H8  UNL     1      -0.056  51.248 -10.243  1.00  0.00     0.220 HD
ENDBRANCH  36  38
BRANCH  36  40
HETATM   40  C4  UNL     1       1.424  54.446 -10.893  1.00  0.00     0.249 C 
BRANCH  40  41
HETATM   41  P2  UNL     1       2.616  54.533  -9.584  1.00  0.00     0.247 P 
HETATM   42  O4  UNL     1       2.312  53.712  -8.375  1.00  0.00    -0.653 OA
BRANCH  41  43
HETATM   43  O5  UNL     1       4.056  54.216 -10.211  1.00  0.00    -0.329 OA
HETATM   44  H11 UNL     1       4.246  54.597 -11.092  1.00  0.00     0.220 HD
ENDBRANCH  41  43
BRANCH  41  45
HETATM   45  O6  UNL     1       2.806  56.076  -9.214  1.00  0.00    -0.329 OA
HETATM   46  H12 UNL     1       3.329  56.185  -8.395  1.00  0.00     0.220 HD
ENDBRANCH  41  45
ENDBRANCH  40  41
ENDBRANCH  36  40
ENDBRANCH  35  36
ENDBRANCH  34  35
ENDBRANCH  33  34
ENDBRANCH  31  33
ENDBRANCH  30  31
ENDBRANCH  29  30
ENDBRANCH   1  29
TORSDOF 16
ENDMDL
MODEL 9
REMARK minimizedAffinity -9.65901852
REMARK CNNscore 0.249843419
REMARK CNNaffinity 7.11519814
REMARK  16 active torsions:
REMARK  status: ('A' for Active; 'I' for Inactive)
REMARK    1  A    between atoms: N1_2  and  C2_3 
REMARK    2  A    between atoms: N1_2  and  C5_14 
REMARK    3  A    between atoms: C2_3  and  C3_4 
REMARK    4  A    between atoms: C3_4  and  O1_5 
REMARK    5  A    between atoms: O1_5  and  P1_6 
REMARK    6  A    between atoms: P1_6  and  O3_8 
REMARK    7  A    between atoms: P1_6  and  C4_9 
REMARK    8  A    between atoms: C4_9  and  P2_10 
REMARK    9  A    between atoms: P2_10  and  O5_12 
REMARK   10  A    between atoms: P2_10  and  O6_13 
REMARK   11  A    between atoms: C5_14  and  C6_15 
REMARK   12  A    between atoms: C6_15  and  C7_16 
REMARK   13  A    between atoms: C10_19  and  N2_20 
REMARK   14  A    between atoms: C12_22  and  C13_23 
REMARK   15  A    between atoms: C17_27  and  O7_28 
REMARK   16  A    between atoms: C20_31  and  N3_32 
ROOT
HETATM    1  C7  UNL     1      -3.439  48.907 -26.341  1.00  0.00    -0.056 A 
HETATM    2  C8  UNL     1      -2.405  49.792 -26.663  1.00  0.00     0.009 A 
HETATM    3  C9  UNL     1      -1.677  50.449 -25.662  1.00  0.00     0.030 A 
HETATM    4  C10 UNL     1      -1.959  50.236 -24.303  1.00  0.00     0.040 A 
HETATM    5  C23 UNL     1      -2.994  49.346 -23.986  1.00  0.00     0.030 A 
HETATM    6  C24 UNL     1      -3.717  48.686 -24.991  1.00  0.00     0.009 A 
ENDROOT
BRANCH   4   7
HETATM    7  N2  UNL     1      -1.194  50.904 -23.281  1.00  0.00    -0.307 N 
HETATM    8  C11 UNL     1      -1.144  50.517 -21.948  1.00  0.00     0.112 A 
HETATM    9  C12 UNL     1      -0.348  51.389 -21.240  1.00  0.00     0.008 A 
HETATM   10  C19 UNL     1       0.141  52.357 -22.151  1.00  0.00     0.065 A 
HETATM   11  C20 UNL     1       0.977  53.484 -22.068  1.00  0.00     0.114 A 
HETATM   12  C22 UNL     1      -0.381  52.039 -23.405  1.00  0.00     0.128 A 
HETATM   13  N4  UNL     1       1.247  54.184 -23.182  1.00  0.00    -0.338 N 
HETATM   14  C21 UNL     1       0.686  53.781 -24.332  1.00  0.00     0.183 A 
ATOM     15  H4  UNL     1       1.860  54.999 -23.154  1.00  0.00     0.168 HD
HETATM   16  N5  UNL     1      -0.127  52.736 -24.533  1.00  0.00    -0.337 N 
ATOM     17  H5  UNL     1      -0.514  52.492 -25.444  1.00  0.00     0.168 HD
BRANCH   9  18
HETATM   18  C13 UNL     1      -0.123  51.251 -19.817  1.00  0.00    -0.021 A 
HETATM   19  C14 UNL     1      -0.481  50.065 -19.166  1.00  0.00     0.012 A 
HETATM   20  C15 UNL     1      -0.283  49.936 -17.789  1.00  0.00     0.004 A 
HETATM   21  C16 UNL     1       0.270  50.990 -17.061  1.00  0.00     0.036 A 
HETATM   22  C17 UNL     1       0.619  52.167 -17.717  1.00  0.00     0.066 A 
HETATM   23  C18 UNL     1       0.428  52.308 -19.088  1.00  0.00     0.049 A 
BRANCH  22  24
HETATM   24  O7  UNL     1       1.153  53.224 -17.039  1.00  0.00    -0.361 OA
HETATM   25  H23 UNL     1       1.295  52.964 -16.115  1.00  0.00     0.217 HD
ENDBRANCH  22  24
ENDBRANCH   9  18
BRANCH  11  26
HETATM   26  N3  UNL     1       1.564  53.931 -20.894  1.00  0.00    -0.385 N 
HETATM   27  H25 UNL     1       1.688  53.236 -20.169  1.00  0.00     0.157 HD
HETATM   28  H26 UNL     1       2.346  54.545 -21.081  1.00  0.00     0.157 HD
ENDBRANCH  11  26
ENDBRANCH   4   7
BRANCH   1  29
HETATM   29  C6  UNL     1      -4.163  48.171 -27.447  1.00  0.00     0.068 C 
BRANCH  29  30
HETATM   30  C5  UNL     1      -5.681  47.945 -27.268  1.00  0.00     0.276 C 
BRANCH  30  31
HETATM   31  N1  UNL     1      -6.344  47.089 -28.276  1.00  0.00     0.086 N 
HETATM   32  C1  UNL     1      -7.665  46.645 -27.818  1.00  0.00     0.310 C 
BRANCH  31  33
HETATM   33  C2  UNL     1      -6.442  47.815 -29.556  1.00  0.00     0.298 C 
BRANCH  33  34
HETATM   34  C3  UNL     1      -7.036  46.977 -30.696  1.00  0.00     0.208 C 
BRANCH  34  35
HETATM   35  O1  UNL     1      -6.303  45.758 -30.798  1.00  0.00    -0.317 OA
BRANCH  35  36
HETATM   36  P1  UNL     1      -5.723  45.272 -32.219  1.00  0.00     0.249 P 
HETATM   37  O2  UNL     1      -5.681  43.785 -32.344  1.00  0.00    -0.653 OA
BRANCH  36  38
HETATM   38  O3  UNL     1      -6.773  45.905 -33.256  1.00  0.00    -0.329 OA
HETATM   39  H8  UNL     1      -7.587  45.366 -33.318  1.00  0.00     0.220 HD
ENDBRANCH  36  38
BRANCH  36  40
HETATM   40  C4  UNL     1      -4.200  46.142 -32.443  1.00  0.00     0.249 C 
BRANCH  40  41
HETATM   41  P2  UNL     1      -4.175  47.721 -33.247  1.00  0.00     0.247 P 
HETATM   42  O4  UNL     1      -5.092  47.868 -34.416  1.00  0.00    -0.653 OA
BRANCH  41  43
HETATM   43  O5  UNL     1      -4.403  48.845 -32.128  1.00  0.00    -0.329 OA
HETATM   44  H11 UNL     1      -3.953  48.709 -31.270  1.00  0.00     0.220 HD
ENDBRANCH  41  43
BRANCH  41  45
HETATM   45  O6  UNL     1      -2.658  48.028 -33.647  1.00  0.00    -0.329 OA
HETATM   46  H12 UNL     1      -2.595  48.808 -34.234  1.00  0.00     0.220 HD
ENDBRANCH  41  45
ENDBRANCH  40  41
ENDBRANCH  36  40
ENDBRANCH  35  36
ENDBRANCH  34  35
ENDBRANCH  33  34
ENDBRANCH  31  33
ENDBRANCH  30  31
ENDBRANCH  29  30
ENDBRANCH   1  29
TORSDOF 16
ENDMDL
