MODEL 1
REMARK minimizedAffinity -8.80958939
REMARK  1 active torsions:
REMARK  status: ('A' for Active; 'I' for Inactive)
REMARK    1  A    between atoms: O1_2  and  C2_3 
ROOT
HETATM    1  C2  UNL     1      -3.213  52.073 -24.530  1.00  0.00     0.103 A 
HETATM    2  C3  UNL     1      -4.497  51.549 -24.745  1.00  0.00     0.070 A 
HETATM    3  C4  UNL     1      -5.294  51.076 -23.701  1.00  0.00     0.049 A 
HETATM    4  N1  UNL     1      -6.522  50.607 -23.959  1.00  0.00    -0.351 N 
ATOM      5  H1  UNL     1      -6.893  50.577 -24.909  1.00  0.00     0.166 HD
HETATM    6  C5  UNL     1      -7.242  50.179 -22.911  1.00  0.00     0.182 A 
HETATM    7  N2  UNL     1      -6.842  50.128 -21.633  1.00  0.00    -0.342 N 
ATOM      8  H2  UNL     1      -7.445  49.780 -20.888  1.00  0.00     0.167 HD
HETATM    9  C6  UNL     1      -5.595  50.566 -21.399  1.00  0.00     0.098 A 
HETATM   10  C7  UNL     1      -4.782  51.111 -22.403  1.00  0.00     0.032 A 
HETATM   11  C8  UNL     1      -3.525  51.688 -22.171  1.00  0.00     0.056 A 
HETATM   12  C9  UNL     1      -2.735  52.132 -23.220  1.00  0.00     0.103 A 
HETATM   13  O2  UNL     1      -1.534  52.694 -22.877  1.00  0.00    -0.348 OA
HETATM   14  C10 UNL     1      -0.438  51.813 -23.155  1.00  0.00     0.176 C 
HETATM   15  C11 UNL     1       0.730  52.179 -22.234  1.00  0.00     0.027 C 
HETATM   16  C12 UNL     1       0.743  51.470 -20.869  1.00  0.00     0.004 C 
HETATM   17  C13 UNL     1      -0.541  51.626 -20.050  1.00  0.00     0.019 C 
HETATM   18  C14 UNL     1      -0.380  51.098 -18.617  1.00  0.00     0.117 C 
HETATM   19  N3  UNL     1      -1.546  51.297 -17.749  1.00  0.00    -0.413 N 
HETATM   20  C15 UNL     1      -1.292  50.949 -16.359  1.00  0.00     0.143 C 
HETATM   21  C16 UNL     1      -2.876  50.899 -18.239  1.00  0.00     0.156 C 
HETATM   22  C17 UNL     1      -3.099  49.525 -18.857  1.00  0.00    -0.019 A 
HETATM   23  C18 UNL     1      -2.315  48.412 -18.502  1.00  0.00     0.012 A 
HETATM   24  C19 UNL     1      -2.517  47.155 -19.079  1.00  0.00     0.020 A 
HETATM   25  C20 UNL     1      -3.531  46.981 -20.008  1.00  0.00     0.012 A 
HETATM   26 BR1  UNL     1      -3.815  45.282 -20.784  1.00  0.00    -0.051 Br
HETATM   27  C21 UNL     1      -4.354  48.047 -20.353  1.00  0.00     0.043 A 
HETATM   28  C22 UNL     1      -4.152  49.324 -19.788  1.00  0.00     0.023 A 
HETATM   29  N4  UNL     1      -5.096  50.374 -20.075  1.00  0.00    -0.244 NA
HETATM   30  H25 UNL     1      -5.950  50.089 -19.584  1.00  0.00     0.135 HD
ENDROOT
BRANCH   1  31
HETATM   31  O1  UNL     1      -2.382  52.554 -25.505  1.00  0.00    -0.353 OA
HETATM   32  C1  UNL     1      -2.572  52.062 -26.825  1.00  0.00     0.210 C 
ENDBRANCH   1  31
TORSDOF 1
ENDMDL
MODEL 2
REMARK minimizedAffinity -7.81314754
REMARK  1 active torsions:
REMARK  status: ('A' for Active; 'I' for Inactive)
REMARK    1  A    between atoms: O1_2  and  C2_3 
ROOT
HETATM    1  C2  UNL     1       0.235  52.116 -21.631  1.00  0.00     0.103 A 
HETATM    2  C3  UNL     1       0.069  51.381 -20.447  1.00  0.00     0.070 A 
HETATM    3  C4  UNL     1      -0.587  50.148 -20.419  1.00  0.00     0.049 A 
HETATM    4  N1  UNL     1      -0.698  49.478 -19.265  1.00  0.00    -0.351 N 
ATOM      5  H1  UNL     1      -0.321  49.849 -18.394  1.00  0.00     0.166 HD
HETATM    6  C5  UNL     1      -1.329  48.294 -19.309  1.00  0.00     0.182 A 
HETATM    7  N2  UNL     1      -1.902  47.732 -20.381  1.00  0.00    -0.342 N 
ATOM      8  H2  UNL     1      -2.373  46.829 -20.335  1.00  0.00     0.167 HD
HETATM    9  C6  UNL     1      -1.815  48.437 -21.520  1.00  0.00     0.098 A 
HETATM   10  C7  UNL     1      -1.110  49.645 -21.611  1.00  0.00     0.032 A 
HETATM   11  C8  UNL     1      -0.895  50.343 -22.809  1.00  0.00     0.056 A 
HETATM   12  C9  UNL     1      -0.263  51.577 -22.817  1.00  0.00     0.103 A 
HETATM   13  O2  UNL     1      -0.092  52.160 -24.044  1.00  0.00    -0.348 OA
HETATM   14  C10 UNL     1      -1.004  53.248 -24.246  1.00  0.00     0.176 C 
HETATM   15  C11 UNL     1      -1.211  53.440 -25.752  1.00  0.00     0.027 C 
HETATM   16  C12 UNL     1      -2.346  52.611 -26.374  1.00  0.00     0.004 C 
HETATM   17  C13 UNL     1      -2.256  51.104 -26.123  1.00  0.00     0.019 C 
HETATM   18  C14 UNL     1      -3.278  50.316 -26.956  1.00  0.00     0.117 C 
HETATM   19  N3  UNL     1      -3.187  48.858 -26.830  1.00  0.00    -0.413 N 
HETATM   20  C15 UNL     1      -4.045  48.147 -27.765  1.00  0.00     0.143 C 
HETATM   21  C16 UNL     1      -3.131  48.260 -25.485  1.00  0.00     0.156 C 
HETATM   22  C17 UNL     1      -4.131  48.667 -24.411  1.00  0.00    -0.019 A 
HETATM   23  C18 UNL     1      -5.422  49.127 -24.729  1.00  0.00     0.012 A 
HETATM   24  C19 UNL     1      -6.333  49.509 -23.740  1.00  0.00     0.020 A 
HETATM   25  C20 UNL     1      -5.975  49.412 -22.404  1.00  0.00     0.012 A 
HETATM   26 BR1  UNL     1      -7.205  49.918 -21.063  1.00  0.00    -0.051 Br
HETATM   27  C21 UNL     1      -4.723  48.923 -22.049  1.00  0.00     0.043 A 
HETATM   28  C22 UNL     1      -3.791  48.547 -23.038  1.00  0.00     0.023 A 
HETATM   29  N4  UNL     1      -2.552  47.932 -22.635  1.00  0.00    -0.244 NA
HETATM   30  H25 UNL     1      -2.829  47.009 -22.283  1.00  0.00     0.135 HD
ENDROOT
BRANCH   1  31
HETATM   31  O1  UNL     1       0.868  53.325 -21.727  1.00  0.00    -0.353 OA
HETATM   32  C1  UNL     1       1.051  54.064 -20.527  1.00  0.00     0.210 C 
ENDBRANCH   1  31
TORSDOF 1
ENDMDL
MODEL 3
REMARK minimizedAffinity -7.70016479
REMARK  1 active torsions:
REMARK  status: ('A' for Active; 'I' for Inactive)
REMARK    1  A    between atoms: O1_2  and  C2_3 
ROOT
HETATM    1  C2  UNL     1       6.832  67.229 -37.562  1.00  0.00     0.103 A 
HETATM    2  C3  UNL     1       6.571  66.706 -36.286  1.00  0.00     0.070 A 
HETATM    3  C4  UNL     1       5.324  66.185 -35.934  1.00  0.00     0.049 A 
HETATM    4  N1  UNL     1       5.136  65.677 -34.710  1.00  0.00    -0.351 N 
ATOM      5  H1  UNL     1       5.882  65.667 -34.015  1.00  0.00     0.166 HD
HETATM    6  C5  UNL     1       3.918  65.181 -34.438  1.00  0.00     0.182 A 
HETATM    7  N2  UNL     1       2.855  65.183 -35.252  1.00  0.00    -0.342 N 
ATOM      8  H2  UNL     1       1.955  64.793 -34.971  1.00  0.00     0.167 HD
HETATM    9  C6  UNL     1       3.052  65.731 -36.461  1.00  0.00     0.098 A 
HETATM   10  C7  UNL     1       4.301  66.206 -36.883  1.00  0.00     0.032 A 
HETATM   11  C8  UNL     1       4.569  66.671 -38.179  1.00  0.00     0.056 A 
HETATM   12  C9  UNL     1       5.806  67.208 -38.507  1.00  0.00     0.103 A 
HETATM   13  O2  UNL     1       5.962  67.615 -39.805  1.00  0.00    -0.348 OA
HETATM   14  C10 UNL     1       5.932  69.044 -39.920  1.00  0.00     0.176 C 
HETATM   15  C11 UNL     1       5.492  69.411 -41.341  1.00  0.00     0.027 C 
HETATM   16  C12 UNL     1       3.974  69.544 -41.548  1.00  0.00     0.004 C 
HETATM   17  C13 UNL     1       3.157  68.320 -41.128  1.00  0.00     0.019 C 
HETATM   18  C14 UNL     1       1.690  68.424 -41.571  1.00  0.00     0.117 C 
HETATM   19  N3  UNL     1       0.869  67.244 -41.278  1.00  0.00    -0.413 N 
HETATM   20  C15 UNL     1      -0.458  67.308 -41.870  1.00  0.00     0.143 C 
HETATM   21  C16 UNL     1       0.900  66.673 -39.921  1.00  0.00     0.156 C 
HETATM   22  C17 UNL     1       0.726  67.565 -38.698  1.00  0.00    -0.019 A 
HETATM   23  C18 UNL     1      -0.008  68.765 -38.748  1.00  0.00     0.012 A 
HETATM   24  C19 UNL     1      -0.157  69.584 -37.625  1.00  0.00     0.020 A 
HETATM   25  C20 UNL     1       0.407  69.203 -36.417  1.00  0.00     0.012 A 
HETATM   26 BR1  UNL     1       0.201  70.301 -34.895  1.00  0.00    -0.051 Br
HETATM   27  C21 UNL     1       1.104  68.003 -36.319  1.00  0.00     0.043 A 
HETATM   28  C22 UNL     1       1.272  67.174 -37.447  1.00  0.00     0.023 A 
HETATM   29  N4  UNL     1       1.893  65.885 -37.282  1.00  0.00    -0.244 NA
HETATM   30  H25 UNL     1       1.205  65.337 -36.753  1.00  0.00     0.135 HD
ENDROOT
BRANCH   1  31
HETATM   31  O1  UNL     1       8.028  67.752 -37.972  1.00  0.00    -0.353 OA
HETATM   32  C1  UNL     1       8.651  68.704 -37.120  1.00  0.00     0.210 C 
ENDBRANCH   1  31
TORSDOF 1
ENDMDL
MODEL 4
REMARK minimizedAffinity -7.44105673
REMARK  1 active torsions:
REMARK  status: ('A' for Active; 'I' for Inactive)
REMARK    1  A    between atoms: O1_2  and  C2_3 
ROOT
HETATM    1  C2  UNL     1      -5.806  47.449 -30.149  1.00  0.00     0.103 A 
HETATM    2  C3  UNL     1      -6.937  46.772 -30.631  1.00  0.00     0.070 A 
HETATM    3  C4  UNL     1      -8.106  46.642 -29.877  1.00  0.00     0.049 A 
HETATM    4  N1  UNL     1      -9.165  46.006 -30.394  1.00  0.00    -0.351 N 
ATOM      5  H1  UNL     1      -9.140  45.600 -31.329  1.00  0.00     0.166 HD
HETATM    6  C5  UNL     1     -10.261  45.925 -29.623  1.00  0.00     0.182 A 
HETATM    7  N2  UNL     1     -10.391  46.377 -28.369  1.00  0.00    -0.342 N 
ATOM      8  H2  UNL     1     -11.257  46.272 -27.841  1.00  0.00     0.167 HD
HETATM    9  C6  UNL     1      -9.307  46.978 -27.854  1.00  0.00     0.098 A 
HETATM   10  C7  UNL     1      -8.136  47.190 -28.594  1.00  0.00     0.032 A 
HETATM   11  C8  UNL     1      -7.032  47.921 -28.128  1.00  0.00     0.056 A 
HETATM   12  C9  UNL     1      -5.870  48.021 -28.878  1.00  0.00     0.103 A 
HETATM   13  O2  UNL     1      -4.863  48.772 -28.334  1.00  0.00    -0.348 OA
HETATM   14  C10 UNL     1      -3.804  47.950 -27.825  1.00  0.00     0.176 C 
HETATM   15  C11 UNL     1      -3.063  48.727 -26.732  1.00  0.00     0.027 C 
HETATM   16  C12 UNL     1      -3.627  48.566 -25.310  1.00  0.00     0.004 C 
HETATM   17  C13 UNL     1      -5.114  48.895 -25.165  1.00  0.00     0.019 C 
HETATM   18  C14 UNL     1      -5.556  48.939 -23.695  1.00  0.00     0.117 C 
HETATM   19  N3  UNL     1      -6.951  49.336 -23.479  1.00  0.00    -0.413 N 
HETATM   20  C15 UNL     1      -7.279  49.540 -22.077  1.00  0.00     0.143 C 
HETATM   21  C16 UNL     1      -8.011  48.673 -24.258  1.00  0.00     0.156 C 
HETATM   22  C17 UNL     1      -8.065  47.154 -24.362  1.00  0.00    -0.019 A 
HETATM   23  C18 UNL     1      -7.553  46.319 -23.351  1.00  0.00     0.012 A 
HETATM   24  C19 UNL     1      -7.597  44.926 -23.455  1.00  0.00     0.020 A 
HETATM   25  C20 UNL     1      -8.180  44.338 -24.567  1.00  0.00     0.012 A 
HETATM   26 BR1  UNL     1      -8.250  42.456 -24.708  1.00  0.00    -0.051 Br
HETATM   27  C21 UNL     1      -8.735  45.130 -25.566  1.00  0.00     0.043 A 
HETATM   28  C22 UNL     1      -8.685  46.537 -25.479  1.00  0.00     0.023 A 
HETATM   29  N4  UNL     1      -9.374  47.324 -26.470  1.00  0.00    -0.244 NA
HETATM   30  H25 UNL     1     -10.368  47.163 -26.276  1.00  0.00     0.135 HD
ENDROOT
BRANCH   1  31
HETATM   31  O1  UNL     1      -4.633  47.614 -30.835  1.00  0.00    -0.353 OA
HETATM   32  C1  UNL     1      -4.543  47.025 -32.125  1.00  0.00     0.210 C 
ENDBRANCH   1  31
TORSDOF 1
ENDMDL
MODEL 5
REMARK minimizedAffinity -7.43324661
REMARK  1 active torsions:
REMARK  status: ('A' for Active; 'I' for Inactive)
REMARK    1  A    between atoms: O1_2  and  C2_3 
ROOT
HETATM    1  C2  UNL     1      -0.134  50.435 -18.007  1.00  0.00     0.103 A 
HETATM    2  C3  UNL     1      -0.657  49.534 -17.066  1.00  0.00     0.070 A 
HETATM    3  C4  UNL     1      -1.458  48.452 -17.435  1.00  0.00     0.049 A 
HETATM    4  N1  UNL     1      -1.912  47.608 -16.499  1.00  0.00    -0.351 N 
ATOM      5  H1  UNL     1      -1.694  47.740 -15.512  1.00  0.00     0.166 HD
HETATM    6  C5  UNL     1      -2.667  46.582 -16.921  1.00  0.00     0.182 A 
HETATM    7  N2  UNL     1      -3.053  46.338 -18.180  1.00  0.00    -0.342 N 
ATOM      8  H2  UNL     1      -3.638  45.538 -18.424  1.00  0.00     0.167 HD
HETATM    9  C6  UNL     1      -2.621  47.216 -19.099  1.00  0.00     0.098 A 
HETATM   10  C7  UNL     1      -1.762  48.278 -18.786  1.00  0.00     0.032 A 
HETATM   11  C8  UNL     1      -1.195  49.137 -19.739  1.00  0.00     0.056 A 
HETATM   12  C9  UNL     1      -0.420  50.222 -19.355  1.00  0.00     0.103 A 
HETATM   13  O2  UNL     1       0.096  50.984 -20.369  1.00  0.00    -0.348 OA
HETATM   14  C10 UNL     1      -0.596  52.232 -20.500  1.00  0.00     0.176 C 
HETATM   15  C11 UNL     1      -0.433  52.734 -21.938  1.00  0.00     0.027 C 
HETATM   16  C12 UNL     1      -1.500  52.245 -22.933  1.00  0.00     0.004 C 
HETATM   17  C13 UNL     1      -1.666  50.726 -23.004  1.00  0.00     0.019 C 
HETATM   18  C14 UNL     1      -2.570  50.297 -24.170  1.00  0.00     0.117 C 
HETATM   19  N3  UNL     1      -2.701  48.848 -24.351  1.00  0.00    -0.413 N 
HETATM   20  C15 UNL     1      -3.414  48.484 -25.566  1.00  0.00     0.143 C 
HETATM   21  C16 UNL     1      -3.028  48.010 -23.184  1.00  0.00     0.156 C 
HETATM   22  C17 UNL     1      -4.180  48.379 -22.259  1.00  0.00    -0.019 A 
HETATM   23  C18 UNL     1      -5.296  49.108 -22.712  1.00  0.00     0.012 A 
HETATM   24  C19 UNL     1      -6.346  49.452 -21.857  1.00  0.00     0.020 A 
HETATM   25  C20 UNL     1      -6.313  49.049 -20.531  1.00  0.00     0.012 A 
HETATM   26 BR1  UNL     1      -7.735  49.504 -19.374  1.00  0.00    -0.051 Br
HETATM   27  C21 UNL     1      -5.248  48.291 -20.057  1.00  0.00     0.043 A 
HETATM   28  C22 UNL     1      -4.175  47.949 -20.907  1.00  0.00     0.023 A 
HETATM   29  N4  UNL     1      -3.150  47.063 -20.417  1.00  0.00    -0.244 NA
HETATM   30  H25 UNL     1      -3.617  46.153 -20.335  1.00  0.00     0.135 HD
ENDROOT
BRANCH   1  31
HETATM   31  O1  UNL     1       0.657  51.513 -17.713  1.00  0.00    -0.353 OA
HETATM   32  C1  UNL     1       1.184  51.596 -16.396  1.00  0.00     0.210 C 
ENDBRANCH   1  31
TORSDOF 1
ENDMDL
MODEL 6
REMARK minimizedAffinity -7.41871881
REMARK  1 active torsions:
REMARK  status: ('A' for Active; 'I' for Inactive)
REMARK    1  A    between atoms: O1_2  and  C2_3 
ROOT
HETATM    1  C2  UNL     1      -6.937  47.517 -33.095  1.00  0.00     0.103 A 
HETATM    2  C3  UNL     1      -7.720  46.970 -34.123  1.00  0.00     0.070 A 
HETATM    3  C4  UNL     1      -9.061  46.627 -33.937  1.00  0.00     0.049 A 
HETATM    4  N1  UNL     1      -9.770  46.129 -34.959  1.00  0.00    -0.351 N 
ATOM      5  H1  UNL     1      -9.351  45.983 -35.878  1.00  0.00     0.166 HD
HETATM    6  C5  UNL     1     -11.056  45.831 -34.719  1.00  0.00     0.182 A 
HETATM    7  N2  UNL     1     -11.695  45.937 -33.546  1.00  0.00    -0.342 N 
ATOM      8  H2  UNL     1     -12.677  45.682 -33.438  1.00  0.00     0.167 HD
HETATM    9  C6  UNL     1     -10.959  46.400 -32.525  1.00  0.00     0.098 A 
HETATM   10  C7  UNL     1      -9.630  46.819 -32.678  1.00  0.00     0.032 A 
HETATM   11  C8  UNL     1      -8.873  47.422 -31.662  1.00  0.00     0.056 A 
HETATM   12  C9  UNL     1      -7.535  47.735 -31.853  1.00  0.00     0.103 A 
HETATM   13  O2  UNL     1      -6.898  48.335 -30.800  1.00  0.00    -0.348 OA
HETATM   14  C10 UNL     1      -6.016  47.427 -30.128  1.00  0.00     0.176 C 
HETATM   15  C11 UNL     1      -5.831  47.904 -28.683  1.00  0.00     0.027 C 
HETATM   16  C12 UNL     1      -6.860  47.366 -27.674  1.00  0.00     0.004 C 
HETATM   17  C13 UNL     1      -8.322  47.620 -28.047  1.00  0.00     0.019 C 
HETATM   18  C14 UNL     1      -9.281  47.271 -26.899  1.00  0.00     0.117 C 
HETATM   19  N3  UNL     1     -10.692  47.573 -27.158  1.00  0.00    -0.413 N 
HETATM   20  C15 UNL     1     -11.540  47.397 -25.988  1.00  0.00     0.143 C 
HETATM   21  C16 UNL     1     -11.301  47.118 -28.419  1.00  0.00     0.156 C 
HETATM   22  C17 UNL     1     -11.134  45.679 -28.889  1.00  0.00    -0.019 A 
HETATM   23  C18 UNL     1     -10.940  44.617 -27.985  1.00  0.00     0.012 A 
HETATM   24  C19 UNL     1     -10.778  43.299 -28.421  1.00  0.00     0.020 A 
HETATM   25  C20 UNL     1     -10.833  43.013 -29.776  1.00  0.00     0.012 A 
HETATM   26 BR1  UNL     1     -10.624  41.232 -30.370  1.00  0.00    -0.051 Br
HETATM   27  C21 UNL     1     -11.065  44.029 -30.697  1.00  0.00     0.043 A 
HETATM   28  C22 UNL     1     -11.217  45.365 -30.270  1.00  0.00     0.023 A 
HETATM   29  N4  UNL     1     -11.576  46.372 -31.236  1.00  0.00    -0.244 NA
HETATM   30  H25 UNL     1     -12.544  46.148 -31.489  1.00  0.00     0.135 HD
ENDROOT
BRANCH   1  31
HETATM   31  O1  UNL     1      -5.621  47.876 -33.210  1.00  0.00    -0.353 OA
HETATM   32  C1  UNL     1      -5.134  48.158 -34.514  1.00  0.00     0.210 C 
ENDBRANCH   1  31
TORSDOF 1
ENDMDL
MODEL 7
REMARK minimizedAffinity -7.28972244
REMARK  1 active torsions:
REMARK  status: ('A' for Active; 'I' for Inactive)
REMARK    1  A    between atoms: O1_2  and  C2_3 
ROOT
HETATM    1  C2  UNL     1      -0.376  50.007 -18.630  1.00  0.00     0.103 A 
HETATM    2  C3  UNL     1      -1.153  48.904 -18.245  1.00  0.00     0.070 A 
HETATM    3  C4  UNL     1      -1.786  48.076 -19.175  1.00  0.00     0.049 A 
HETATM    4  N1  UNL     1      -2.497  47.023 -18.754  1.00  0.00    -0.351 N 
ATOM      5  H1  UNL     1      -2.599  46.809 -17.762  1.00  0.00     0.166 HD
HETATM    6  C5  UNL     1      -3.072  46.261 -19.698  1.00  0.00     0.182 A 
HETATM    7  N2  UNL     1      -3.045  46.471 -21.020  1.00  0.00    -0.342 N 
ATOM      8  H2  UNL     1      -3.515  45.850 -21.679  1.00  0.00     0.167 HD
HETATM    9  C6  UNL     1      -2.360  47.554 -21.421  1.00  0.00     0.098 A 
HETATM   10  C7  UNL     1      -1.653  48.375 -20.531  1.00  0.00     0.032 A 
HETATM   11  C8  UNL     1      -0.829  49.439 -20.928  1.00  0.00     0.056 A 
HETATM   12  C9  UNL     1      -0.226  50.266 -19.993  1.00  0.00     0.103 A 
HETATM   13  O2  UNL     1       0.570  51.262 -20.492  1.00  0.00    -0.348 OA
HETATM   14  C10 UNL     1      -0.063  52.544 -20.398  1.00  0.00     0.176 C 
HETATM   15  C11 UNL     1       0.532  53.464 -21.469  1.00  0.00     0.027 C 
HETATM   16  C12 UNL     1      -0.166  53.422 -22.838  1.00  0.00     0.004 C 
HETATM   17  C13 UNL     1      -0.283  52.028 -23.459  1.00  0.00     0.019 C 
HETATM   18  C14 UNL     1      -0.775  52.082 -24.913  1.00  0.00     0.117 C 
HETATM   19  N3  UNL     1      -0.826  50.786 -25.598  1.00  0.00    -0.413 N 
HETATM   20  C15 UNL     1      -1.122  50.900 -27.018  1.00  0.00     0.143 C 
HETATM   21  C16 UNL     1      -1.488  49.652 -24.931  1.00  0.00     0.156 C 
HETATM   22  C17 UNL     1      -2.875  49.810 -24.322  1.00  0.00    -0.019 A 
HETATM   23  C18 UNL     1      -3.804  50.745 -24.815  1.00  0.00     0.012 A 
HETATM   24  C19 UNL     1      -5.072  50.893 -24.247  1.00  0.00     0.020 A 
HETATM   25  C20 UNL     1      -5.448  50.083 -23.185  1.00  0.00     0.012 A 
HETATM   26 BR1  UNL     1      -7.164  50.271 -22.420  1.00  0.00    -0.051 Br
HETATM   27  C21 UNL     1      -4.573  49.118 -22.699  1.00  0.00     0.043 A 
HETATM   28  C22 UNL     1      -3.285  48.969 -23.255  1.00  0.00     0.023 A 
HETATM   29  N4  UNL     1      -2.451  47.882 -22.808  1.00  0.00    -0.244 NA
HETATM   30  H25 UNL     1      -2.909  47.042 -23.177  1.00  0.00     0.135 HD
ENDROOT
BRANCH   1  31
HETATM   31  O1  UNL     1       0.272  50.855 -17.773  1.00  0.00    -0.353 OA
HETATM   32  C1  UNL     1      -0.242  50.966 -16.453  1.00  0.00     0.210 C 
ENDBRANCH   1  31
TORSDOF 1
ENDMDL
MODEL 8
REMARK minimizedAffinity -7.21487856
REMARK  1 active torsions:
REMARK  status: ('A' for Active; 'I' for Inactive)
REMARK    1  A    between atoms: O1_2  and  C2_3 
ROOT
HETATM    1  C2  UNL     1     -11.136  43.470 -30.413  1.00  0.00     0.103 A 
HETATM    2  C3  UNL     1     -11.964  44.320 -29.664  1.00  0.00     0.070 A 
HETATM    3  C4  UNL     1     -11.716  45.690 -29.546  1.00  0.00     0.049 A 
HETATM    4  N1  UNL     1     -12.552  46.460 -28.838  1.00  0.00    -0.351 N 
ATOM      5  H1  UNL     1     -13.369  46.070 -28.369  1.00  0.00     0.166 HD
HETATM    6  C5  UNL     1     -12.263  47.770 -28.773  1.00  0.00     0.182 A 
HETATM    7  N2  UNL     1     -11.197  48.381 -29.306  1.00  0.00    -0.342 N 
ATOM      8  H2  UNL     1     -11.040  49.384 -29.207  1.00  0.00     0.167 HD
HETATM    9  C6  UNL     1     -10.350  47.586 -29.979  1.00  0.00     0.098 A 
HETATM   10  C7  UNL     1     -10.592  46.220 -30.181  1.00  0.00     0.032 A 
HETATM   11  C8  UNL     1      -9.793  45.390 -30.981  1.00  0.00     0.056 A 
HETATM   12  C9  UNL     1     -10.038  44.027 -31.069  1.00  0.00     0.103 A 
HETATM   13  O2  UNL     1      -9.206  43.316 -31.892  1.00  0.00    -0.348 OA
HETATM   14  C10 UNL     1      -8.264  42.534 -31.146  1.00  0.00     0.176 C 
HETATM   15  C11 UNL     1      -7.034  42.283 -32.023  1.00  0.00     0.027 C 
HETATM   16  C12 UNL     1      -5.934  43.355 -31.941  1.00  0.00     0.004 C 
HETATM   17  C13 UNL     1      -6.404  44.783 -32.227  1.00  0.00     0.019 C 
HETATM   18  C14 UNL     1      -5.228  45.763 -32.358  1.00  0.00     0.117 C 
HETATM   19  N3  UNL     1      -5.603  47.134 -32.719  1.00  0.00    -0.413 N 
HETATM   20  C15 UNL     1      -4.458  47.984 -33.009  1.00  0.00     0.143 C 
HETATM   21  C16 UNL     1      -6.677  47.803 -31.966  1.00  0.00     0.156 C 
HETATM   22  C17 UNL     1      -6.675  47.804 -30.443  1.00  0.00    -0.019 A 
HETATM   23  C18 UNL     1      -5.483  47.722 -29.699  1.00  0.00     0.012 A 
HETATM   24  C19 UNL     1      -5.486  47.714 -28.301  1.00  0.00     0.020 A 
HETATM   25  C20 UNL     1      -6.688  47.815 -27.617  1.00  0.00     0.012 A 
HETATM   26 BR1  UNL     1      -6.698  47.814 -25.728  1.00  0.00    -0.051 Br
HETATM   27  C21 UNL     1      -7.883  47.941 -28.317  1.00  0.00     0.043 A 
HETATM   28  C22 UNL     1      -7.894  47.936 -29.728  1.00  0.00     0.023 A 
HETATM   29  N4  UNL     1      -9.132  48.189 -30.419  1.00  0.00    -0.244 NA
HETATM   30  H25 UNL     1      -9.328  49.179 -30.237  1.00  0.00     0.135 HD
ENDROOT
BRANCH   1  31
HETATM   31  O1  UNL     1     -11.323  42.124 -30.571  1.00  0.00    -0.353 OA
HETATM   32  C1  UNL     1     -11.714  41.380 -29.425  1.00  0.00     0.210 C 
ENDBRANCH   1  31
TORSDOF 1
ENDMDL
MODEL 9
REMARK minimizedAffinity -7.20896482
REMARK  1 active torsions:
REMARK  status: ('A' for Active; 'I' for Inactive)
REMARK    1  A    between atoms: O1_2  and  C2_3 
ROOT
HETATM    1  C2  UNL     1       0.516  52.501 -18.586  1.00  0.00     0.103 A 
HETATM    2  C3  UNL     1       1.501  52.907 -17.673  1.00  0.00     0.070 A 
HETATM    3  C4  UNL     1       1.795  52.177 -16.519  1.00  0.00     0.049 A 
HETATM    4  N1  UNL     1       2.762  52.596 -15.693  1.00  0.00    -0.351 N 
ATOM      5  H1  UNL     1       3.291  53.448 -15.879  1.00  0.00     0.166 HD
HETATM    6  C5  UNL     1       3.003  51.844 -14.608  1.00  0.00     0.182 A 
HETATM    7  N2  UNL     1       2.343  50.737 -14.240  1.00  0.00    -0.342 N 
ATOM      8  H2  UNL     1       2.579  50.221 -13.393  1.00  0.00     0.167 HD
HETATM    9  C6  UNL     1       1.352  50.354 -15.060  1.00  0.00     0.098 A 
HETATM   10  C7  UNL     1       1.065  51.016 -16.262  1.00  0.00     0.032 A 
HETATM   11  C8  UNL     1       0.120  50.570 -17.198  1.00  0.00     0.056 A 
HETATM   12  C9  UNL     1      -0.177  51.318 -18.328  1.00  0.00     0.103 A 
HETATM   13  O2  UNL     1      -1.102  50.780 -19.182  1.00  0.00    -0.348 OA
HETATM   14  C10 UNL     1      -2.366  51.450 -19.086  1.00  0.00     0.176 C 
HETATM   15  C11 UNL     1      -3.467  50.486 -19.539  1.00  0.00     0.027 C 
HETATM   16  C12 UNL     1      -4.060  49.593 -18.435  1.00  0.00     0.004 C 
HETATM   17  C13 UNL     1      -3.034  48.768 -17.654  1.00  0.00     0.019 C 
HETATM   18  C14 UNL     1      -3.704  47.736 -16.734  1.00  0.00     0.117 C 
HETATM   19  N3  UNL     1      -2.778  46.851 -16.021  1.00  0.00    -0.413 N 
HETATM   20  C15 UNL     1      -3.449  45.777 -15.304  1.00  0.00     0.143 C 
HETATM   21  C16 UNL     1      -1.639  47.442 -15.297  1.00  0.00     0.156 C 
HETATM   22  C17 UNL     1      -1.846  48.613 -14.345  1.00  0.00    -0.019 A 
HETATM   23  C18 UNL     1      -3.064  48.819 -13.670  1.00  0.00     0.012 A 
HETATM   24  C19 UNL     1      -3.252  49.900 -12.805  1.00  0.00     0.020 A 
HETATM   25  C20 UNL     1      -2.211  50.787 -12.577  1.00  0.00     0.012 A 
HETATM   26 BR1  UNL     1      -2.457  52.245 -11.402  1.00  0.00    -0.051 Br
HETATM   27  C21 UNL     1      -0.979  50.592 -13.194  1.00  0.00     0.043 A 
HETATM   28  C22 UNL     1      -0.781  49.513 -14.079  1.00  0.00     0.023 A 
HETATM   29  N4  UNL     1       0.538  49.272 -14.605  1.00  0.00    -0.244 NA
HETATM   30  H25 UNL     1       1.079  48.948 -13.796  1.00  0.00     0.135 HD
ENDROOT
BRANCH   1  31
HETATM   31  O1  UNL     1       0.181  53.167 -19.734  1.00  0.00    -0.353 OA
HETATM   32  C1  UNL     1       1.242  53.718 -20.502  1.00  0.00     0.210 C 
ENDBRANCH   1  31
TORSDOF 1
ENDMDL
