MODEL 1
REMARK minimizedAffinity -9.59805584
REMARK CNNscore 0.83085382
REMARK CNNaffinity 7.22224188
REMARK  4 active torsions:
REMARK  status: ('A' for Active; 'I' for Inactive)
REMARK    1  A    between atoms: O1_2  and  C2_3 
REMARK    2  A    between atoms: C6_7  and  N1_8 
REMARK    3  A    between atoms: N1_8  and  C7_9 
REMARK    4  A    between atoms: C10_16  and  C11_17 
ROOT
HETATM    1  C7  UNL     1       0.766  52.955 -19.131  1.00  0.00     0.697 A 
HETATM    2  N2  UNL     1       1.295  53.954 -19.858  1.00  0.00    -0.131 N 
ATOM      3  H2  UNL     1       1.779  54.721 -19.390  1.00  0.00     0.205 HD
HETATM    4  N3  UNL     1       1.190  53.950 -21.220  1.00  0.00    -0.284 N 
ATOM      5  H3  UNL     1       1.593  54.709 -21.770  1.00  0.00     0.187 HD
HETATM    6  C8  UNL     1       0.554  52.942 -21.824  1.00  0.00     0.077 A 
HETATM    7  C9  UNL     1       0.433  52.915 -23.210  1.00  0.00     0.045 A 
HETATM    8  C10 UNL     1      -0.228  51.873 -23.868  1.00  0.00    -0.020 A 
HETATM    9  C17 UNL     1      -0.770  50.845 -23.092  1.00  0.00     0.021 A 
HETATM   10  C18 UNL     1      -0.653  50.862 -21.691  1.00  0.00    -0.032 A 
HETATM   11  C19 UNL     1      -1.248  49.738 -20.886  1.00  0.00     0.050 C 
HETATM   12  C20 UNL     1       0.011  51.912 -21.043  1.00  0.00     0.083 A 
HETATM   13  N4  UNL     1       0.121  51.924 -19.700  1.00  0.00    -0.188 N 
ATOM     14  H4  UNL     1      -0.273  51.173 -19.133  1.00  0.00     0.184 HD
ENDROOT
BRANCH   1  15
HETATM   15  N1  UNL     1       0.840  52.906 -17.740  1.00  0.00    -0.190 N 
HETATM   16  H7  UNL     1      -0.008  53.293 -17.353  1.00  0.00     0.184 HD
BRANCH  15  17
HETATM   17  C6  UNL     1       1.797  52.438 -16.832  1.00  0.00     0.051 A 
HETATM   18  C5  UNL     1       3.106  52.941 -16.928  1.00  0.00     0.030 A 
HETATM   19  C4  UNL     1       4.112  52.516 -16.058  1.00  0.00     0.005 A 
HETATM   20  C3  UNL     1       3.822  51.577 -15.075  1.00  0.00     0.037 A 
HETATM   21  C2  UNL     1       2.533  51.058 -14.955  1.00  0.00     0.070 A 
HETATM   22  C21 UNL     1       1.532  51.489 -15.834  1.00  0.00     0.066 A 
BRANCH  21  23
HETATM   23  O1  UNL     1       2.381  50.141 -13.949  1.00  0.00    -0.356 OA
HETATM   24  C1  UNL     1       3.568  49.542 -13.442  1.00  0.00     0.210 C 
ENDBRANCH  21  23
ENDBRANCH  15  17
ENDBRANCH   1  15
BRANCH   8  25
HETATM   25  C11 UNL     1      -0.348  51.859 -25.335  1.00  0.00     0.018 A 
HETATM   26  C12 UNL     1       0.765  51.594 -26.161  1.00  0.00     0.046 A 
HETATM   27 CL1  UNL     1       2.330  51.258 -25.497  1.00  0.00    -0.083 Cl
HETATM   28  C13 UNL     1       0.651  51.584 -27.556  1.00  0.00     0.025 A 
HETATM   29  C14 UNL     1      -0.577  51.839 -28.161  1.00  0.00     0.003 A 
HETATM   30  C15 UNL     1      -1.691  52.103 -27.369  1.00  0.00     0.025 A 
HETATM   31  C16 UNL     1      -1.579  52.114 -25.974  1.00  0.00     0.046 A 
HETATM   32 CL2  UNL     1      -3.020  52.450 -25.071  1.00  0.00    -0.083 Cl
ENDBRANCH   8  25
TORSDOF 4
ENDMDL
MODEL 2
REMARK minimizedAffinity -9.57323265
REMARK CNNscore 0.830032468
REMARK CNNaffinity 7.22431183
REMARK  4 active torsions:
REMARK  status: ('A' for Active; 'I' for Inactive)
REMARK    1  A    between atoms: O1_2  and  C2_3 
REMARK    2  A    between atoms: C6_7  and  N1_8 
REMARK    3  A    between atoms: N1_8  and  C7_9 
REMARK    4  A    between atoms: C10_16  and  C11_17 
ROOT
HETATM    1  C7  UNL     1       0.752  52.934 -19.085  1.00  0.00     0.697 A 
HETATM    2  N2  UNL     1       1.254  53.951 -19.807  1.00  0.00    -0.131 N 
ATOM      3  H2  UNL     1       1.722  54.725 -19.336  1.00  0.00     0.205 HD
HETATM    4  N3  UNL     1       1.141  53.953 -21.169  1.00  0.00    -0.284 N 
ATOM      5  H3  UNL     1       1.524  54.726 -21.716  1.00  0.00     0.187 HD
HETATM    6  C8  UNL     1       0.526  52.936 -21.778  1.00  0.00     0.077 A 
HETATM    7  C9  UNL     1       0.399  52.916 -23.163  1.00  0.00     0.045 A 
HETATM    8  C10 UNL     1      -0.240  51.863 -23.825  1.00  0.00    -0.020 A 
HETATM    9  C17 UNL     1      -0.754  50.816 -23.054  1.00  0.00     0.021 A 
HETATM   10  C18 UNL     1      -0.630  50.826 -21.653  1.00  0.00    -0.032 A 
HETATM   11  C19 UNL     1      -1.194  49.683 -20.853  1.00  0.00     0.050 C 
HETATM   12  C20 UNL     1       0.012  51.887 -21.001  1.00  0.00     0.083 A 
HETATM   13  N4  UNL     1       0.128  51.892 -19.658  1.00  0.00    -0.188 N 
ATOM     14  H4  UNL     1      -0.245  51.128 -19.095  1.00  0.00     0.184 HD
ENDROOT
BRANCH   1  15
HETATM   15  N1  UNL     1       0.834  52.877 -17.695  1.00  0.00    -0.190 N 
HETATM   16  H7  UNL     1      -0.019  53.245 -17.301  1.00  0.00     0.184 HD
BRANCH  15  17
HETATM   17  C6  UNL     1       1.806  52.422 -16.795  1.00  0.00     0.051 A 
HETATM   18  C5  UNL     1       3.110  52.931 -16.912  1.00  0.00     0.030 A 
HETATM   19  C4  UNL     1       4.129  52.519 -16.051  1.00  0.00     0.005 A 
HETATM   20  C3  UNL     1       3.857  51.586 -15.057  1.00  0.00     0.037 A 
HETATM   21  C2  UNL     1       2.573  51.061 -14.917  1.00  0.00     0.070 A 
HETATM   22  C21 UNL     1       1.558  51.479 -15.786  1.00  0.00     0.066 A 
BRANCH  21  23
HETATM   23  O1  UNL     1       2.438  50.152 -13.901  1.00  0.00    -0.356 OA
HETATM   24  C1  UNL     1       3.610  49.443 -13.515  1.00  0.00     0.210 C 
ENDBRANCH  21  23
ENDBRANCH  15  17
ENDBRANCH   1  15
BRANCH   8  25
HETATM   25  C11 UNL     1      -0.368  51.857 -25.292  1.00  0.00     0.018 A 
HETATM   26  C12 UNL     1      -1.603  52.114 -25.923  1.00  0.00     0.046 A 
HETATM   27 CL1  UNL     1      -3.035  52.461 -25.011  1.00  0.00    -0.083 Cl
HETATM   28  C13 UNL     1      -1.724  52.105 -27.318  1.00  0.00     0.025 A 
HETATM   29  C14 UNL     1      -0.615  51.839 -28.116  1.00  0.00     0.003 A 
HETATM   30  C15 UNL     1       0.616  51.583 -27.519  1.00  0.00     0.025 A 
HETATM   31  C16 UNL     1       0.739  51.592 -26.124  1.00  0.00     0.046 A 
HETATM   32 CL2  UNL     1       2.311  51.264 -25.470  1.00  0.00    -0.083 Cl
ENDBRANCH   8  25
TORSDOF 4
ENDMDL
MODEL 3
REMARK minimizedAffinity -8.97107506
REMARK CNNscore 0.749468982
REMARK CNNaffinity 7.15632772
REMARK  4 active torsions:
REMARK  status: ('A' for Active; 'I' for Inactive)
REMARK    1  A    between atoms: O1_2  and  C2_3 
REMARK    2  A    between atoms: C6_7  and  N1_8 
REMARK    3  A    between atoms: N1_8  and  C7_9 
REMARK    4  A    between atoms: C10_16  and  C11_17 
ROOT
HETATM    1  C7  UNL     1       0.789  53.393 -22.394  1.00  0.00     0.697 A 
HETATM    2  N2  UNL     1       1.205  54.348 -21.543  1.00  0.00    -0.131 N 
ATOM      3  H2  UNL     1       1.545  55.238 -21.906  1.00  0.00     0.205 HD
HETATM    4  N3  UNL     1       1.173  54.132 -20.194  1.00  0.00    -0.284 N 
ATOM      5  H3  UNL     1       1.488  54.857 -19.549  1.00  0.00     0.187 HD
HETATM    6  C8  UNL     1       0.726  52.962 -19.728  1.00  0.00     0.077 A 
HETATM    7  C9  UNL     1       0.685  52.719 -18.359  1.00  0.00     0.045 A 
HETATM    8  C10 UNL     1       0.222  51.504 -17.844  1.00  0.00    -0.020 A 
HETATM    9  C17 UNL     1      -0.206  50.527 -18.748  1.00  0.00     0.021 A 
HETATM   10  C18 UNL     1      -0.169  50.763 -20.134  1.00  0.00    -0.032 A 
HETATM   11  C19 UNL     1      -0.637  49.689 -21.079  1.00  0.00     0.050 C 
HETATM   12  C20 UNL     1       0.298  51.984 -20.637  1.00  0.00     0.083 A 
HETATM   13  N4  UNL     1       0.331  52.206 -21.966  1.00  0.00    -0.188 N 
ATOM     14  H4  UNL     1       0.018  51.494 -22.626  1.00  0.00     0.184 HD
ENDROOT
BRANCH   1  15
HETATM   15  N1  UNL     1       0.800  53.555 -23.779  1.00  0.00    -0.190 N 
HETATM   16  H7  UNL     1       1.250  54.429 -24.003  1.00  0.00     0.184 HD
BRANCH  15  17
HETATM   17  C6  UNL     1       0.349  52.778 -24.853  1.00  0.00     0.051 A 
HETATM   18  C5  UNL     1       1.264  51.914 -25.478  1.00  0.00     0.030 A 
HETATM   19  C4  UNL     1       0.884  51.112 -26.556  1.00  0.00     0.005 A 
HETATM   20  C3  UNL     1      -0.422  51.165 -27.028  1.00  0.00     0.037 A 
HETATM   21  C2  UNL     1      -1.353  52.013 -26.430  1.00  0.00     0.070 A 
HETATM   22  C21 UNL     1      -0.962  52.814 -25.350  1.00  0.00     0.066 A 
BRANCH  21  23
HETATM   23  O1  UNL     1      -2.602  51.971 -26.989  1.00  0.00    -0.356 OA
HETATM   24  C1  UNL     1      -3.025  50.722 -27.523  1.00  0.00     0.210 C 
ENDBRANCH  21  23
ENDBRANCH  15  17
ENDBRANCH   1  15
BRANCH   8  25
HETATM   25  C11 UNL     1       0.185  51.261 -16.392  1.00  0.00     0.018 A 
HETATM   26  C12 UNL     1       1.337  51.416 -15.592  1.00  0.00     0.046 A 
HETATM   27 CL1  UNL     1       2.854  51.910 -16.269  1.00  0.00    -0.083 Cl
HETATM   28  C13 UNL     1       1.302  51.182 -14.212  1.00  0.00     0.025 A 
HETATM   29  C14 UNL     1       0.116  50.788 -13.598  1.00  0.00     0.003 A 
HETATM   30  C15 UNL     1      -1.035  50.630 -14.364  1.00  0.00     0.025 A 
HETATM   31  C16 UNL     1      -1.002  50.863 -15.744  1.00  0.00     0.046 A 
HETATM   32 CL2  UNL     1      -2.484  50.641 -16.616  1.00  0.00    -0.083 Cl
ENDBRANCH   8  25
TORSDOF 4
ENDMDL
MODEL 4
REMARK minimizedAffinity -8.48857689
REMARK CNNscore 0.722057283
REMARK CNNaffinity 7.16670084
REMARK  4 active torsions:
REMARK  status: ('A' for Active; 'I' for Inactive)
REMARK    1  A    between atoms: O1_2  and  C2_3 
REMARK    2  A    between atoms: C6_7  and  N1_8 
REMARK    3  A    between atoms: N1_8  and  C7_9 
REMARK    4  A    between atoms: C10_16  and  C11_17 
ROOT
HETATM    1  C7  UNL     1       0.389  52.972 -21.839  1.00  0.00     0.697 A 
HETATM    2  N2  UNL     1       0.873  54.005 -21.129  1.00  0.00    -0.131 N 
ATOM      3  H2  UNL     1       1.143  54.866 -21.605  1.00  0.00     0.205 HD
HETATM    4  N3  UNL     1       1.006  53.910 -19.772  1.00  0.00    -0.284 N 
ATOM      5  H3  UNL     1       1.373  54.696 -19.234  1.00  0.00     0.187 HD
HETATM    6  C8  UNL     1       0.651  52.779 -19.157  1.00  0.00     0.077 A 
HETATM    7  C9  UNL     1       0.776  52.658 -17.777  1.00  0.00     0.045 A 
HETATM    8  C10 UNL     1       0.413  51.485 -17.107  1.00  0.00    -0.020 A 
HETATM    9  C17 UNL     1      -0.089  50.424 -17.866  1.00  0.00     0.021 A 
HETATM   10  C18 UNL     1      -0.221  50.536 -19.262  1.00  0.00    -0.032 A 
HETATM   11  C19 UNL     1      -0.765  49.373 -20.048  1.00  0.00     0.050 C 
HETATM   12  C20 UNL     1       0.148  51.716 -19.921  1.00  0.00     0.083 A 
HETATM   13  N4  UNL     1       0.019  51.818 -21.259  1.00  0.00    -0.188 N 
ATOM     14  H4  UNL     1      -0.348  51.045 -21.813  1.00  0.00     0.184 HD
ENDROOT
BRANCH   1  15
HETATM   15  N1  UNL     1       0.233  53.009 -23.224  1.00  0.00    -0.190 N 
HETATM   16  H7  UNL     1       0.557  53.902 -23.566  1.00  0.00     0.184 HD
BRANCH  15  17
HETATM   17  C6  UNL     1      -0.240  52.097 -24.175  1.00  0.00     0.051 A 
HETATM   18  C5  UNL     1       0.512  51.908 -25.346  1.00  0.00     0.030 A 
HETATM   19  C4  UNL     1       0.098  51.017 -26.338  1.00  0.00     0.005 A 
HETATM   20  C3  UNL     1      -1.081  50.300 -26.172  1.00  0.00     0.037 A 
HETATM   21  C2  UNL     1      -1.851  50.467 -25.022  1.00  0.00     0.070 A 
HETATM   22  C21 UNL     1      -1.428  51.364 -24.034  1.00  0.00     0.066 A 
BRANCH  21  23
HETATM   23  O1  UNL     1      -2.988  49.704 -24.983  1.00  0.00    -0.356 OA
HETATM   24  C1  UNL     1      -3.131  48.714 -25.994  1.00  0.00     0.210 C 
ENDBRANCH  21  23
ENDBRANCH  15  17
ENDBRANCH   1  15
BRANCH   8  25
HETATM   25  C11 UNL     1       0.553  51.372 -15.646  1.00  0.00     0.018 A 
HETATM   26  C12 UNL     1       1.791  51.594 -15.008  1.00  0.00     0.046 A 
HETATM   27 CL1  UNL     1       3.212  52.022 -15.903  1.00  0.00    -0.083 Cl
HETATM   28  C13 UNL     1       1.924  51.484 -13.618  1.00  0.00     0.025 A 
HETATM   29  C14 UNL     1       0.825  51.149 -12.833  1.00  0.00     0.003 A 
HETATM   30  C15 UNL     1      -0.409  50.926 -13.438  1.00  0.00     0.025 A 
HETATM   31  C16 UNL     1      -0.544  51.035 -14.827  1.00  0.00     0.046 A 
HETATM   32 CL2  UNL     1      -2.119  50.741 -15.491  1.00  0.00    -0.083 Cl
ENDBRANCH   8  25
TORSDOF 4
ENDMDL
MODEL 5
REMARK minimizedAffinity -9.06703758
REMARK CNNscore 0.692021847
REMARK CNNaffinity 7.11957788
REMARK  4 active torsions:
REMARK  status: ('A' for Active; 'I' for Inactive)
REMARK    1  A    between atoms: O1_2  and  C2_3 
REMARK    2  A    between atoms: C6_7  and  N1_8 
REMARK    3  A    between atoms: N1_8  and  C7_9 
REMARK    4  A    between atoms: C10_16  and  C11_17 
ROOT
HETATM    1  C7  UNL     1      -0.379  52.551 -21.374  1.00  0.00     0.697 A 
HETATM    2  N2  UNL     1       0.301  53.631 -20.953  1.00  0.00    -0.131 N 
ATOM      3  H2  UNL     1       0.438  54.422 -21.583  1.00  0.00     0.205 HD
HETATM    4  N3  UNL     1       0.811  53.677 -19.686  1.00  0.00    -0.284 N 
ATOM      5  H3  UNL     1       1.327  54.498 -19.368  1.00  0.00     0.187 HD
HETATM    6  C8  UNL     1       0.628  52.636 -18.868  1.00  0.00     0.077 A 
HETATM    7  C9  UNL     1       1.137  52.659 -17.574  1.00  0.00     0.045 A 
HETATM    8  C10 UNL     1       0.960  51.584 -16.698  1.00  0.00    -0.020 A 
HETATM    9  C17 UNL     1       0.249  50.472 -17.157  1.00  0.00     0.021 A 
HETATM   10  C18 UNL     1      -0.271  50.439 -18.463  1.00  0.00    -0.032 A 
HETATM   11  C19 UNL     1      -1.033  49.225 -18.925  1.00  0.00     0.050 C 
HETATM   12  C20 UNL     1      -0.086  51.522 -19.331  1.00  0.00     0.083 A 
HETATM   13  N4  UNL     1      -0.587  51.486 -20.583  1.00  0.00    -0.188 N 
ATOM     14  H4  UNL     1      -1.108  50.675 -20.918  1.00  0.00     0.184 HD
ENDROOT
BRANCH   1  15
HETATM   15  N1  UNL     1      -0.920  52.446 -22.654  1.00  0.00    -0.190 N 
HETATM   16  H7  UNL     1      -1.861  52.810 -22.644  1.00  0.00     0.184 HD
BRANCH  15  17
HETATM   17  C6  UNL     1      -0.433  51.977 -23.881  1.00  0.00     0.051 A 
HETATM   18  C5  UNL     1      -1.199  51.029 -24.581  1.00  0.00     0.030 A 
HETATM   19  C4  UNL     1      -0.773  50.516 -25.807  1.00  0.00     0.005 A 
HETATM   20  C3  UNL     1       0.431  50.946 -26.354  1.00  0.00     0.037 A 
HETATM   21  C2  UNL     1       1.214  51.884 -25.683  1.00  0.00     0.070 A 
HETATM   22  C21 UNL     1       0.779  52.391 -24.452  1.00  0.00     0.066 A 
BRANCH  21  23
HETATM   23  O1  UNL     1       2.374  52.221 -26.327  1.00  0.00    -0.356 OA
HETATM   24  C1  UNL     1       2.510  51.786 -27.675  1.00  0.00     0.210 C 
ENDBRANCH  21  23
ENDBRANCH  15  17
ENDBRANCH   1  15
BRANCH   8  25
HETATM   25  C11 UNL     1       1.506  51.623 -15.331  1.00  0.00     0.018 A 
HETATM   26  C12 UNL     1       0.672  51.480 -14.202  1.00  0.00     0.046 A 
HETATM   27 CL1  UNL     1      -1.037  51.241 -14.359  1.00  0.00    -0.083 Cl
HETATM   28  C13 UNL     1       1.192  51.520 -12.903  1.00  0.00     0.025 A 
HETATM   29  C14 UNL     1       2.557  51.704 -12.699  1.00  0.00     0.003 A 
HETATM   30  C15 UNL     1       3.402  51.846 -13.795  1.00  0.00     0.025 A 
HETATM   31  C16 UNL     1       2.884  51.806 -15.096  1.00  0.00     0.046 A 
HETATM   32 CL2  UNL     1       4.013  51.990 -16.399  1.00  0.00    -0.083 Cl
ENDBRANCH   8  25
TORSDOF 4
ENDMDL
MODEL 6
REMARK minimizedAffinity -8.90917206
REMARK CNNscore 0.595757782
REMARK CNNaffinity 6.76814127
REMARK  4 active torsions:
REMARK  status: ('A' for Active; 'I' for Inactive)
REMARK    1  A    between atoms: O1_2  and  C2_3 
REMARK    2  A    between atoms: C6_7  and  N1_8 
REMARK    3  A    between atoms: N1_8  and  C7_9 
REMARK    4  A    between atoms: C10_16  and  C11_17 
ROOT
HETATM    1  C7  UNL     1       0.839  52.929 -19.343  1.00  0.00     0.697 A 
HETATM    2  N2  UNL     1       1.717  53.762 -19.929  1.00  0.00    -0.131 N 
ATOM      3  H2  UNL     1       2.378  54.288 -19.357  1.00  0.00     0.205 HD
HETATM    4  N3  UNL     1       1.728  53.910 -21.287  1.00  0.00    -0.284 N 
ATOM      5  H3  UNL     1       2.395  54.543 -21.731  1.00  0.00     0.187 HD
HETATM    6  C8  UNL     1       0.858  53.219 -22.029  1.00  0.00     0.077 A 
HETATM    7  C9  UNL     1       0.851  53.353 -23.414  1.00  0.00     0.045 A 
HETATM    8  C10 UNL     1      -0.049  52.642 -24.214  1.00  0.00    -0.020 A 
HETATM    9  C17 UNL     1      -0.951  51.781 -23.583  1.00  0.00     0.021 A 
HETATM   10  C18 UNL     1      -0.952  51.637 -22.184  1.00  0.00    -0.032 A 
HETATM   11  C19 UNL     1      -1.937  50.701 -21.537  1.00  0.00     0.050 C 
HETATM   12  C20 UNL     1      -0.046  52.356 -21.394  1.00  0.00     0.083 A 
HETATM   13  N4  UNL     1      -0.049  52.215 -20.053  1.00  0.00    -0.188 N 
ATOM     14  H4  UNL     1      -0.706  51.585 -19.592  1.00  0.00     0.184 HD
ENDROOT
BRANCH   1  15
HETATM   15  N1  UNL     1       0.779  52.739 -17.964  1.00  0.00    -0.190 N 
HETATM   16  H7  UNL     1       0.709  53.638 -17.511  1.00  0.00     0.184 HD
BRANCH  15  17
HETATM   17  C6  UNL     1       0.779  51.609 -17.136  1.00  0.00     0.051 A 
HETATM   18  C5  UNL     1       0.030  50.490 -17.538  1.00  0.00     0.030 A 
HETATM   19  C4  UNL     1      -0.018  49.332 -16.761  1.00  0.00     0.005 A 
HETATM   20  C3  UNL     1       0.686  49.276 -15.563  1.00  0.00     0.037 A 
HETATM   21  C2  UNL     1       1.437  50.370 -15.136  1.00  0.00     0.070 A 
HETATM   22  C21 UNL     1       1.477  51.528 -15.922  1.00  0.00     0.066 A 
BRANCH  21  23
HETATM   23  O1  UNL     1       2.080  50.186 -13.941  1.00  0.00    -0.356 OA
HETATM   24  C1  UNL     1       2.931  51.238 -13.501  1.00  0.00     0.210 C 
ENDBRANCH  21  23
ENDBRANCH  15  17
ENDBRANCH   1  15
BRANCH   8  25
HETATM   25  C11 UNL     1      -0.046  52.795 -25.678  1.00  0.00     0.018 A 
HETATM   26  C12 UNL     1       0.083  54.063 -26.284  1.00  0.00     0.046 A 
HETATM   27 CL1  UNL     1       0.255  55.507 -25.342  1.00  0.00    -0.083 Cl
HETATM   28  C13 UNL     1       0.084  54.208 -27.676  1.00  0.00     0.025 A 
HETATM   29  C14 UNL     1      -0.045  53.091 -28.498  1.00  0.00     0.003 A 
HETATM   30  C15 UNL     1      -0.172  51.829 -27.926  1.00  0.00     0.025 A 
HETATM   31  C16 UNL     1      -0.173  51.681 -26.533  1.00  0.00     0.046 A 
HETATM   32 CL2  UNL     1      -0.335  50.071 -25.912  1.00  0.00    -0.083 Cl
ENDBRANCH   8  25
TORSDOF 4
ENDMDL
MODEL 7
REMARK minimizedAffinity -9.37304974
REMARK CNNscore 0.460272908
REMARK CNNaffinity 6.76990891
REMARK  4 active torsions:
REMARK  status: ('A' for Active; 'I' for Inactive)
REMARK    1  A    between atoms: O1_2  and  C2_3 
REMARK    2  A    between atoms: C6_7  and  N1_8 
REMARK    3  A    between atoms: N1_8  and  C7_9 
REMARK    4  A    between atoms: C10_16  and  C11_17 
ROOT
HETATM    1  C7  UNL     1       0.507  52.516 -18.722  1.00  0.00     0.697 A 
HETATM    2  N2  UNL     1      -0.332  51.475 -18.867  1.00  0.00    -0.131 N 
ATOM      3  H2  UNL     1      -0.637  50.951 -18.047  1.00  0.00     0.205 HD
HETATM    4  N3  UNL     1      -0.780  51.116 -20.107  1.00  0.00    -0.284 N 
ATOM      5  H3  UNL     1      -1.417  50.326 -20.215  1.00  0.00     0.187 HD
HETATM    6  C8  UNL     1      -0.376  51.808 -21.176  1.00  0.00     0.077 A 
HETATM    7  C9  UNL     1      -0.818  51.461 -22.448  1.00  0.00     0.045 A 
HETATM    8  C10 UNL     1      -0.410  52.168 -23.584  1.00  0.00    -0.020 A 
HETATM    9  C17 UNL     1       0.461  53.247 -23.409  1.00  0.00     0.021 A 
HETATM   10  C18 UNL     1       0.914  53.606 -22.127  1.00  0.00    -0.032 A 
HETATM   11  C19 UNL     1       1.852  54.774 -21.975  1.00  0.00     0.050 C 
HETATM   12  C20 UNL     1       0.499  52.889 -20.997  1.00  0.00     0.083 A 
HETATM   13  N4  UNL     1       0.935  53.238 -19.770  1.00  0.00    -0.188 N 
ATOM     14  H4  UNL     1       1.570  54.026 -19.642  1.00  0.00     0.184 HD
ENDROOT
BRANCH   1  15
HETATM   15  N1  UNL     1       0.998  52.928 -17.485  1.00  0.00    -0.190 N 
HETATM   16  H7  UNL     1       0.560  53.801 -17.232  1.00  0.00     0.184 HD
BRANCH  15  17
HETATM   17  C6  UNL     1       1.914  52.389 -16.573  1.00  0.00     0.051 A 
HETATM   18  C5  UNL     1       3.273  52.714 -16.725  1.00  0.00     0.030 A 
HETATM   19  C4  UNL     1       4.241  52.210 -15.855  1.00  0.00     0.005 A 
HETATM   20  C3  UNL     1       3.862  51.367 -14.815  1.00  0.00     0.037 A 
HETATM   21  C2  UNL     1       2.522  51.024 -14.640  1.00  0.00     0.070 A 
HETATM   22  C21 UNL     1       1.559  51.534 -15.519  1.00  0.00     0.066 A 
BRANCH  21  23
HETATM   23  O1  UNL     1       2.284  50.188 -13.582  1.00  0.00    -0.356 OA
HETATM   24  C1  UNL     1       3.402  49.482 -13.057  1.00  0.00     0.210 C 
ENDBRANCH  21  23
ENDBRANCH  15  17
ENDBRANCH   1  15
BRANCH   8  25
HETATM   25  C11 UNL     1      -0.886  51.788 -24.924  1.00  0.00     0.018 A 
HETATM   26  C12 UNL     1       0.011  51.385 -25.936  1.00  0.00     0.046 A 
HETATM   27 CL1  UNL     1       1.720  51.304 -25.656  1.00  0.00    -0.083 Cl
HETATM   28  C13 UNL     1      -0.442  51.027 -27.211  1.00  0.00     0.025 A 
HETATM   29  C14 UNL     1      -1.802  51.062 -27.507  1.00  0.00     0.003 A 
HETATM   30  C15 UNL     1      -2.709  51.455 -26.527  1.00  0.00     0.025 A 
HETATM   31  C16 UNL     1      -2.258  51.814 -25.251  1.00  0.00     0.046 A 
HETATM   32 CL2  UNL     1      -3.460  52.288 -24.095  1.00  0.00    -0.083 Cl
ENDBRANCH   8  25
TORSDOF 4
ENDMDL
MODEL 8
REMARK minimizedAffinity -9.35928822
REMARK CNNscore 0.456498742
REMARK CNNaffinity 6.73575592
REMARK  4 active torsions:
REMARK  status: ('A' for Active; 'I' for Inactive)
REMARK    1  A    between atoms: O1_2  and  C2_3 
REMARK    2  A    between atoms: C6_7  and  N1_8 
REMARK    3  A    between atoms: N1_8  and  C7_9 
REMARK    4  A    between atoms: C10_16  and  C11_17 
ROOT
HETATM    1  C7  UNL     1       0.605  52.502 -18.763  1.00  0.00     0.697 A 
HETATM    2  N2  UNL     1      -0.221  51.447 -18.874  1.00  0.00    -0.131 N 
ATOM      3  H2  UNL     1      -0.487  50.922 -18.041  1.00  0.00     0.205 HD
HETATM    4  N3  UNL     1      -0.707  51.076 -20.095  1.00  0.00    -0.284 N 
ATOM      5  H3  UNL     1      -1.334  50.275 -20.178  1.00  0.00     0.187 HD
HETATM    6  C8  UNL     1      -0.352  51.770 -21.181  1.00  0.00     0.077 A 
HETATM    7  C9  UNL     1      -0.834  51.410 -22.435  1.00  0.00     0.045 A 
HETATM    8  C10 UNL     1      -0.478  52.119 -23.587  1.00  0.00    -0.020 A 
HETATM    9  C17 UNL     1       0.382  53.212 -23.447  1.00  0.00     0.021 A 
HETATM   10  C18 UNL     1       0.874  53.584 -22.184  1.00  0.00    -0.032 A 
HETATM   11  C19 UNL     1       1.797  54.767 -22.069  1.00  0.00     0.050 C 
HETATM   12  C20 UNL     1       0.511  52.866 -21.037  1.00  0.00     0.083 A 
HETATM   13  N4  UNL     1       0.984  53.227 -19.828  1.00  0.00    -0.188 N 
ATOM     14  H4  UNL     1       1.610  54.025 -19.725  1.00  0.00     0.184 HD
ENDROOT
BRANCH   1  15
HETATM   15  N1  UNL     1       1.134  52.927 -17.545  1.00  0.00    -0.190 N 
HETATM   16  H7  UNL     1       0.828  53.872 -17.366  1.00  0.00     0.184 HD
BRANCH  15  17
HETATM   17  C6  UNL     1       1.945  52.327 -16.574  1.00  0.00     0.051 A 
HETATM   18  C5  UNL     1       3.302  52.686 -16.527  1.00  0.00     0.030 A 
HETATM   19  C4  UNL     1       4.169  52.125 -15.587  1.00  0.00     0.005 A 
HETATM   20  C3  UNL     1       3.688  51.191 -14.676  1.00  0.00     0.037 A 
HETATM   21  C2  UNL     1       2.346  50.813 -14.699  1.00  0.00     0.070 A 
HETATM   22  C21 UNL     1       1.486  51.380 -15.646  1.00  0.00     0.066 A 
BRANCH  21  23
HETATM   23  O1  UNL     1       2.001  49.886 -13.751  1.00  0.00    -0.356 OA
HETATM   24  C1  UNL     1       3.038  49.031 -13.283  1.00  0.00     0.210 C 
ENDBRANCH  21  23
ENDBRANCH  15  17
ENDBRANCH   1  15
BRANCH   8  25
HETATM   25  C11 UNL     1      -0.995  51.726 -24.908  1.00  0.00     0.018 A 
HETATM   26  C12 UNL     1      -2.379  51.726 -25.185  1.00  0.00     0.046 A 
HETATM   27 CL1  UNL     1      -3.545  52.198 -23.993  1.00  0.00    -0.083 Cl
HETATM   28  C13 UNL     1      -2.870  51.349 -26.441  1.00  0.00     0.025 A 
HETATM   29  C14 UNL     1      -1.992  50.963 -27.450  1.00  0.00     0.003 A 
HETATM   30  C15 UNL     1      -0.622  50.955 -27.204  1.00  0.00     0.025 A 
HETATM   31  C16 UNL     1      -0.129  51.332 -25.949  1.00  0.00     0.046 A 
HETATM   32 CL2  UNL     1       1.591  51.293 -25.735  1.00  0.00    -0.083 Cl
ENDBRANCH   8  25
TORSDOF 4
ENDMDL
MODEL 9
REMARK minimizedAffinity -8.60933971
REMARK CNNscore 0.420085132
REMARK CNNaffinity 6.66779375
REMARK  4 active torsions:
REMARK  status: ('A' for Active; 'I' for Inactive)
REMARK    1  A    between atoms: O1_2  and  C2_3 
REMARK    2  A    between atoms: C6_7  and  N1_8 
REMARK    3  A    between atoms: N1_8  and  C7_9 
REMARK    4  A    between atoms: C10_16  and  C11_17 
ROOT
HETATM    1  C7  UNL     1       0.341  52.510 -19.572  1.00  0.00     0.697 A 
HETATM    2  N2  UNL     1       0.213  53.369 -20.598  1.00  0.00    -0.131 N 
ATOM      3  H2  UNL     1       0.562  54.323 -20.507  1.00  0.00     0.205 HD
HETATM    4  N3  UNL     1      -0.381  52.971 -21.762  1.00  0.00    -0.284 N 
ATOM      5  H3  UNL     1      -0.476  53.624 -22.541  1.00  0.00     0.187 HD
HETATM    6  C8  UNL     1      -0.835  51.720 -21.872  1.00  0.00     0.077 A 
HETATM    7  C9  UNL     1      -1.444  51.292 -23.047  1.00  0.00     0.045 A 
HETATM    8  C10 UNL     1      -1.929  49.987 -23.189  1.00  0.00    -0.020 A 
HETATM    9  C17 UNL     1      -1.784  49.112 -22.109  1.00  0.00     0.021 A 
HETATM   10  C18 UNL     1      -1.170  49.534 -20.916  1.00  0.00    -0.032 A 
HETATM   11  C19 UNL     1      -1.030  48.565 -19.773  1.00  0.00     0.050 C 
HETATM   12  C20 UNL     1      -0.689  50.843 -20.787  1.00  0.00     0.083 A 
HETATM   13  N4  UNL     1      -0.100  51.244 -19.642  1.00  0.00    -0.188 N 
ATOM     14  H4  UNL     1       0.007  50.605 -18.854  1.00  0.00     0.184 HD
ENDROOT
BRANCH   1  15
HETATM   15  N1  UNL     1       0.935  52.859 -18.360  1.00  0.00    -0.190 N 
HETATM   16  H7  UNL     1       1.206  53.830 -18.395  1.00  0.00     0.184 HD
BRANCH  15  17
HETATM   17  C6  UNL     1       1.197  52.168 -17.170  1.00  0.00     0.051 A 
HETATM   18  C5  UNL     1       0.153  51.433 -16.585  1.00  0.00     0.030 A 
HETATM   19  C4  UNL     1       0.342  50.723 -15.398  1.00  0.00     0.005 A 
HETATM   20  C3  UNL     1       1.585  50.740 -14.775  1.00  0.00     0.037 A 
HETATM   21  C2  UNL     1       2.641  51.462 -15.330  1.00  0.00     0.070 A 
HETATM   22  C21 UNL     1       2.440  52.171 -16.520  1.00  0.00     0.066 A 
BRANCH  21  23
HETATM   23  O1  UNL     1       3.810  51.397 -14.620  1.00  0.00    -0.356 OA
HETATM   24  C1  UNL     1       4.040  50.210 -13.869  1.00  0.00     0.210 C 
ENDBRANCH  21  23
ENDBRANCH  15  17
ENDBRANCH   1  15
BRANCH   8  25
HETATM   25  C11 UNL     1      -2.571  49.549 -24.439  1.00  0.00     0.018 A 
HETATM   26  C12 UNL     1      -3.788  48.835 -24.428  1.00  0.00     0.046 A 
HETATM   27 CL1  UNL     1      -4.599  48.442 -22.948  1.00  0.00    -0.083 Cl
HETATM   28  C13 UNL     1      -4.397  48.416 -25.617  1.00  0.00     0.025 A 
HETATM   29  C14 UNL     1      -3.806  48.700 -26.846  1.00  0.00     0.003 A 
HETATM   30  C15 UNL     1      -2.606  49.405 -26.884  1.00  0.00     0.025 A 
HETATM   31  C16 UNL     1      -1.995  49.825 -25.696  1.00  0.00     0.046 A 
HETATM   32 CL2  UNL     1      -0.505  50.697 -25.842  1.00  0.00    -0.083 Cl
ENDBRANCH   8  25
TORSDOF 4
ENDMDL
