MODEL 1
REMARK minimizedAffinity -10.4740582
REMARK  8 active torsions:
REMARK  status: ('A' for Active; 'I' for Inactive)
REMARK    1  A    between atoms: C4_4  and  C5_5 
REMARK    2  A    between atoms: C7_7  and  O1_8 
REMARK    3  A    between atoms: C13_19  and  N3_20 
REMARK    4  A    between atoms: N3_20  and  C14_21 
REMARK    5  A    between atoms: C18_25  and  O2_26 
REMARK    6  A    between atoms: O2_26  and  C19_27 
REMARK    7  A    between atoms: C19_27  and  C20_28 
REMARK    8  A    between atoms: C20_28  and  N4_29 
ROOT
HETATM    1  C1  UNL     1      -1.621  50.084 -21.118  1.00  0.00     0.050 C 
HETATM    2  C2  UNL     1      -0.745  51.097 -21.806  1.00  0.00    -0.032 A 
HETATM    3  C3  UNL     1      -0.659  51.097 -23.209  1.00  0.00     0.021 A 
HETATM    4  C4  UNL     1       0.149  52.019 -23.877  1.00  0.00    -0.021 A 
HETATM    5  C11 UNL     1       0.863  52.945 -23.108  1.00  0.00     0.045 A 
HETATM    6  C12 UNL     1       0.787  52.953 -21.720  1.00  0.00     0.077 A 
HETATM    7  N1  UNL     1       1.480  53.847 -21.006  1.00  0.00    -0.284 N 
ATOM      8  H1  UNL     1       2.071  54.534 -21.476  1.00  0.00     0.187 HD
HETATM    9  N2  UNL     1       1.390  53.832 -19.643  1.00  0.00    -0.131 N 
ATOM     10  H2  UNL     1       1.917  54.509 -19.093  1.00  0.00     0.205 HD
HETATM   11  C13 UNL     1       0.608  52.926 -19.022  1.00  0.00     0.697 A 
HETATM   12  N5  UNL     1      -0.105  52.020 -19.703  1.00  0.00    -0.188 N 
ATOM     13  H5  UNL     1      -0.695  51.344 -19.217  1.00  0.00     0.184 HD
HETATM   14  C26 UNL     1      -0.020  52.025 -21.047  1.00  0.00     0.083 A 
ENDROOT
BRANCH  11  15
HETATM   15  N3  UNL     1       0.586  52.990 -17.628  1.00  0.00    -0.190 N 
HETATM   16  H10 UNL     1      -0.269  53.434 -17.325  1.00  0.00     0.184 HD
BRANCH  15  17
HETATM   17  C14 UNL     1       1.477  52.597 -16.623  1.00  0.00     0.051 A 
HETATM   18  C15 UNL     1       2.866  52.592 -16.766  1.00  0.00     0.030 A 
HETATM   19  C16 UNL     1       3.699  52.187 -15.718  1.00  0.00     0.005 A 
HETATM   20  C17 UNL     1       3.156  51.776 -14.502  1.00  0.00     0.037 A 
HETATM   21  C18 UNL     1       1.775  51.769 -14.330  1.00  0.00     0.070 A 
HETATM   22  C25 UNL     1       0.952  52.177 -15.388  1.00  0.00     0.066 A 
BRANCH  21  23
HETATM   23  O2  UNL     1       1.104  51.393 -13.198  1.00  0.00    -0.349 OA
BRANCH  23  24
HETATM   24  C19 UNL     1      -0.197  51.955 -12.998  1.00  0.00     0.206 C 
BRANCH  24  25
HETATM   25  C20 UNL     1      -0.399  52.157 -11.488  1.00  0.00     0.299 C 
BRANCH  25  26
HETATM   26  N4  UNL     1      -1.796  52.418 -11.116  1.00  0.00     0.090 N 
HETATM   27  C21 UNL     1      -2.717  52.385 -12.255  1.00  0.00     0.272 C 
HETATM   28  C22 UNL     1      -3.958  53.094 -11.727  1.00  0.00     0.032 C 
HETATM   29  C23 UNL     1      -3.469  53.948 -10.563  1.00  0.00     0.032 C 
HETATM   30  C24 UNL     1      -1.961  53.755 -10.541  1.00  0.00     0.272 C 
ENDBRANCH  25  26
ENDBRANCH  24  25
ENDBRANCH  23  24
ENDBRANCH  21  23
ENDBRANCH  15  17
ENDBRANCH  11  15
BRANCH   4  31
HETATM   31  C5  UNL     1       0.237  52.023 -25.345  1.00  0.00    -0.001 A 
HETATM   32  C6  UNL     1       1.492  51.841 -25.954  1.00  0.00     0.050 A 
HETATM   33  C7  UNL     1       1.617  51.837 -27.341  1.00  0.00     0.066 A 
HETATM   34  C8  UNL     1       0.508  52.012 -28.159  1.00  0.00     0.038 A 
HETATM   35  C9  UNL     1      -0.746  52.198 -27.575  1.00  0.00     0.027 A 
HETATM   36  C10 UNL     1      -0.882  52.205 -26.181  1.00  0.00     0.045 A 
HETATM   37 CL1  UNL     1      -2.468  52.464 -25.539  1.00  0.00    -0.083 Cl
BRANCH  33  38
HETATM   38  O1  UNL     1       2.862  51.655 -27.863  1.00  0.00    -0.361 OA
HETATM   39  H6  UNL     1       2.803  51.653 -28.833  1.00  0.00     0.217 HD
ENDBRANCH  33  38
ENDBRANCH   4  31
TORSDOF 8
ENDMDL
MODEL 2
REMARK minimizedAffinity -10.4382467
REMARK  8 active torsions:
REMARK  status: ('A' for Active; 'I' for Inactive)
REMARK    1  A    between atoms: C4_4  and  C5_5 
REMARK    2  A    between atoms: C7_7  and  O1_8 
REMARK    3  A    between atoms: C13_19  and  N3_20 
REMARK    4  A    between atoms: N3_20  and  C14_21 
REMARK    5  A    between atoms: C18_25  and  O2_26 
REMARK    6  A    between atoms: O2_26  and  C19_27 
REMARK    7  A    between atoms: C19_27  and  C20_28 
REMARK    8  A    between atoms: C20_28  and  N4_29 
ROOT
HETATM    1  C1  UNL     1      -1.400  50.100 -21.602  1.00  0.00     0.050 C 
HETATM    2  C2  UNL     1      -0.626  51.229 -22.228  1.00  0.00    -0.032 A 
HETATM    3  C3  UNL     1      -0.563  51.331 -23.629  1.00  0.00     0.021 A 
HETATM    4  C4  UNL     1       0.152  52.363 -24.240  1.00  0.00    -0.021 A 
HETATM    5  C11 UNL     1       0.795  53.295 -23.417  1.00  0.00     0.045 A 
HETATM    6  C12 UNL     1       0.740  53.203 -22.031  1.00  0.00     0.077 A 
HETATM    7  N1  UNL     1       1.365  54.104 -21.265  1.00  0.00    -0.284 N 
ATOM      8  H1  UNL     1       1.886  54.870 -21.692  1.00  0.00     0.187 HD
HETATM    9  N2  UNL     1       1.298  53.989 -19.905  1.00  0.00    -0.131 N 
ATOM     10  H2  UNL     1       1.773  54.672 -19.315  1.00  0.00     0.205 HD
HETATM   11  C13 UNL     1       0.607  52.979 -19.339  1.00  0.00     0.697 A 
HETATM   12  N5  UNL     1      -0.035  52.061 -20.073  1.00  0.00    -0.188 N 
ATOM     13  H5  UNL     1      -0.556  51.305 -19.629  1.00  0.00     0.184 HD
HETATM   14  C26 UNL     1       0.028  52.164 -21.415  1.00  0.00     0.083 A 
ENDROOT
BRANCH  11  15
HETATM   15  N3  UNL     1       0.603  52.947 -17.944  1.00  0.00    -0.190 N 
HETATM   16  H10 UNL     1      -0.295  53.259 -17.604  1.00  0.00     0.184 HD
BRANCH  15  17
HETATM   17  C14 UNL     1       1.553  52.603 -16.976  1.00  0.00     0.051 A 
HETATM   18  C15 UNL     1       2.933  52.654 -17.181  1.00  0.00     0.030 A 
HETATM   19  C16 UNL     1       3.828  52.295 -16.168  1.00  0.00     0.005 A 
HETATM   20  C17 UNL     1       3.357  51.876 -14.925  1.00  0.00     0.037 A 
HETATM   21  C18 UNL     1       1.987  51.814 -14.692  1.00  0.00     0.070 A 
HETATM   22  C25 UNL     1       1.101  52.175 -15.716  1.00  0.00     0.066 A 
BRANCH  21  23
HETATM   23  O2  UNL     1       1.383  51.423 -13.527  1.00  0.00    -0.349 OA
BRANCH  23  24
HETATM   24  C19 UNL     1      -0.039  51.565 -13.454  1.00  0.00     0.206 C 
BRANCH  24  25
HETATM   25  C20 UNL     1      -0.409  51.892 -11.999  1.00  0.00     0.299 C 
BRANCH  25  26
HETATM   26  N4  UNL     1      -1.577  52.772 -11.877  1.00  0.00     0.090 N 
HETATM   27  C21 UNL     1      -1.737  53.345 -10.538  1.00  0.00     0.272 C 
HETATM   28  C22 UNL     1      -3.183  53.826 -10.528  1.00  0.00     0.032 C 
HETATM   29  C23 UNL     1      -3.883  53.015 -11.611  1.00  0.00     0.032 C 
HETATM   30  C24 UNL     1      -2.827  52.049 -12.124  1.00  0.00     0.272 C 
ENDBRANCH  25  26
ENDBRANCH  24  25
ENDBRANCH  23  24
ENDBRANCH  21  23
ENDBRANCH  15  17
ENDBRANCH  11  15
BRANCH   4  31
HETATM   31  C5  UNL     1       0.215  52.474 -25.705  1.00  0.00    -0.001 A 
HETATM   32  C6  UNL     1      -0.774  53.215 -26.377  1.00  0.00     0.050 A 
HETATM   33  C7  UNL     1      -0.748  53.345 -27.764  1.00  0.00     0.066 A 
HETATM   34  C8  UNL     1       0.253  52.748 -28.519  1.00  0.00     0.038 A 
HETATM   35  C9  UNL     1       1.241  52.005 -27.873  1.00  0.00     0.027 A 
HETATM   36  C10 UNL     1       1.224  51.867 -26.478  1.00  0.00     0.045 A 
HETATM   37 CL1  UNL     1       2.474  50.911 -25.759  1.00  0.00    -0.083 Cl
BRANCH  33  38
HETATM   38  O1  UNL     1      -1.737  54.078 -28.348  1.00  0.00    -0.361 OA
HETATM   39  H6  UNL     1      -1.587  54.104 -29.308  1.00  0.00     0.217 HD
ENDBRANCH  33  38
ENDBRANCH   4  31
TORSDOF 8
ENDMDL
MODEL 3
REMARK minimizedAffinity -10.02911
REMARK  8 active torsions:
REMARK  status: ('A' for Active; 'I' for Inactive)
REMARK    1  A    between atoms: C4_4  and  C5_5 
REMARK    2  A    between atoms: C7_7  and  O1_8 
REMARK    3  A    between atoms: C13_19  and  N3_20 
REMARK    4  A    between atoms: N3_20  and  C14_21 
REMARK    5  A    between atoms: C18_25  and  O2_26 
REMARK    6  A    between atoms: O2_26  and  C19_27 
REMARK    7  A    between atoms: C19_27  and  C20_28 
REMARK    8  A    between atoms: C20_28  and  N4_29 
ROOT
HETATM    1  C1  UNL     1      -1.470  49.929 -21.115  1.00  0.00     0.050 C 
HETATM    2  C2  UNL     1      -0.672  50.996 -21.817  1.00  0.00    -0.032 A 
HETATM    3  C3  UNL     1      -0.636  51.019 -23.222  1.00  0.00     0.021 A 
HETATM    4  C4  UNL     1       0.099  51.992 -23.903  1.00  0.00    -0.021 A 
HETATM    5  C11 UNL     1       0.790  52.944 -23.145  1.00  0.00     0.045 A 
HETATM    6  C12 UNL     1       0.763  52.929 -21.755  1.00  0.00     0.077 A 
HETATM    7  N1  UNL     1       1.433  53.849 -21.052  1.00  0.00    -0.284 N 
ATOM      8  H1  UNL     1       1.970  54.572 -21.531  1.00  0.00     0.187 HD
HETATM    9  N2  UNL     1       1.391  53.810 -19.688  1.00  0.00    -0.131 N 
ATOM     10  H2  UNL     1       1.901  54.507 -19.145  1.00  0.00     0.205 HD
HETATM   11  C13 UNL     1       0.680  52.857 -19.053  1.00  0.00     0.697 A 
HETATM   12  N5  UNL     1      -0.008  51.923 -19.723  1.00  0.00    -0.188 N 
ATOM     13  H5  UNL     1      -0.545  51.211 -19.228  1.00  0.00     0.184 HD
HETATM   14  C26 UNL     1       0.029  51.951 -21.069  1.00  0.00     0.083 A 
ENDROOT
BRANCH  11  15
HETATM   15  N3  UNL     1       0.704  52.900 -17.658  1.00  0.00    -0.190 N 
HETATM   16  H10 UNL     1      -0.136  53.349 -17.322  1.00  0.00     0.184 HD
BRANCH  15  17
HETATM   17  C14 UNL     1       1.622  52.483 -16.689  1.00  0.00     0.051 A 
HETATM   18  C15 UNL     1       2.993  52.740 -16.746  1.00  0.00     0.030 A 
HETATM   19  C16 UNL     1       3.855  52.292 -15.740  1.00  0.00     0.005 A 
HETATM   20  C17 UNL     1       3.360  51.575 -14.652  1.00  0.00     0.037 A 
HETATM   21  C18 UNL     1       1.998  51.303 -14.568  1.00  0.00     0.070 A 
HETATM   22  C25 UNL     1       1.145  51.757 -15.583  1.00  0.00     0.066 A 
BRANCH  21  23
HETATM   23  O2  UNL     1       1.373  50.614 -13.564  1.00  0.00    -0.349 OA
BRANCH  23  24
HETATM   24  C19 UNL     1       0.818  51.387 -12.495  1.00  0.00     0.206 C 
BRANCH  24  25
HETATM   25  C20 UNL     1       1.856  51.444 -11.362  1.00  0.00     0.299 C 
BRANCH  25  26
HETATM   26  N4  UNL     1       1.917  52.748 -10.691  1.00  0.00     0.090 N 
HETATM   27  C21 UNL     1       0.866  53.673 -11.121  1.00  0.00     0.272 C 
HETATM   28  C22 UNL     1       1.378  55.031 -10.657  1.00  0.00     0.032 C 
HETATM   29  C23 UNL     1       2.885  54.864 -10.510  1.00  0.00     0.032 C 
HETATM   30  C24 UNL     1       3.171  53.448 -10.983  1.00  0.00     0.272 C 
ENDBRANCH  25  26
ENDBRANCH  24  25
ENDBRANCH  23  24
ENDBRANCH  21  23
ENDBRANCH  15  17
ENDBRANCH  11  15
BRANCH   4  31
HETATM   31  C5  UNL     1       0.135  52.020 -25.373  1.00  0.00    -0.001 A 
HETATM   32  C6  UNL     1       1.372  51.875 -26.028  1.00  0.00     0.050 A 
HETATM   33  C7  UNL     1       1.447  51.895 -27.419  1.00  0.00     0.066 A 
HETATM   34  C8  UNL     1       0.307  52.058 -28.195  1.00  0.00     0.038 A 
HETATM   35  C9  UNL     1      -0.929  52.207 -27.565  1.00  0.00     0.027 A 
HETATM   36  C10 UNL     1      -1.016  52.189 -26.166  1.00  0.00     0.045 A 
HETATM   37 CL1  UNL     1      -2.584  52.403 -25.465  1.00  0.00    -0.083 Cl
BRANCH  33  38
HETATM   38  O1  UNL     1       2.677  51.749 -27.987  1.00  0.00    -0.361 OA
HETATM   39  H6  UNL     1       2.584  51.760 -28.954  1.00  0.00     0.217 HD
ENDBRANCH  33  38
ENDBRANCH   4  31
TORSDOF 8
ENDMDL
MODEL 4
REMARK minimizedAffinity -9.97860146
REMARK  8 active torsions:
REMARK  status: ('A' for Active; 'I' for Inactive)
REMARK    1  A    between atoms: C4_4  and  C5_5 
REMARK    2  A    between atoms: C7_7  and  O1_8 
REMARK    3  A    between atoms: C13_19  and  N3_20 
REMARK    4  A    between atoms: N3_20  and  C14_21 
REMARK    5  A    between atoms: C18_25  and  O2_26 
REMARK    6  A    between atoms: O2_26  and  C19_27 
REMARK    7  A    between atoms: C19_27  and  C20_28 
REMARK    8  A    between atoms: C20_28  and  N4_29 
ROOT
HETATM    1  C1  UNL     1       1.143  53.994 -22.926  1.00  0.00     0.050 C 
HETATM    2  C2  UNL     1       0.276  52.797 -22.641  1.00  0.00    -0.032 A 
HETATM    3  C3  UNL     1      -0.363  52.137 -23.706  1.00  0.00     0.021 A 
HETATM    4  C4  UNL     1      -1.179  51.028 -23.474  1.00  0.00    -0.021 A 
HETATM    5  C11 UNL     1      -1.333  50.590 -22.154  1.00  0.00     0.045 A 
HETATM    6  C12 UNL     1      -0.708  51.236 -21.093  1.00  0.00     0.077 A 
HETATM    7  N1  UNL     1      -0.872  50.800 -19.840  1.00  0.00    -0.284 N 
ATOM      8  H1  UNL     1      -1.458  49.987 -19.650  1.00  0.00     0.187 HD
HETATM    9  N2  UNL     1      -0.248  51.454 -18.816  1.00  0.00    -0.131 N 
ATOM     10  H2  UNL     1      -0.371  51.129 -17.857  1.00  0.00     0.205 HD
HETATM   11  C13 UNL     1       0.529  52.528 -19.065  1.00  0.00     0.697 A 
HETATM   12  N5  UNL     1       0.721  52.990 -20.307  1.00  0.00    -0.188 N 
ATOM     13  H5  UNL     1       1.315  53.801 -20.478  1.00  0.00     0.184 HD
HETATM   14  C26 UNL     1       0.108  52.353 -21.323  1.00  0.00     0.083 A 
ENDROOT
BRANCH  11  15
HETATM   15  N3  UNL     1       1.118  53.129 -17.952  1.00  0.00    -0.190 N 
HETATM   16  H10 UNL     1       1.021  54.131 -18.021  1.00  0.00     0.184 HD
BRANCH  15  17
HETATM   17  C14 UNL     1       1.796  52.641 -16.829  1.00  0.00     0.051 A 
HETATM   18  C15 UNL     1       3.187  52.573 -16.723  1.00  0.00     0.030 A 
HETATM   19  C16 UNL     1       3.800  52.074 -15.569  1.00  0.00     0.005 A 
HETATM   20  C17 UNL     1       3.030  51.631 -14.495  1.00  0.00     0.037 A 
HETATM   21  C18 UNL     1       1.641  51.686 -14.572  1.00  0.00     0.070 A 
HETATM   22  C25 UNL     1       1.040  52.188 -15.734  1.00  0.00     0.066 A 
BRANCH  21  23
HETATM   23  O2  UNL     1       0.763  51.289 -13.601  1.00  0.00    -0.349 OA
BRANCH  23  24
HETATM   24  C19 UNL     1      -0.146  52.277 -13.105  1.00  0.00     0.206 C 
BRANCH  24  25
HETATM   25  C20 UNL     1      -1.510  51.602 -12.889  1.00  0.00     0.299 C 
BRANCH  25  26
HETATM   26  N4  UNL     1      -2.259  52.149 -11.750  1.00  0.00     0.090 N 
HETATM   27  C21 UNL     1      -3.541  52.746 -12.130  1.00  0.00     0.272 C 
HETATM   28  C22 UNL     1      -3.904  53.602 -10.924  1.00  0.00     0.032 C 
HETATM   29  C23 UNL     1      -2.585  53.870 -10.209  1.00  0.00     0.032 C 
HETATM   30  C24 UNL     1      -1.524  53.230 -11.090  1.00  0.00     0.272 C 
ENDBRANCH  25  26
ENDBRANCH  24  25
ENDBRANCH  23  24
ENDBRANCH  21  23
ENDBRANCH  15  17
ENDBRANCH  11  15
BRANCH   4  31
HETATM   31  C5  UNL     1      -1.844  50.334 -24.586  1.00  0.00    -0.001 A 
HETATM   32  C6  UNL     1      -1.759  50.880 -25.880  1.00  0.00     0.050 A 
HETATM   33  C7  UNL     1      -2.374  50.252 -26.961  1.00  0.00     0.066 A 
HETATM   34  C8  UNL     1      -3.086  49.072 -26.791  1.00  0.00     0.038 A 
HETATM   35  C9  UNL     1      -3.186  48.515 -25.515  1.00  0.00     0.027 A 
HETATM   36  C10 UNL     1      -2.572  49.140 -24.422  1.00  0.00     0.045 A 
HETATM   37 CL1  UNL     1      -2.764  48.394 -22.871  1.00  0.00    -0.083 Cl
BRANCH  33  38
HETATM   38  O1  UNL     1      -2.251  50.837 -28.185  1.00  0.00    -0.361 OA
HETATM   39  H6  UNL     1      -2.706  50.288 -28.846  1.00  0.00     0.217 HD
ENDBRANCH  33  38
ENDBRANCH   4  31
TORSDOF 8
ENDMDL
MODEL 5
REMARK minimizedAffinity -9.8389225
REMARK  8 active torsions:
REMARK  status: ('A' for Active; 'I' for Inactive)
REMARK    1  A    between atoms: C4_4  and  C5_5 
REMARK    2  A    between atoms: C7_7  and  O1_8 
REMARK    3  A    between atoms: C13_19  and  N3_20 
REMARK    4  A    between atoms: N3_20  and  C14_21 
REMARK    5  A    between atoms: C18_25  and  O2_26 
REMARK    6  A    between atoms: O2_26  and  C19_27 
REMARK    7  A    between atoms: C19_27  and  C20_28 
REMARK    8  A    between atoms: C20_28  and  N4_29 
ROOT
HETATM    1  C1  UNL     1      -1.269  50.053 -21.549  1.00  0.00     0.050 C 
HETATM    2  C2  UNL     1      -0.529  51.197 -22.190  1.00  0.00    -0.032 A 
HETATM    3  C3  UNL     1      -0.502  51.303 -23.592  1.00  0.00     0.021 A 
HETATM    4  C4  UNL     1       0.180  52.348 -24.218  1.00  0.00    -0.021 A 
HETATM    5  C11 UNL     1       0.828  53.288 -23.409  1.00  0.00     0.045 A 
HETATM    6  C12 UNL     1       0.809  53.192 -22.021  1.00  0.00     0.077 A 
HETATM    7  N1  UNL     1       1.437  54.102 -21.269  1.00  0.00    -0.284 N 
ATOM      8  H1  UNL     1       1.935  54.877 -21.706  1.00  0.00     0.187 HD
HETATM    9  N2  UNL     1       1.405  53.983 -19.908  1.00  0.00    -0.131 N 
ATOM     10  H2  UNL     1       1.883  54.672 -19.328  1.00  0.00     0.205 HD
HETATM   11  C13 UNL     1       0.745  52.960 -19.328  1.00  0.00     0.697 A 
HETATM   12  N5  UNL     1       0.101  52.033 -20.049  1.00  0.00    -0.188 N 
ATOM     13  H5  UNL     1      -0.397  51.268 -19.594  1.00  0.00     0.184 HD
HETATM   14  C26 UNL     1       0.129  52.140 -21.391  1.00  0.00     0.083 A 
ENDROOT
BRANCH  11  15
HETATM   15  N3  UNL     1       0.776  52.925 -17.933  1.00  0.00    -0.190 N 
HETATM   16  H10 UNL     1      -0.088  53.301 -17.569  1.00  0.00     0.184 HD
BRANCH  15  17
HETATM   17  C14 UNL     1       1.724  52.509 -16.992  1.00  0.00     0.051 A 
HETATM   18  C15 UNL     1       3.046  52.956 -16.962  1.00  0.00     0.030 A 
HETATM   19  C16 UNL     1       3.942  52.498 -15.991  1.00  0.00     0.005 A 
HETATM   20  C17 UNL     1       3.531  51.580 -15.026  1.00  0.00     0.037 A 
HETATM   21  C18 UNL     1       2.219  51.116 -15.031  1.00  0.00     0.070 A 
HETATM   22  C25 UNL     1       1.331  51.582 -16.010  1.00  0.00     0.066 A 
BRANCH  21  23
HETATM   23  O2  UNL     1       1.677  50.219 -14.150  1.00  0.00    -0.349 OA
BRANCH  23  24
HETATM   24  C19 UNL     1       2.505  49.123 -13.749  1.00  0.00     0.206 C 
BRANCH  24  25
HETATM   25  C20 UNL     1       1.691  47.830 -13.911  1.00  0.00     0.299 C 
BRANCH  25  26
HETATM   26  N4  UNL     1       2.516  46.615 -13.898  1.00  0.00     0.090 N 
HETATM   27  C21 UNL     1       1.868  45.465 -14.534  1.00  0.00     0.272 C 
HETATM   28  C22 UNL     1       2.674  44.277 -14.023  1.00  0.00     0.032 C 
HETATM   29  C23 UNL     1       3.334  44.763 -12.739  1.00  0.00     0.032 C 
HETATM   30  C24 UNL     1       2.803  46.172 -12.532  1.00  0.00     0.272 C 
ENDBRANCH  25  26
ENDBRANCH  24  25
ENDBRANCH  23  24
ENDBRANCH  21  23
ENDBRANCH  15  17
ENDBRANCH  11  15
BRANCH   4  31
HETATM   31  C5  UNL     1       0.206  52.463 -25.683  1.00  0.00    -0.001 A 
HETATM   32  C6  UNL     1      -0.807  53.196 -26.329  1.00  0.00     0.050 A 
HETATM   33  C7  UNL     1      -0.817  53.330 -27.715  1.00  0.00     0.066 A 
HETATM   34  C8  UNL     1       0.170  52.745 -28.497  1.00  0.00     0.038 A 
HETATM   35  C9  UNL     1       1.182  52.010 -27.878  1.00  0.00     0.027 A 
HETATM   36  C10 UNL     1       1.201  51.869 -26.483  1.00  0.00     0.045 A 
HETATM   37 CL1  UNL     1       2.478  50.923 -25.798  1.00  0.00    -0.083 Cl
BRANCH  33  38
HETATM   38  O1  UNL     1      -1.828  54.054 -28.273  1.00  0.00    -0.361 OA
HETATM   39  H6  UNL     1      -1.703  54.084 -29.236  1.00  0.00     0.217 HD
ENDBRANCH  33  38
ENDBRANCH   4  31
TORSDOF 8
ENDMDL
MODEL 6
REMARK minimizedAffinity -9.78964996
REMARK  8 active torsions:
REMARK  status: ('A' for Active; 'I' for Inactive)
REMARK    1  A    between atoms: C4_4  and  C5_5 
REMARK    2  A    between atoms: C7_7  and  O1_8 
REMARK    3  A    between atoms: C13_19  and  N3_20 
REMARK    4  A    between atoms: N3_20  and  C14_21 
REMARK    5  A    between atoms: C18_25  and  O2_26 
REMARK    6  A    between atoms: O2_26  and  C19_27 
REMARK    7  A    between atoms: C19_27  and  C20_28 
REMARK    8  A    between atoms: C20_28  and  N4_29 
ROOT
HETATM    1  C1  UNL     1      -1.322  50.102 -21.571  1.00  0.00     0.050 C 
HETATM    2  C2  UNL     1      -0.560  51.229 -22.215  1.00  0.00    -0.032 A 
HETATM    3  C3  UNL     1      -0.528  51.330 -23.617  1.00  0.00     0.021 A 
HETATM    4  C4  UNL     1       0.176  52.360 -24.245  1.00  0.00    -0.021 A 
HETATM    5  C11 UNL     1       0.839  53.290 -23.436  1.00  0.00     0.045 A 
HETATM    6  C12 UNL     1       0.816  53.199 -22.049  1.00  0.00     0.077 A 
HETATM    7  N1  UNL     1       1.459  54.099 -21.298  1.00  0.00    -0.284 N 
ATOM      8  H1  UNL     1       1.973  54.864 -21.737  1.00  0.00     0.187 HD
HETATM    9  N2  UNL     1       1.422  53.985 -19.937  1.00  0.00    -0.131 N 
ATOM     10  H2  UNL     1       1.912  54.667 -19.358  1.00  0.00     0.205 HD
HETATM   11  C13 UNL     1       0.742  52.977 -19.355  1.00  0.00     0.697 A 
HETATM   12  N5  UNL     1       0.081  52.060 -20.074  1.00  0.00    -0.188 N 
ATOM     13  H5  UNL     1      -0.432  51.306 -19.618  1.00  0.00     0.184 HD
HETATM   14  C26 UNL     1       0.114  52.162 -21.417  1.00  0.00     0.083 A 
ENDROOT
BRANCH  11  15
HETATM   15  N3  UNL     1       0.768  52.945 -17.960  1.00  0.00    -0.190 N 
HETATM   16  H10 UNL     1      -0.099  53.316 -17.600  1.00  0.00     0.184 HD
BRANCH  15  17
HETATM   17  C14 UNL     1       1.717  52.539 -17.015  1.00  0.00     0.051 A 
HETATM   18  C15 UNL     1       3.061  52.915 -17.043  1.00  0.00     0.030 A 
HETATM   19  C16 UNL     1       3.957  52.472 -16.065  1.00  0.00     0.005 A 
HETATM   20  C17 UNL     1       3.522  51.640 -15.033  1.00  0.00     0.037 A 
HETATM   21  C18 UNL     1       2.187  51.249 -14.979  1.00  0.00     0.070 A 
HETATM   22  C25 UNL     1       1.301  51.699 -15.967  1.00  0.00     0.066 A 
BRANCH  21  23
HETATM   23  O2  UNL     1       1.621  50.440 -14.031  1.00  0.00    -0.349 OA
BRANCH  23  24
HETATM   24  C19 UNL     1       0.210  50.563 -13.833  1.00  0.00     0.206 C 
BRANCH  24  25
HETATM   25  C20 UNL     1      -0.437  49.212 -14.176  1.00  0.00     0.299 C 
BRANCH  25  26
HETATM   26  N4  UNL     1      -1.352  49.276 -15.323  1.00  0.00     0.090 N 
HETATM   27  C21 UNL     1      -2.565  48.475 -15.145  1.00  0.00     0.272 C 
HETATM   28  C22 UNL     1      -3.110  48.339 -16.561  1.00  0.00     0.032 C 
HETATM   29  C23 UNL     1      -1.915  48.577 -17.476  1.00  0.00     0.032 C 
HETATM   30  C24 UNL     1      -0.730  48.748 -16.539  1.00  0.00     0.272 C 
ENDBRANCH  25  26
ENDBRANCH  24  25
ENDBRANCH  23  24
ENDBRANCH  21  23
ENDBRANCH  15  17
ENDBRANCH  11  15
BRANCH   4  31
HETATM   31  C5  UNL     1       0.207  52.470 -25.710  1.00  0.00    -0.001 A 
HETATM   32  C6  UNL     1      -0.803  53.202 -26.362  1.00  0.00     0.050 A 
HETATM   33  C7  UNL     1      -0.808  53.331 -27.748  1.00  0.00     0.066 A 
HETATM   34  C8  UNL     1       0.182  52.742 -28.524  1.00  0.00     0.038 A 
HETATM   35  C9  UNL     1       1.191  52.009 -27.899  1.00  0.00     0.027 A 
HETATM   36  C10 UNL     1       1.204  51.872 -26.504  1.00  0.00     0.045 A 
HETATM   37 CL1  UNL     1       2.478  50.928 -25.812  1.00  0.00    -0.083 Cl
BRANCH  33  38
HETATM   38  O1  UNL     1      -1.816  54.054 -28.312  1.00  0.00    -0.361 OA
HETATM   39  H6  UNL     1      -1.687  54.081 -29.275  1.00  0.00     0.217 HD
ENDBRANCH  33  38
ENDBRANCH   4  31
TORSDOF 8
ENDMDL
MODEL 7
REMARK minimizedAffinity -9.77144241
REMARK  8 active torsions:
REMARK  status: ('A' for Active; 'I' for Inactive)
REMARK    1  A    between atoms: C4_4  and  C5_5 
REMARK    2  A    between atoms: C7_7  and  O1_8 
REMARK    3  A    between atoms: C13_19  and  N3_20 
REMARK    4  A    between atoms: N3_20  and  C14_21 
REMARK    5  A    between atoms: C18_25  and  O2_26 
REMARK    6  A    between atoms: O2_26  and  C19_27 
REMARK    7  A    between atoms: C19_27  and  C20_28 
REMARK    8  A    between atoms: C20_28  and  N4_29 
ROOT
HETATM    1  C1  UNL     1       1.136  53.891 -20.830  1.00  0.00     0.050 C 
HETATM    2  C2  UNL     1       0.421  52.913 -21.724  1.00  0.00    -0.032 A 
HETATM    3  C3  UNL     1       0.704  52.901 -23.101  1.00  0.00     0.021 A 
HETATM    4  C4  UNL     1       0.053  52.010 -23.958  1.00  0.00    -0.021 A 
HETATM    5  C11 UNL     1      -0.880  51.128 -23.402  1.00  0.00     0.045 A 
HETATM    6  C12 UNL     1      -1.168  51.132 -22.041  1.00  0.00     0.077 A 
HETATM    7  N1  UNL     1      -2.065  50.280 -21.534  1.00  0.00    -0.284 N 
ATOM      8  H1  UNL     1      -2.546  49.616 -22.142  1.00  0.00     0.187 HD
HETATM    9  N2  UNL     1      -2.332  50.307 -20.195  1.00  0.00    -0.131 N 
ATOM     10  H2  UNL     1      -3.016  49.661 -19.801  1.00  0.00     0.205 HD
HETATM   11  C13 UNL     1      -1.696  51.182 -19.390  1.00  0.00     0.697 A 
HETATM   12  N5  UNL     1      -0.787  52.046 -19.861  1.00  0.00    -0.188 N 
ATOM     13  H5  UNL     1      -0.312  52.699 -19.237  1.00  0.00     0.184 HD
HETATM   14  C26 UNL     1      -0.520  52.029 -21.181  1.00  0.00     0.083 A 
ENDROOT
BRANCH  11  15
HETATM   15  N3  UNL     1      -2.041  51.133 -18.038  1.00  0.00    -0.190 N 
HETATM   16  H10 UNL     1      -2.891  51.657 -17.890  1.00  0.00     0.184 HD
BRANCH  15  17
HETATM   17  C14 UNL     1      -1.460  50.548 -16.907  1.00  0.00     0.051 A 
HETATM   18  C15 UNL     1      -0.108  50.219 -16.803  1.00  0.00     0.030 A 
HETATM   19  C16 UNL     1       0.407  49.635 -15.640  1.00  0.00     0.005 A 
HETATM   20  C17 UNL     1      -0.427  49.369 -14.555  1.00  0.00     0.037 A 
HETATM   21  C18 UNL     1      -1.780  49.686 -14.630  1.00  0.00     0.070 A 
HETATM   22  C25 UNL     1      -2.282  50.270 -15.801  1.00  0.00     0.066 A 
BRANCH  21  23
HETATM   23  O2  UNL     1      -2.712  49.484 -13.649  1.00  0.00    -0.349 OA
BRANCH  23  24
HETATM   24  C19 UNL     1      -3.186  50.642 -12.955  1.00  0.00     0.206 C 
BRANCH  24  25
HETATM   25  C20 UNL     1      -2.189  50.962 -11.829  1.00  0.00     0.299 C 
BRANCH  25  26
HETATM   26  N4  UNL     1      -2.634  52.048 -10.946  1.00  0.00     0.090 N 
HETATM   27  C21 UNL     1      -3.910  52.642 -11.352  1.00  0.00     0.272 C 
HETATM   28  C22 UNL     1      -3.938  53.968 -10.602  1.00  0.00     0.032 C 
HETATM   29  C23 UNL     1      -2.481  54.280 -10.284  1.00  0.00     0.032 C 
HETATM   30  C24 UNL     1      -1.686  53.165 -10.944  1.00  0.00     0.272 C 
ENDBRANCH  25  26
ENDBRANCH  24  25
ENDBRANCH  23  24
ENDBRANCH  21  23
ENDBRANCH  15  17
ENDBRANCH  11  15
BRANCH   4  31
HETATM   31  C5  UNL     1       0.350  51.993 -25.397  1.00  0.00    -0.001 A 
HETATM   32  C6  UNL     1       1.676  51.785 -25.818  1.00  0.00     0.050 A 
HETATM   33  C7  UNL     1       1.998  51.760 -27.173  1.00  0.00     0.066 A 
HETATM   34  C8  UNL     1       1.021  51.940 -28.143  1.00  0.00     0.038 A 
HETATM   35  C9  UNL     1      -0.300  52.151 -27.748  1.00  0.00     0.027 A 
HETATM   36  C10 UNL     1      -0.635  52.179 -26.387  1.00  0.00     0.045 A 
HETATM   37 CL1  UNL     1      -2.292  52.468 -25.982  1.00  0.00    -0.083 Cl
BRANCH  33  38
HETATM   38  O1  UNL     1       3.302  51.554 -27.509  1.00  0.00    -0.361 OA
HETATM   39  H6  UNL     1       3.382  51.539 -28.478  1.00  0.00     0.217 HD
ENDBRANCH  33  38
ENDBRANCH   4  31
TORSDOF 8
ENDMDL
MODEL 8
REMARK minimizedAffinity -9.6573
REMARK  8 active torsions:
REMARK  status: ('A' for Active; 'I' for Inactive)
REMARK    1  A    between atoms: C4_4  and  C5_5 
REMARK    2  A    between atoms: C7_7  and  O1_8 
REMARK    3  A    between atoms: C13_19  and  N3_20 
REMARK    4  A    between atoms: N3_20  and  C14_21 
REMARK    5  A    between atoms: C18_25  and  O2_26 
REMARK    6  A    between atoms: O2_26  and  C19_27 
REMARK    7  A    between atoms: C19_27  and  C20_28 
REMARK    8  A    between atoms: C20_28  and  N4_29 
ROOT
HETATM    1  C1  UNL     1      -3.017  48.032 -22.405  1.00  0.00     0.050 C 
HETATM    2  C2  UNL     1      -2.314  49.250 -22.943  1.00  0.00    -0.032 A 
HETATM    3  C3  UNL     1      -1.630  50.100 -22.058  1.00  0.00     0.021 A 
HETATM    4  C4  UNL     1      -0.973  51.241 -22.524  1.00  0.00    -0.021 A 
HETATM    5  C11 UNL     1      -1.011  51.505 -23.898  1.00  0.00     0.045 A 
HETATM    6  C12 UNL     1      -1.685  50.671 -24.783  1.00  0.00     0.077 A 
HETATM    7  N1  UNL     1      -1.709  50.945 -26.092  1.00  0.00    -0.284 N 
ATOM      8  H1  UNL     1      -1.229  51.770 -26.454  1.00  0.00     0.187 HD
HETATM    9  N2  UNL     1      -2.381  50.111 -26.939  1.00  0.00    -0.131 N 
ATOM     10  H2  UNL     1      -2.404  50.315 -27.938  1.00  0.00     0.205 HD
HETATM   11  C13 UNL     1      -3.014  49.020 -26.463  1.00  0.00     0.697 A 
HETATM   12  N5  UNL     1      -3.008  48.710 -25.159  1.00  0.00    -0.188 N 
ATOM     13  H5  UNL     1      -3.488  47.878 -24.816  1.00  0.00     0.184 HD
HETATM   14  C26 UNL     1      -2.350  49.528 -24.316  1.00  0.00     0.083 A 
ENDROOT
BRANCH  11  15
HETATM   15  N3  UNL     1      -3.675  48.234 -27.408  1.00  0.00    -0.190 N 
HETATM   16  H10 UNL     1      -2.998  47.701 -27.934  1.00  0.00     0.184 HD
BRANCH  15  17
HETATM   17  C14 UNL     1      -5.018  48.063 -27.761  1.00  0.00     0.051 A 
HETATM   18  C15 UNL     1      -6.026  47.712 -26.860  1.00  0.00     0.030 A 
HETATM   19  C16 UNL     1      -7.350  47.557 -27.282  1.00  0.00     0.005 A 
HETATM   20  C17 UNL     1      -7.693  47.751 -28.620  1.00  0.00     0.037 A 
HETATM   21  C18 UNL     1      -6.710  48.100 -29.540  1.00  0.00     0.070 A 
HETATM   22  C25 UNL     1      -5.387  48.252 -29.104  1.00  0.00     0.066 A 
BRANCH  21  23
HETATM   23  O2  UNL     1      -6.898  48.322 -30.877  1.00  0.00    -0.349 OA
BRANCH  23  24
HETATM   24  C19 UNL     1      -7.570  47.297 -31.616  1.00  0.00     0.206 C 
BRANCH  24  25
HETATM   25  C20 UNL     1      -6.543  46.206 -31.956  1.00  0.00     0.299 C 
BRANCH  25  26
HETATM   26  N4  UNL     1      -5.629  46.582 -33.042  1.00  0.00     0.090 N 
HETATM   27  C21 UNL     1      -4.311  47.015 -32.569  1.00  0.00     0.272 C 
HETATM   28  C22 UNL     1      -3.727  47.747 -33.771  1.00  0.00     0.032 C 
HETATM   29  C23 UNL     1      -4.928  48.157 -34.614  1.00  0.00     0.032 C 
HETATM   30  C24 UNL     1      -6.141  47.719 -33.810  1.00  0.00     0.272 C 
ENDBRANCH  25  26
ENDBRANCH  24  25
ENDBRANCH  23  24
ENDBRANCH  21  23
ENDBRANCH  15  17
ENDBRANCH  11  15
BRANCH   4  31
HETATM   31  C5  UNL     1      -0.254  52.130 -21.600  1.00  0.00    -0.001 A 
HETATM   32  C6  UNL     1       0.639  53.083 -22.125  1.00  0.00     0.050 A 
HETATM   33  C7  UNL     1       1.337  53.944 -21.283  1.00  0.00     0.066 A 
HETATM   34  C8  UNL     1       1.173  53.887 -19.905  1.00  0.00     0.038 A 
HETATM   35  C9  UNL     1       0.296  52.947 -19.364  1.00  0.00     0.027 A 
HETATM   36  C10 UNL     1      -0.412  52.075 -20.202  1.00  0.00     0.045 A 
HETATM   37 CL1  UNL     1      -1.462  50.925 -19.447  1.00  0.00    -0.083 Cl
BRANCH  33  38
HETATM   38  O1  UNL     1       2.185  54.842 -21.860  1.00  0.00    -0.361 OA
HETATM   39  H6  UNL     1       2.588  55.390 -21.166  1.00  0.00     0.217 HD
ENDBRANCH  33  38
ENDBRANCH   4  31
TORSDOF 8
ENDMDL
MODEL 9
REMARK minimizedAffinity -9.45857525
REMARK  8 active torsions:
REMARK  status: ('A' for Active; 'I' for Inactive)
REMARK    1  A    between atoms: C4_4  and  C5_5 
REMARK    2  A    between atoms: C7_7  and  O1_8 
REMARK    3  A    between atoms: C13_19  and  N3_20 
REMARK    4  A    between atoms: N3_20  and  C14_21 
REMARK    5  A    between atoms: C18_25  and  O2_26 
REMARK    6  A    between atoms: O2_26  and  C19_27 
REMARK    7  A    between atoms: C19_27  and  C20_28 
REMARK    8  A    between atoms: C20_28  and  N4_29 
ROOT
HETATM    1  C1  UNL     1      -0.886  49.063 -19.583  1.00  0.00     0.050 C 
HETATM    2  C2  UNL     1      -0.799  50.079 -20.690  1.00  0.00    -0.032 A 
HETATM    3  C3  UNL     1      -1.289  49.754 -21.967  1.00  0.00     0.021 A 
HETATM    4  C4  UNL     1      -1.217  50.673 -23.017  1.00  0.00    -0.021 A 
HETATM    5  C11 UNL     1      -0.651  51.926 -22.755  1.00  0.00     0.045 A 
HETATM    6  C12 UNL     1      -0.163  52.258 -21.496  1.00  0.00     0.077 A 
HETATM    7  N1  UNL     1       0.375  53.461 -21.271  1.00  0.00    -0.284 N 
ATOM      8  H1  UNL     1       0.430  54.149 -22.023  1.00  0.00     0.187 HD
HETATM    9  N2  UNL     1       0.850  53.761 -20.026  1.00  0.00    -0.131 N 
ATOM     10  H2  UNL     1       1.263  54.676 -19.848  1.00  0.00     0.205 HD
HETATM   11  C13 UNL     1       0.776  52.853 -19.031  1.00  0.00     0.697 A 
HETATM   12  N5  UNL     1       0.239  51.640 -19.218  1.00  0.00    -0.188 N 
ATOM     13  H5  UNL     1       0.187  50.967 -18.453  1.00  0.00     0.184 HD
HETATM   14  C26 UNL     1      -0.229  51.335 -20.443  1.00  0.00     0.083 A 
ENDROOT
BRANCH  11  15
HETATM   15  N3  UNL     1       1.292  53.253 -17.798  1.00  0.00    -0.190 N 
HETATM   16  H10 UNL     1       1.257  54.260 -17.731  1.00  0.00     0.184 HD
BRANCH  15  17
HETATM   17  C14 UNL     1       1.835  52.571 -16.704  1.00  0.00     0.051 A 
HETATM   18  C15 UNL     1       3.203  52.481 -16.437  1.00  0.00     0.030 A 
HETATM   19  C16 UNL     1       3.677  51.782 -15.323  1.00  0.00     0.005 A 
HETATM   20  C17 UNL     1       2.788  51.155 -14.450  1.00  0.00     0.037 A 
HETATM   21  C18 UNL     1       1.420  51.226 -14.691  1.00  0.00     0.070 A 
HETATM   22  C25 UNL     1       0.958  51.930 -15.812  1.00  0.00     0.066 A 
BRANCH  21  23
HETATM   23  O2  UNL     1       0.435  50.663 -13.925  1.00  0.00    -0.349 OA
BRANCH  23  24
HETATM   24  C19 UNL     1      -0.892  51.167 -14.103  1.00  0.00     0.206 C 
BRANCH  24  25
HETATM   25  C20 UNL     1      -1.179  52.159 -12.965  1.00  0.00     0.299 C 
BRANCH  25  26
HETATM   26  N4  UNL     1      -2.301  51.756 -12.107  1.00  0.00     0.090 N 
HETATM   27  C21 UNL     1      -3.400  52.723 -12.093  1.00  0.00     0.272 C 
HETATM   28  C22 UNL     1      -4.199  52.335 -10.855  1.00  0.00     0.032 C 
HETATM   29  C23 UNL     1      -3.222  51.569  -9.971  1.00  0.00     0.032 C 
HETATM   30  C24 UNL     1      -1.893  51.635 -10.705  1.00  0.00     0.272 C 
ENDBRANCH  25  26
ENDBRANCH  24  25
ENDBRANCH  23  24
ENDBRANCH  21  23
ENDBRANCH  15  17
ENDBRANCH  11  15
BRANCH   4  31
HETATM   31  C5  UNL     1      -1.732  50.337 -24.352  1.00  0.00    -0.001 A 
HETATM   32  C6  UNL     1      -1.222  51.019 -25.472  1.00  0.00     0.050 A 
HETATM   33  C7  UNL     1      -1.682  50.727 -26.754  1.00  0.00     0.066 A 
HETATM   34  C8  UNL     1      -2.655  49.758 -26.961  1.00  0.00     0.038 A 
HETATM   35  C9  UNL     1      -3.177  49.072 -25.864  1.00  0.00     0.027 A 
HETATM   36  C10 UNL     1      -2.721  49.358 -24.570  1.00  0.00     0.045 A 
HETATM   37 CL1  UNL     1      -3.437  48.478 -23.263  1.00  0.00    -0.083 Cl
BRANCH  33  38
HETATM   38  O1  UNL     1      -1.145  51.427 -27.792  1.00  0.00    -0.361 OA
HETATM   39  H6  UNL     1      -1.537  51.112 -28.624  1.00  0.00     0.217 HD
ENDBRANCH  33  38
ENDBRANCH   4  31
TORSDOF 8
ENDMDL
