MODEL 1
REMARK minimizedAffinity -9.48460579
REMARK  7 active torsions:
REMARK  status: ('A' for Active; 'I' for Inactive)
REMARK    1  A    between atoms: C2_2  and  S1_3 
REMARK    2  A    between atoms: S1_3  and  C3_6 
REMARK    3  A    between atoms: C10_13  and  C11_14 
REMARK    4  A    between atoms: C14_18  and  C15_19 
REMARK    5  A    between atoms: C15_19  and  C16_20 
REMARK    6  A    between atoms: C16_20  and  C17_21 
REMARK    7  A    between atoms: C17_21  and  O4_23 
ROOT
HETATM    1  C3  UNL     1       2.073   6.465  11.049  1.00  0.00     0.060 A 
HETATM    2  C4  UNL     1       2.728   6.822  12.246  1.00  0.00     0.026 A 
HETATM    3  C5  UNL     1       2.055   6.733  13.467  1.00  0.00     0.032 A 
HETATM    4  C6  UNL     1       0.744   6.298  13.440  1.00  0.00     0.046 A 
HETATM    5  C7  UNL     1       0.082   5.961  12.255  1.00  0.00     0.008 A 
HETATM    6  C8  UNL     1       0.737   6.044  11.037  1.00  0.00     0.038 A 
HETATM    7  C9  UNL     1      -1.282   5.569  12.642  1.00  0.00     0.047 A 
HETATM    8  C10 UNL     1      -2.230   5.179  11.778  1.00  0.00     0.048 C 
HETATM    9  C22 UNL     1      -1.366   5.724  14.144  1.00  0.00     0.257 A 
HETATM   10  O5  UNL     1      -2.316   5.551  14.884  1.00  0.00    -0.267 OA
HETATM   11  N2  UNL     1      -0.101   6.143  14.532  1.00  0.00    -0.322 N 
HETATM   12  H24 UNL     1       0.125   6.365  15.489  1.00  0.00     0.169 HD
ENDROOT
BRANCH   8  13
HETATM   13  C11 UNL     1      -3.539   4.789  12.144  1.00  0.00     0.040 A 
HETATM   14  N1  UNL     1      -4.291   5.658  12.898  1.00  0.00    -0.359 N 
HETATM   15  C12 UNL     1      -5.466   5.054  13.243  1.00  0.00     0.016 A 
HETATM   16  H10 UNL     1      -4.015   6.594  13.161  1.00  0.00     0.166 HD
HETATM   17  C13 UNL     1      -5.495   3.796  12.678  1.00  0.00    -0.027 A 
HETATM   18  C21 UNL     1      -6.544   5.686  14.049  1.00  0.00     0.057 C 
HETATM   19  C14 UNL     1      -4.275   3.624  11.959  1.00  0.00    -0.023 A 
HETATM   20  C18 UNL     1      -6.651   2.869  12.864  1.00  0.00     0.041 C 
HETATM   21  C19 UNL     1      -7.894   3.622  13.378  1.00  0.00     0.005 C 
HETATM   22  C20 UNL     1      -7.547   4.612  14.507  1.00  0.00     0.006 C 
BRANCH  19  23
HETATM   23  C15 UNL     1      -3.878   2.434  11.134  1.00  0.00     0.052 C 
BRANCH  23  24
HETATM   24  C16 UNL     1      -2.712   1.651  11.733  1.00  0.00     0.115 C 
BRANCH  24  25
HETATM   25  C17 UNL     1      -1.471   1.860  10.914  1.00  0.00     0.139 C 
HETATM   26  O3  UNL     1      -0.327   1.852  11.344  1.00  0.00    -0.650 OA
BRANCH  25  27
HETATM   27  O4  UNL     1      -1.761   2.166   9.634  1.00  0.00    -0.776 OA
HETATM   28  H15 UNL     1      -1.024   2.755   9.330  1.00  0.00     0.167 HD
ENDBRANCH  25  27
ENDBRANCH  24  25
ENDBRANCH  23  24
ENDBRANCH  19  23
ENDBRANCH   8  13
BRANCH   1  29
HETATM   29  S1  UNL     1       2.961   6.605   9.511  1.00  0.00     0.175 S 
HETATM   30  O1  UNL     1       4.270   7.155   9.808  1.00  0.00    -0.223 OA
HETATM   31  O2  UNL     1       2.832   5.326   8.840  1.00  0.00    -0.223 OA
BRANCH  29  32
HETATM   32  C2  UNL     1       2.044   7.811   8.574  1.00  0.00     0.141 C 
HETATM   33  C1  UNL     1       1.779   7.391   7.142  1.00  0.00     0.021 C 
ENDBRANCH  29  32
ENDBRANCH   1  29
TORSDOF 7
ENDMDL
MODEL 2
REMARK minimizedAffinity -9.09974575
REMARK  7 active torsions:
REMARK  status: ('A' for Active; 'I' for Inactive)
REMARK    1  A    between atoms: C2_2  and  S1_3 
REMARK    2  A    between atoms: S1_3  and  C3_6 
REMARK    3  A    between atoms: C10_13  and  C11_14 
REMARK    4  A    between atoms: C14_18  and  C15_19 
REMARK    5  A    between atoms: C15_19  and  C16_20 
REMARK    6  A    between atoms: C16_20  and  C17_21 
REMARK    7  A    between atoms: C17_21  and  O4_23 
ROOT
HETATM    1  C3  UNL     1      -6.248   3.391  12.284  1.00  0.00     0.060 A 
HETATM    2  C4  UNL     1      -6.208   2.037  11.893  1.00  0.00     0.026 A 
HETATM    3  C5  UNL     1      -4.996   1.448  11.528  1.00  0.00     0.032 A 
HETATM    4  C6  UNL     1      -3.868   2.244  11.558  1.00  0.00     0.046 A 
HETATM    5  C7  UNL     1      -3.902   3.593  11.925  1.00  0.00     0.008 A 
HETATM    6  C8  UNL     1      -5.097   4.190  12.291  1.00  0.00     0.038 A 
HETATM    7  C9  UNL     1      -2.520   4.085  11.814  1.00  0.00     0.047 A 
HETATM    8  C10 UNL     1      -2.143   5.344  12.081  1.00  0.00     0.048 C 
HETATM    9  C22 UNL     1      -1.684   2.921  11.334  1.00  0.00     0.257 A 
HETATM   10  O5  UNL     1      -0.497   2.884  11.066  1.00  0.00    -0.267 OA
HETATM   11  N2  UNL     1      -2.573   1.860  11.231  1.00  0.00    -0.322 N 
HETATM   12  H24 UNL     1      -2.295   0.952  10.891  1.00  0.00     0.169 HD
ENDROOT
BRANCH   8  13
HETATM   13  C11 UNL     1      -0.816   5.822  11.989  1.00  0.00     0.040 A 
HETATM   14  N1  UNL     1      -0.108   5.562  10.839  1.00  0.00    -0.359 N 
HETATM   15  C12 UNL     1       1.176   5.998  10.992  1.00  0.00     0.016 A 
HETATM   16  H10 UNL     1      -0.480   5.113  10.012  1.00  0.00     0.166 HD
HETATM   17  C13 UNL     1       1.296   6.579  12.238  1.00  0.00    -0.027 A 
HETATM   18  C21 UNL     1       2.239   5.900   9.957  1.00  0.00     0.057 C 
HETATM   19  C14 UNL     1       0.024   6.486  12.875  1.00  0.00    -0.023 A 
HETATM   20  C18 UNL     1       2.585   7.160  12.721  1.00  0.00     0.041 C 
HETATM   21  C19 UNL     1       3.568   7.385  11.556  1.00  0.00     0.005 C 
HETATM   22  C20 UNL     1       3.612   6.184  10.592  1.00  0.00     0.006 C 
BRANCH  19  23
HETATM   23  C15 UNL     1      -0.347   7.033  14.224  1.00  0.00     0.052 C 
BRANCH  23  24
HETATM   24  C16 UNL     1      -1.343   6.151  14.974  1.00  0.00     0.115 C 
BRANCH  24  25
HETATM   25  C17 UNL     1      -2.531   6.961  15.406  1.00  0.00     0.139 C 
HETATM   26  O3  UNL     1      -3.326   7.511  14.658  1.00  0.00    -0.650 OA
BRANCH  25  27
HETATM   27  O4  UNL     1      -2.577   7.110  16.744  1.00  0.00    -0.776 OA
HETATM   28  H15 UNL     1      -3.003   7.991  16.898  1.00  0.00     0.167 HD
ENDBRANCH  25  27
ENDBRANCH  24  25
ENDBRANCH  23  24
ENDBRANCH  19  23
ENDBRANCH   8  13
BRANCH   1  29
HETATM   29  S1  UNL     1      -7.816   4.110  12.730  1.00  0.00     0.175 S 
HETATM   30  O1  UNL     1      -8.053   5.233  11.843  1.00  0.00    -0.223 OA
HETATM   31  O2  UNL     1      -8.766   3.017  12.809  1.00  0.00    -0.223 OA
BRANCH  29  32
HETATM   32  C2  UNL     1      -7.566   4.739  14.378  1.00  0.00     0.141 C 
HETATM   33  C1  UNL     1      -7.401   6.245  14.432  1.00  0.00     0.021 C 
ENDBRANCH  29  32
ENDBRANCH   1  29
TORSDOF 7
ENDMDL
MODEL 3
REMARK minimizedAffinity -9.07403088
REMARK  7 active torsions:
REMARK  status: ('A' for Active; 'I' for Inactive)
REMARK    1  A    between atoms: C2_2  and  S1_3 
REMARK    2  A    between atoms: S1_3  and  C3_6 
REMARK    3  A    between atoms: C10_13  and  C11_14 
REMARK    4  A    between atoms: C14_18  and  C15_19 
REMARK    5  A    between atoms: C15_19  and  C16_20 
REMARK    6  A    between atoms: C16_20  and  C17_21 
REMARK    7  A    between atoms: C17_21  and  O4_23 
ROOT
HETATM    1  C3  UNL     1      -6.202   3.404  12.697  1.00  0.00     0.060 A 
HETATM    2  C4  UNL     1      -6.221   2.113  12.128  1.00  0.00     0.026 A 
HETATM    3  C5  UNL     1      -5.065   1.583  11.553  1.00  0.00     0.032 A 
HETATM    4  C6  UNL     1      -3.932   2.373  11.561  1.00  0.00     0.046 A 
HETATM    5  C7  UNL     1      -3.909   3.661  12.106  1.00  0.00     0.008 A 
HETATM    6  C8  UNL     1      -5.049   4.199  12.680  1.00  0.00     0.038 A 
HETATM    7  C9  UNL     1      -2.543   4.169  11.906  1.00  0.00     0.047 A 
HETATM    8  C10 UNL     1      -2.125   5.383  12.294  1.00  0.00     0.048 C 
HETATM    9  C22 UNL     1      -1.779   3.083  11.184  1.00  0.00     0.257 A 
HETATM   10  O5  UNL     1      -0.631   3.086  10.781  1.00  0.00    -0.267 OA
HETATM   11  N2  UNL     1      -2.686   2.042  11.042  1.00  0.00    -0.322 N 
HETATM   12  H24 UNL     1      -2.458   1.188  10.555  1.00  0.00     0.169 HD
ENDROOT
BRANCH   8  13
HETATM   13  C11 UNL     1      -0.811   5.874  12.117  1.00  0.00     0.040 A 
HETATM   14  N1  UNL     1      -0.305   5.935  10.840  1.00  0.00    -0.359 N 
HETATM   15  C12 UNL     1       1.003   6.320  10.892  1.00  0.00     0.016 A 
HETATM   16  H10 UNL     1      -0.820   5.724   9.996  1.00  0.00     0.166 HD
HETATM   17  C13 UNL     1       1.342   6.546  12.210  1.00  0.00    -0.027 A 
HETATM   18  C21 UNL     1       1.884   6.509   9.709  1.00  0.00     0.057 C 
HETATM   19  C14 UNL     1       0.184   6.280  12.999  1.00  0.00    -0.023 A 
HETATM   20  C18 UNL     1       2.712   6.982  12.614  1.00  0.00     0.041 C 
HETATM   21  C19 UNL     1       3.507   7.517  11.406  1.00  0.00     0.005 C 
HETATM   22  C20 UNL     1       3.351   6.619  10.164  1.00  0.00     0.006 C 
BRANCH  19  23
HETATM   23  C15 UNL     1       0.053   6.442  14.486  1.00  0.00     0.052 C 
BRANCH  23  24
HETATM   24  C16 UNL     1      -1.378   6.731  14.932  1.00  0.00     0.115 C 
BRANCH  24  25
HETATM   25  C17 UNL     1      -1.382   7.745  16.040  1.00  0.00     0.139 C 
HETATM   26  O3  UNL     1      -0.492   8.549  16.270  1.00  0.00    -0.650 OA
BRANCH  25  27
HETATM   27  O4  UNL     1      -2.456   7.606  16.843  1.00  0.00    -0.776 OA
HETATM   28  H15 UNL     1      -2.153   7.894  17.741  1.00  0.00     0.167 HD
ENDBRANCH  25  27
ENDBRANCH  24  25
ENDBRANCH  23  24
ENDBRANCH  19  23
ENDBRANCH   8  13
BRANCH   1  29
HETATM   29  S1  UNL     1      -7.702   4.050  13.409  1.00  0.00     0.175 S 
HETATM   30  O1  UNL     1      -8.808   3.271  12.886  1.00  0.00    -0.223 OA
HETATM   31  O2  UNL     1      -7.475   4.146  14.838  1.00  0.00    -0.223 OA
BRANCH  29  32
HETATM   32  C2  UNL     1      -7.826   5.705  12.762  1.00  0.00     0.141 C 
HETATM   33  C1  UNL     1      -8.817   5.837  11.623  1.00  0.00     0.021 C 
ENDBRANCH  29  32
ENDBRANCH   1  29
TORSDOF 7
ENDMDL
MODEL 4
REMARK minimizedAffinity -9.02019882
REMARK  7 active torsions:
REMARK  status: ('A' for Active; 'I' for Inactive)
REMARK    1  A    between atoms: C2_2  and  S1_3 
REMARK    2  A    between atoms: S1_3  and  C3_6 
REMARK    3  A    between atoms: C10_13  and  C11_14 
REMARK    4  A    between atoms: C14_18  and  C15_19 
REMARK    5  A    between atoms: C15_19  and  C16_20 
REMARK    6  A    between atoms: C16_20  and  C17_21 
REMARK    7  A    between atoms: C17_21  and  O4_23 
ROOT
HETATM    1  C3  UNL     1      -5.975   3.595  12.722  1.00  0.00     0.060 A 
HETATM    2  C4  UNL     1      -5.890   2.430  11.930  1.00  0.00     0.026 A 
HETATM    3  C5  UNL     1      -4.665   2.040  11.387  1.00  0.00     0.032 A 
HETATM    4  C6  UNL     1      -3.569   2.839  11.650  1.00  0.00     0.046 A 
HETATM    5  C7  UNL     1      -3.649   4.005  12.418  1.00  0.00     0.008 A 
HETATM    6  C8  UNL     1      -4.858   4.405  12.963  1.00  0.00     0.038 A 
HETATM    7  C9  UNL     1      -2.292   4.571  12.449  1.00  0.00     0.047 A 
HETATM    8  C10 UNL     1      -1.960   5.702  13.089  1.00  0.00     0.048 C 
HETATM    9  C22 UNL     1      -1.421   3.653  11.623  1.00  0.00     0.257 A 
HETATM   10  O5  UNL     1      -0.240   3.755  11.344  1.00  0.00    -0.267 OA
HETATM   11  N2  UNL     1      -2.268   2.636  11.206  1.00  0.00    -0.322 N 
HETATM   12  H24 UNL     1      -1.962   1.891  10.599  1.00  0.00     0.169 HD
ENDROOT
BRANCH   8  13
HETATM   13  C11 UNL     1      -0.655   6.246  13.135  1.00  0.00     0.040 A 
HETATM   14  N1  UNL     1       0.022   6.214  14.331  1.00  0.00    -0.359 N 
HETATM   15  C12 UNL     1       1.203   6.885  14.198  1.00  0.00     0.016 A 
HETATM   16  H10 UNL     1      -0.305   5.767  15.177  1.00  0.00     0.166 HD
HETATM   17  C13 UNL     1       1.312   7.328  12.896  1.00  0.00    -0.027 A 
HETATM   18  C21 UNL     1       2.213   7.056  15.276  1.00  0.00     0.057 C 
HETATM   19  C14 UNL     1       0.137   6.908  12.204  1.00  0.00    -0.023 A 
HETATM   20  C18 UNL     1       2.495   8.103  12.417  1.00  0.00     0.041 C 
HETATM   21  C19 UNL     1       3.678   7.977  13.397  1.00  0.00     0.005 C 
HETATM   22  C20 UNL     1       3.237   8.130  14.865  1.00  0.00     0.006 C 
BRANCH  19  23
HETATM   23  C15 UNL     1      -0.169   7.110  10.748  1.00  0.00     0.052 C 
BRANCH  23  24
HETATM   24  C16 UNL     1       0.919   7.887  10.010  1.00  0.00     0.115 C 
BRANCH  24  25
HETATM   25  C17 UNL     1       0.432   8.300   8.651  1.00  0.00     0.139 C 
HETATM   26  O3  UNL     1       0.906   7.935   7.586  1.00  0.00    -0.650 OA
BRANCH  25  27
HETATM   27  O4  UNL     1      -0.549   9.221   8.728  1.00  0.00    -0.776 OA
HETATM   28  H15 UNL     1      -0.450   9.780   7.916  1.00  0.00     0.167 HD
ENDBRANCH  25  27
ENDBRANCH  24  25
ENDBRANCH  23  24
ENDBRANCH  19  23
ENDBRANCH   8  13
BRANCH   1  29
HETATM   29  S1  UNL     1      -7.560   4.067  13.386  1.00  0.00     0.175 S 
HETATM   30  O1  UNL     1      -8.553   3.162  12.839  1.00  0.00    -0.223 OA
HETATM   31  O2  UNL     1      -7.387   4.196  14.819  1.00  0.00    -0.223 OA
BRANCH  29  32
HETATM   32  C2  UNL     1      -7.855   5.693  12.721  1.00  0.00     0.141 C 
HETATM   33  C1  UNL     1      -9.285   6.166  12.889  1.00  0.00     0.021 C 
ENDBRANCH  29  32
ENDBRANCH   1  29
TORSDOF 7
ENDMDL
MODEL 5
REMARK minimizedAffinity -8.98624802
REMARK  7 active torsions:
REMARK  status: ('A' for Active; 'I' for Inactive)
REMARK    1  A    between atoms: C2_2  and  S1_3 
REMARK    2  A    between atoms: S1_3  and  C3_6 
REMARK    3  A    between atoms: C10_13  and  C11_14 
REMARK    4  A    between atoms: C14_18  and  C15_19 
REMARK    5  A    between atoms: C15_19  and  C16_20 
REMARK    6  A    between atoms: C16_20  and  C17_21 
REMARK    7  A    between atoms: C17_21  and  O4_23 
ROOT
HETATM    1  C3  UNL     1       2.116   6.537  10.664  1.00  0.00     0.060 A 
HETATM    2  C4  UNL     1       2.915   6.790  11.798  1.00  0.00     0.026 A 
HETATM    3  C5  UNL     1       2.388   6.617  13.079  1.00  0.00     0.032 A 
HETATM    4  C6  UNL     1       1.073   6.204  13.176  1.00  0.00     0.046 A 
HETATM    5  C7  UNL     1       0.269   5.970  12.056  1.00  0.00     0.008 A 
HETATM    6  C8  UNL     1       0.778   6.138  10.779  1.00  0.00     0.038 A 
HETATM    7  C9  UNL     1      -1.049   5.569  12.573  1.00  0.00     0.047 A 
HETATM    8  C10 UNL     1      -2.101   5.261  11.800  1.00  0.00     0.048 C 
HETATM    9  C22 UNL     1      -0.952   5.609  14.081  1.00  0.00     0.257 A 
HETATM   10  O5  UNL     1      -1.813   5.392  14.914  1.00  0.00    -0.267 OA
HETATM   11  N2  UNL     1       0.359   5.977  14.346  1.00  0.00    -0.322 N 
HETATM   12  H24 UNL     1       0.701   6.121  15.283  1.00  0.00     0.169 HD
ENDROOT
BRANCH   8  13
HETATM   13  C11 UNL     1      -3.367   4.863  12.289  1.00  0.00     0.040 A 
HETATM   14  N1  UNL     1      -3.837   3.619  11.940  1.00  0.00    -0.359 N 
HETATM   15  C12 UNL     1      -5.111   3.472  12.408  1.00  0.00     0.016 A 
HETATM   16  H10 UNL     1      -3.322   2.924  11.416  1.00  0.00     0.166 HD
HETATM   17  C13 UNL     1      -5.460   4.615  13.097  1.00  0.00    -0.027 A 
HETATM   18  C21 UNL     1      -5.947   2.254  12.237  1.00  0.00     0.057 C 
HETATM   19  C14 UNL     1      -4.345   5.503  13.041  1.00  0.00    -0.023 A 
HETATM   20  C18 UNL     1      -6.799   4.778  13.738  1.00  0.00     0.041 C 
HETATM   21  C19 UNL     1      -7.520   3.422  13.876  1.00  0.00     0.005 C 
HETATM   22  C20 UNL     1      -7.410   2.572  12.596  1.00  0.00     0.006 C 
BRANCH  19  23
HETATM   23  C15 UNL     1      -4.235   6.849  13.697  1.00  0.00     0.052 C 
BRANCH  23  24
HETATM   24  C16 UNL     1      -5.287   7.842  13.207  1.00  0.00     0.115 C 
BRANCH  24  25
HETATM   25  C17 UNL     1      -6.026   8.432  14.373  1.00  0.00     0.139 C 
HETATM   26  O3  UNL     1      -7.147   8.110  14.740  1.00  0.00    -0.650 OA
BRANCH  25  27
HETATM   27  O4  UNL     1      -5.349   9.455  14.930  1.00  0.00    -0.776 OA
HETATM   28  H15 UNL     1      -6.042  10.070  15.283  1.00  0.00     0.167 HD
ENDBRANCH  25  27
ENDBRANCH  24  25
ENDBRANCH  23  24
ENDBRANCH  19  23
ENDBRANCH   8  13
BRANCH   1  29
HETATM   29  S1  UNL     1       2.820   6.783   9.046  1.00  0.00     0.175 S 
HETATM   30  O1  UNL     1       4.044   7.543   9.210  1.00  0.00    -0.223 OA
HETATM   31  O2  UNL     1       2.837   5.486   8.399  1.00  0.00    -0.223 OA
BRANCH  29  32
HETATM   32  C2  UNL     1       1.635   7.805   8.194  1.00  0.00     0.141 C 
HETATM   33  C1  UNL     1       1.441   7.424   6.740  1.00  0.00     0.021 C 
ENDBRANCH  29  32
ENDBRANCH   1  29
TORSDOF 7
ENDMDL
MODEL 6
REMARK minimizedAffinity -8.84192085
REMARK  7 active torsions:
REMARK  status: ('A' for Active; 'I' for Inactive)
REMARK    1  A    between atoms: C2_2  and  S1_3 
REMARK    2  A    between atoms: S1_3  and  C3_6 
REMARK    3  A    between atoms: C10_13  and  C11_14 
REMARK    4  A    between atoms: C14_18  and  C15_19 
REMARK    5  A    between atoms: C15_19  and  C16_20 
REMARK    6  A    between atoms: C16_20  and  C17_21 
REMARK    7  A    between atoms: C17_21  and  O4_23 
ROOT
HETATM    1  C3  UNL     1       2.358   6.356  11.266  1.00  0.00     0.060 A 
HETATM    2  C4  UNL     1       3.135   7.012  12.244  1.00  0.00     0.026 A 
HETATM    3  C5  UNL     1       2.532   7.506  13.402  1.00  0.00     0.032 A 
HETATM    4  C6  UNL     1       1.168   7.332  13.533  1.00  0.00     0.046 A 
HETATM    5  C7  UNL     1       0.388   6.701  12.559  1.00  0.00     0.008 A 
HETATM    6  C8  UNL     1       0.972   6.206  11.405  1.00  0.00     0.038 A 
HETATM    7  C9  UNL     1      -0.996   6.731  13.057  1.00  0.00     0.047 A 
HETATM    8  C10 UNL     1      -2.047   6.221  12.397  1.00  0.00     0.048 C 
HETATM    9  C22 UNL     1      -0.961   7.447  14.387  1.00  0.00     0.257 A 
HETATM   10  O5  UNL     1      -1.880   7.734  15.132  1.00  0.00    -0.267 OA
HETATM   11  N2  UNL     1       0.377   7.749  14.597  1.00  0.00    -0.322 N 
HETATM   12  H24 UNL     1       0.695   8.268  15.401  1.00  0.00     0.169 HD
ENDROOT
BRANCH   8  13
HETATM   13  C11 UNL     1      -3.377   6.234  12.875  1.00  0.00     0.040 A 
HETATM   14  N1  UNL     1      -3.922   7.439  13.253  1.00  0.00    -0.359 N 
HETATM   15  C12 UNL     1      -5.158   7.225  13.790  1.00  0.00     0.016 A 
HETATM   16  H10 UNL     1      -3.474   8.340  13.154  1.00  0.00     0.166 HD
HETATM   17  C13 UNL     1      -5.437   5.876  13.727  1.00  0.00    -0.027 A 
HETATM   18  C21 UNL     1      -6.061   8.291  14.303  1.00  0.00     0.057 C 
HETATM   19  C14 UNL     1      -4.311   5.236  13.128  1.00  0.00    -0.023 A 
HETATM   20  C18 UNL     1      -6.720   5.305  14.235  1.00  0.00     0.041 C 
HETATM   21  C19 UNL     1      -7.782   6.406  14.431  1.00  0.00     0.005 C 
HETATM   22  C20 UNL     1      -7.202   7.657  15.119  1.00  0.00     0.006 C 
BRANCH  19  23
HETATM   23  C15 UNL     1      -4.176   3.777  12.800  1.00  0.00     0.052 C 
BRANCH  23  24
HETATM   24  C16 UNL     1      -5.434   3.187  12.168  1.00  0.00     0.115 C 
BRANCH  24  25
HETATM   25  C17 UNL     1      -5.104   1.913  11.445  1.00  0.00     0.139 C 
HETATM   26  O3  UNL     1      -5.917   1.129  10.979  1.00  0.00    -0.650 OA
BRANCH  25  27
HETATM   27  O4  UNL     1      -3.780   1.662  11.451  1.00  0.00    -0.776 OA
HETATM   28  H15 UNL     1      -3.698   0.674  11.450  1.00  0.00     0.167 HD
ENDBRANCH  25  27
ENDBRANCH  24  25
ENDBRANCH  23  24
ENDBRANCH  19  23
ENDBRANCH   8  13
BRANCH   1  29
HETATM   29  S1  UNL     1       3.162   5.753   9.794  1.00  0.00     0.175 S 
HETATM   30  O1  UNL     1       4.555   6.150   9.861  1.00  0.00    -0.223 OA
HETATM   31  O2  UNL     1       2.796   4.355   9.666  1.00  0.00    -0.223 OA
BRANCH  29  32
HETATM   32  C2  UNL     1       2.386   6.646   8.463  1.00  0.00     0.141 C 
HETATM   33  C1  UNL     1       2.910   8.058   8.296  1.00  0.00     0.021 C 
ENDBRANCH  29  32
ENDBRANCH   1  29
TORSDOF 7
ENDMDL
MODEL 7
REMARK minimizedAffinity -8.78791809
REMARK  7 active torsions:
REMARK  status: ('A' for Active; 'I' for Inactive)
REMARK    1  A    between atoms: C2_2  and  S1_3 
REMARK    2  A    between atoms: S1_3  and  C3_6 
REMARK    3  A    between atoms: C10_13  and  C11_14 
REMARK    4  A    between atoms: C14_18  and  C15_19 
REMARK    5  A    between atoms: C15_19  and  C16_20 
REMARK    6  A    between atoms: C16_20  and  C17_21 
REMARK    7  A    between atoms: C17_21  and  O4_23 
ROOT
HETATM    1  C3  UNL     1      -2.774   3.278  11.835  1.00  0.00     0.060 A 
HETATM    2  C4  UNL     1      -3.050   1.944  11.471  1.00  0.00     0.026 A 
HETATM    3  C5  UNL     1      -4.357   1.456  11.535  1.00  0.00     0.032 A 
HETATM    4  C6  UNL     1      -5.339   2.323  11.973  1.00  0.00     0.046 A 
HETATM    5  C7  UNL     1      -5.070   3.641  12.354  1.00  0.00     0.008 A 
HETATM    6  C8  UNL     1      -3.779   4.139  12.296  1.00  0.00     0.038 A 
HETATM    7  C9  UNL     1      -6.357   4.221  12.768  1.00  0.00     0.047 A 
HETATM    8  C10 UNL     1      -6.513   5.478  13.208  1.00  0.00     0.048 C 
HETATM    9  C22 UNL     1      -7.392   3.129  12.615  1.00  0.00     0.257 A 
HETATM   10  O5  UNL     1      -8.580   3.151  12.879  1.00  0.00    -0.267 OA
HETATM   11  N2  UNL     1      -6.693   2.040  12.114  1.00  0.00    -0.322 N 
HETATM   12  H24 UNL     1      -7.129   1.147  11.948  1.00  0.00     0.169 HD
ENDROOT
BRANCH   8  13
HETATM   13  C11 UNL     1      -7.749   6.046  13.595  1.00  0.00     0.040 A 
HETATM   14  N1  UNL     1      -8.799   5.986  12.709  1.00  0.00    -0.359 N 
HETATM   15  C12 UNL     1      -9.855   6.686  13.216  1.00  0.00     0.016 A 
HETATM   16  H10 UNL     1      -8.789   5.503  11.821  1.00  0.00     0.166 HD
HETATM   17  C13 UNL     1      -9.503   7.176  14.456  1.00  0.00    -0.027 A 
HETATM   18  C21 UNL     1     -11.176   6.839  12.549  1.00  0.00     0.057 C 
HETATM   19  C14 UNL     1      -8.164   6.757  14.714  1.00  0.00    -0.023 A 
HETATM   20  C18 UNL     1     -10.441   7.992  15.284  1.00  0.00     0.041 C 
HETATM   21  C19 UNL     1     -11.892   7.856  14.781  1.00  0.00     0.005 C 
HETATM   22  C20 UNL     1     -11.986   7.947  13.245  1.00  0.00     0.006 C 
BRANCH  19  23
HETATM   23  C15 UNL     1      -7.371   7.004  15.965  1.00  0.00     0.052 C 
BRANCH  23  24
HETATM   24  C16 UNL     1      -5.909   7.350  15.689  1.00  0.00     0.115 C 
BRANCH  24  25
HETATM   25  C17 UNL     1      -5.815   8.653  14.950  1.00  0.00     0.139 C 
HETATM   26  O3  UNL     1      -4.916   8.972  14.186  1.00  0.00    -0.650 OA
BRANCH  25  27
HETATM   27  O4  UNL     1      -6.800   9.502  15.301  1.00  0.00    -0.776 OA
HETATM   28  H15 UNL     1      -6.412  10.409  15.211  1.00  0.00     0.167 HD
ENDBRANCH  25  27
ENDBRANCH  24  25
ENDBRANCH  23  24
ENDBRANCH  19  23
ENDBRANCH   8  13
BRANCH   1  29
HETATM   29  S1  UNL     1      -1.092   3.860  11.753  1.00  0.00     0.175 S 
HETATM   30  O1  UNL     1      -0.222   2.719  11.968  1.00  0.00    -0.223 OA
HETATM   31  O2  UNL     1      -0.986   4.653  10.544  1.00  0.00    -0.223 OA
BRANCH  29  32
HETATM   32  C2  UNL     1      -0.932   4.959  13.146  1.00  0.00     0.141 C 
HETATM   33  C1  UNL     1       0.481   5.463  13.359  1.00  0.00     0.021 C 
ENDBRANCH  29  32
ENDBRANCH   1  29
TORSDOF 7
ENDMDL
MODEL 8
REMARK minimizedAffinity -8.6797533
REMARK  7 active torsions:
REMARK  status: ('A' for Active; 'I' for Inactive)
REMARK    1  A    between atoms: C2_2  and  S1_3 
REMARK    2  A    between atoms: S1_3  and  C3_6 
REMARK    3  A    between atoms: C10_13  and  C11_14 
REMARK    4  A    between atoms: C14_18  and  C15_19 
REMARK    5  A    between atoms: C15_19  and  C16_20 
REMARK    6  A    between atoms: C16_20  and  C17_21 
REMARK    7  A    between atoms: C17_21  and  O4_23 
ROOT
HETATM    1  C3  UNL     1      -4.185   5.406  13.156  1.00  0.00     0.060 A 
HETATM    2  C4  UNL     1      -4.447   4.060  12.826  1.00  0.00     0.026 A 
HETATM    3  C5  UNL     1      -3.425   3.246  12.335  1.00  0.00     0.032 A 
HETATM    4  C6  UNL     1      -2.176   3.817  12.184  1.00  0.00     0.046 A 
HETATM    5  C7  UNL     1      -1.912   5.156  12.490  1.00  0.00     0.008 A 
HETATM    6  C8  UNL     1      -2.917   5.974  12.978  1.00  0.00     0.038 A 
HETATM    7  C9  UNL     1      -0.491   5.377  12.180  1.00  0.00     0.047 A 
HETATM    8  C10 UNL     1       0.143   6.548  12.338  1.00  0.00     0.048 C 
HETATM    9  C22 UNL     1       0.045   4.067  11.650  1.00  0.00     0.257 A 
HETATM   10  O5  UNL     1       1.157   3.801  11.234  1.00  0.00    -0.267 OA
HETATM   11  N2  UNL     1      -1.029   3.190  11.710  1.00  0.00    -0.322 N 
HETATM   12  H24 UNL     1      -0.971   2.239  11.380  1.00  0.00     0.169 HD
ENDROOT
BRANCH   8  13
HETATM   13  C11 UNL     1       1.510   6.766  12.054  1.00  0.00     0.040 A 
HETATM   14  N1  UNL     1       2.354   7.062  13.099  1.00  0.00    -0.359 N 
HETATM   15  C12 UNL     1       3.594   7.351  12.609  1.00  0.00     0.016 A 
HETATM   16  H10 UNL     1       2.094   7.070  14.076  1.00  0.00     0.166 HD
HETATM   17  C13 UNL     1       3.568   7.206  11.237  1.00  0.00    -0.027 A 
HETATM   18  C21 UNL     1       4.776   7.708  13.437  1.00  0.00     0.057 C 
HETATM   19  C14 UNL     1       2.245   6.815  10.875  1.00  0.00    -0.023 A 
HETATM   20  C18 UNL     1       4.775   7.449  10.390  1.00  0.00     0.041 C 
HETATM   21  C19 UNL     1       6.060   7.466  11.241  1.00  0.00     0.005 C 
HETATM   22  C20 UNL     1       5.888   8.279  12.538  1.00  0.00     0.006 C 
BRANCH  19  23
HETATM   23  C15 UNL     1       1.751   6.485   9.496  1.00  0.00     0.052 C 
BRANCH  23  24
HETATM   24  C16 UNL     1       2.787   6.759   8.408  1.00  0.00     0.115 C 
BRANCH  24  25
HETATM   25  C17 UNL     1       2.394   7.967   7.608  1.00  0.00     0.139 C 
HETATM   26  O3  UNL     1       3.052   8.990   7.496  1.00  0.00    -0.650 OA
BRANCH  25  27
HETATM   27  O4  UNL     1       1.155   7.844   7.090  1.00  0.00    -0.776 OA
HETATM   28  H15 UNL     1       0.792   8.765   7.053  1.00  0.00     0.167 HD
ENDBRANCH  25  27
ENDBRANCH  24  25
ENDBRANCH  23  24
ENDBRANCH  19  23
ENDBRANCH   8  13
BRANCH   1  29
HETATM   29  S1  UNL     1      -5.520   6.416  13.767  1.00  0.00     0.175 S 
HETATM   30  O1  UNL     1      -5.501   6.340  15.215  1.00  0.00    -0.223 OA
HETATM   31  O2  UNL     1      -5.414   7.695  13.092  1.00  0.00    -0.223 OA
BRANCH  29  32
HETATM   32  C2  UNL     1      -6.995   5.607  13.181  1.00  0.00     0.141 C 
HETATM   33  C1  UNL     1      -7.521   4.546  14.128  1.00  0.00     0.021 C 
ENDBRANCH  29  32
ENDBRANCH   1  29
TORSDOF 7
ENDMDL
MODEL 9
REMARK minimizedAffinity -8.53368473
REMARK  7 active torsions:
REMARK  status: ('A' for Active; 'I' for Inactive)
REMARK    1  A    between atoms: C2_2  and  S1_3 
REMARK    2  A    between atoms: S1_3  and  C3_6 
REMARK    3  A    between atoms: C10_13  and  C11_14 
REMARK    4  A    between atoms: C14_18  and  C15_19 
REMARK    5  A    between atoms: C15_19  and  C16_20 
REMARK    6  A    between atoms: C16_20  and  C17_21 
REMARK    7  A    between atoms: C17_21  and  O4_23 
ROOT
HETATM    1  C3  UNL     1      -1.420   9.915  16.250  1.00  0.00     0.060 A 
HETATM    2  C4  UNL     1      -2.399  10.832  16.685  1.00  0.00     0.026 A 
HETATM    3  C5  UNL     1      -3.751  10.578  16.450  1.00  0.00     0.032 A 
HETATM    4  C6  UNL     1      -4.072   9.416  15.777  1.00  0.00     0.046 A 
HETATM    5  C7  UNL     1      -3.106   8.511  15.325  1.00  0.00     0.008 A 
HETATM    6  C8  UNL     1      -1.761   8.750  15.551  1.00  0.00     0.038 A 
HETATM    7  C9  UNL     1      -3.840   7.428  14.651  1.00  0.00     0.047 A 
HETATM    8  C10 UNL     1      -3.258   6.365  14.077  1.00  0.00     0.048 C 
HETATM    9  C22 UNL     1      -5.306   7.785  14.730  1.00  0.00     0.257 A 
HETATM   10  O5  UNL     1      -6.268   7.197  14.271  1.00  0.00    -0.267 OA
HETATM   11  N2  UNL     1      -5.347   8.977  15.439  1.00  0.00    -0.322 N 
HETATM   12  H24 UNL     1      -6.207   9.475  15.612  1.00  0.00     0.169 HD
ENDROOT
BRANCH   8  13
HETATM   13  C11 UNL     1      -3.956   5.314  13.439  1.00  0.00     0.040 A 
HETATM   14  N1  UNL     1      -5.309   5.202  13.660  1.00  0.00    -0.359 N 
HETATM   15  C12 UNL     1      -5.771   4.068  13.057  1.00  0.00     0.016 A 
HETATM   16  H10 UNL     1      -5.871   5.855  14.189  1.00  0.00     0.166 HD
HETATM   17  C13 UNL     1      -4.719   3.456  12.409  1.00  0.00    -0.027 A 
HETATM   18  C21 UNL     1      -7.187   3.615  13.066  1.00  0.00     0.057 C 
HETATM   19  C14 UNL     1      -3.558   4.254  12.633  1.00  0.00    -0.023 A 
HETATM   20  C18 UNL     1      -4.889   2.183  11.646  1.00  0.00     0.041 C 
HETATM   21  C19 UNL     1      -6.376   1.903  11.352  1.00  0.00     0.005 C 
HETATM   22  C20 UNL     1      -7.270   2.156  12.581  1.00  0.00     0.006 C 
BRANCH  19  23
HETATM   23  C15 UNL     1      -2.184   4.017  12.076  1.00  0.00     0.052 C 
BRANCH  23  24
HETATM   24  C16 UNL     1      -2.188   3.151  10.819  1.00  0.00     0.115 C 
BRANCH  24  25
HETATM   25  C17 UNL     1      -1.218   2.015  10.966  1.00  0.00     0.139 C 
HETATM   26  O3  UNL     1      -0.011   2.128  11.123  1.00  0.00    -0.650 OA
BRANCH  25  27
HETATM   27  O4  UNL     1      -1.817   0.819  10.803  1.00  0.00    -0.776 OA
HETATM   28  H15 UNL     1      -1.125   0.228  10.412  1.00  0.00     0.167 HD
ENDBRANCH  25  27
ENDBRANCH  24  25
ENDBRANCH  23  24
ENDBRANCH  19  23
ENDBRANCH   8  13
BRANCH   1  29
HETATM   29  S1  UNL     1       0.297  10.282  16.556  1.00  0.00     0.175 S 
HETATM   30  O1  UNL     1       0.898   9.104  17.152  1.00  0.00    -0.223 OA
HETATM   31  O2  UNL     1       0.827  10.841  15.328  1.00  0.00    -0.223 OA
BRANCH  29  32
HETATM   32  C2  UNL     1       0.264  11.576  17.780  1.00  0.00     0.141 C 
HETATM   33  C1  UNL     1       0.019  11.073  19.188  1.00  0.00     0.021 C 
ENDBRANCH  29  32
ENDBRANCH   1  29
TORSDOF 7
ENDMDL
