MODEL 1
REMARK minimizedAffinity -9.81758499
REMARK  4 active torsions:
REMARK  status: ('A' for Active; 'I' for Inactive)
REMARK    1  A    between atoms: C3_5  and  C4_6 
REMARK    2  A    between atoms: C13_19  and  N3_20 
REMARK    3  A    between atoms: N3_20  and  C14_21 
REMARK    4  A    between atoms: C18_25  and  N4_26 
ROOT
HETATM    1  C1  UNL     1      -1.315  49.857 -20.760  1.00  0.00     0.161 C 
HETATM    2  N1  UNL     1      -0.743  50.885 -21.612  1.00  0.00    -0.303 N 
HETATM    3  C2  UNL     1      -0.904  50.811 -22.986  1.00  0.00     0.260 A 
HETATM    4  O1  UNL     1      -1.517  49.907 -23.554  1.00  0.00    -0.267 OA
HETATM    5  C3  UNL     1      -0.286  51.906 -23.807  1.00  0.00     0.047 A 
HETATM    6  C10 UNL     1       0.389  52.907 -23.220  1.00  0.00     0.034 A 
HETATM    7  C11 UNL     1       0.520  52.926 -21.773  1.00  0.00     0.026 A 
HETATM    8  C12 UNL     1       1.191  53.912 -21.088  1.00  0.00     0.121 A 
HETATM    9  N2  UNL     1       1.316  53.937 -19.748  1.00  0.00    -0.201 N 
ATOM     10  H2  UNL     1       1.822  54.688 -19.278  1.00  0.00     0.183 HD
HETATM   11  C13 UNL     1       0.753  52.938 -19.056  1.00  0.00     0.684 A 
HETATM   12  N5  UNL     1       0.076  51.935 -19.637  1.00  0.00    -0.175 N 
ATOM     13  H5  UNL     1      -0.344  51.192 -19.078  1.00  0.00     0.186 HD
HETATM   14  C20 UNL     1      -0.033  51.939 -20.983  1.00  0.00     0.137 A 
ENDROOT
BRANCH  11  15
HETATM   15  N3  UNL     1       0.821  52.868 -17.668  1.00  0.00    -0.192 N 
HETATM   16  H9  UNL     1      -0.048  53.204 -17.279  1.00  0.00     0.184 HD
BRANCH  15  17
HETATM   17  C14 UNL     1       1.782  52.412 -16.758  1.00  0.00     0.051 A 
HETATM   18  C15 UNL     1       3.098  52.884 -16.886  1.00  0.00     0.030 A 
HETATM   19  C16 UNL     1       4.100  52.479 -16.002  1.00  0.00     0.004 A 
HETATM   20  C17 UNL     1       3.807  51.574 -14.987  1.00  0.00     0.023 A 
HETATM   21  C18 UNL     1       2.526  51.035 -14.872  1.00  0.00     0.008 A 
HETATM   22  C19 UNL     1       1.517  51.499 -15.729  1.00  0.00     0.053 A 
BRANCH  21  23
HETATM   23  N4  UNL     1       2.204  50.213 -13.783  1.00  0.00    -0.303 NA
HETATM   24  H13 UNL     1       2.988  49.673 -13.434  1.00  0.00     0.124 HD
HETATM   25  H14 UNL     1       1.380  49.641 -13.941  1.00  0.00     0.124 HD
ENDBRANCH  21  23
ENDBRANCH  15  17
ENDBRANCH  11  15
BRANCH   5  26
HETATM   26  C4  UNL     1      -0.423  51.880 -25.278  1.00  0.00     0.023 A 
HETATM   27  C5  UNL     1       0.677  51.576 -26.100  1.00  0.00     0.046 A 
HETATM   28 CL1  UNL     1       2.231  51.187 -25.443  1.00  0.00    -0.083 Cl
HETATM   29  C6  UNL     1       0.548  51.567 -27.494  1.00  0.00     0.025 A 
HETATM   30  C7  UNL     1      -0.677  51.862 -28.087  1.00  0.00     0.003 A 
HETATM   31  C8  UNL     1      -1.777  52.165 -27.289  1.00  0.00     0.025 A 
HETATM   32  C9  UNL     1      -1.653  52.175 -25.895  1.00  0.00     0.046 A 
HETATM   33 CL2  UNL     1      -3.072  52.550 -24.974  1.00  0.00    -0.083 Cl
ENDBRANCH   5  26
TORSDOF 4
ENDMDL
MODEL 2
REMARK minimizedAffinity -9.80939484
REMARK  4 active torsions:
REMARK  status: ('A' for Active; 'I' for Inactive)
REMARK    1  A    between atoms: C3_5  and  C4_6 
REMARK    2  A    between atoms: C13_19  and  N3_20 
REMARK    3  A    between atoms: N3_20  and  C14_21 
REMARK    4  A    between atoms: C18_25  and  N4_26 
ROOT
HETATM    1  C1  UNL     1      -1.359  49.842 -20.727  1.00  0.00     0.161 C 
HETATM    2  N1  UNL     1      -0.787  50.870 -21.580  1.00  0.00    -0.303 N 
HETATM    3  C2  UNL     1      -0.957  50.800 -22.954  1.00  0.00     0.260 A 
HETATM    4  O1  UNL     1      -1.579  49.902 -23.520  1.00  0.00    -0.267 OA
HETATM    5  C3  UNL     1      -0.339  51.895 -23.776  1.00  0.00     0.047 A 
HETATM    6  C10 UNL     1       0.345  52.890 -23.190  1.00  0.00     0.034 A 
HETATM    7  C11 UNL     1       0.486  52.904 -21.744  1.00  0.00     0.026 A 
HETATM    8  C12 UNL     1       1.168  53.885 -21.061  1.00  0.00     0.121 A 
HETATM    9  N2  UNL     1       1.302  53.905 -19.721  1.00  0.00    -0.201 N 
ATOM     10  H2  UNL     1       1.814  54.652 -19.253  1.00  0.00     0.183 HD
HETATM   11  C13 UNL     1       0.738  52.907 -19.028  1.00  0.00     0.684 A 
HETATM   12  N5  UNL     1       0.051  51.910 -19.608  1.00  0.00    -0.175 N 
ATOM     13  H5  UNL     1      -0.369  51.167 -19.048  1.00  0.00     0.186 HD
HETATM   14  C20 UNL     1      -0.067  51.918 -20.953  1.00  0.00     0.137 A 
ENDROOT
BRANCH  11  15
HETATM   15  N3  UNL     1       0.814  52.833 -17.641  1.00  0.00    -0.192 N 
HETATM   16  H9  UNL     1      -0.059  53.149 -17.246  1.00  0.00     0.184 HD
BRANCH  15  17
HETATM   17  C14 UNL     1       1.790  52.394 -16.738  1.00  0.00     0.051 A 
HETATM   18  C15 UNL     1       3.093  52.898 -16.868  1.00  0.00     0.030 A 
HETATM   19  C16 UNL     1       4.109  52.512 -15.991  1.00  0.00     0.004 A 
HETATM   20  C17 UNL     1       3.842  51.593 -14.980  1.00  0.00     0.023 A 
HETATM   21  C18 UNL     1       2.574  51.022 -14.864  1.00  0.00     0.008 A 
HETATM   22  C19 UNL     1       1.551  51.468 -15.715  1.00  0.00     0.053 A 
BRANCH  21  23
HETATM   23  N4  UNL     1       2.277  50.186 -13.780  1.00  0.00    -0.303 NA
HETATM   24  H13 UNL     1       3.076  49.662 -13.438  1.00  0.00     0.124 HD
HETATM   25  H14 UNL     1       1.466  49.595 -13.939  1.00  0.00     0.124 HD
ENDBRANCH  21  23
ENDBRANCH  15  17
ENDBRANCH  11  15
BRANCH   5  26
HETATM   26  C4  UNL     1      -0.486  51.873 -25.245  1.00  0.00     0.023 A 
HETATM   27  C5  UNL     1      -1.723  52.158 -25.851  1.00  0.00     0.046 A 
HETATM   28 CL1  UNL     1      -3.122  52.579 -24.921  1.00  0.00    -0.083 Cl
HETATM   29  C6  UNL     1      -1.864  52.121 -27.243  1.00  0.00     0.025 A 
HETATM   30  C7  UNL     1      -0.776  51.799 -28.050  1.00  0.00     0.003 A 
HETATM   31  C8  UNL     1       0.457  51.514 -27.467  1.00  0.00     0.025 A 
HETATM   32  C9  UNL     1       0.602  51.550 -26.076  1.00  0.00     0.046 A 
HETATM   33 CL2  UNL     1       2.171  51.194 -25.432  1.00  0.00    -0.083 Cl
ENDBRANCH   5  26
TORSDOF 4
ENDMDL
MODEL 3
REMARK minimizedAffinity -9.13877201
REMARK  4 active torsions:
REMARK  status: ('A' for Active; 'I' for Inactive)
REMARK    1  A    between atoms: C3_5  and  C4_6 
REMARK    2  A    between atoms: C13_19  and  N3_20 
REMARK    3  A    between atoms: N3_20  and  C14_21 
REMARK    4  A    between atoms: C18_25  and  N4_26 
ROOT
HETATM    1  C1  UNL     1      -3.156  51.406 -19.136  1.00  0.00     0.161 C 
HETATM    2  N1  UNL     1      -2.366  51.342 -20.353  1.00  0.00    -0.303 N 
HETATM    3  C2  UNL     1      -2.932  50.850 -21.518  1.00  0.00     0.260 A 
HETATM    4  O1  UNL     1      -4.094  50.451 -21.597  1.00  0.00    -0.267 OA
HETATM    5  C3  UNL     1      -2.058  50.811 -22.740  1.00  0.00     0.047 A 
HETATM    6  C10 UNL     1      -0.787  51.238 -22.688  1.00  0.00     0.034 A 
HETATM    7  C11 UNL     1      -0.254  51.744 -21.434  1.00  0.00     0.026 A 
HETATM    8  C12 UNL     1       1.034  52.204 -21.291  1.00  0.00     0.121 A 
HETATM    9  N2  UNL     1       1.534  52.674 -20.134  1.00  0.00    -0.201 N 
ATOM     10  H2  UNL     1       2.496  53.008 -20.070  1.00  0.00     0.183 HD
HETATM   11  C13 UNL     1       0.721  52.687 -19.068  1.00  0.00     0.684 A 
HETATM   12  N5  UNL     1      -0.551  52.262 -19.114  1.00  0.00    -0.175 N 
ATOM     13  H5  UNL     1      -1.144  52.290 -18.284  1.00  0.00     0.186 HD
HETATM   14  C20 UNL     1      -1.024  51.797 -20.290  1.00  0.00     0.137 A 
ENDROOT
BRANCH  11  15
HETATM   15  N3  UNL     1       1.136  53.155 -17.826  1.00  0.00    -0.192 N 
HETATM   16  H9  UNL     1       0.815  54.105 -17.707  1.00  0.00     0.184 HD
BRANCH  15  17
HETATM   17  C14 UNL     1       1.833  52.589 -16.752  1.00  0.00     0.051 A 
HETATM   18  C15 UNL     1       3.223  52.778 -16.685  1.00  0.00     0.030 A 
HETATM   19  C16 UNL     1       3.974  52.252 -15.633  1.00  0.00     0.004 A 
HETATM   20  C17 UNL     1       3.350  51.505 -14.638  1.00  0.00     0.023 A 
HETATM   21  C18 UNL     1       1.982  51.243 -14.709  1.00  0.00     0.008 A 
HETATM   22  C19 UNL     1       1.232  51.831 -15.739  1.00  0.00     0.053 A 
BRANCH  21  23
HETATM   23  N4  UNL     1       1.336  50.590 -13.650  1.00  0.00    -0.303 NA
HETATM   24  H13 UNL     1       1.929  49.933 -13.154  1.00  0.00     0.124 HD
HETATM   25  H14 UNL     1       0.443  50.183 -13.914  1.00  0.00     0.124 HD
ENDBRANCH  21  23
ENDBRANCH  15  17
ENDBRANCH  11  15
BRANCH   5  26
HETATM   26  C4  UNL     1      -2.607  50.295 -24.010  1.00  0.00     0.023 A 
HETATM   27  C5  UNL     1      -2.855  51.158 -25.093  1.00  0.00     0.046 A 
HETATM   28 CL1  UNL     1      -2.506  52.852 -25.011  1.00  0.00    -0.083 Cl
HETATM   29  C6  UNL     1      -3.390  50.669 -26.290  1.00  0.00     0.025 A 
HETATM   30  C7  UNL     1      -3.686  49.315 -26.426  1.00  0.00     0.003 A 
HETATM   31  C8  UNL     1      -3.446  48.446 -25.364  1.00  0.00     0.025 A 
HETATM   32  C9  UNL     1      -2.911  48.930 -24.165  1.00  0.00     0.046 A 
HETATM   33 CL2  UNL     1      -2.633  47.781 -22.899  1.00  0.00    -0.083 Cl
ENDBRANCH   5  26
TORSDOF 4
ENDMDL
MODEL 4
REMARK minimizedAffinity -9.05608177
REMARK  4 active torsions:
REMARK  status: ('A' for Active; 'I' for Inactive)
REMARK    1  A    between atoms: C3_5  and  C4_6 
REMARK    2  A    between atoms: C13_19  and  N3_20 
REMARK    3  A    between atoms: N3_20  and  C14_21 
REMARK    4  A    between atoms: C18_25  and  N4_26 
ROOT
HETATM    1  C1  UNL     1       1.526  54.396 -21.534  1.00  0.00     0.161 C 
HETATM    2  N1  UNL     1       0.805  53.282 -22.125  1.00  0.00    -0.303 N 
HETATM    3  C2  UNL     1       0.628  53.225 -23.498  1.00  0.00     0.260 A 
HETATM    4  O1  UNL     1       1.053  54.078 -24.277  1.00  0.00    -0.267 OA
HETATM    5  C3  UNL     1      -0.128  52.047 -24.043  1.00  0.00     0.047 A 
HETATM    6  C10 UNL     1      -0.604  51.098 -23.221  1.00  0.00     0.034 A 
HETATM    7  C11 UNL     1      -0.384  51.217 -21.790  1.00  0.00     0.026 A 
HETATM    8  C12 UNL     1      -0.834  50.293 -20.877  1.00  0.00     0.121 A 
HETATM    9  N2  UNL     1      -0.633  50.396 -19.549  1.00  0.00    -0.201 N 
ATOM     10  H2  UNL     1      -0.982  49.687 -18.905  1.00  0.00     0.183 HD
HETATM   11  C13 UNL     1       0.042  51.465 -19.107  1.00  0.00     0.684 A 
HETATM   12  N5  UNL     1       0.523  52.416 -19.924  1.00  0.00    -0.175 N 
ATOM     13  H5  UNL     1       1.037  53.216 -19.553  1.00  0.00     0.186 HD
HETATM   14  C20 UNL     1       0.306  52.284 -21.250  1.00  0.00     0.137 A 
ENDROOT
BRANCH  11  15
HETATM   15  N3  UNL     1       0.307  51.668 -17.757  1.00  0.00    -0.192 N 
HETATM   16  H9  UNL     1       0.184  52.646 -17.540  1.00  0.00     0.184 HD
BRANCH  15  17
HETATM   17  C14 UNL     1       0.650  50.826 -16.692  1.00  0.00     0.051 A 
HETATM   18  C15 UNL     1       1.530  51.315 -15.713  1.00  0.00     0.030 A 
HETATM   19  C16 UNL     1       1.901  50.532 -14.618  1.00  0.00     0.004 A 
HETATM   20  C17 UNL     1       1.413  49.234 -14.495  1.00  0.00     0.023 A 
HETATM   21  C18 UNL     1       0.589  48.695 -15.483  1.00  0.00     0.008 A 
HETATM   22  C19 UNL     1       0.178  49.516 -16.544  1.00  0.00     0.053 A 
BRANCH  21  23
HETATM   23  N4  UNL     1       0.008  47.433 -15.302  1.00  0.00    -0.303 NA
HETATM   24  H13 UNL     1       0.574  46.799 -14.746  1.00  0.00     0.124 HD
HETATM   25  H14 UNL     1      -0.310  47.008 -16.168  1.00  0.00     0.124 HD
ENDBRANCH  21  23
ENDBRANCH  15  17
ENDBRANCH  11  15
BRANCH   5  26
HETATM   26  C4  UNL     1      -0.348  51.933 -25.498  1.00  0.00     0.023 A 
HETATM   27  C5  UNL     1      -1.622  52.152 -26.055  1.00  0.00     0.046 A 
HETATM   28 CL1  UNL     1      -2.983  52.595 -25.080  1.00  0.00    -0.083 Cl
HETATM   29  C6  UNL     1      -1.832  52.028 -27.433  1.00  0.00     0.025 A 
HETATM   30  C7  UNL     1      -0.778  51.682 -28.275  1.00  0.00     0.003 A 
HETATM   31  C8  UNL     1       0.489  51.462 -27.742  1.00  0.00     0.025 A 
HETATM   32  C9  UNL     1       0.704  51.585 -26.365  1.00  0.00     0.046 A 
HETATM   33 CL2  UNL     1       2.312  51.306 -25.783  1.00  0.00    -0.083 Cl
ENDBRANCH   5  26
TORSDOF 4
ENDMDL
MODEL 5
REMARK minimizedAffinity -9.02321053
REMARK  4 active torsions:
REMARK  status: ('A' for Active; 'I' for Inactive)
REMARK    1  A    between atoms: C3_5  and  C4_6 
REMARK    2  A    between atoms: C13_19  and  N3_20 
REMARK    3  A    between atoms: N3_20  and  C14_21 
REMARK    4  A    between atoms: C18_25  and  N4_26 
ROOT
HETATM    1  C1  UNL     1      -2.449  47.467 -22.000  1.00  0.00     0.161 C 
HETATM    2  N1  UNL     1      -2.549  48.909 -22.148  1.00  0.00    -0.303 N 
HETATM    3  C2  UNL     1      -1.544  49.725 -21.655  1.00  0.00     0.260 A 
HETATM    4  O1  UNL     1      -0.540  49.301 -21.082  1.00  0.00    -0.267 OA
HETATM    5  C3  UNL     1      -1.712  51.206 -21.841  1.00  0.00     0.047 A 
HETATM    6  C10 UNL     1      -2.795  51.701 -22.461  1.00  0.00     0.034 A 
HETATM    7  C11 UNL     1      -3.813  50.790 -22.956  1.00  0.00     0.026 A 
HETATM    8  C12 UNL     1      -4.951  51.209 -23.603  1.00  0.00     0.121 A 
HETATM    9  N2  UNL     1      -5.898  50.371 -24.065  1.00  0.00    -0.201 N 
ATOM     10  H2  UNL     1      -6.728  50.723 -24.543  1.00  0.00     0.183 HD
HETATM   11  C13 UNL     1      -5.710  49.058 -23.873  1.00  0.00     0.684 A 
HETATM   12  N5  UNL     1      -4.628  48.557 -23.256  1.00  0.00    -0.175 N 
ATOM     13  H5  UNL     1      -4.515  47.551 -23.130  1.00  0.00     0.186 HD
HETATM   14  C20 UNL     1      -3.695  49.423 -22.804  1.00  0.00     0.137 A 
ENDROOT
BRANCH  11  15
HETATM   15  N3  UNL     1      -6.624  48.107 -24.313  1.00  0.00    -0.192 N 
HETATM   16  H9  UNL     1      -6.607  47.318 -23.682  1.00  0.00     0.184 HD
BRANCH  15  17
HETATM   17  C14 UNL     1      -7.540  48.047 -25.370  1.00  0.00     0.051 A 
HETATM   18  C15 UNL     1      -7.166  47.365 -26.538  1.00  0.00     0.030 A 
HETATM   19  C16 UNL     1      -8.038  47.256 -27.623  1.00  0.00     0.004 A 
HETATM   20  C17 UNL     1      -9.295  47.850 -27.566  1.00  0.00     0.023 A 
HETATM   21  C18 UNL     1      -9.674  48.590 -26.446  1.00  0.00     0.008 A 
HETATM   22  C19 UNL     1      -8.810  48.637 -25.341  1.00  0.00     0.053 A 
BRANCH  21  23
HETATM   23  N4  UNL     1     -10.979  49.090 -26.342  1.00  0.00    -0.303 NA
HETATM   24  H13 UNL     1     -11.401  49.317 -27.237  1.00  0.00     0.124 HD
HETATM   25  H14 UNL     1     -11.068  49.846 -25.670  1.00  0.00     0.124 HD
ENDBRANCH  21  23
ENDBRANCH  15  17
ENDBRANCH  11  15
BRANCH   5  26
HETATM   26  C4  UNL     1      -0.673  52.126 -21.335  1.00  0.00     0.023 A 
HETATM   27  C5  UNL     1      -0.652  52.518 -19.984  1.00  0.00     0.046 A 
HETATM   28 CL1  UNL     1      -1.811  51.927 -18.841  1.00  0.00    -0.083 Cl
HETATM   29  C6  UNL     1       0.324  53.403 -19.510  1.00  0.00     0.025 A 
HETATM   30  C7  UNL     1       1.291  53.909 -20.375  1.00  0.00     0.003 A 
HETATM   31  C8  UNL     1       1.285  53.531 -21.716  1.00  0.00     0.025 A 
HETATM   32  C9  UNL     1       0.312  52.647 -22.194  1.00  0.00     0.046 A 
HETATM   33 CL2  UNL     1       0.383  52.219 -23.871  1.00  0.00    -0.083 Cl
ENDBRANCH   5  26
TORSDOF 4
ENDMDL
MODEL 6
REMARK minimizedAffinity -8.9832716
REMARK  4 active torsions:
REMARK  status: ('A' for Active; 'I' for Inactive)
REMARK    1  A    between atoms: C3_5  and  C4_6 
REMARK    2  A    between atoms: C13_19  and  N3_20 
REMARK    3  A    between atoms: N3_20  and  C14_21 
REMARK    4  A    between atoms: C18_25  and  N4_26 
ROOT
HETATM    1  C1  UNL     1      -6.877  48.411 -23.853  1.00  0.00     0.161 C 
HETATM    2  N1  UNL     1      -5.487  48.662 -24.191  1.00  0.00    -0.303 N 
HETATM    3  C2  UNL     1      -4.601  49.074 -23.207  1.00  0.00     0.260 A 
HETATM    4  O1  UNL     1      -4.920  49.248 -22.031  1.00  0.00    -0.267 OA
HETATM    5  C3  UNL     1      -3.179  49.316 -23.625  1.00  0.00     0.047 A 
HETATM    6  C10 UNL     1      -2.798  49.136 -24.899  1.00  0.00     0.034 A 
HETATM    7  C11 UNL     1      -3.776  48.702 -25.882  1.00  0.00     0.026 A 
HETATM    8  C12 UNL     1      -3.474  48.491 -27.207  1.00  0.00     0.121 A 
HETATM    9  N2  UNL     1      -4.374  48.088 -28.123  1.00  0.00    -0.201 N 
ATOM     10  H2  UNL     1      -4.109  47.941 -29.097  1.00  0.00     0.183 HD
HETATM   11  C13 UNL     1      -5.632  47.888 -27.707  1.00  0.00     0.684 A 
HETATM   12  N5  UNL     1      -6.019  48.065 -26.434  1.00  0.00    -0.175 N 
ATOM     13  H5  UNL     1      -6.985  47.899 -26.151  1.00  0.00     0.186 HD
HETATM   14  C20 UNL     1      -5.092  48.469 -25.539  1.00  0.00     0.137 A 
ENDROOT
BRANCH  11  15
HETATM   15  N3  UNL     1      -6.640  47.469 -28.570  1.00  0.00    -0.192 N 
HETATM   16  H9  UNL     1      -7.381  47.047 -28.031  1.00  0.00     0.184 HD
BRANCH  15  17
HETATM   17  C14 UNL     1      -6.837  47.550 -29.954  1.00  0.00     0.051 A 
HETATM   18  C15 UNL     1      -7.911  48.319 -30.430  1.00  0.00     0.030 A 
HETATM   19  C16 UNL     1      -8.154  48.452 -31.798  1.00  0.00     0.004 A 
HETATM   20  C17 UNL     1      -7.339  47.797 -32.716  1.00  0.00     0.023 A 
HETATM   21  C18 UNL     1      -6.303  46.972 -32.275  1.00  0.00     0.008 A 
HETATM   22  C19 UNL     1      -6.035  46.899 -30.900  1.00  0.00     0.053 A 
BRANCH  21  23
HETATM   23  N4  UNL     1      -5.414  46.406 -33.198  1.00  0.00    -0.303 NA
HETATM   24  H13 UNL     1      -5.832  46.214 -34.103  1.00  0.00     0.124 HD
HETATM   25  H14 UNL     1      -4.907  45.607 -32.830  1.00  0.00     0.124 HD
ENDBRANCH  21  23
ENDBRANCH  15  17
ENDBRANCH  11  15
BRANCH   5  26
HETATM   26  C4  UNL     1      -2.191  49.758 -22.621  1.00  0.00     0.023 A 
HETATM   27  C5  UNL     1      -1.871  51.120 -22.472  1.00  0.00     0.046 A 
HETATM   28 CL1  UNL     1      -2.635  52.348 -23.425  1.00  0.00    -0.083 Cl
HETATM   29  C6  UNL     1      -0.922  51.535 -21.531  1.00  0.00     0.025 A 
HETATM   30  C7  UNL     1      -0.277  50.599 -20.726  1.00  0.00     0.003 A 
HETATM   31  C8  UNL     1      -0.581  49.246 -20.859  1.00  0.00     0.025 A 
HETATM   32  C9  UNL     1      -1.529  48.827 -21.798  1.00  0.00     0.046 A 
HETATM   33 CL2  UNL     1      -1.857  47.129 -21.893  1.00  0.00    -0.083 Cl
ENDBRANCH   5  26
TORSDOF 4
ENDMDL
MODEL 7
REMARK minimizedAffinity -8.96571159
REMARK  4 active torsions:
REMARK  status: ('A' for Active; 'I' for Inactive)
REMARK    1  A    between atoms: C3_5  and  C4_6 
REMARK    2  A    between atoms: C13_19  and  N3_20 
REMARK    3  A    between atoms: N3_20  and  C14_21 
REMARK    4  A    between atoms: C18_25  and  N4_26 
ROOT
HETATM    1  C1  UNL     1      -6.844  48.435 -23.744  1.00  0.00     0.161 C 
HETATM    2  N1  UNL     1      -5.463  48.682 -24.122  1.00  0.00    -0.303 N 
HETATM    3  C2  UNL     1      -4.554  49.113 -23.169  1.00  0.00     0.260 A 
HETATM    4  O1  UNL     1      -4.843  49.308 -21.988  1.00  0.00    -0.267 OA
HETATM    5  C3  UNL     1      -3.143  49.349 -23.627  1.00  0.00     0.047 A 
HETATM    6  C10 UNL     1      -2.795  49.146 -24.907  1.00  0.00     0.034 A 
HETATM    7  C11 UNL     1      -3.797  48.692 -25.857  1.00  0.00     0.026 A 
HETATM    8  C12 UNL     1      -3.528  48.457 -27.184  1.00  0.00     0.121 A 
HETATM    9  N2  UNL     1      -4.451  48.036 -28.070  1.00  0.00    -0.201 N 
ATOM     10  H2  UNL     1      -4.209  47.871 -29.047  1.00  0.00     0.183 HD
HETATM   11  C13 UNL     1      -5.697  47.842 -27.618  1.00  0.00     0.684 A 
HETATM   12  N5  UNL     1      -6.052  48.042 -26.339  1.00  0.00    -0.175 N 
ATOM     13  H5  UNL     1      -7.010  47.881 -26.029  1.00  0.00     0.186 HD
HETATM   14  C20 UNL     1      -5.103  48.464 -25.475  1.00  0.00     0.137 A 
ENDROOT
BRANCH  11  15
HETATM   15  N3  UNL     1      -6.726  47.406 -28.448  1.00  0.00    -0.192 N 
HETATM   16  H9  UNL     1      -7.382  46.867 -27.902  1.00  0.00     0.184 HD
BRANCH  15  17
HETATM   17  C14 UNL     1      -7.035  47.590 -29.800  1.00  0.00     0.051 A 
HETATM   18  C15 UNL     1      -8.028  48.523 -30.136  1.00  0.00     0.030 A 
HETATM   19  C16 UNL     1      -8.374  48.765 -31.467  1.00  0.00     0.004 A 
HETATM   20  C17 UNL     1      -7.745  48.057 -32.487  1.00  0.00     0.023 A 
HETATM   21  C18 UNL     1      -6.800  47.076 -32.185  1.00  0.00     0.008 A 
HETATM   22  C19 UNL     1      -6.422  46.890 -30.847  1.00  0.00     0.053 A 
BRANCH  21  23
HETATM   23  N4  UNL     1      -6.087  46.446 -33.214  1.00  0.00    -0.303 NA
HETATM   24  H13 UNL     1      -6.609  46.364 -34.081  1.00  0.00     0.124 HD
HETATM   25  H14 UNL     1      -5.667  45.566 -32.932  1.00  0.00     0.124 HD
ENDBRANCH  21  23
ENDBRANCH  15  17
ENDBRANCH  11  15
BRANCH   5  26
HETATM   26  C4  UNL     1      -2.130  49.811 -22.657  1.00  0.00     0.023 A 
HETATM   27  C5  UNL     1      -1.474  48.900 -21.809  1.00  0.00     0.046 A 
HETATM   28 CL1  UNL     1      -1.787  47.198 -21.877  1.00  0.00    -0.083 Cl
HETATM   29  C6  UNL     1      -0.526  49.342 -20.879  1.00  0.00     0.025 A 
HETATM   30  C7  UNL     1      -0.220  50.697 -20.779  1.00  0.00     0.003 A 
HETATM   31  C8  UNL     1      -0.860  51.613 -21.610  1.00  0.00     0.025 A 
HETATM   32  C9  UNL     1      -1.809  51.176 -22.541  1.00  0.00     0.046 A 
HETATM   33 CL2  UNL     1      -2.550  52.378 -23.544  1.00  0.00    -0.083 Cl
ENDBRANCH   5  26
TORSDOF 4
ENDMDL
MODEL 8
REMARK minimizedAffinity -8.89362049
REMARK  4 active torsions:
REMARK  status: ('A' for Active; 'I' for Inactive)
REMARK    1  A    between atoms: C3_5  and  C4_6 
REMARK    2  A    between atoms: C13_19  and  N3_20 
REMARK    3  A    between atoms: N3_20  and  C14_21 
REMARK    4  A    between atoms: C18_25  and  N4_26 
ROOT
HETATM    1  C1  UNL     1      -2.520  47.445 -21.879  1.00  0.00     0.161 C 
HETATM    2  N1  UNL     1      -2.600  48.882 -22.076  1.00  0.00    -0.303 N 
HETATM    3  C2  UNL     1      -1.607  49.704 -21.568  1.00  0.00     0.260 A 
HETATM    4  O1  UNL     1      -0.631  49.290 -20.944  1.00  0.00    -0.267 OA
HETATM    5  C3  UNL     1      -1.752  51.180 -21.807  1.00  0.00     0.047 A 
HETATM    6  C10 UNL     1      -2.805  51.665 -22.485  1.00  0.00     0.034 A 
HETATM    7  C11 UNL     1      -3.811  50.748 -22.992  1.00  0.00     0.026 A 
HETATM    8  C12 UNL     1      -4.919  51.157 -23.697  1.00  0.00     0.121 A 
HETATM    9  N2  UNL     1      -5.855  50.314 -24.170  1.00  0.00    -0.201 N 
ATOM     10  H2  UNL     1      -6.662  50.658 -24.691  1.00  0.00     0.183 HD
HETATM   11  C13 UNL     1      -5.688  49.006 -23.930  1.00  0.00     0.684 A 
HETATM   12  N5  UNL     1      -4.637  48.515 -23.255  1.00  0.00    -0.175 N 
ATOM     13  H5  UNL     1      -4.539  47.512 -23.094  1.00  0.00     0.186 HD
HETATM   14  C20 UNL     1      -3.714  49.386 -22.794  1.00  0.00     0.137 A 
ENDROOT
BRANCH  11  15
HETATM   15  N3  UNL     1      -6.594  48.049 -24.376  1.00  0.00    -0.192 N 
HETATM   16  H9  UNL     1      -6.546  47.243 -23.771  1.00  0.00     0.184 HD
BRANCH  15  17
HETATM   17  C14 UNL     1      -7.534  48.002 -25.412  1.00  0.00     0.051 A 
HETATM   18  C15 UNL     1      -7.197  47.312 -26.588  1.00  0.00     0.030 A 
HETATM   19  C16 UNL     1      -8.094  47.216 -27.652  1.00  0.00     0.004 A 
HETATM   20  C17 UNL     1      -9.341  47.829 -27.569  1.00  0.00     0.023 A 
HETATM   21  C18 UNL     1      -9.682  48.578 -26.442  1.00  0.00     0.008 A 
HETATM   22  C19 UNL     1      -8.793  48.613 -25.357  1.00  0.00     0.053 A 
BRANCH  21  23
HETATM   23  N4  UNL     1     -10.977  49.098 -26.310  1.00  0.00    -0.303 NA
HETATM   24  H13 UNL     1     -11.415  49.331 -27.196  1.00  0.00     0.124 HD
HETATM   25  H14 UNL     1     -11.039  49.857 -25.638  1.00  0.00     0.124 HD
ENDBRANCH  21  23
ENDBRANCH  15  17
ENDBRANCH  11  15
BRANCH   5  26
HETATM   26  C4  UNL     1      -0.725  52.106 -21.288  1.00  0.00     0.023 A 
HETATM   27  C5  UNL     1       0.295  52.594 -22.125  1.00  0.00     0.046 A 
HETATM   28 CL1  UNL     1       0.386  52.170 -23.801  1.00  0.00    -0.083 Cl
HETATM   29  C6  UNL     1       1.277  53.459 -21.627  1.00  0.00     0.025 A 
HETATM   30  C7  UNL     1       1.257  53.847 -20.289  1.00  0.00     0.003 A 
HETATM   31  C8  UNL     1       0.254  53.374 -19.447  1.00  0.00     0.025 A 
HETATM   32  C9  UNL     1      -0.729  52.509 -19.940  1.00  0.00     0.046 A 
HETATM   33 CL2  UNL     1      -1.947  51.975 -18.830  1.00  0.00    -0.083 Cl
ENDBRANCH   5  26
TORSDOF 4
ENDMDL
MODEL 9
REMARK minimizedAffinity -8.62850857
REMARK  4 active torsions:
REMARK  status: ('A' for Active; 'I' for Inactive)
REMARK    1  A    between atoms: C3_5  and  C4_6 
REMARK    2  A    between atoms: C13_19  and  N3_20 
REMARK    3  A    between atoms: N3_20  and  C14_21 
REMARK    4  A    between atoms: C18_25  and  N4_26 
ROOT
HETATM    1  C1  UNL     1      -6.643  48.330 -23.494  1.00  0.00     0.161 C 
HETATM    2  N1  UNL     1      -5.294  48.679 -23.903  1.00  0.00    -0.303 N 
HETATM    3  C2  UNL     1      -4.402  49.194 -22.975  1.00  0.00     0.260 A 
HETATM    4  O1  UNL     1      -4.682  49.383 -21.792  1.00  0.00    -0.267 OA
HETATM    5  C3  UNL     1      -3.024  49.534 -23.466  1.00  0.00     0.047 A 
HETATM    6  C10 UNL     1      -2.686  49.340 -24.751  1.00  0.00     0.034 A 
HETATM    7  C11 UNL     1      -3.668  48.795 -25.673  1.00  0.00     0.026 A 
HETATM    8  C12 UNL     1      -3.408  48.563 -27.003  1.00  0.00     0.121 A 
HETATM    9  N2  UNL     1      -4.313  48.058 -27.863  1.00  0.00    -0.201 N 
ATOM     10  H2  UNL     1      -4.079  47.899 -28.843  1.00  0.00     0.183 HD
HETATM   11  C13 UNL     1      -5.531  47.773 -27.383  1.00  0.00     0.684 A 
HETATM   12  N5  UNL     1      -5.874  47.963 -26.100  1.00  0.00    -0.175 N 
ATOM     13  H5  UNL     1      -6.810  47.732 -25.767  1.00  0.00     0.186 HD
HETATM   14  C20 UNL     1      -4.945  48.470 -25.261  1.00  0.00     0.137 A 
ENDROOT
BRANCH  11  15
HETATM   15  N3  UNL     1      -6.538  47.246 -28.185  1.00  0.00    -0.192 N 
HETATM   16  H9  UNL     1      -6.577  46.246 -28.049  1.00  0.00     0.184 HD
BRANCH  15  17
HETATM   17  C14 UNL     1      -7.481  47.799 -29.060  1.00  0.00     0.051 A 
HETATM   18  C15 UNL     1      -7.021  48.402 -30.241  1.00  0.00     0.030 A 
HETATM   19  C16 UNL     1      -7.910  48.959 -31.162  1.00  0.00     0.004 A 
HETATM   20  C17 UNL     1      -9.277  48.943 -30.905  1.00  0.00     0.023 A 
HETATM   21  C18 UNL     1      -9.763  48.410 -29.711  1.00  0.00     0.008 A 
HETATM   22  C19 UNL     1      -8.862  47.800 -28.826  1.00  0.00     0.053 A 
BRANCH  21  23
HETATM   23  N4  UNL     1     -11.144  48.291 -29.504  1.00  0.00    -0.303 NA
HETATM   24  H13 UNL     1     -11.689  49.010 -29.970  1.00  0.00     0.124 HD
HETATM   25  H14 UNL     1     -11.397  48.188 -28.526  1.00  0.00     0.124 HD
ENDBRANCH  21  23
ENDBRANCH  15  17
ENDBRANCH  11  15
BRANCH   5  26
HETATM   26  C4  UNL     1      -2.031  50.087 -22.523  1.00  0.00     0.023 A 
HETATM   27  C5  UNL     1      -1.311  49.245 -21.656  1.00  0.00     0.046 A 
HETATM   28 CL1  UNL     1      -1.520  47.526 -21.667  1.00  0.00    -0.083 Cl
HETATM   29  C6  UNL     1      -0.383  49.774 -20.752  1.00  0.00     0.025 A 
HETATM   30  C7  UNL     1      -0.160  51.148 -20.698  1.00  0.00     0.003 A 
HETATM   31  C8  UNL     1      -0.864  51.996 -21.549  1.00  0.00     0.025 A 
HETATM   32  C9  UNL     1      -1.793  51.472 -22.455  1.00  0.00     0.046 A 
HETATM   33 CL2  UNL     1      -2.618  52.594 -23.485  1.00  0.00    -0.083 Cl
ENDBRANCH   5  26
TORSDOF 4
ENDMDL
