MODEL 1
REMARK minimizedAffinity -7.03722954
REMARK CNNscore 0.74723953
REMARK CNNaffinity 7.61458349
REMARK  7 active torsions:
REMARK  status: ('A' for Active; 'I' for Inactive)
REMARK    1  A    between atoms: O1_2  and  C2_3 
REMARK    2  A    between atoms: C2_3  and  C3_4 
REMARK    3  A    between atoms: C3_4  and  O2_5 
REMARK    4  A    between atoms: O2_5  and  C4_6 
REMARK    5  A    between atoms: C10_15  and  N3_16 
REMARK    6  A    between atoms: N3_16  and  C11_17 
REMARK    7  A    between atoms: C19_27  and  O3_28 
ROOT
HETATM    1  C4  UNL     1      -2.951  49.703 -24.459  1.00  0.00     0.104 A 
HETATM    2  C5  UNL     1      -1.780  50.393 -24.783  1.00  0.00     0.070 A 
HETATM    3  C6  UNL     1      -1.110  51.180 -23.856  1.00  0.00     0.047 A 
HETATM    4  N1  UNL     1       0.010  51.804 -24.249  1.00  0.00    -0.364 N 
ATOM      5  H1  UNL     1       0.351  51.712 -25.206  1.00  0.00     0.165 HD
HETATM    6  C7  UNL     1       0.676  52.558 -23.347  1.00  0.00     0.113 A 
HETATM    7  C8  UNL     1       0.278  52.730 -22.033  1.00  0.00     0.087 A 
HETATM    8  C9  UNL     1       1.117  53.496 -21.165  1.00  0.00     0.103 C 
HETATM    9  N2  UNL     1       1.818  54.103 -20.469  1.00  0.00    -0.191 NA
HETATM   10  C10 UNL     1      -0.911  52.110 -21.620  1.00  0.00     0.067 A 
HETATM   11  C17 UNL     1      -1.619  51.292 -22.547  1.00  0.00     0.022 A 
HETATM   12  C18 UNL     1      -2.813  50.606 -22.222  1.00  0.00     0.055 A 
HETATM   13  C19 UNL     1      -3.482  49.823 -23.165  1.00  0.00     0.102 A 
ENDROOT
BRANCH  10  14
HETATM   14  N3  UNL     1      -1.366  52.147 -20.263  1.00  0.00    -0.353 N 
HETATM   15  H10 UNL     1      -2.380  52.035 -20.259  1.00  0.00     0.166 HD
BRANCH  14  16
HETATM   16  C11 UNL     1      -0.769  51.510 -19.142  1.00  0.00     0.054 A 
HETATM   17  C12 UNL     1       0.007  52.300 -18.274  1.00  0.00     0.033 A 
HETATM   18  C13 UNL     1       0.630  51.746 -17.152  1.00  0.00     0.026 A 
HETATM   19  C14 UNL     1       0.499  50.387 -16.890  1.00  0.00     0.035 A 
HETATM   20 CL1  UNL     1       1.270  49.705 -15.512  1.00  0.00    -0.084 Cl
HETATM   21  C15 UNL     1      -0.236  49.573 -17.745  1.00  0.00     0.050 A 
HETATM   22  C16 UNL     1      -0.861  50.127 -18.869  1.00  0.00     0.062 A 
HETATM   23 CL2  UNL     1      -1.685  49.020 -19.915  1.00  0.00    -0.082 Cl
ENDBRANCH  14  16
ENDBRANCH  10  14
BRANCH  13  24
HETATM   24  O3  UNL     1      -4.641  49.131 -22.918  1.00  0.00    -0.353 OA
HETATM   25  C20 UNL     1      -4.751  48.451 -21.675  1.00  0.00     0.210 C 
ENDBRANCH  13  24
BRANCH   1  26
HETATM   26  O2  UNL     1      -3.663  48.914 -25.326  1.00  0.00    -0.346 OA
BRANCH  26  27
HETATM   27  C3  UNL     1      -3.064  48.504 -26.553  1.00  0.00     0.201 C 
BRANCH  27  28
HETATM   28  C2  UNL     1      -4.093  48.465 -27.684  1.00  0.00     0.193 C 
BRANCH  28  29
HETATM   29  O1  UNL     1      -3.870  49.493 -28.650  1.00  0.00    -0.394 OA
HETATM   30  C1  UNL     1      -3.104  50.577 -28.141  1.00  0.00     0.201 C 
ENDBRANCH  28  29
ENDBRANCH  27  28
ENDBRANCH  26  27
ENDBRANCH   1  26
TORSDOF 7
ENDMDL
MODEL 2
REMARK minimizedAffinity -6.74761581
REMARK CNNscore 0.709899008
REMARK CNNaffinity 7.48962593
REMARK  7 active torsions:
REMARK  status: ('A' for Active; 'I' for Inactive)
REMARK    1  A    between atoms: O1_2  and  C2_3 
REMARK    2  A    between atoms: C2_3  and  C3_4 
REMARK    3  A    between atoms: C3_4  and  O2_5 
REMARK    4  A    between atoms: O2_5  and  C4_6 
REMARK    5  A    between atoms: C10_15  and  N3_16 
REMARK    6  A    between atoms: N3_16  and  C11_17 
REMARK    7  A    between atoms: C19_27  and  O3_28 
ROOT
HETATM    1  C4  UNL     1      -3.963  48.897 -21.148  1.00  0.00     0.104 A 
HETATM    2  C5  UNL     1      -2.977  49.260 -20.226  1.00  0.00     0.070 A 
HETATM    3  C6  UNL     1      -2.059  50.268 -20.490  1.00  0.00     0.047 A 
HETATM    4  N1  UNL     1      -1.149  50.556 -19.548  1.00  0.00    -0.364 N 
ATOM      5  H1  UNL     1      -1.125  50.038 -18.669  1.00  0.00     0.165 HD
HETATM    6  C7  UNL     1      -0.265  51.547 -19.791  1.00  0.00     0.113 A 
HETATM    7  C8  UNL     1      -0.236  52.294 -20.955  1.00  0.00     0.087 A 
HETATM    8  C9  UNL     1       0.708  53.364 -21.052  1.00  0.00     0.103 C 
HETATM    9  N2  UNL     1       1.465  54.241 -21.106  1.00  0.00    -0.191 NA
HETATM   10  C10 UNL     1      -1.160  51.979 -21.962  1.00  0.00     0.067 A 
HETATM   11  C17 UNL     1      -2.118  50.953 -21.720  1.00  0.00     0.022 A 
HETATM   12  C18 UNL     1      -3.106  50.575 -22.660  1.00  0.00     0.055 A 
HETATM   13  C19 UNL     1      -4.019  49.554 -22.387  1.00  0.00     0.102 A 
ENDROOT
BRANCH  10  14
HETATM   14  N3  UNL     1      -1.278  52.745 -23.167  1.00  0.00    -0.353 N 
HETATM   15  H10 UNL     1      -1.159  53.731 -22.936  1.00  0.00     0.166 HD
BRANCH  14  16
HETATM   16  C11 UNL     1      -0.716  52.438 -24.435  1.00  0.00     0.054 A 
HETATM   17  C12 UNL     1       0.686  52.376 -24.534  1.00  0.00     0.033 A 
HETATM   18  C13 UNL     1       1.314  52.083 -25.749  1.00  0.00     0.026 A 
HETATM   19  C14 UNL     1       0.548  51.865 -26.887  1.00  0.00     0.035 A 
HETATM   20 CL1  UNL     1       1.321  51.509 -28.382  1.00  0.00    -0.084 Cl
HETATM   21  C15 UNL     1      -0.839  51.948 -26.829  1.00  0.00     0.050 A 
HETATM   22  C16 UNL     1      -1.470  52.241 -25.614  1.00  0.00     0.062 A 
HETATM   23 CL2  UNL     1      -3.193  52.403 -25.660  1.00  0.00    -0.082 Cl
ENDBRANCH  14  16
ENDBRANCH  10  14
BRANCH  13  24
HETATM   24  O3  UNL     1      -5.002  49.140 -23.250  1.00  0.00    -0.353 OA
HETATM   25  C20 UNL     1      -4.596  48.574 -24.488  1.00  0.00     0.210 C 
ENDBRANCH  13  24
BRANCH   1  26
HETATM   26  O2  UNL     1      -4.894  47.909 -20.953  1.00  0.00    -0.346 OA
BRANCH  26  27
HETATM   27  C3  UNL     1      -5.810  48.014 -19.865  1.00  0.00     0.201 C 
BRANCH  27  28
HETATM   28  C2  UNL     1      -6.896  49.050 -20.157  1.00  0.00     0.193 C 
BRANCH  28  29
HETATM   29  O1  UNL     1      -7.847  49.145 -19.095  1.00  0.00    -0.394 OA
HETATM   30  C1  UNL     1      -7.474  48.397 -17.946  1.00  0.00     0.201 C 
ENDBRANCH  28  29
ENDBRANCH  27  28
ENDBRANCH  26  27
ENDBRANCH   1  26
TORSDOF 7
ENDMDL
MODEL 3
REMARK minimizedAffinity -7.71978188
REMARK CNNscore 0.597897351
REMARK CNNaffinity 7.11591101
REMARK  7 active torsions:
REMARK  status: ('A' for Active; 'I' for Inactive)
REMARK    1  A    between atoms: O1_2  and  C2_3 
REMARK    2  A    between atoms: C2_3  and  C3_4 
REMARK    3  A    between atoms: C3_4  and  O2_5 
REMARK    4  A    between atoms: O2_5  and  C4_6 
REMARK    5  A    between atoms: C10_15  and  N3_16 
REMARK    6  A    between atoms: N3_16  and  C11_17 
REMARK    7  A    between atoms: C19_27  and  O3_28 
ROOT
HETATM    1  C4  UNL     1      -0.257  51.324 -19.489  1.00  0.00     0.104 A 
HETATM    2  C5  UNL     1      -0.830  50.078 -19.761  1.00  0.00     0.070 A 
HETATM    3  C6  UNL     1      -1.426  49.793 -20.982  1.00  0.00     0.047 A 
HETATM    4  N1  UNL     1      -1.948  48.571 -21.160  1.00  0.00    -0.364 N 
ATOM      5  H1  UNL     1      -1.918  47.876 -20.414  1.00  0.00     0.165 HD
HETATM    6  C7  UNL     1      -2.514  48.282 -22.352  1.00  0.00     0.113 A 
HETATM    7  C8  UNL     1      -2.590  49.168 -23.412  1.00  0.00     0.087 A 
HETATM    8  C9  UNL     1      -3.151  48.708 -24.643  1.00  0.00     0.103 C 
HETATM    9  N2  UNL     1      -3.590  48.312 -25.642  1.00  0.00    -0.191 NA
HETATM   10  C10 UNL     1      -2.079  50.462 -23.225  1.00  0.00     0.067 A 
HETATM   11  C17 UNL     1      -1.457  50.783 -21.984  1.00  0.00     0.022 A 
HETATM   12  C18 UNL     1      -0.891  52.049 -21.705  1.00  0.00     0.055 A 
HETATM   13  C19 UNL     1      -0.300  52.327 -20.470  1.00  0.00     0.102 A 
ENDROOT
BRANCH  10  14
HETATM   14  N3  UNL     1      -2.024  51.428 -24.281  1.00  0.00    -0.353 N 
HETATM   15  H10 UNL     1      -2.236  52.346 -23.891  1.00  0.00     0.166 HD
BRANCH  14  16
HETATM   16  C11 UNL     1      -1.051  51.514 -25.313  1.00  0.00     0.054 A 
HETATM   17  C12 UNL     1       0.291  51.703 -24.935  1.00  0.00     0.033 A 
HETATM   18  C13 UNL     1       1.306  51.802 -25.891  1.00  0.00     0.026 A 
HETATM   19  C14 UNL     1       0.990  51.731 -27.243  1.00  0.00     0.035 A 
HETATM   20 CL1  UNL     1       2.239  51.858 -28.419  1.00  0.00    -0.084 Cl
HETATM   21  C15 UNL     1      -0.330  51.575 -27.650  1.00  0.00     0.050 A 
HETATM   22  C16 UNL     1      -1.348  51.476 -26.693  1.00  0.00     0.062 A 
HETATM   23 CL2  UNL     1      -2.966  51.365 -27.299  1.00  0.00    -0.082 Cl
ENDBRANCH  14  16
ENDBRANCH  10  14
BRANCH  13  24
HETATM   24  O3  UNL     1       0.268  53.530 -20.134  1.00  0.00    -0.353 OA
HETATM   25  C20 UNL     1       1.311  54.021 -20.965  1.00  0.00     0.210 C 
ENDBRANCH  13  24
BRANCH   1  26
HETATM   26  O2  UNL     1       0.342  51.671 -18.305  1.00  0.00    -0.346 OA
BRANCH  26  27
HETATM   27  C3  UNL     1       0.185  50.828 -17.166  1.00  0.00     0.201 C 
BRANCH  27  28
HETATM   28  C2  UNL     1       1.156  51.218 -16.053  1.00  0.00     0.193 C 
BRANCH  28  29
HETATM   29  O1  UNL     1       1.592  52.574 -16.169  1.00  0.00    -0.394 OA
HETATM   30  C1  UNL     1       2.997  52.692 -16.350  1.00  0.00     0.201 C 
ENDBRANCH  28  29
ENDBRANCH  27  28
ENDBRANCH  26  27
ENDBRANCH   1  26
TORSDOF 7
ENDMDL
MODEL 4
REMARK minimizedAffinity -6.30181789
REMARK CNNscore 0.569771171
REMARK CNNaffinity 6.62595415
REMARK  7 active torsions:
REMARK  status: ('A' for Active; 'I' for Inactive)
REMARK    1  A    between atoms: O1_2  and  C2_3 
REMARK    2  A    between atoms: C2_3  and  C3_4 
REMARK    3  A    between atoms: C3_4  and  O2_5 
REMARK    4  A    between atoms: O2_5  and  C4_6 
REMARK    5  A    between atoms: C10_15  and  N3_16 
REMARK    6  A    between atoms: N3_16  and  C11_17 
REMARK    7  A    between atoms: C19_27  and  O3_28 
ROOT
HETATM    1  C4  UNL     1      -1.531  51.207 -13.869  1.00  0.00     0.104 A 
HETATM    2  C5  UNL     1      -2.233  51.537 -12.706  1.00  0.00     0.070 A 
HETATM    3  C6  UNL     1      -1.722  52.418 -11.763  1.00  0.00     0.047 A 
HETATM    4  N1  UNL     1      -2.465  52.682 -10.678  1.00  0.00    -0.364 N 
ATOM      5  H1  UNL     1      -3.373  52.238 -10.546  1.00  0.00     0.165 HD
HETATM    6  C7  UNL     1      -1.980  53.552  -9.765  1.00  0.00     0.113 A 
HETATM    7  C8  UNL     1      -0.760  54.195  -9.875  1.00  0.00     0.087 A 
HETATM    8  C9  UNL     1      -0.402  55.147  -8.870  1.00  0.00     0.103 C 
HETATM    9  N2  UNL     1      -0.135  55.932  -8.059  1.00  0.00    -0.191 NA
HETATM   10  C10 UNL     1       0.042  53.899 -10.988  1.00  0.00     0.067 A 
HETATM   11  C17 UNL     1      -0.458  53.003 -11.976  1.00  0.00     0.022 A 
HETATM   12  C18 UNL     1       0.261  52.658 -13.145  1.00  0.00     0.055 A 
HETATM   13  C19 UNL     1      -0.261  51.765 -14.084  1.00  0.00     0.102 A 
ENDROOT
BRANCH  10  14
HETATM   14  N3  UNL     1       1.278  54.573 -11.247  1.00  0.00    -0.353 N 
HETATM   15  H10 UNL     1       1.106  55.579 -11.240  1.00  0.00     0.166 HD
BRANCH  14  16
HETATM   16  C11 UNL     1       2.553  54.262 -10.704  1.00  0.00     0.054 A 
HETATM   17  C12 UNL     1       2.723  52.997 -10.111  1.00  0.00     0.033 A 
HETATM   18  C13 UNL     1       3.947  52.617  -9.552  1.00  0.00     0.026 A 
HETATM   19  C14 UNL     1       5.016  53.506  -9.561  1.00  0.00     0.035 A 
HETATM   20 CL1  UNL     1       6.519  53.041  -8.867  1.00  0.00    -0.084 Cl
HETATM   21  C15 UNL     1       4.871  54.775 -10.112  1.00  0.00     0.050 A 
HETATM   22  C16 UNL     1       3.647  55.156 -10.672  1.00  0.00     0.062 A 
HETATM   23 CL2  UNL     1       3.541  56.782 -11.260  1.00  0.00    -0.082 Cl
ENDBRANCH  14  16
ENDBRANCH  10  14
BRANCH  13  24
HETATM   24  O3  UNL     1       0.380  51.389 -15.237  1.00  0.00    -0.353 OA
HETATM   25  C20 UNL     1       1.568  52.085 -15.589  1.00  0.00     0.210 C 
ENDBRANCH  13  24
BRANCH   1  26
HETATM   26  O2  UNL     1      -1.976  50.343 -14.836  1.00  0.00    -0.346 OA
BRANCH  26  27
HETATM   27  C3  UNL     1      -2.996  50.764 -15.738  1.00  0.00     0.201 C 
BRANCH  27  28
HETATM   28  C2  UNL     1      -2.580  50.529 -17.191  1.00  0.00     0.193 C 
BRANCH  28  29
HETATM   29  O1  UNL     1      -2.869  51.653 -18.022  1.00  0.00    -0.394 OA
HETATM   30  C1  UNL     1      -3.055  51.302 -19.387  1.00  0.00     0.201 C 
ENDBRANCH  28  29
ENDBRANCH  27  28
ENDBRANCH  26  27
ENDBRANCH   1  26
TORSDOF 7
ENDMDL
MODEL 5
REMARK minimizedAffinity -7.43185663
REMARK CNNscore 0.505307853
REMARK CNNaffinity 6.84915876
REMARK  7 active torsions:
REMARK  status: ('A' for Active; 'I' for Inactive)
REMARK    1  A    between atoms: O1_2  and  C2_3 
REMARK    2  A    between atoms: C2_3  and  C3_4 
REMARK    3  A    between atoms: C3_4  and  O2_5 
REMARK    4  A    between atoms: O2_5  and  C4_6 
REMARK    5  A    between atoms: C10_15  and  N3_16 
REMARK    6  A    between atoms: N3_16  and  C11_17 
REMARK    7  A    between atoms: C19_27  and  O3_28 
ROOT
HETATM    1  C4  UNL     1       0.182  51.446 -17.493  1.00  0.00     0.104 A 
HETATM    2  C5  UNL     1       0.763  52.564 -18.099  1.00  0.00     0.070 A 
HETATM    3  C6  UNL     1       0.758  52.740 -19.476  1.00  0.00     0.047 A 
HETATM    4  N1  UNL     1       1.333  53.845 -19.974  1.00  0.00    -0.364 N 
ATOM      5  H1  UNL     1       1.772  54.528 -19.357  1.00  0.00     0.165 HD
HETATM    6  C7  UNL     1       1.316  54.030 -21.312  1.00  0.00     0.113 A 
HETATM    7  C8  UNL     1       0.739  53.151 -22.211  1.00  0.00     0.087 A 
HETATM    8  C9  UNL     1       0.728  53.506 -23.595  1.00  0.00     0.103 C 
HETATM    9  N2  UNL     1       0.709  53.819 -24.713  1.00  0.00    -0.191 NA
HETATM   10  C10 UNL     1       0.165  51.975 -21.705  1.00  0.00     0.067 A 
HETATM   11  C17 UNL     1       0.150  51.768 -20.295  1.00  0.00     0.022 A 
HETATM   12  C18 UNL     1      -0.423  50.628 -19.684  1.00  0.00     0.055 A 
HETATM   13  C19 UNL     1      -0.406  50.459 -18.298  1.00  0.00     0.102 A 
ENDROOT
BRANCH  10  14
HETATM   14  N3  UNL     1      -0.537  51.043 -22.534  1.00  0.00    -0.353 N 
HETATM   15  H10 UNL     1      -0.042  50.151 -22.510  1.00  0.00     0.166 HD
BRANCH  14  16
HETATM   16  C11 UNL     1      -1.944  50.853 -22.608  1.00  0.00     0.054 A 
HETATM   17  C12 UNL     1      -2.746  51.981 -22.858  1.00  0.00     0.033 A 
HETATM   18  C13 UNL     1      -4.138  51.877 -22.942  1.00  0.00     0.026 A 
HETATM   19  C14 UNL     1      -4.749  50.642 -22.759  1.00  0.00     0.035 A 
HETATM   20 CL1  UNL     1      -6.462  50.516 -22.857  1.00  0.00    -0.084 Cl
HETATM   21  C15 UNL     1      -3.987  49.513 -22.481  1.00  0.00     0.050 A 
HETATM   22  C16 UNL     1      -2.593  49.616 -22.397  1.00  0.00     0.062 A 
HETATM   23 CL2  UNL     1      -1.739  48.173 -21.967  1.00  0.00    -0.082 Cl
ENDBRANCH  14  16
ENDBRANCH  10  14
BRANCH  13  24
HETATM   24  O3  UNL     1      -0.944  49.381 -17.641  1.00  0.00    -0.353 OA
HETATM   25  C20 UNL     1      -2.328  49.118 -17.829  1.00  0.00     0.210 C 
ENDBRANCH  13  24
BRANCH   1  26
HETATM   26  O2  UNL     1       0.158  51.210 -16.142  1.00  0.00    -0.346 OA
BRANCH  26  27
HETATM   27  C3  UNL     1       1.318  50.686 -15.501  1.00  0.00     0.201 C 
BRANCH  27  28
HETATM   28  C2  UNL     1       2.089  51.785 -14.770  1.00  0.00     0.193 C 
BRANCH  28  29
HETATM   29  O1  UNL     1       3.495  51.702 -15.005  1.00  0.00    -0.394 OA
HETATM   30  C1  UNL     1       3.939  52.571 -16.039  1.00  0.00     0.201 C 
ENDBRANCH  28  29
ENDBRANCH  27  28
ENDBRANCH  26  27
ENDBRANCH   1  26
TORSDOF 7
ENDMDL
MODEL 6
REMARK minimizedAffinity -7.12159348
REMARK CNNscore 0.432160854
REMARK CNNaffinity 6.99531603
REMARK  7 active torsions:
REMARK  status: ('A' for Active; 'I' for Inactive)
REMARK    1  A    between atoms: O1_2  and  C2_3 
REMARK    2  A    between atoms: C2_3  and  C3_4 
REMARK    3  A    between atoms: C3_4  and  O2_5 
REMARK    4  A    between atoms: O2_5  and  C4_6 
REMARK    5  A    between atoms: C10_15  and  N3_16 
REMARK    6  A    between atoms: N3_16  and  C11_17 
REMARK    7  A    between atoms: C19_27  and  O3_28 
ROOT
HETATM    1  C4  UNL     1      -0.030  50.876 -17.729  1.00  0.00     0.104 A 
HETATM    2  C5  UNL     1       0.574  52.096 -18.049  1.00  0.00     0.070 A 
HETATM    3  C6  UNL     1       0.674  52.547 -19.358  1.00  0.00     0.047 A 
HETATM    4  N1  UNL     1       1.265  53.731 -19.574  1.00  0.00    -0.364 N 
ATOM      5  H1  UNL     1       1.641  54.277 -18.799  1.00  0.00     0.165 HD
HETATM    6  C7  UNL     1       1.350  54.183 -20.844  1.00  0.00     0.113 A 
HETATM    7  C8  UNL     1       0.863  53.503 -21.946  1.00  0.00     0.087 A 
HETATM    8  C9  UNL     1       0.954  54.131 -23.227  1.00  0.00     0.103 C 
HETATM    9  N2  UNL     1       1.017  54.663 -24.256  1.00  0.00    -0.191 NA
HETATM   10  C10 UNL     1       0.274  52.246 -21.736  1.00  0.00     0.067 A 
HETATM   11  C17 UNL     1       0.152  51.759 -20.403  1.00  0.00     0.022 A 
HETATM   12  C18 UNL     1      -0.445  50.517 -20.082  1.00  0.00     0.055 A 
HETATM   13  C19 UNL     1      -0.534  50.070 -18.762  1.00  0.00     0.102 A 
ENDROOT
BRANCH  10  14
HETATM   14  N3  UNL     1      -0.343  51.499 -22.790  1.00  0.00    -0.353 N 
HETATM   15  H10 UNL     1      -1.312  51.316 -22.532  1.00  0.00     0.166 HD
BRANCH  14  16
HETATM   16  C11 UNL     1      -0.211  51.720 -24.187  1.00  0.00     0.054 A 
HETATM   17  C12 UNL     1       1.025  51.415 -24.786  1.00  0.00     0.033 A 
HETATM   18  C13 UNL     1       1.235  51.609 -26.155  1.00  0.00     0.026 A 
HETATM   19  C14 UNL     1       0.215  52.128 -26.943  1.00  0.00     0.035 A 
HETATM   20 CL1  UNL     1       0.475  52.371 -28.626  1.00  0.00    -0.084 Cl
HETATM   21  C15 UNL     1      -1.009  52.468 -26.376  1.00  0.00     0.050 A 
HETATM   22  C16 UNL     1      -1.220  52.275 -25.005  1.00  0.00     0.062 A 
HETATM   23 CL2  UNL     1      -2.746  52.803 -24.379  1.00  0.00    -0.082 Cl
ENDBRANCH  14  16
ENDBRANCH  10  14
BRANCH  13  24
HETATM   24  O3  UNL     1      -1.101  48.880 -18.381  1.00  0.00    -0.353 OA
HETATM   25  C20 UNL     1      -2.108  48.332 -19.220  1.00  0.00     0.210 C 
ENDBRANCH  13  24
BRANCH   1  26
HETATM   26  O2  UNL     1      -0.157  50.371 -16.461  1.00  0.00    -0.346 OA
BRANCH  26  27
HETATM   27  C3  UNL     1      -1.277  50.750 -15.664  1.00  0.00     0.201 C 
BRANCH  27  28
HETATM   28  C2  UNL     1      -0.929  50.722 -14.175  1.00  0.00     0.193 C 
BRANCH  28  29
HETATM   29  O1  UNL     1      -0.959  52.025 -13.591  1.00  0.00    -0.394 OA
HETATM   30  C1  UNL     1       0.315  52.456 -13.130  1.00  0.00     0.201 C 
ENDBRANCH  28  29
ENDBRANCH  27  28
ENDBRANCH  26  27
ENDBRANCH   1  26
TORSDOF 7
ENDMDL
MODEL 7
REMARK minimizedAffinity -6.75698471
REMARK CNNscore 0.412831813
REMARK CNNaffinity 7.04107046
REMARK  7 active torsions:
REMARK  status: ('A' for Active; 'I' for Inactive)
REMARK    1  A    between atoms: O1_2  and  C2_3 
REMARK    2  A    between atoms: C2_3  and  C3_4 
REMARK    3  A    between atoms: C3_4  and  O2_5 
REMARK    4  A    between atoms: O2_5  and  C4_6 
REMARK    5  A    between atoms: C10_15  and  N3_16 
REMARK    6  A    between atoms: N3_16  and  C11_17 
REMARK    7  A    between atoms: C19_27  and  O3_28 
ROOT
HETATM    1  C4  UNL     1      -3.305  49.927 -27.243  1.00  0.00     0.104 A 
HETATM    2  C5  UNL     1      -2.390  50.976 -27.111  1.00  0.00     0.070 A 
HETATM    3  C6  UNL     1      -1.730  51.230 -25.917  1.00  0.00     0.047 A 
HETATM    4  N1  UNL     1      -0.864  52.253 -25.880  1.00  0.00    -0.364 N 
ATOM      5  H1  UNL     1      -0.707  52.835 -26.703  1.00  0.00     0.165 HD
HETATM    6  C7  UNL     1      -0.205  52.495 -24.725  1.00  0.00     0.113 A 
HETATM    7  C8  UNL     1      -0.363  51.751 -23.569  1.00  0.00     0.087 A 
HETATM    8  C9  UNL     1       0.452  52.071 -22.439  1.00  0.00     0.103 C 
HETATM    9  N2  UNL     1       1.135  52.331 -21.538  1.00  0.00    -0.191 NA
HETATM   10  C10 UNL     1      -1.292  50.700 -23.586  1.00  0.00     0.067 A 
HETATM   11  C17 UNL     1      -1.982  50.411 -24.799  1.00  0.00     0.022 A 
HETATM   12  C18 UNL     1      -2.920  49.359 -24.926  1.00  0.00     0.055 A 
HETATM   13  C19 UNL     1      -3.584  49.117 -26.131  1.00  0.00     0.102 A 
ENDROOT
BRANCH  10  14
HETATM   14  N3  UNL     1      -1.469  49.811 -22.477  1.00  0.00    -0.353 N 
HETATM   15  H10 UNL     1      -0.731  49.107 -22.507  1.00  0.00     0.166 HD
BRANCH  14  16
HETATM   16  C11 UNL     1      -1.796  50.164 -21.141  1.00  0.00     0.054 A 
HETATM   17  C12 UNL     1      -1.052  49.571 -20.104  1.00  0.00     0.033 A 
HETATM   18  C13 UNL     1      -1.316  49.864 -18.763  1.00  0.00     0.026 A 
HETATM   19  C14 UNL     1      -2.343  50.743 -18.438  1.00  0.00     0.035 A 
HETATM   20 CL1  UNL     1      -2.670  51.100 -16.787  1.00  0.00    -0.084 Cl
HETATM   21  C15 UNL     1      -3.116  51.323 -19.438  1.00  0.00     0.050 A 
HETATM   22  C16 UNL     1      -2.853  51.030 -20.781  1.00  0.00     0.062 A 
HETATM   23 CL2  UNL     1      -3.920  51.737 -21.947  1.00  0.00    -0.082 Cl
ENDBRANCH  14  16
ENDBRANCH  10  14
BRANCH  13  24
HETATM   24  O3  UNL     1      -4.501  48.115 -26.324  1.00  0.00    -0.353 OA
HETATM   25  C20 UNL     1      -5.574  48.016 -25.398  1.00  0.00     0.210 C 
ENDBRANCH  13  24
BRANCH   1  26
HETATM   26  O2  UNL     1      -3.993  49.626 -28.390  1.00  0.00    -0.346 OA
BRANCH  26  27
HETATM   27  C3  UNL     1      -4.295  48.265 -28.690  1.00  0.00     0.201 C 
BRANCH  27  28
HETATM   28  C2  UNL     1      -5.353  48.163 -29.789  1.00  0.00     0.193 C 
BRANCH  28  29
HETATM   29  O1  UNL     1      -4.830  47.589 -30.987  1.00  0.00    -0.394 OA
HETATM   30  C1  UNL     1      -5.535  47.997 -32.153  1.00  0.00     0.201 C 
ENDBRANCH  28  29
ENDBRANCH  27  28
ENDBRANCH  26  27
ENDBRANCH   1  26
TORSDOF 7
ENDMDL
MODEL 8
REMARK minimizedAffinity -6.32665157
REMARK CNNscore 0.315838009
REMARK CNNaffinity 6.99259233
REMARK  7 active torsions:
REMARK  status: ('A' for Active; 'I' for Inactive)
REMARK    1  A    between atoms: O1_2  and  C2_3 
REMARK    2  A    between atoms: C2_3  and  C3_4 
REMARK    3  A    between atoms: C3_4  and  O2_5 
REMARK    4  A    between atoms: O2_5  and  C4_6 
REMARK    5  A    between atoms: C10_15  and  N3_16 
REMARK    6  A    between atoms: N3_16  and  C11_17 
REMARK    7  A    between atoms: C19_27  and  O3_28 
ROOT
HETATM    1  C4  UNL     1      -2.878  50.552 -25.531  1.00  0.00     0.104 A 
HETATM    2  C5  UNL     1      -1.602  51.100 -25.373  1.00  0.00     0.070 A 
HETATM    3  C6  UNL     1      -1.126  51.511 -24.135  1.00  0.00     0.047 A 
HETATM    4  N1  UNL     1       0.113  52.021 -24.072  1.00  0.00    -0.364 N 
ATOM      5  H1  UNL     1       0.683  52.114 -24.913  1.00  0.00     0.165 HD
HETATM    6  C7  UNL     1       0.588  52.407 -22.868  1.00  0.00     0.113 A 
HETATM    7  C8  UNL     1      -0.122  52.310 -21.685  1.00  0.00     0.087 A 
HETATM    8  C9  UNL     1       0.529  52.689 -20.470  1.00  0.00     0.103 C 
HETATM    9  N2  UNL     1       1.078  52.980 -19.490  1.00  0.00    -0.191 NA
HETATM   10  C10 UNL     1      -1.433  51.811 -21.743  1.00  0.00     0.067 A 
HETATM   11  C17 UNL     1      -1.947  51.376 -22.998  1.00  0.00     0.022 A 
HETATM   12  C18 UNL     1      -3.246  50.837 -23.160  1.00  0.00     0.055 A 
HETATM   13  C19 UNL     1      -3.716  50.433 -24.411  1.00  0.00     0.102 A 
ENDROOT
BRANCH  10  14
HETATM   14  N3  UNL     1      -2.223  51.584 -20.571  1.00  0.00    -0.353 N 
HETATM   15  H10 UNL     1      -3.074  52.141 -20.641  1.00  0.00     0.166 HD
BRANCH  14  16
HETATM   16  C11 UNL     1      -2.469  50.339 -19.932  1.00  0.00     0.054 A 
HETATM   17  C12 UNL     1      -1.357  49.568 -19.546  1.00  0.00     0.033 A 
HETATM   18  C13 UNL     1      -1.517  48.330 -18.915  1.00  0.00     0.026 A 
HETATM   19  C14 UNL     1      -2.795  47.836 -18.679  1.00  0.00     0.035 A 
HETATM   20 CL1  UNL     1      -2.991  46.311 -17.909  1.00  0.00    -0.084 Cl
HETATM   21  C15 UNL     1      -3.914  48.560 -19.076  1.00  0.00     0.050 A 
HETATM   22  C16 UNL     1      -3.755  49.799 -19.707  1.00  0.00     0.062 A 
HETATM   23 CL2  UNL     1      -5.204  50.586 -20.236  1.00  0.00    -0.082 Cl
ENDBRANCH  14  16
ENDBRANCH  10  14
BRANCH  13  24
HETATM   24  O3  UNL     1      -4.961  49.901 -24.638  1.00  0.00    -0.353 OA
HETATM   25  C20 UNL     1      -5.950  50.087 -23.635  1.00  0.00     0.210 C 
ENDBRANCH  13  24
BRANCH   1  26
HETATM   26  O2  UNL     1      -3.410  50.132 -26.723  1.00  0.00    -0.346 OA
BRANCH  26  27
HETATM   27  C3  UNL     1      -3.212  48.783 -27.142  1.00  0.00     0.201 C 
BRANCH  27  28
HETATM   28  C2  UNL     1      -4.441  48.249 -27.878  1.00  0.00     0.193 C 
BRANCH  28  29
HETATM   29  O1  UNL     1      -4.527  48.746 -29.214  1.00  0.00    -0.394 OA
HETATM   30  C1  UNL     1      -5.497  48.065 -29.999  1.00  0.00     0.201 C 
ENDBRANCH  28  29
ENDBRANCH  27  28
ENDBRANCH  26  27
ENDBRANCH   1  26
TORSDOF 7
ENDMDL
MODEL 9
REMARK minimizedAffinity -7.16561604
REMARK CNNscore 0.303664774
REMARK CNNaffinity 6.90392923
REMARK  7 active torsions:
REMARK  status: ('A' for Active; 'I' for Inactive)
REMARK    1  A    between atoms: O1_2  and  C2_3 
REMARK    2  A    between atoms: C2_3  and  C3_4 
REMARK    3  A    between atoms: C3_4  and  O2_5 
REMARK    4  A    between atoms: O2_5  and  C4_6 
REMARK    5  A    between atoms: C10_15  and  N3_16 
REMARK    6  A    between atoms: N3_16  and  C11_17 
REMARK    7  A    between atoms: C19_27  and  O3_28 
ROOT
HETATM    1  C4  UNL     1      -0.065  51.378 -19.754  1.00  0.00     0.104 A 
HETATM    2  C5  UNL     1       0.569  52.434 -20.416  1.00  0.00     0.070 A 
HETATM    3  C6  UNL     1       0.390  52.663 -21.773  1.00  0.00     0.047 A 
HETATM    4  N1  UNL     1       1.032  53.702 -22.328  1.00  0.00    -0.364 N 
ATOM      5  H1  UNL     1       1.644  54.297 -21.769  1.00  0.00     0.165 HD
HETATM    6  C7  UNL     1       0.849  53.941 -23.645  1.00  0.00     0.113 A 
HETATM    7  C8  UNL     1       0.035  53.182 -24.467  1.00  0.00     0.087 A 
HETATM    8  C9  UNL     1      -0.126  53.590 -25.827  1.00  0.00     0.103 C 
HETATM    9  N2  UNL     1      -0.262  53.947 -26.923  1.00  0.00    -0.191 NA
HETATM   10  C10 UNL     1      -0.615  52.072 -23.906  1.00  0.00     0.067 A 
HETATM   11  C17 UNL     1      -0.455  51.813 -22.514  1.00  0.00     0.022 A 
HETATM   12  C18 UNL     1      -1.084  50.735 -21.848  1.00  0.00     0.055 A 
HETATM   13  C19 UNL     1      -0.891  50.509 -20.483  1.00  0.00     0.102 A 
ENDROOT
BRANCH  10  14
HETATM   14  N3  UNL     1      -1.549  51.273 -24.641  1.00  0.00    -0.353 N 
HETATM   15  H10 UNL     1      -1.076  50.423 -24.948  1.00  0.00     0.166 HD
BRANCH  14  16
HETATM   16  C11 UNL     1      -2.907  51.021 -24.309  1.00  0.00     0.054 A 
HETATM   17  C12 UNL     1      -3.608  52.020 -23.609  1.00  0.00     0.033 A 
HETATM   18  C13 UNL     1      -4.946  51.845 -23.244  1.00  0.00     0.026 A 
HETATM   19  C14 UNL     1      -5.598  50.658 -23.557  1.00  0.00     0.035 A 
HETATM   20 CL1  UNL     1      -7.243  50.441 -23.102  1.00  0.00    -0.084 Cl
HETATM   21  C15 UNL     1      -4.924  49.639 -24.221  1.00  0.00     0.050 A 
HETATM   22  C16 UNL     1      -3.584  49.813 -24.588  1.00  0.00     0.062 A 
HETATM   23 CL2  UNL     1      -2.809  48.459 -25.339  1.00  0.00    -0.082 Cl
ENDBRANCH  14  16
ENDBRANCH  10  14
BRANCH  13  24
HETATM   24  O3  UNL     1      -1.471  49.486 -19.776  1.00  0.00    -0.353 OA
HETATM   25  C20 UNL     1      -1.176  48.156 -20.178  1.00  0.00     0.210 C 
ENDBRANCH  13  24
BRANCH   1  26
HETATM   26  O2  UNL     1       0.072  51.094 -18.419  1.00  0.00    -0.346 OA
BRANCH  26  27
HETATM   27  C3  UNL     1       0.692  52.047 -17.559  1.00  0.00     0.201 C 
BRANCH  27  28
HETATM   28  C2  UNL     1       1.076  51.415 -16.221  1.00  0.00     0.193 C 
BRANCH  28  29
HETATM   29  O1  UNL     1       1.082  52.369 -15.158  1.00  0.00    -0.394 OA
HETATM   30  C1  UNL     1       0.183  52.036 -14.108  1.00  0.00     0.201 C 
ENDBRANCH  28  29
ENDBRANCH  27  28
ENDBRANCH  26  27
ENDBRANCH   1  26
TORSDOF 7
ENDMDL
