MODEL 1
REMARK minimizedAffinity -8.87395382
REMARK  8 active torsions:
REMARK  status: ('A' for Active; 'I' for Inactive)
REMARK    1  A    between atoms: O1_2  and  C2_3 
REMARK    2  A    between atoms: C5_6  and  N1_7 
REMARK    3  A    between atoms: N1_7  and  C6_8 
REMARK    4  A    between atoms: C18_25  and  O2_26 
REMARK    5  A    between atoms: O2_26  and  C19_27 
REMARK    6  A    between atoms: C19_27  and  C20_28 
REMARK    7  A    between atoms: C20_28  and  C21_29 
REMARK    8  A    between atoms: C21_29  and  N5_30 
ROOT
HETATM    1  C2  UNL     1      -1.413  50.097 -21.261  1.00  0.00     0.102 A 
HETATM    2  C3  UNL     1      -0.847  50.761 -20.173  1.00  0.00     0.057 A 
HETATM    3  C4  UNL     1      -0.047  51.919 -20.358  1.00  0.00     0.038 A 
HETATM    4  C5  UNL     1       0.559  52.661 -19.323  1.00  0.00     0.119 A 
HETATM    5  N3  UNL     1       1.267  53.777 -19.569  1.00  0.00    -0.338 N 
ATOM      6  H3  UNL     1       1.686  54.320 -18.814  1.00  0.00     0.168 HD
HETATM    7  C15 UNL     1       1.397  54.140 -20.846  1.00  0.00     0.182 A 
HETATM    8  N4  UNL     1       0.885  53.503 -21.903  1.00  0.00    -0.351 N 
ATOM      9  H4  UNL     1       1.037  53.836 -22.855  1.00  0.00     0.166 HD
HETATM   10  C16 UNL     1       0.165  52.407 -21.652  1.00  0.00     0.050 A 
HETATM   11  C17 UNL     1      -0.397  51.729 -22.728  1.00  0.00     0.070 A 
HETATM   12  C18 UNL     1      -1.172  50.579 -22.559  1.00  0.00     0.104 A 
ENDROOT
BRANCH   4  13
HETATM   13  N1  UNL     1       0.421  52.211 -17.984  1.00  0.00    -0.341 N 
HETATM   14  H5  UNL     1      -0.245  51.452 -17.940  1.00  0.00     0.167 HD
BRANCH  13  15
HETATM   15  C6  UNL     1       1.435  52.052 -17.013  1.00  0.00     0.046 A 
HETATM   16  C7  UNL     1       2.617  52.818 -17.058  1.00  0.00     0.030 A 
HETATM   17  C8  UNL     1       3.614  52.696 -16.092  1.00  0.00     0.005 A 
HETATM   18  C9  UNL     1       3.471  51.812 -15.024  1.00  0.00     0.030 A 
HETATM   19  C10 UNL     1       2.290  51.060 -14.950  1.00  0.00     0.046 A 
HETATM   20  C11 UNL     1       1.278  51.164 -15.912  1.00  0.00     0.019 A 
HETATM   21  N2  UNL     1       1.872  50.130 -14.017  1.00  0.00    -0.360 N 
HETATM   22  C12 UNL     1       0.244  50.261 -15.515  1.00  0.00     0.033 A 
HETATM   23  C13 UNL     1       0.640  49.638 -14.354  1.00  0.00     0.092 A 
HETATM   24  C14 UNL     1       2.626  49.725 -12.852  1.00  0.00     0.155 C 
ENDBRANCH  13  15
ENDBRANCH   4  13
BRANCH   1  25
HETATM   25  O1  UNL     1      -2.207  48.983 -21.168  1.00  0.00    -0.353 OA
HETATM   26  C1  UNL     1      -1.599  47.767 -20.751  1.00  0.00     0.210 C 
ENDBRANCH   1  25
BRANCH  12  27
HETATM   27  O2  UNL     1      -1.757  49.869 -23.575  1.00  0.00    -0.348 OA
BRANCH  27  28
HETATM   28  C19 UNL     1      -2.298  50.550 -24.700  1.00  0.00     0.177 C 
BRANCH  28  29
HETATM   29  C20 UNL     1      -1.895  49.918 -26.036  1.00  0.00     0.057 C 
BRANCH  29  30
HETATM   30  C21 UNL     1      -1.763  50.914 -27.205  1.00  0.00     0.274 C 
BRANCH  30  31
HETATM   31  N5  UNL     1      -0.409  51.437 -27.441  1.00  0.00     0.092 N 
HETATM   32  C22 UNL     1      -0.369  52.915 -27.363  1.00  0.00     0.298 C 
HETATM   33  C23 UNL     1       0.070  53.443 -25.989  1.00  0.00     0.198 C 
HETATM   34  O3  UNL     1       1.378  53.000 -25.595  1.00  0.00    -0.388 OA
HETATM   35  C24 UNL     1       1.773  51.783 -26.242  1.00  0.00     0.198 C 
HETATM   36  C25 UNL     1       0.586  50.848 -26.518  1.00  0.00     0.298 C 
ENDBRANCH  30  31
ENDBRANCH  29  30
ENDBRANCH  28  29
ENDBRANCH  27  28
ENDBRANCH  12  27
TORSDOF 8
ENDMDL
MODEL 2
REMARK minimizedAffinity -8.51447105
REMARK  8 active torsions:
REMARK  status: ('A' for Active; 'I' for Inactive)
REMARK    1  A    between atoms: O1_2  and  C2_3 
REMARK    2  A    between atoms: C5_6  and  N1_7 
REMARK    3  A    between atoms: N1_7  and  C6_8 
REMARK    4  A    between atoms: C18_25  and  O2_26 
REMARK    5  A    between atoms: O2_26  and  C19_27 
REMARK    6  A    between atoms: C19_27  and  C20_28 
REMARK    7  A    between atoms: C20_28  and  C21_29 
REMARK    8  A    between atoms: C21_29  and  N5_30 
ROOT
HETATM    1  C2  UNL     1      -0.622  51.291 -23.245  1.00  0.00     0.102 A 
HETATM    2  C3  UNL     1      -1.264  51.422 -24.477  1.00  0.00     0.057 A 
HETATM    3  C4  UNL     1      -0.919  52.466 -25.374  1.00  0.00     0.038 A 
HETATM    4  C5  UNL     1      -1.505  52.673 -26.641  1.00  0.00     0.119 A 
HETATM    5  N3  UNL     1      -1.096  53.658 -27.460  1.00  0.00    -0.338 N 
ATOM      6  H3  UNL     1      -1.510  53.791 -28.383  1.00  0.00     0.168 HD
HETATM    7  C15 UNL     1      -0.125  54.454 -27.009  1.00  0.00     0.182 A 
HETATM    8  N4  UNL     1       0.483  54.362 -25.822  1.00  0.00    -0.351 N 
ATOM      9  H4  UNL     1       1.213  55.017 -25.543  1.00  0.00     0.166 HD
HETATM   10  C16 UNL     1       0.089  53.369 -25.021  1.00  0.00     0.050 A 
HETATM   11  C17 UNL     1       0.713  53.234 -23.787  1.00  0.00     0.070 A 
HETATM   12  C18 UNL     1       0.371  52.220 -22.889  1.00  0.00     0.104 A 
ENDROOT
BRANCH   4  13
HETATM   13  N1  UNL     1      -2.560  51.821 -27.058  1.00  0.00    -0.341 N 
HETATM   14  H5  UNL     1      -2.459  51.600 -28.039  1.00  0.00     0.167 HD
BRANCH  13  15
HETATM   15  C6  UNL     1      -3.134  50.740 -26.351  1.00  0.00     0.046 A 
HETATM   16  C7  UNL     1      -2.796  49.407 -26.655  1.00  0.00     0.030 A 
HETATM   17  C8  UNL     1      -3.329  48.330 -25.948  1.00  0.00     0.005 A 
HETATM   18  C9  UNL     1      -4.216  48.536 -24.893  1.00  0.00     0.030 A 
HETATM   19  C10 UNL     1      -4.544  49.858 -24.561  1.00  0.00     0.046 A 
HETATM   20  C11 UNL     1      -4.023  50.953 -25.260  1.00  0.00     0.019 A 
HETATM   21  N2  UNL     1      -5.370  50.360 -23.574  1.00  0.00    -0.360 N 
HETATM   22  C12 UNL     1      -4.572  52.124 -24.652  1.00  0.00     0.033 A 
HETATM   23  C13 UNL     1      -5.398  51.727 -23.625  1.00  0.00     0.092 A 
HETATM   24  C14 UNL     1      -6.110  49.560 -22.623  1.00  0.00     0.155 C 
ENDBRANCH  13  15
ENDBRANCH   4  13
BRANCH   1  25
HETATM   25  O1  UNL     1      -0.884  50.306 -22.329  1.00  0.00    -0.353 OA
HETATM   26  C1  UNL     1      -2.227  50.150 -21.887  1.00  0.00     0.210 C 
ENDBRANCH   1  25
BRANCH  12  27
HETATM   27  O2  UNL     1       0.951  52.029 -21.661  1.00  0.00    -0.348 OA
BRANCH  27  28
HETATM   28  C19 UNL     1       1.319  53.148 -20.865  1.00  0.00     0.177 C 
BRANCH  28  29
HETATM   29  C20 UNL     1       0.341  53.417 -19.718  1.00  0.00     0.057 C 
BRANCH  29  30
HETATM   30  C21 UNL     1      -0.654  52.273 -19.439  1.00  0.00     0.274 C 
BRANCH  30  31
HETATM   31  N5  UNL     1      -0.726  51.824 -18.040  1.00  0.00     0.092 N 
HETATM   32  C22 UNL     1      -1.603  50.641 -17.888  1.00  0.00     0.298 C 
HETATM   33  C23 UNL     1      -0.838  49.308 -17.885  1.00  0.00     0.198 C 
HETATM   34  O3  UNL     1       0.133  49.207 -16.833  1.00  0.00    -0.388 OA
HETATM   35  C24 UNL     1       0.582  50.485 -16.363  1.00  0.00     0.198 C 
HETATM   36  C25 UNL     1       0.612  51.546 -17.473  1.00  0.00     0.298 C 
ENDBRANCH  30  31
ENDBRANCH  29  30
ENDBRANCH  28  29
ENDBRANCH  27  28
ENDBRANCH  12  27
TORSDOF 8
ENDMDL
MODEL 3
REMARK minimizedAffinity -8.36315918
REMARK  8 active torsions:
REMARK  status: ('A' for Active; 'I' for Inactive)
REMARK    1  A    between atoms: O1_2  and  C2_3 
REMARK    2  A    between atoms: C5_6  and  N1_7 
REMARK    3  A    between atoms: N1_7  and  C6_8 
REMARK    4  A    between atoms: C18_25  and  O2_26 
REMARK    5  A    between atoms: O2_26  and  C19_27 
REMARK    6  A    between atoms: C19_27  and  C20_28 
REMARK    7  A    between atoms: C20_28  and  C21_29 
REMARK    8  A    between atoms: C21_29  and  N5_30 
ROOT
HETATM    1  C2  UNL     1      -0.873  51.885 -22.100  1.00  0.00     0.102 A 
HETATM    2  C3  UNL     1      -1.594  52.006 -23.289  1.00  0.00     0.057 A 
HETATM    3  C4  UNL     1      -1.042  52.673 -24.414  1.00  0.00     0.038 A 
HETATM    4  C5  UNL     1      -1.688  52.838 -25.656  1.00  0.00     0.119 A 
HETATM    5  N3  UNL     1      -1.086  53.442 -26.696  1.00  0.00    -0.338 N 
ATOM      6  H3  UNL     1      -1.551  53.540 -27.598  1.00  0.00     0.168 HD
HETATM    7  C15 UNL     1       0.147  53.907 -26.491  1.00  0.00     0.182 A 
HETATM    8  N4  UNL     1       0.843  53.825 -25.354  1.00  0.00    -0.351 N 
ATOM      9  H4  UNL     1       1.781  54.216 -25.270  1.00  0.00     0.166 HD
HETATM   10  C16 UNL     1       0.249  53.205 -24.331  1.00  0.00     0.050 A 
HETATM   11  C17 UNL     1       0.951  53.087 -23.137  1.00  0.00     0.070 A 
HETATM   12  C18 UNL     1       0.412  52.447 -22.018  1.00  0.00     0.104 A 
ENDROOT
BRANCH   4  13
HETATM   13  N1  UNL     1      -3.014  52.357 -25.811  1.00  0.00    -0.341 N 
HETATM   14  H5  UNL     1      -3.513  52.925 -26.482  1.00  0.00     0.167 HD
BRANCH  13  15
HETATM   15  C6  UNL     1      -3.450  51.013 -25.860  1.00  0.00     0.046 A 
HETATM   16  C7  UNL     1      -2.944  50.116 -26.820  1.00  0.00     0.030 A 
HETATM   17  C8  UNL     1      -3.340  48.780 -26.865  1.00  0.00     0.005 A 
HETATM   18  C9  UNL     1      -4.251  48.274 -25.940  1.00  0.00     0.030 A 
HETATM   19  C10 UNL     1      -4.746  49.147 -24.961  1.00  0.00     0.046 A 
HETATM   20  C11 UNL     1      -4.365  50.493 -24.902  1.00  0.00     0.019 A 
HETATM   21  N2  UNL     1      -5.635  48.929 -23.926  1.00  0.00    -0.360 N 
HETATM   22  C12 UNL     1      -5.061  51.065 -23.793  1.00  0.00     0.033 A 
HETATM   23  C13 UNL     1      -5.835  50.083 -23.219  1.00  0.00     0.092 A 
HETATM   24  C14 UNL     1      -6.272  47.665 -23.630  1.00  0.00     0.155 C 
ENDBRANCH  13  15
ENDBRANCH   4  13
BRANCH   1  25
HETATM   25  O1  UNL     1      -1.326  51.246 -20.975  1.00  0.00    -0.353 OA
HETATM   26  C1  UNL     1      -1.626  49.859 -21.075  1.00  0.00     0.210 C 
ENDBRANCH   1  25
BRANCH  12  27
HETATM   27  O2  UNL     1       1.054  52.292 -20.816  1.00  0.00    -0.348 OA
BRANCH  27  28
HETATM   28  C19 UNL     1       1.222  53.407 -19.950  1.00  0.00     0.177 C 
BRANCH  28  29
HETATM   29  C20 UNL     1       0.343  53.334 -18.699  1.00  0.00     0.057 C 
BRANCH  29  30
HETATM   30  C21 UNL     1       0.742  52.232 -17.696  1.00  0.00     0.274 C 
BRANCH  30  31
HETATM   31  N5  UNL     1       1.497  52.689 -16.520  1.00  0.00     0.092 N 
HETATM   32  C22 UNL     1       1.001  52.066 -15.272  1.00  0.00     0.298 C 
HETATM   33  C23 UNL     1       1.805  50.830 -14.844  1.00  0.00     0.198 C 
HETATM   34  O3  UNL     1       3.196  51.103 -14.613  1.00  0.00    -0.388 OA
HETATM   35  C24 UNL     1       3.662  52.261 -15.318  1.00  0.00     0.198 C 
HETATM   36  C25 UNL     1       2.951  52.458 -16.665  1.00  0.00     0.298 C 
ENDBRANCH  30  31
ENDBRANCH  29  30
ENDBRANCH  28  29
ENDBRANCH  27  28
ENDBRANCH  12  27
TORSDOF 8
ENDMDL
MODEL 4
REMARK minimizedAffinity -8.36086273
REMARK  8 active torsions:
REMARK  status: ('A' for Active; 'I' for Inactive)
REMARK    1  A    between atoms: O1_2  and  C2_3 
REMARK    2  A    between atoms: C5_6  and  N1_7 
REMARK    3  A    between atoms: N1_7  and  C6_8 
REMARK    4  A    between atoms: C18_25  and  O2_26 
REMARK    5  A    between atoms: O2_26  and  C19_27 
REMARK    6  A    between atoms: C19_27  and  C20_28 
REMARK    7  A    between atoms: C20_28  and  C21_29 
REMARK    8  A    between atoms: C21_29  and  N5_30 
ROOT
HETATM    1  C2  UNL     1      -2.699  51.001 -22.368  1.00  0.00     0.102 A 
HETATM    2  C3  UNL     1      -2.111  51.406 -21.170  1.00  0.00     0.057 A 
HETATM    3  C4  UNL     1      -0.865  52.086 -21.160  1.00  0.00     0.038 A 
HETATM    4  C5  UNL     1      -0.197  52.540 -20.003  1.00  0.00     0.119 A 
HETATM    5  N3  UNL     1       0.961  53.219 -20.071  1.00  0.00    -0.338 N 
ATOM      6  H3  UNL     1       1.429  53.562 -19.232  1.00  0.00     0.168 HD
HETATM    7  C15 UNL     1       1.470  53.423 -21.288  1.00  0.00     0.182 A 
HETATM    8  N4  UNL     1       0.935  53.021 -22.444  1.00  0.00    -0.351 N 
ATOM      9  H4  UNL     1       1.391  53.205 -23.338  1.00  0.00     0.166 HD
HETATM   10  C16 UNL     1      -0.226  52.365 -22.373  1.00  0.00     0.050 A 
HETATM   11  C17 UNL     1      -0.818  51.947 -23.558  1.00  0.00     0.070 A 
HETATM   12  C18 UNL     1      -2.036  51.263 -23.579  1.00  0.00     0.104 A 
ENDROOT
BRANCH   4  13
HETATM   13  N1  UNL     1      -0.763  52.266 -18.731  1.00  0.00    -0.341 N 
HETATM   14  H5  UNL     1      -1.762  52.422 -18.755  1.00  0.00     0.167 HD
BRANCH  13  15
HETATM   15  C6  UNL     1      -0.435  51.216 -17.843  1.00  0.00     0.046 A 
HETATM   16  C7  UNL     1      -1.019  49.941 -17.972  1.00  0.00     0.030 A 
HETATM   17  C8  UNL     1      -0.685  48.886 -17.125  1.00  0.00     0.005 A 
HETATM   18  C9  UNL     1       0.262  49.052 -16.116  1.00  0.00     0.030 A 
HETATM   19  C10 UNL     1       0.872  50.308 -15.989  1.00  0.00     0.046 A 
HETATM   20  C11 UNL     1       0.548  51.381 -16.827  1.00  0.00     0.019 A 
HETATM   21  N2  UNL     1       1.836  50.755 -15.107  1.00  0.00    -0.360 N 
HETATM   22  C12 UNL     1       1.356  52.483 -16.408  1.00  0.00     0.033 A 
HETATM   23  C13 UNL     1       2.130  52.070 -15.349  1.00  0.00     0.092 A 
HETATM   24  C14 UNL     1       2.448  49.956 -14.069  1.00  0.00     0.155 C 
ENDBRANCH  13  15
ENDBRANCH   4  13
BRANCH   1  25
HETATM   25  O1  UNL     1      -3.904  50.354 -22.466  1.00  0.00    -0.353 OA
HETATM   26  C1  UNL     1      -5.053  51.008 -21.942  1.00  0.00     0.210 C 
ENDBRANCH   1  25
BRANCH  12  27
HETATM   27  O2  UNL     1      -2.675  50.829 -24.712  1.00  0.00    -0.348 OA
BRANCH  27  28
HETATM   28  C19 UNL     1      -3.416  51.746 -25.508  1.00  0.00     0.177 C 
BRANCH  28  29
HETATM   29  C20 UNL     1      -2.674  52.175 -26.777  1.00  0.00     0.057 C 
BRANCH  29  30
HETATM   30  C21 UNL     1      -1.787  51.081 -27.405  1.00  0.00     0.274 C 
BRANCH  30  31
HETATM   31  N5  UNL     1      -0.382  51.456 -27.625  1.00  0.00     0.092 N 
HETATM   32  C22 UNL     1      -0.204  52.926 -27.653  1.00  0.00     0.298 C 
HETATM   33  C23 UNL     1       0.240  53.514 -26.306  1.00  0.00     0.198 C 
HETATM   34  O3  UNL     1       1.486  52.983 -25.830  1.00  0.00    -0.388 OA
HETATM   35  C24 UNL     1       1.784  51.689 -26.371  1.00  0.00     0.198 C 
HETATM   36  C25 UNL     1       0.522  50.849 -26.624  1.00  0.00     0.298 C 
ENDBRANCH  30  31
ENDBRANCH  29  30
ENDBRANCH  28  29
ENDBRANCH  27  28
ENDBRANCH  12  27
TORSDOF 8
ENDMDL
MODEL 5
REMARK minimizedAffinity -8.26837158
REMARK  8 active torsions:
REMARK  status: ('A' for Active; 'I' for Inactive)
REMARK    1  A    between atoms: O1_2  and  C2_3 
REMARK    2  A    between atoms: C5_6  and  N1_7 
REMARK    3  A    between atoms: N1_7  and  C6_8 
REMARK    4  A    between atoms: C18_25  and  O2_26 
REMARK    5  A    between atoms: O2_26  and  C19_27 
REMARK    6  A    between atoms: C19_27  and  C20_28 
REMARK    7  A    between atoms: C20_28  and  C21_29 
REMARK    8  A    between atoms: C21_29  and  N5_30 
ROOT
HETATM    1  C2  UNL     1      -1.451  50.179 -20.497  1.00  0.00     0.102 A 
HETATM    2  C3  UNL     1      -0.821  51.043 -19.601  1.00  0.00     0.057 A 
HETATM    3  C4  UNL     1       0.023  52.087 -20.063  1.00  0.00     0.038 A 
HETATM    4  C5  UNL     1       0.694  53.013 -19.237  1.00  0.00     0.119 A 
HETATM    5  N3  UNL     1       1.444  54.006 -19.746  1.00  0.00    -0.338 N 
ATOM      6  H3  UNL     1       1.911  54.685 -19.144  1.00  0.00     0.168 HD
HETATM    7  C15 UNL     1       1.549  54.063 -21.075  1.00  0.00     0.182 A 
HETATM    8  N4  UNL     1       0.976  53.229 -21.948  1.00  0.00    -0.351 N 
ATOM      9  H4  UNL     1       1.112  53.329 -22.953  1.00  0.00     0.166 HD
HETATM   10  C16 UNL     1       0.215  52.257 -21.438  1.00  0.00     0.050 A 
HETATM   11  C17 UNL     1      -0.410  51.382 -22.319  1.00  0.00     0.070 A 
HETATM   12  C18 UNL     1      -1.230  50.341 -21.875  1.00  0.00     0.104 A 
ENDROOT
BRANCH   4  13
HETATM   13  N1  UNL     1       0.579  52.886 -17.828  1.00  0.00    -0.341 N 
HETATM   14  H5  UNL     1      -0.341  52.547 -17.585  1.00  0.00     0.167 HD
BRANCH  13  15
HETATM   15  C6  UNL     1       1.551  52.415 -16.917  1.00  0.00     0.046 A 
HETATM   16  C7  UNL     1       2.851  52.956 -16.891  1.00  0.00     0.030 A 
HETATM   17  C8  UNL     1       3.813  52.525 -15.979  1.00  0.00     0.005 A 
HETATM   18  C9  UNL     1       3.515  51.541 -15.037  1.00  0.00     0.030 A 
HETATM   19  C10 UNL     1       2.217  51.010 -15.032  1.00  0.00     0.046 A 
HETATM   20  C11 UNL     1       1.238  51.426 -15.942  1.00  0.00     0.019 A 
HETATM   21  N2  UNL     1       1.641  50.050 -14.223  1.00  0.00    -0.360 N 
HETATM   22  C12 UNL     1       0.059  50.677 -15.643  1.00  0.00     0.033 A 
HETATM   23  C13 UNL     1       0.339  49.838 -14.588  1.00  0.00     0.092 A 
HETATM   24  C14 UNL     1       2.313  49.359 -13.145  1.00  0.00     0.155 C 
ENDBRANCH  13  15
ENDBRANCH   4  13
BRANCH   1  25
HETATM   25  O1  UNL     1      -2.291  49.158 -20.136  1.00  0.00    -0.353 OA
HETATM   26  C1  UNL     1      -3.607  49.497 -19.717  1.00  0.00     0.210 C 
ENDBRANCH   1  25
BRANCH  12  27
HETATM   27  O2  UNL     1      -1.878  49.450 -22.691  1.00  0.00    -0.348 OA
BRANCH  27  28
HETATM   28  C19 UNL     1      -2.812  49.916 -23.656  1.00  0.00     0.177 C 
BRANCH  28  29
HETATM   29  C20 UNL     1      -2.216  50.030 -25.062  1.00  0.00     0.057 C 
BRANCH  29  30
HETATM   30  C21 UNL     1      -2.611  51.309 -25.827  1.00  0.00     0.274 C 
BRANCH  30  31
HETATM   31  N5  UNL     1      -1.518  52.262 -26.072  1.00  0.00     0.092 N 
HETATM   32  C22 UNL     1      -0.190  51.619 -25.946  1.00  0.00     0.298 C 
HETATM   33  C23 UNL     1       0.401  51.167 -27.290  1.00  0.00     0.198 C 
HETATM   34  O3  UNL     1       0.579  52.240 -28.227  1.00  0.00    -0.388 OA
HETATM   35  C24 UNL     1      -0.286  53.354 -27.972  1.00  0.00     0.198 C 
HETATM   36  C25 UNL     1      -1.642  52.928 -27.387  1.00  0.00     0.298 C 
ENDBRANCH  30  31
ENDBRANCH  29  30
ENDBRANCH  28  29
ENDBRANCH  27  28
ENDBRANCH  12  27
TORSDOF 8
ENDMDL
MODEL 6
REMARK minimizedAffinity -8.18196106
REMARK  8 active torsions:
REMARK  status: ('A' for Active; 'I' for Inactive)
REMARK    1  A    between atoms: O1_2  and  C2_3 
REMARK    2  A    between atoms: C5_6  and  N1_7 
REMARK    3  A    between atoms: N1_7  and  C6_8 
REMARK    4  A    between atoms: C18_25  and  O2_26 
REMARK    5  A    between atoms: O2_26  and  C19_27 
REMARK    6  A    between atoms: C19_27  and  C20_28 
REMARK    7  A    between atoms: C20_28  and  C21_29 
REMARK    8  A    between atoms: C21_29  and  N5_30 
ROOT
HETATM    1  C2  UNL     1      -2.965  51.502 -25.558  1.00  0.00     0.102 A 
HETATM    2  C3  UNL     1      -1.905  52.182 -24.958  1.00  0.00     0.057 A 
HETATM    3  C4  UNL     1      -0.566  51.958 -25.370  1.00  0.00     0.038 A 
HETATM    4  C5  UNL     1       0.568  52.602 -24.831  1.00  0.00     0.119 A 
HETATM    5  N3  UNL     1       1.806  52.374 -25.303  1.00  0.00    -0.338 N 
ATOM      6  H3  UNL     1       2.620  52.857 -24.922  1.00  0.00     0.168 HD
HETATM    7  C15 UNL     1       1.921  51.486 -26.292  1.00  0.00     0.182 A 
HETATM    8  N4  UNL     1       0.922  50.806 -26.862  1.00  0.00    -0.351 N 
ATOM      9  H4  UNL     1       1.090  50.132 -27.609  1.00  0.00     0.166 HD
HETATM   10  C16 UNL     1      -0.308  51.051 -26.404  1.00  0.00     0.050 A 
HETATM   11  C17 UNL     1      -1.373  50.373 -26.985  1.00  0.00     0.070 A 
HETATM   12  C18 UNL     1      -2.694  50.573 -26.577  1.00  0.00     0.104 A 
ENDROOT
BRANCH   4  13
HETATM   13  N1  UNL     1       0.395  53.510 -23.755  1.00  0.00    -0.341 N 
HETATM   14  H5  UNL     1      -0.446  54.055 -23.893  1.00  0.00     0.167 HD
BRANCH  13  15
HETATM   15  C6  UNL     1       0.632  53.283 -22.380  1.00  0.00     0.046 A 
HETATM   16  C7  UNL     1       1.388  54.188 -21.610  1.00  0.00     0.030 A 
HETATM   17  C8  UNL     1       1.607  53.996 -20.247  1.00  0.00     0.005 A 
HETATM   18  C9  UNL     1       1.066  52.896 -19.585  1.00  0.00     0.030 A 
HETATM   19  C10 UNL     1       0.288  51.999 -20.330  1.00  0.00     0.046 A 
HETATM   20  C11 UNL     1       0.061  52.171 -21.701  1.00  0.00     0.019 A 
HETATM   21  N2  UNL     1      -0.373  50.847 -19.948  1.00  0.00    -0.360 N 
HETATM   22  C12 UNL     1      -0.761  51.078 -22.118  1.00  0.00     0.033 A 
HETATM   23  C13 UNL     1      -1.004  50.282 -21.022  1.00  0.00     0.092 A 
HETATM   24  C14 UNL     1      -0.394  50.307 -18.607  1.00  0.00     0.155 C 
ENDBRANCH  13  15
ENDBRANCH   4  13
BRANCH   1  25
HETATM   25  O1  UNL     1      -4.286  51.670 -25.229  1.00  0.00    -0.353 OA
HETATM   26  C1  UNL     1      -4.623  51.740 -23.849  1.00  0.00     0.210 C 
ENDBRANCH   1  25
BRANCH  12  27
HETATM   27  O2  UNL     1      -3.787  49.942 -27.112  1.00  0.00    -0.348 OA
BRANCH  27  28
HETATM   28  C19 UNL     1      -3.932  48.534 -26.978  1.00  0.00     0.177 C 
BRANCH  28  29
HETATM   29  C20 UNL     1      -5.178  47.989 -27.683  1.00  0.00     0.057 C 
BRANCH  29  30
HETATM   30  C21 UNL     1      -5.187  48.178 -29.213  1.00  0.00     0.274 C 
BRANCH  30  31
HETATM   31  N5  UNL     1      -6.437  47.803 -29.890  1.00  0.00     0.092 N 
HETATM   32  C22 UNL     1      -6.424  48.186 -31.320  1.00  0.00     0.298 C 
HETATM   33  C23 UNL     1      -6.011  47.041 -32.256  1.00  0.00     0.198 C 
HETATM   34  O3  UNL     1      -6.869  45.893 -32.172  1.00  0.00    -0.388 OA
HETATM   35  C24 UNL     1      -7.562  45.805 -30.920  1.00  0.00     0.198 C 
HETATM   36  C25 UNL     1      -6.739  46.362 -29.748  1.00  0.00     0.298 C 
ENDBRANCH  30  31
ENDBRANCH  29  30
ENDBRANCH  28  29
ENDBRANCH  27  28
ENDBRANCH  12  27
TORSDOF 8
ENDMDL
MODEL 7
REMARK minimizedAffinity -8.16656303
REMARK  8 active torsions:
REMARK  status: ('A' for Active; 'I' for Inactive)
REMARK    1  A    between atoms: O1_2  and  C2_3 
REMARK    2  A    between atoms: C5_6  and  N1_7 
REMARK    3  A    between atoms: N1_7  and  C6_8 
REMARK    4  A    between atoms: C18_25  and  O2_26 
REMARK    5  A    between atoms: O2_26  and  C19_27 
REMARK    6  A    between atoms: C19_27  and  C20_28 
REMARK    7  A    between atoms: C20_28  and  C21_29 
REMARK    8  A    between atoms: C21_29  and  N5_30 
ROOT
HETATM    1  C2  UNL     1       0.104  52.305 -21.201  1.00  0.00     0.102 A 
HETATM    2  C3  UNL     1       0.218  52.164 -19.818  1.00  0.00     0.057 A 
HETATM    3  C4  UNL     1      -0.282  51.012 -19.157  1.00  0.00     0.038 A 
HETATM    4  C5  UNL     1      -0.207  50.776 -17.769  1.00  0.00     0.119 A 
HETATM    5  N3  UNL     1      -0.663  49.639 -17.215  1.00  0.00    -0.338 N 
ATOM      6  H3  UNL     1      -0.587  49.466 -16.212  1.00  0.00     0.168 HD
HETATM    7  C15 UNL     1      -1.218  48.748 -18.037  1.00  0.00     0.182 A 
HETATM    8  N4  UNL     1      -1.360  48.876 -19.360  1.00  0.00    -0.351 N 
ATOM      9  H4  UNL     1      -1.808  48.153 -19.923  1.00  0.00     0.166 HD
HETATM   10  C16 UNL     1      -0.887  49.998 -19.908  1.00  0.00     0.050 A 
HETATM   11  C17 UNL     1      -1.003  50.157 -21.284  1.00  0.00     0.070 A 
HETATM   12  C18 UNL     1      -0.529  51.293 -21.943  1.00  0.00     0.104 A 
ENDROOT
BRANCH   4  13
HETATM   13  N1  UNL     1       0.361  51.772 -16.932  1.00  0.00    -0.341 N 
HETATM   14  H5  UNL     1      -0.344  52.146 -16.311  1.00  0.00     0.167 HD
BRANCH  13  15
HETATM   15  C6  UNL     1       1.631  51.765 -16.313  1.00  0.00     0.046 A 
HETATM   16  C7  UNL     1       2.700  52.522 -16.831  1.00  0.00     0.030 A 
HETATM   17  C8  UNL     1       3.951  52.550 -16.216  1.00  0.00     0.005 A 
HETATM   18  C9  UNL     1       4.188  51.835 -15.043  1.00  0.00     0.030 A 
HETATM   19  C10 UNL     1       3.127  51.097 -14.500  1.00  0.00     0.046 A 
HETATM   20  C11 UNL     1       1.865  51.051 -15.104  1.00  0.00     0.019 A 
HETATM   21  N2  UNL     1       3.063  50.315 -13.363  1.00  0.00    -0.360 N 
HETATM   22  C12 UNL     1       1.050  50.212 -14.283  1.00  0.00     0.033 A 
HETATM   23  C13 UNL     1       1.815  49.772 -13.227  1.00  0.00     0.092 A 
HETATM   24  C14 UNL     1       4.158  50.092 -12.445  1.00  0.00     0.155 C 
ENDBRANCH  13  15
ENDBRANCH   4  13
BRANCH   1  25
HETATM   25  O1  UNL     1       0.572  53.376 -21.917  1.00  0.00    -0.353 OA
HETATM   26  C1  UNL     1       1.589  54.177 -21.326  1.00  0.00     0.210 C 
ENDBRANCH   1  25
BRANCH  12  27
HETATM   27  O2  UNL     1      -0.608  51.508 -23.295  1.00  0.00    -0.348 OA
BRANCH  27  28
HETATM   28  C19 UNL     1      -1.552  50.788 -24.077  1.00  0.00     0.177 C 
BRANCH  28  29
HETATM   29  C20 UNL     1      -0.965  50.253 -25.386  1.00  0.00     0.057 C 
BRANCH  29  30
HETATM   30  C21 UNL     1       0.278  51.013 -25.892  1.00  0.00     0.274 C 
BRANCH  30  31
HETATM   31  N5  UNL     1       0.105  51.736 -27.160  1.00  0.00     0.092 N 
HETATM   32  C22 UNL     1      -1.225  51.483 -27.760  1.00  0.00     0.298 C 
HETATM   33  C23 UNL     1      -2.261  52.567 -27.430  1.00  0.00     0.198 C 
HETATM   34  O3  UNL     1      -1.881  53.879 -27.875  1.00  0.00    -0.388 OA
HETATM   35  C24 UNL     1      -0.463  54.027 -28.025  1.00  0.00     0.198 C 
HETATM   36  C25 UNL     1       0.330  53.191 -27.009  1.00  0.00     0.298 C 
ENDBRANCH  30  31
ENDBRANCH  29  30
ENDBRANCH  28  29
ENDBRANCH  27  28
ENDBRANCH  12  27
TORSDOF 8
ENDMDL
MODEL 8
REMARK minimizedAffinity -8.13686752
REMARK  8 active torsions:
REMARK  status: ('A' for Active; 'I' for Inactive)
REMARK    1  A    between atoms: O1_2  and  C2_3 
REMARK    2  A    between atoms: C5_6  and  N1_7 
REMARK    3  A    between atoms: N1_7  and  C6_8 
REMARK    4  A    between atoms: C18_25  and  O2_26 
REMARK    5  A    between atoms: O2_26  and  C19_27 
REMARK    6  A    between atoms: C19_27  and  C20_28 
REMARK    7  A    between atoms: C20_28  and  C21_29 
REMARK    8  A    between atoms: C21_29  and  N5_30 
ROOT
HETATM    1  C2  UNL     1      -3.876  49.426 -25.009  1.00  0.00     0.102 A 
HETATM    2  C3  UNL     1      -3.054  50.287 -24.282  1.00  0.00     0.057 A 
HETATM    3  C4  UNL     1      -1.799  50.707 -24.796  1.00  0.00     0.038 A 
HETATM    4  C5  UNL     1      -0.905  51.579 -24.141  1.00  0.00     0.119 A 
HETATM    5  N3  UNL     1       0.249  51.971 -24.709  1.00  0.00    -0.338 N 
ATOM      6  H3  UNL     1       0.883  52.618 -24.238  1.00  0.00     0.168 HD
HETATM    7  C15 UNL     1       0.527  51.475 -25.916  1.00  0.00     0.182 A 
HETATM    8  N4  UNL     1      -0.235  50.629 -26.616  1.00  0.00    -0.351 N 
ATOM      9  H4  UNL     1       0.052  50.283 -27.531  1.00  0.00     0.166 HD
HETATM   10  C16 UNL     1      -1.389  50.259 -26.057  1.00  0.00     0.050 A 
HETATM   11  C17 UNL     1      -2.214  49.394 -26.765  1.00  0.00     0.070 A 
HETATM   12  C18 UNL     1      -3.444  48.961 -26.263  1.00  0.00     0.104 A 
ENDROOT
BRANCH   4  13
HETATM   13  N1  UNL     1      -1.231  52.050 -22.843  1.00  0.00    -0.341 N 
HETATM   14  H5  UNL     1      -2.012  51.526 -22.471  1.00  0.00     0.167 HD
BRANCH  13  15
HETATM   15  C6  UNL     1      -0.346  52.441 -21.814  1.00  0.00     0.046 A 
HETATM   16  C7  UNL     1       0.656  53.406 -22.039  1.00  0.00     0.030 A 
HETATM   17  C8  UNL     1       1.518  53.826 -21.028  1.00  0.00     0.005 A 
HETATM   18  C9  UNL     1       1.410  53.312 -19.737  1.00  0.00     0.030 A 
HETATM   19  C10 UNL     1       0.403  52.369 -19.489  1.00  0.00     0.046 A 
HETATM   20  C11 UNL     1      -0.470  51.930 -20.491  1.00  0.00     0.019 A 
HETATM   21  N2  UNL     1       0.056  51.707 -18.327  1.00  0.00    -0.360 N 
HETATM   22  C12 UNL     1      -1.349  50.983 -19.880  1.00  0.00     0.033 A 
HETATM   23  C13 UNL     1      -0.997  50.864 -18.555  1.00  0.00     0.092 A 
HETATM   24  C14 UNL     1       0.711  51.872 -17.049  1.00  0.00     0.155 C 
ENDBRANCH  13  15
ENDBRANCH   4  13
BRANCH   1  25
HETATM   25  O1  UNL     1      -5.106  48.985 -24.592  1.00  0.00    -0.353 OA
HETATM   26  C1  UNL     1      -5.797  49.764 -23.623  1.00  0.00     0.210 C 
ENDBRANCH   1  25
BRANCH  12  27
HETATM   27  O2  UNL     1      -4.305  48.114 -26.912  1.00  0.00    -0.348 OA
BRANCH  27  28
HETATM   28  C19 UNL     1      -4.764  48.431 -28.220  1.00  0.00     0.177 C 
BRANCH  28  29
HETATM   29  C20 UNL     1      -6.011  47.640 -28.626  1.00  0.00     0.057 C 
BRANCH  29  30
HETATM   30  C21 UNL     1      -6.589  48.015 -30.006  1.00  0.00     0.274 C 
BRANCH  30  31
HETATM   31  N5  UNL     1      -6.031  47.274 -31.148  1.00  0.00     0.092 N 
HETATM   32  C22 UNL     1      -7.096  46.720 -32.016  1.00  0.00     0.298 C 
HETATM   33  C23 UNL     1      -7.420  47.607 -33.228  1.00  0.00     0.198 C 
HETATM   34  O3  UNL     1      -6.295  47.831 -34.091  1.00  0.00    -0.388 OA
HETATM   35  C24 UNL     1      -5.037  47.675 -33.421  1.00  0.00     0.198 C 
HETATM   36  C25 UNL     1      -5.097  48.098 -31.945  1.00  0.00     0.298 C 
ENDBRANCH  30  31
ENDBRANCH  29  30
ENDBRANCH  28  29
ENDBRANCH  27  28
ENDBRANCH  12  27
TORSDOF 8
ENDMDL
MODEL 9
REMARK minimizedAffinity -8.11028099
REMARK  8 active torsions:
REMARK  status: ('A' for Active; 'I' for Inactive)
REMARK    1  A    between atoms: O1_2  and  C2_3 
REMARK    2  A    between atoms: C5_6  and  N1_7 
REMARK    3  A    between atoms: N1_7  and  C6_8 
REMARK    4  A    between atoms: C18_25  and  O2_26 
REMARK    5  A    between atoms: O2_26  and  C19_27 
REMARK    6  A    between atoms: C19_27  and  C20_28 
REMARK    7  A    between atoms: C20_28  and  C21_29 
REMARK    8  A    between atoms: C21_29  and  N5_30 
ROOT
HETATM    1  C2  UNL     1      -3.857  48.836 -24.951  1.00  0.00     0.102 A 
HETATM    2  C3  UNL     1      -2.939  49.542 -24.174  1.00  0.00     0.057 A 
HETATM    3  C4  UNL     1      -1.870  50.257 -24.775  1.00  0.00     0.038 A 
HETATM    4  C5  UNL     1      -0.900  51.005 -24.076  1.00  0.00     0.119 A 
HETATM    5  N3  UNL     1       0.060  51.697 -24.714  1.00  0.00    -0.338 N 
ATOM      6  H3  UNL     1       0.747  52.252 -24.203  1.00  0.00     0.168 HD
HETATM    7  C15 UNL     1       0.073  51.622 -26.046  1.00  0.00     0.182 A 
HETATM    8  N4  UNL     1      -0.781  50.930 -26.806  1.00  0.00    -0.351 N 
ATOM      9  H4  UNL     1      -0.700  50.912 -27.822  1.00  0.00     0.166 HD
HETATM   10  C16 UNL     1      -1.745  50.262 -26.168  1.00  0.00     0.050 A 
HETATM   11  C17 UNL     1      -2.661  49.545 -26.929  1.00  0.00     0.070 A 
HETATM   12  C18 UNL     1      -3.708  48.825 -26.348  1.00  0.00     0.104 A 
ENDROOT
BRANCH   4  13
HETATM   13  N1  UNL     1      -0.936  51.022 -22.657  1.00  0.00    -0.341 N 
HETATM   14  H5  UNL     1      -1.015  50.079 -22.302  1.00  0.00     0.167 HD
BRANCH  13  15
HETATM   15  C6  UNL     1      -0.183  51.834 -21.779  1.00  0.00     0.046 A 
HETATM   16  C7  UNL     1       0.464  52.999 -22.235  1.00  0.00     0.030 A 
HETATM   17  C8  UNL     1       1.186  53.827 -21.378  1.00  0.00     0.005 A 
HETATM   18  C9  UNL     1       1.282  53.538 -20.018  1.00  0.00     0.030 A 
HETATM   19  C10 UNL     1       0.622  52.397 -19.542  1.00  0.00     0.046 A 
HETATM   20  C11 UNL     1      -0.104  51.549 -20.387  1.00  0.00     0.019 A 
HETATM   21  N2  UNL     1       0.532  51.876 -18.266  1.00  0.00    -0.360 N 
HETATM   22  C12 UNL     1      -0.629  50.505 -19.564  1.00  0.00     0.033 A 
HETATM   23  C13 UNL     1      -0.217  50.730 -18.270  1.00  0.00     0.092 A 
HETATM   24  C14 UNL     1       1.144  52.450 -17.088  1.00  0.00     0.155 C 
ENDBRANCH  13  15
ENDBRANCH   4  13
BRANCH   1  25
HETATM   25  O1  UNL     1      -4.923  48.133 -24.452  1.00  0.00    -0.353 OA
HETATM   26  C1  UNL     1      -6.052  48.871 -23.999  1.00  0.00     0.210 C 
ENDBRANCH   1  25
BRANCH  12  27
HETATM   27  O2  UNL     1      -4.645  48.103 -27.041  1.00  0.00    -0.348 OA
BRANCH  27  28
HETATM   28  C19 UNL     1      -4.822  48.319 -28.435  1.00  0.00     0.177 C 
BRANCH  28  29
HETATM   29  C20 UNL     1      -5.952  47.477 -29.034  1.00  0.00     0.057 C 
BRANCH  29  30
HETATM   30  C21 UNL     1      -6.013  47.484 -30.575  1.00  0.00     0.274 C 
BRANCH  30  31
HETATM   31  N5  UNL     1      -7.354  47.653 -31.155  1.00  0.00     0.092 N 
HETATM   32  C22 UNL     1      -8.066  46.360 -31.277  1.00  0.00     0.298 C 
HETATM   33  C23 UNL     1      -9.016  46.072 -30.105  1.00  0.00     0.198 C 
HETATM   34  O3  UNL     1     -10.041  47.063 -29.940  1.00  0.00    -0.388 OA
HETATM   35  C24 UNL     1      -9.681  48.336 -30.494  1.00  0.00     0.198 C 
HETATM   36  C25 UNL     1      -8.175  48.620 -30.392  1.00  0.00     0.298 C 
ENDBRANCH  30  31
ENDBRANCH  29  30
ENDBRANCH  28  29
ENDBRANCH  27  28
ENDBRANCH  12  27
TORSDOF 8
ENDMDL
