MODEL 1
REMARK minimizedAffinity -7.74202442
REMARK  5 active torsions:
REMARK  status: ('A' for Active; 'I' for Inactive)
REMARK    1  A    between atoms: C2_2  and  N1_5 
REMARK    2  A    between atoms: C5_8  and  C6_9 
REMARK    3  A    between atoms: C10_15  and  O1_16 
REMARK    4  A    between atoms: O1_16  and  C11_17 
REMARK    5  A    between atoms: C19_25  and  C20_26 
REMARK       I    between atoms: C20_26  and  N4_27 
ROOT
HETATM    1  N1  UNL     1       8.843  35.322  19.836  1.00  0.00    -0.267 N 
HETATM    2  N2  UNL     1       9.640  35.694  18.810  1.00  0.00    -0.294 N 
ATOM      3  H2  UNL     1       9.370  36.213  17.976  1.00  0.00     0.187 HD
HETATM    4  C5  UNL     1      10.861  35.237  19.119  1.00  0.00     0.079 A 
HETATM    5  C19 UNL     1      10.869  34.627  20.406  1.00  0.00     0.105 A 
HETATM    6  C21 UNL     1       9.547  34.660  20.823  1.00  0.00     0.134 A 
HETATM    7  N5  UNL     1       9.013  34.175  21.970  1.00  0.00    -0.383 N 
HETATM    8  H24 UNL     1       9.577  33.504  22.505  1.00  0.00     0.157 HD
HETATM    9  H25 UNL     1       8.021  34.009  22.096  1.00  0.00     0.157 HD
ENDROOT
BRANCH   4  10
HETATM   10  C6  UNL     1      11.946  35.393  18.158  1.00  0.00     0.009 A 
HETATM   11  C7  UNL     1      11.732  36.010  16.933  1.00  0.00     0.102 A 
HETATM   12  N3  UNL     1      12.690  36.201  15.991  1.00  0.00    -0.364 N 
HETATM   13  C8  UNL     1      13.926  35.737  16.247  1.00  0.00     0.045 A 
ATOM     14  H3  UNL     1      12.479  36.681  15.116  1.00  0.00     0.165 HD
HETATM   15  C9  UNL     1      14.924  35.900  15.297  1.00  0.00     0.067 A 
HETATM   16  C17 UNL     1      14.246  35.078  17.454  1.00  0.00    -0.008 A 
HETATM   17  C10 UNL     1      16.213  35.416  15.519  1.00  0.00     0.071 A 
HETATM   18  C15 UNL     1      16.537  34.791  16.716  1.00  0.00     0.038 A 
HETATM   19  C16 UNL     1      15.553  34.614  17.683  1.00  0.00     0.016 A 
HETATM   20  C18 UNL     1      13.231  34.908  18.408  1.00  0.00     0.029 A 
BRANCH  17  21
HETATM   21  O1  UNL     1      17.218  35.572  14.598  1.00  0.00    -0.346 OA
BRANCH  21  22
HETATM   22  C11 UNL     1      17.431  34.455  13.705  1.00  0.00     0.129 C 
HETATM   23  C12 UNL     1      18.631  34.553  12.724  1.00  0.00     0.032 C 
HETATM   24  C13 UNL     1      17.727  33.917  11.652  1.00  0.00     0.005 C 
HETATM   25  C14 UNL     1      16.520  34.443  12.450  1.00  0.00     0.032 C 
ENDBRANCH  21  22
ENDBRANCH  17  21
ENDBRANCH   4  10
BRANCH   5  26
HETATM   26  C20 UNL     1      11.959  34.051  21.171  1.00  0.00     0.255 C 
HETATM   27  N4  UNL     1      12.897  34.929  21.638  1.00  0.00    -0.366 N 
HETATM   28  H22 UNL     1      12.731  35.926  21.649  1.00  0.00     0.159 HD
HETATM   29  H23 UNL     1      13.578  34.557  22.286  1.00  0.00     0.159 HD
HETATM   30  O2  UNL     1      12.045  32.858  21.436  1.00  0.00    -0.268 OA
ENDBRANCH   5  26
BRANCH   1  31
HETATM   31  C2  UNL     1       7.400  35.642  19.766  1.00  0.00     0.044 C 
HETATM   32  C1  UNL     1       6.575  34.379  19.450  1.00  0.00     0.039 C 
HETATM   33  C3  UNL     1       6.869  36.198  21.116  1.00  0.00     0.039 C 
HETATM   34  C4  UNL     1       7.146  36.732  18.706  1.00  0.00     0.039 C 
ENDBRANCH   1  31
TORSDOF 5
ENDMDL
MODEL 2
REMARK minimizedAffinity -7.65147161
REMARK  5 active torsions:
REMARK  status: ('A' for Active; 'I' for Inactive)
REMARK    1  A    between atoms: C2_2  and  N1_5 
REMARK    2  A    between atoms: C5_8  and  C6_9 
REMARK    3  A    between atoms: C10_15  and  O1_16 
REMARK    4  A    between atoms: O1_16  and  C11_17 
REMARK    5  A    between atoms: C19_25  and  C20_26 
REMARK       I    between atoms: C20_26  and  N4_27 
ROOT
HETATM    1  N1  UNL     1       8.926  35.500  22.119  1.00  0.00    -0.267 N 
HETATM    2  N2  UNL     1      10.100  35.488  21.448  1.00  0.00    -0.294 N 
ATOM      3  H2  UNL     1      11.033  35.363  21.841  1.00  0.00     0.187 HD
HETATM    4  C5  UNL     1       9.781  35.674  20.162  1.00  0.00     0.079 A 
HETATM    5  C19 UNL     1       8.369  35.728  19.986  1.00  0.00     0.105 A 
HETATM    6  C21 UNL     1       7.849  35.656  21.269  1.00  0.00     0.134 A 
HETATM    7  N5  UNL     1       6.551  35.700  21.657  1.00  0.00    -0.383 N 
HETATM    8  H24 UNL     1       5.869  36.054  20.976  1.00  0.00     0.157 HD
HETATM    9  H25 UNL     1       6.260  35.893  22.608  1.00  0.00     0.157 HD
ENDROOT
BRANCH   4  10
HETATM   10  C6  UNL     1      10.846  35.809  19.174  1.00  0.00     0.009 A 
HETATM   11  C7  UNL     1      10.614  35.535  17.833  1.00  0.00     0.102 A 
HETATM   12  N3  UNL     1      11.548  35.645  16.854  1.00  0.00    -0.364 N 
HETATM   13  C8  UNL     1      12.790  36.019  17.208  1.00  0.00     0.045 A 
ATOM     14  H3  UNL     1      11.315  35.451  15.881  1.00  0.00     0.165 HD
HETATM   15  C9  UNL     1      13.772  36.124  16.234  1.00  0.00     0.067 A 
HETATM   16  C17 UNL     1      13.136  36.305  18.548  1.00  0.00    -0.008 A 
HETATM   17  C10 UNL     1      15.076  36.493  16.565  1.00  0.00     0.071 A 
HETATM   18  C15 UNL     1      15.413  36.799  17.877  1.00  0.00     0.038 A 
HETATM   19  C16 UNL     1      14.446  36.698  18.872  1.00  0.00     0.016 A 
HETATM   20  C18 UNL     1      12.141  36.188  19.530  1.00  0.00     0.029 A 
BRANCH  17  21
HETATM   21  O1  UNL     1      16.063  36.610  15.618  1.00  0.00    -0.346 OA
BRANCH  21  22
HETATM   22  C11 UNL     1      16.379  35.404  14.887  1.00  0.00     0.129 C 
HETATM   23  C12 UNL     1      17.707  34.685  15.250  1.00  0.00     0.032 C 
HETATM   24  C13 UNL     1      17.907  34.427  13.746  1.00  0.00     0.005 C 
HETATM   25  C14 UNL     1      16.993  35.638  13.482  1.00  0.00     0.032 C 
ENDBRANCH  21  22
ENDBRANCH  17  21
ENDBRANCH   4  10
BRANCH   5  26
HETATM   26  C20 UNL     1       7.572  35.857  18.782  1.00  0.00     0.255 C 
HETATM   27  N4  UNL     1       7.391  37.128  18.311  1.00  0.00    -0.366 N 
HETATM   28  H22 UNL     1       7.954  37.900  18.641  1.00  0.00     0.159 HD
HETATM   29  H23 UNL     1       6.958  37.214  17.401  1.00  0.00     0.159 HD
HETATM   30  O2  UNL     1       7.105  34.902  18.172  1.00  0.00    -0.268 OA
ENDBRANCH   5  26
BRANCH   1  31
HETATM   31  C2  UNL     1       8.950  35.366  23.593  1.00  0.00     0.044 C 
HETATM   32  C1  UNL     1      10.398  35.356  24.117  1.00  0.00     0.039 C 
HETATM   33  C3  UNL     1       8.229  36.554  24.288  1.00  0.00     0.039 C 
HETATM   34  C4  UNL     1       8.210  34.084  24.024  1.00  0.00     0.039 C 
ENDBRANCH   1  31
TORSDOF 5
ENDMDL
MODEL 3
REMARK minimizedAffinity -7.65067482
REMARK  5 active torsions:
REMARK  status: ('A' for Active; 'I' for Inactive)
REMARK    1  A    between atoms: C2_2  and  N1_5 
REMARK    2  A    between atoms: C5_8  and  C6_9 
REMARK    3  A    between atoms: C10_15  and  O1_16 
REMARK    4  A    between atoms: O1_16  and  C11_17 
REMARK    5  A    between atoms: C19_25  and  C20_26 
REMARK       I    between atoms: C20_26  and  N4_27 
ROOT
HETATM    1  N1  UNL     1      16.862  36.340  13.922  1.00  0.00    -0.267 N 
HETATM    2  N2  UNL     1      15.796  35.707  14.462  1.00  0.00    -0.294 N 
ATOM      3  H2  UNL     1      15.398  34.814  14.174  1.00  0.00     0.187 HD
HETATM    4  C5  UNL     1      15.372  36.499  15.455  1.00  0.00     0.079 A 
HETATM    5  C19 UNL     1      16.227  37.627  15.612  1.00  0.00     0.105 A 
HETATM    6  C21 UNL     1      17.151  37.518  14.583  1.00  0.00     0.134 A 
HETATM    7  N5  UNL     1      18.165  38.359  14.268  1.00  0.00    -0.383 N 
HETATM    8  H24 UNL     1      18.134  39.304  14.670  1.00  0.00     0.157 HD
HETATM    9  H25 UNL     1      18.635  38.354  13.371  1.00  0.00     0.157 HD
ENDROOT
BRANCH   4  10
HETATM   10  C6  UNL     1      14.162  36.142  16.186  1.00  0.00     0.009 A 
HETATM   11  C7  UNL     1      12.907  36.463  15.688  1.00  0.00     0.102 A 
HETATM   12  N3  UNL     1      11.735  36.158  16.302  1.00  0.00    -0.364 N 
HETATM   13  C8  UNL     1      11.792  35.527  17.488  1.00  0.00     0.045 A 
ATOM     14  H3  UNL     1      10.840  36.400  15.878  1.00  0.00     0.165 HD
HETATM   15  C9  UNL     1      10.614  35.217  18.151  1.00  0.00     0.067 A 
HETATM   16  C17 UNL     1      13.019  35.170  18.092  1.00  0.00    -0.008 A 
HETATM   17  C10 UNL     1      10.632  34.578  19.391  1.00  0.00     0.071 A 
HETATM   18  C15 UNL     1      11.836  34.203  19.975  1.00  0.00     0.038 A 
HETATM   19  C16 UNL     1      13.031  34.505  19.330  1.00  0.00     0.016 A 
HETATM   20  C18 UNL     1      14.208  35.494  17.422  1.00  0.00     0.029 A 
BRANCH  17  21
HETATM   21  O1  UNL     1       9.480  34.255  20.062  1.00  0.00    -0.346 OA
BRANCH  21  22
HETATM   22  C11 UNL     1       8.785  35.358  20.686  1.00  0.00     0.129 C 
HETATM   23  C12 UNL     1       8.078  35.073  22.039  1.00  0.00     0.032 C 
HETATM   24  C13 UNL     1       6.918  35.957  21.547  1.00  0.00     0.005 C 
HETATM   25  C14 UNL     1       7.375  35.647  20.110  1.00  0.00     0.032 C 
ENDBRANCH  21  22
ENDBRANCH  17  21
ENDBRANCH   4  10
BRANCH   5  26
HETATM   26  C20 UNL     1      16.198  38.708  16.579  1.00  0.00     0.255 C 
HETATM   27  N4  UNL     1      15.082  39.497  16.567  1.00  0.00    -0.366 N 
HETATM   28  H22 UNL     1      14.240  39.219  16.080  1.00  0.00     0.159 HD
HETATM   29  H23 UNL     1      14.990  40.160  17.325  1.00  0.00     0.159 HD
HETATM   30  O2  UNL     1      17.084  38.907  17.401  1.00  0.00    -0.268 OA
ENDBRANCH   5  26
BRANCH   1  31
HETATM   31  C2  UNL     1      17.531  35.731  12.752  1.00  0.00     0.044 C 
HETATM   32  C1  UNL     1      17.698  36.762  11.620  1.00  0.00     0.039 C 
HETATM   33  C3  UNL     1      18.955  35.221  13.108  1.00  0.00     0.039 C 
HETATM   34  C4  UNL     1      16.733  34.509  12.256  1.00  0.00     0.039 C 
ENDBRANCH   1  31
TORSDOF 5
ENDMDL
MODEL 4
REMARK minimizedAffinity -7.61013508
REMARK  5 active torsions:
REMARK  status: ('A' for Active; 'I' for Inactive)
REMARK    1  A    between atoms: C2_2  and  N1_5 
REMARK    2  A    between atoms: C5_8  and  C6_9 
REMARK    3  A    between atoms: C10_15  and  O1_16 
REMARK    4  A    between atoms: O1_16  and  C11_17 
REMARK    5  A    between atoms: C19_25  and  C20_26 
REMARK       I    between atoms: C20_26  and  N4_27 
ROOT
HETATM    1  N1  UNL     1      14.215  37.107  18.149  1.00  0.00    -0.267 N 
HETATM    2  N2  UNL     1      12.980  36.562  18.068  1.00  0.00    -0.294 N 
ATOM      3  H2  UNL     1      12.434  36.394  17.223  1.00  0.00     0.187 HD
HETATM    4  C5  UNL     1      12.624  36.289  19.329  1.00  0.00     0.079 A 
HETATM    5  C19 UNL     1      13.680  36.590  20.236  1.00  0.00     0.105 A 
HETATM    6  C21 UNL     1      14.673  37.154  19.451  1.00  0.00     0.134 A 
HETATM    7  N5  UNL     1      15.876  37.643  19.836  1.00  0.00    -0.383 N 
HETATM    8  H24 UNL     1      16.005  37.842  20.835  1.00  0.00     0.157 HD
HETATM    9  H25 UNL     1      16.438  38.259  19.259  1.00  0.00     0.157 HD
ENDROOT
BRANCH   4  10
HETATM   10  C6  UNL     1      11.286  35.773  19.598  1.00  0.00     0.009 A 
HETATM   11  C7  UNL     1      11.100  34.662  20.409  1.00  0.00     0.102 A 
HETATM   12  N3  UNL     1       9.889  34.129  20.714  1.00  0.00    -0.364 N 
HETATM   13  C8  UNL     1       8.797  34.696  20.174  1.00  0.00     0.045 A 
ATOM     14  H3  UNL     1       9.811  33.323  21.334  1.00  0.00     0.165 HD
HETATM   15  C9  UNL     1       7.546  34.165  20.452  1.00  0.00     0.067 A 
HETATM   16  C17 UNL     1       8.877  35.820  19.322  1.00  0.00    -0.008 A 
HETATM   17  C10 UNL     1       6.391  34.715  19.896  1.00  0.00     0.071 A 
HETATM   18  C15 UNL     1       6.465  35.836  19.079  1.00  0.00     0.038 A 
HETATM   19  C16 UNL     1       7.708  36.386  18.784  1.00  0.00     0.016 A 
HETATM   20  C18 UNL     1      10.145  36.349  19.037  1.00  0.00     0.029 A 
BRANCH  17  21
HETATM   21  O1  UNL     1       5.143  34.211  20.162  1.00  0.00    -0.346 OA
BRANCH  21  22
HETATM   22  C11 UNL     1       4.853  32.915  19.590  1.00  0.00     0.129 C 
HETATM   23  C12 UNL     1       4.526  32.870  18.072  1.00  0.00     0.032 C 
HETATM   24  C13 UNL     1       3.440  31.829  18.402  1.00  0.00     0.005 C 
HETATM   25  C14 UNL     1       3.407  32.408  19.827  1.00  0.00     0.032 C 
ENDBRANCH  21  22
ENDBRANCH  17  21
ENDBRANCH   4  10
BRANCH   5  26
HETATM   26  C20 UNL     1      13.771  36.407  21.672  1.00  0.00     0.255 C 
HETATM   27  N4  UNL     1      13.041  37.273  22.438  1.00  0.00    -0.366 N 
HETATM   28  H22 UNL     1      12.315  37.852  22.038  1.00  0.00     0.159 HD
HETATM   29  H23 UNL     1      12.989  37.066  23.427  1.00  0.00     0.159 HD
HETATM   30  O2  UNL     1      14.422  35.515  22.202  1.00  0.00    -0.268 OA
ENDBRANCH   5  26
BRANCH   1  31
HETATM   31  C2  UNL     1      14.869  37.568  16.905  1.00  0.00     0.044 C 
HETATM   32  C1  UNL     1      15.248  39.058  17.007  1.00  0.00     0.039 C 
HETATM   33  C3  UNL     1      16.185  36.789  16.627  1.00  0.00     0.039 C 
HETATM   34  C4  UNL     1      13.946  37.328  15.694  1.00  0.00     0.039 C 
ENDBRANCH   1  31
TORSDOF 5
ENDMDL
MODEL 5
REMARK minimizedAffinity -7.46224594
REMARK  5 active torsions:
REMARK  status: ('A' for Active; 'I' for Inactive)
REMARK    1  A    between atoms: C2_2  and  N1_5 
REMARK    2  A    between atoms: C5_8  and  C6_9 
REMARK    3  A    between atoms: C10_15  and  O1_16 
REMARK    4  A    between atoms: O1_16  and  C11_17 
REMARK    5  A    between atoms: C19_25  and  C20_26 
REMARK       I    between atoms: C20_26  and  N4_27 
ROOT
HETATM    1  N1  UNL     1      18.706  44.440   4.967  1.00  0.00    -0.267 N 
HETATM    2  N2  UNL     1      18.746  45.758   4.667  1.00  0.00    -0.294 N 
ATOM      3  H2  UNL     1      19.384  46.225   4.024  1.00  0.00     0.187 HD
HETATM    4  C5  UNL     1      17.771  46.321   5.393  1.00  0.00     0.079 A 
HETATM    5  C19 UNL     1      17.036  45.337   6.115  1.00  0.00     0.105 A 
HETATM    6  C21 UNL     1      17.689  44.143   5.853  1.00  0.00     0.134 A 
HETATM    7  N5  UNL     1      17.407  42.906   6.328  1.00  0.00    -0.383 N 
HETATM    8  H24 UNL     1      16.794  42.846   7.150  1.00  0.00     0.157 HD
HETATM    9  H25 UNL     1      18.063  42.134   6.298  1.00  0.00     0.157 HD
ENDROOT
BRANCH   4  10
HETATM   10  C6  UNL     1      17.610  47.770   5.370  1.00  0.00     0.009 A 
HETATM   11  C7  UNL     1      16.858  48.388   4.380  1.00  0.00     0.102 A 
HETATM   12  N3  UNL     1      16.654  49.728   4.295  1.00  0.00    -0.364 N 
HETATM   13  C8  UNL     1      17.239  50.514   5.216  1.00  0.00     0.045 A 
ATOM     14  H3  UNL     1      16.074  50.125   3.557  1.00  0.00     0.165 HD
HETATM   15  C9  UNL     1      17.064  51.888   5.147  1.00  0.00     0.067 A 
HETATM   16  C17 UNL     1      18.038  49.987   6.255  1.00  0.00    -0.008 A 
HETATM   17  C10 UNL     1      17.670  52.737   6.074  1.00  0.00     0.071 A 
HETATM   18  C15 UNL     1      18.435  52.220   7.112  1.00  0.00     0.038 A 
HETATM   19  C16 UNL     1      18.627  50.845   7.200  1.00  0.00     0.016 A 
HETATM   20  C18 UNL     1      18.219  48.597   6.315  1.00  0.00     0.029 A 
BRANCH  17  21
HETATM   21  O1  UNL     1      17.506  54.099   6.030  1.00  0.00    -0.346 OA
BRANCH  21  22
HETATM   22  C11 UNL     1      16.517  54.583   5.094  1.00  0.00     0.129 C 
HETATM   23  C12 UNL     1      15.931  55.998   5.354  1.00  0.00     0.032 C 
HETATM   24  C13 UNL     1      14.558  55.438   4.940  1.00  0.00     0.005 C 
HETATM   25  C14 UNL     1      15.082  54.044   5.327  1.00  0.00     0.032 C 
ENDBRANCH  21  22
ENDBRANCH  17  21
ENDBRANCH   4  10
BRANCH   5  26
HETATM   26  C20 UNL     1      15.875  45.469   6.974  1.00  0.00     0.255 C 
HETATM   27  N4  UNL     1      15.977  44.904   8.215  1.00  0.00    -0.366 N 
HETATM   28  H22 UNL     1      16.868  44.615   8.595  1.00  0.00     0.159 HD
HETATM   29  H23 UNL     1      15.231  45.111   8.867  1.00  0.00     0.159 HD
HETATM   30  O2  UNL     1      14.861  46.077   6.656  1.00  0.00    -0.268 OA
ENDBRANCH   5  26
BRANCH   1  31
HETATM   31  C2  UNL     1      19.709  43.542   4.352  1.00  0.00     0.044 C 
HETATM   32  C1  UNL     1      20.710  44.345   3.499  1.00  0.00     0.039 C 
HETATM   33  C3  UNL     1      20.540  42.789   5.427  1.00  0.00     0.039 C 
HETATM   34  C4  UNL     1      19.011  42.467   3.497  1.00  0.00     0.039 C 
ENDBRANCH   1  31
TORSDOF 5
ENDMDL
MODEL 6
REMARK minimizedAffinity -7.34611559
REMARK  5 active torsions:
REMARK  status: ('A' for Active; 'I' for Inactive)
REMARK    1  A    between atoms: C2_2  and  N1_5 
REMARK    2  A    between atoms: C5_8  and  C6_9 
REMARK    3  A    between atoms: C10_15  and  O1_16 
REMARK    4  A    between atoms: O1_16  and  C11_17 
REMARK    5  A    between atoms: C19_25  and  C20_26 
REMARK       I    between atoms: C20_26  and  N4_27 
ROOT
HETATM    1  N1  UNL     1      16.413  39.316  15.258  1.00  0.00    -0.267 N 
HETATM    2  N2  UNL     1      15.257  38.971  15.869  1.00  0.00    -0.294 N 
ATOM      3  H2  UNL     1      14.580  39.596  16.306  1.00  0.00     0.187 HD
HETATM    4  C5  UNL     1      15.186  37.637  15.778  1.00  0.00     0.079 A 
HETATM    5  C19 UNL     1      16.278  37.115  15.027  1.00  0.00     0.105 A 
HETATM    6  C21 UNL     1      17.072  38.216  14.743  1.00  0.00     0.134 A 
HETATM    7  N5  UNL     1      18.250  38.256  14.076  1.00  0.00    -0.383 N 
HETATM    8  H24 UNL     1      18.752  37.368  13.953  1.00  0.00     0.157 HD
HETATM    9  H25 UNL     1      18.891  39.040  14.122  1.00  0.00     0.157 HD
ENDROOT
BRANCH   4  10
HETATM   10  C6  UNL     1      14.089  36.934  16.433  1.00  0.00     0.009 A 
HETATM   11  C7  UNL     1      12.938  36.598  15.733  1.00  0.00     0.102 A 
HETATM   12  N3  UNL     1      11.880  35.938  16.267  1.00  0.00    -0.364 N 
HETATM   13  C8  UNL     1      11.935  35.608  17.569  1.00  0.00     0.045 A 
ATOM     14  H3  UNL     1      11.068  35.699  15.698  1.00  0.00     0.165 HD
HETATM   15  C9  UNL     1      10.862  34.948  18.150  1.00  0.00     0.067 A 
HETATM   16  C17 UNL     1      13.053  35.917  18.376  1.00  0.00    -0.008 A 
HETATM   17  C10 UNL     1      10.875  34.604  19.502  1.00  0.00     0.071 A 
HETATM   18  C15 UNL     1      11.983  34.885  20.291  1.00  0.00     0.038 A 
HETATM   19  C16 UNL     1      13.071  35.548  19.732  1.00  0.00     0.016 A 
HETATM   20  C18 UNL     1      14.131  36.593  17.786  1.00  0.00     0.029 A 
BRANCH  17  21
HETATM   21  O1  UNL     1       9.830  33.945  20.097  1.00  0.00    -0.346 OA
BRANCH  21  22
HETATM   22  C11 UNL     1       8.881  34.778  20.801  1.00  0.00     0.129 C 
HETATM   23  C12 UNL     1       7.374  34.463  20.594  1.00  0.00     0.032 C 
HETATM   24  C13 UNL     1       7.125  35.982  20.557  1.00  0.00     0.005 C 
HETATM   25  C14 UNL     1       8.596  36.148  20.132  1.00  0.00     0.032 C 
ENDBRANCH  21  22
ENDBRANCH  17  21
ENDBRANCH   4  10
BRANCH   5  26
HETATM   26  C20 UNL     1      16.584  35.755  14.626  1.00  0.00     0.255 C 
HETATM   27  N4  UNL     1      16.889  34.884  15.635  1.00  0.00    -0.366 N 
HETATM   28  H22 UNL     1      16.697  35.105  16.602  1.00  0.00     0.159 HD
HETATM   29  H23 UNL     1      16.966  33.908  15.380  1.00  0.00     0.159 HD
HETATM   30  O2  UNL     1      16.543  35.364  13.466  1.00  0.00    -0.268 OA
ENDBRANCH   5  26
BRANCH   1  31
HETATM   31  C2  UNL     1      16.806  40.742  15.236  1.00  0.00     0.044 C 
HETATM   32  C1  UNL     1      16.727  41.308  13.806  1.00  0.00     0.039 C 
HETATM   33  C3  UNL     1      15.863  41.610  16.115  1.00  0.00     0.039 C 
HETATM   34  C4  UNL     1      18.228  40.913  15.807  1.00  0.00     0.039 C 
ENDBRANCH   1  31
TORSDOF 5
ENDMDL
MODEL 7
REMARK minimizedAffinity -7.09245825
REMARK  5 active torsions:
REMARK  status: ('A' for Active; 'I' for Inactive)
REMARK    1  A    between atoms: C2_2  and  N1_5 
REMARK    2  A    between atoms: C5_8  and  C6_9 
REMARK    3  A    between atoms: C10_15  and  O1_16 
REMARK    4  A    between atoms: O1_16  and  C11_17 
REMARK    5  A    between atoms: C19_25  and  C20_26 
REMARK       I    between atoms: C20_26  and  N4_27 
ROOT
HETATM    1  N1  UNL     1      17.350  49.003   5.634  1.00  0.00    -0.267 N 
HETATM    2  N2  UNL     1      16.780  50.073   5.034  1.00  0.00    -0.294 N 
ATOM      3  H2  UNL     1      16.101  50.065   4.274  1.00  0.00     0.187 HD
HETATM    4  C5  UNL     1      17.295  51.146   5.648  1.00  0.00     0.079 A 
HETATM    5  C19 UNL     1      18.154  50.762   6.717  1.00  0.00     0.105 A 
HETATM    6  C21 UNL     1      18.202  49.378   6.655  1.00  0.00     0.134 A 
HETATM    7  N5  UNL     1      18.907  48.523   7.434  1.00  0.00    -0.383 N 
HETATM    8  H24 UNL     1      19.676  48.918   7.989  1.00  0.00     0.157 HD
HETATM    9  H25 UNL     1      19.092  47.560   7.179  1.00  0.00     0.157 HD
ENDROOT
BRANCH   4  10
HETATM   10  C6  UNL     1      16.952  52.479   5.165  1.00  0.00     0.009 A 
HETATM   11  C7  UNL     1      17.931  53.339   4.687  1.00  0.00     0.102 A 
HETATM   12  N3  UNL     1      17.692  54.588   4.213  1.00  0.00    -0.364 N 
HETATM   13  C8  UNL     1      16.424  55.035   4.230  1.00  0.00     0.045 A 
ATOM     14  H3  UNL     1      18.449  55.168   3.854  1.00  0.00     0.165 HD
HETATM   15  C9  UNL     1      16.148  56.314   3.769  1.00  0.00     0.067 A 
HETATM   16  C17 UNL     1      15.354  54.247   4.711  1.00  0.00    -0.008 A 
HETATM   17  C10 UNL     1      14.848  56.820   3.787  1.00  0.00     0.071 A 
HETATM   18  C15 UNL     1      13.791  56.038   4.235  1.00  0.00     0.038 A 
HETATM   19  C16 UNL     1      14.043  54.753   4.705  1.00  0.00     0.016 A 
HETATM   20  C18 UNL     1      15.641  52.958   5.185  1.00  0.00     0.029 A 
BRANCH  17  21
HETATM   21  O1  UNL     1      14.549  58.079   3.329  1.00  0.00    -0.346 OA
BRANCH  21  22
HETATM   22  C11 UNL     1      14.498  59.117   4.334  1.00  0.00     0.129 C 
HETATM   23  C12 UNL     1      14.556  58.666   5.819  1.00  0.00     0.032 C 
HETATM   24  C13 UNL     1      13.496  59.742   6.121  1.00  0.00     0.005 C 
HETATM   25  C14 UNL     1      13.076  59.653   4.643  1.00  0.00     0.032 C 
ENDBRANCH  21  22
ENDBRANCH  17  21
ENDBRANCH   4  10
BRANCH   5  26
HETATM   26  C20 UNL     1      18.878  51.568   7.682  1.00  0.00     0.255 C 
HETATM   27  N4  UNL     1      18.611  52.908   7.670  1.00  0.00    -0.366 N 
HETATM   28  H22 UNL     1      17.808  53.285   7.184  1.00  0.00     0.159 HD
HETATM   29  H23 UNL     1      19.003  53.453   8.427  1.00  0.00     0.159 HD
HETATM   30  O2  UNL     1      19.659  51.103   8.503  1.00  0.00    -0.268 OA
ENDBRANCH   5  26
BRANCH   1  31
HETATM   31  C2  UNL     1      17.017  47.651   5.137  1.00  0.00     0.044 C 
HETATM   32  C1  UNL     1      16.355  46.810   6.245  1.00  0.00     0.039 C 
HETATM   33  C3  UNL     1      16.009  47.706   3.955  1.00  0.00     0.039 C 
HETATM   34  C4  UNL     1      18.283  46.948   4.609  1.00  0.00     0.039 C 
ENDBRANCH   1  31
TORSDOF 5
ENDMDL
MODEL 8
REMARK minimizedAffinity -7.06095457
REMARK  5 active torsions:
REMARK  status: ('A' for Active; 'I' for Inactive)
REMARK    1  A    between atoms: C2_2  and  N1_5 
REMARK    2  A    between atoms: C5_8  and  C6_9 
REMARK    3  A    between atoms: C10_15  and  O1_16 
REMARK    4  A    between atoms: O1_16  and  C11_17 
REMARK    5  A    between atoms: C19_25  and  C20_26 
REMARK       I    between atoms: C20_26  and  N4_27 
ROOT
HETATM    1  N1  UNL     1      19.095  45.326   6.981  1.00  0.00    -0.267 N 
HETATM    2  N2  UNL     1      19.260  46.629   6.659  1.00  0.00    -0.294 N 
ATOM      3  H2  UNL     1      20.136  47.149   6.621  1.00  0.00     0.187 HD
HETATM    4  C5  UNL     1      18.031  47.094   6.402  1.00  0.00     0.079 A 
HETATM    5  C19 UNL     1      17.062  46.054   6.482  1.00  0.00     0.105 A 
HETATM    6  C21 UNL     1      17.772  44.938   6.898  1.00  0.00     0.134 A 
HETATM    7  N5  UNL     1      17.308  43.692   7.158  1.00  0.00    -0.383 N 
HETATM    8  H24 UNL     1      16.295  43.586   7.293  1.00  0.00     0.157 HD
HETATM    9  H25 UNL     1      17.827  43.004   7.691  1.00  0.00     0.157 HD
ENDROOT
BRANCH   4  10
HETATM   10  C6  UNL     1      17.850  48.512   6.113  1.00  0.00     0.009 A 
HETATM   11  C7  UNL     1      17.129  48.927   5.001  1.00  0.00     0.102 A 
HETATM   12  N3  UNL     1      16.909  50.225   4.670  1.00  0.00    -0.364 N 
HETATM   13  C8  UNL     1      17.447  51.176   5.455  1.00  0.00     0.045 A 
ATOM     14  H3  UNL     1      16.353  50.472   3.852  1.00  0.00     0.165 HD
HETATM   15  C9  UNL     1      17.256  52.511   5.134  1.00  0.00     0.067 A 
HETATM   16  C17 UNL     1      18.212  50.861   6.600  1.00  0.00    -0.008 A 
HETATM   17  C10 UNL     1      17.812  53.525   5.913  1.00  0.00     0.071 A 
HETATM   18  C15 UNL     1      18.543  53.219   7.054  1.00  0.00     0.038 A 
HETATM   19  C16 UNL     1      18.751  51.886   7.395  1.00  0.00     0.016 A 
HETATM   20  C18 UNL     1      18.410  49.508   6.915  1.00  0.00     0.029 A 
BRANCH  17  21
HETATM   21  O1  UNL     1      17.631  54.853   5.620  1.00  0.00    -0.346 OA
BRANCH  21  22
HETATM   22  C11 UNL     1      16.496  55.162   4.779  1.00  0.00     0.129 C 
HETATM   23  C12 UNL     1      16.136  56.663   4.601  1.00  0.00     0.032 C 
HETATM   24  C13 UNL     1      14.655  56.254   4.697  1.00  0.00     0.005 C 
HETATM   25  C14 UNL     1      15.115  55.003   5.467  1.00  0.00     0.032 C 
ENDBRANCH  21  22
ENDBRANCH  17  21
ENDBRANCH   4  10
BRANCH   5  26
HETATM   26  C20 UNL     1      15.633  46.073   6.230  1.00  0.00     0.255 C 
HETATM   27  N4  UNL     1      14.826  46.008   7.331  1.00  0.00    -0.366 N 
HETATM   28  H22 UNL     1      15.187  46.164   8.263  1.00  0.00     0.159 HD
HETATM   29  H23 UNL     1      13.838  46.162   7.175  1.00  0.00     0.159 HD
HETATM   30  O2  UNL     1      15.143  46.180   5.112  1.00  0.00    -0.268 OA
ENDBRANCH   5  26
BRANCH   1  31
HETATM   31  C2  UNL     1      20.283  44.536   7.372  1.00  0.00     0.044 C 
HETATM   32  C1  UNL     1      20.086  43.905   8.764  1.00  0.00     0.039 C 
HETATM   33  C3  UNL     1      20.544  43.367   6.383  1.00  0.00     0.039 C 
HETATM   34  C4  UNL     1      21.544  45.423   7.355  1.00  0.00     0.039 C 
ENDBRANCH   1  31
TORSDOF 5
ENDMDL
MODEL 9
REMARK minimizedAffinity -7.05677891
REMARK  5 active torsions:
REMARK  status: ('A' for Active; 'I' for Inactive)
REMARK    1  A    between atoms: C2_2  and  N1_5 
REMARK    2  A    between atoms: C5_8  and  C6_9 
REMARK    3  A    between atoms: C10_15  and  O1_16 
REMARK    4  A    between atoms: O1_16  and  C11_17 
REMARK    5  A    between atoms: C19_25  and  C20_26 
REMARK       I    between atoms: C20_26  and  N4_27 
ROOT
HETATM    1  N1  UNL     1      17.613  49.103   5.629  1.00  0.00    -0.267 N 
HETATM    2  N2  UNL     1      16.988  50.143   5.034  1.00  0.00    -0.294 N 
ATOM      3  H2  UNL     1      16.293  50.100   4.289  1.00  0.00     0.187 HD
HETATM    4  C5  UNL     1      17.472  51.242   5.627  1.00  0.00     0.079 A 
HETATM    5  C19 UNL     1      18.370  50.902   6.680  1.00  0.00     0.105 A 
HETATM    6  C21 UNL     1      18.471  49.521   6.628  1.00  0.00     0.134 A 
HETATM    7  N5  UNL     1      19.228  48.702   7.398  1.00  0.00    -0.383 N 
HETATM    8  H24 UNL     1      19.992  49.132   7.933  1.00  0.00     0.157 HD
HETATM    9  H25 UNL     1      19.445  47.745   7.147  1.00  0.00     0.157 HD
ENDROOT
BRANCH   4  10
HETATM   10  C6  UNL     1      17.065  52.555   5.140  1.00  0.00     0.009 A 
HETATM   11  C7  UNL     1      17.999  53.452   4.642  1.00  0.00     0.102 A 
HETATM   12  N3  UNL     1      17.700  54.686   4.162  1.00  0.00    -0.364 N 
HETATM   13  C8  UNL     1      16.414  55.080   4.197  1.00  0.00     0.045 A 
ATOM     14  H3  UNL     1      18.426  55.296   3.788  1.00  0.00     0.165 HD
HETATM   15  C9  UNL     1      16.076  56.342   3.731  1.00  0.00     0.067 A 
HETATM   16  C17 UNL     1      15.387  54.250   4.700  1.00  0.00    -0.008 A 
HETATM   17  C10 UNL     1      14.757  56.792   3.766  1.00  0.00     0.071 A 
HETATM   18  C15 UNL     1      13.741  55.969   4.236  1.00  0.00     0.038 A 
HETATM   19  C16 UNL     1      14.055  54.699   4.711  1.00  0.00     0.016 A 
HETATM   20  C18 UNL     1      15.735  52.978   5.177  1.00  0.00     0.029 A 
BRANCH  17  21
HETATM   21  O1  UNL     1      14.398  58.033   3.305  1.00  0.00    -0.346 OA
BRANCH  21  22
HETATM   22  C11 UNL     1      14.317  58.171   1.868  1.00  0.00     0.129 C 
HETATM   23  C12 UNL     1      13.134  59.004   1.304  1.00  0.00     0.032 C 
HETATM   24  C13 UNL     1      13.012  57.955   0.183  1.00  0.00     0.005 C 
HETATM   25  C14 UNL     1      13.697  56.955   1.132  1.00  0.00     0.032 C 
ENDBRANCH  21  22
ENDBRANCH  17  21
ENDBRANCH   4  10
BRANCH   5  26
HETATM   26  C20 UNL     1      19.081  51.745   7.622  1.00  0.00     0.255 C 
HETATM   27  N4  UNL     1      20.246  51.237   8.125  1.00  0.00    -0.366 N 
HETATM   28  H22 UNL     1      20.699  50.435   7.707  1.00  0.00     0.159 HD
HETATM   29  H23 UNL     1      20.816  51.870   8.670  1.00  0.00     0.159 HD
HETATM   30  O2  UNL     1      18.711  52.869   7.940  1.00  0.00    -0.268 OA
ENDBRANCH   5  26
BRANCH   1  31
HETATM   31  C2  UNL     1      17.324  47.733   5.152  1.00  0.00     0.044 C 
HETATM   32  C1  UNL     1      16.944  46.813   6.328  1.00  0.00     0.039 C 
HETATM   33  C3  UNL     1      16.126  47.712   4.162  1.00  0.00     0.039 C 
HETATM   34  C4  UNL     1      18.538  47.164   4.392  1.00  0.00     0.039 C 
ENDBRANCH   1  31
TORSDOF 5
ENDMDL
