MODEL 1
REMARK minimizedAffinity -9.94648361
REMARK  7 active torsions:
REMARK  status: ('A' for Active; 'I' for Inactive)
REMARK    1  A    between atoms: C2_2  and  C3_3 
REMARK       I    between atoms: C3_3  and  N1_5 
REMARK    2  A    between atoms: N1_5  and  C4_6 
REMARK    3  A    between atoms: C8_10  and  O2_11 
REMARK    4  A    between atoms: O2_11  and  C9_12 
REMARK    5  A    between atoms: C10_15  and  N3_16 
REMARK    6  A    between atoms: N3_16  and  C11_17 
REMARK    7  A    between atoms: C19_28  and  N6_29 
ROOT
HETATM    1  C9  UNL     1      -0.901  50.651 -21.979  1.00  0.00     0.232 A 
HETATM    2  N2  UNL     1      -0.289  51.448 -22.861  1.00  0.00    -0.308 N 
ATOM      3  H2  UNL     1      -0.358  51.293 -23.866  1.00  0.00     0.171 HD
HETATM    4  C10 UNL     1       0.421  52.461 -22.345  1.00  0.00     0.113 A 
HETATM    5  C18 UNL     1       0.525  52.647 -20.980  1.00  0.00     0.097 A 
HETATM    6  C19 UNL     1      -0.096  51.741 -20.136  1.00  0.00     0.109 A 
HETATM    7  N8  UNL     1      -0.819  50.733 -20.644  1.00  0.00    -0.308 N 
ATOM      8  H8  UNL     1      -1.287  50.057 -20.040  1.00  0.00     0.171 HD
ENDROOT
BRANCH   1   9
HETATM    9  O2  UNL     1      -1.639  49.611 -22.509  1.00  0.00    -0.279 OA
BRANCH   9  10
HETATM   10  C8  UNL     1      -2.916  49.898 -22.941  1.00  0.00     0.081 A 
HETATM   11  C7  UNL     1      -3.827  50.730 -22.285  1.00  0.00     0.037 A 
HETATM   12  C6  UNL     1      -5.105  50.921 -22.813  1.00  0.00     0.005 A 
HETATM   13  C5  UNL     1      -5.470  50.293 -24.004  1.00  0.00     0.029 A 
HETATM   14  C4  UNL     1      -4.565  49.462 -24.679  1.00  0.00     0.037 A 
HETATM   15  C25 UNL     1      -3.293  49.266 -24.135  1.00  0.00     0.066 A 
BRANCH  14  16
HETATM   16  N1  UNL     1      -5.007  48.880 -25.886  1.00  0.00    -0.324 N 
HETATM   17  C3  UNL     1      -4.249  48.547 -26.987  1.00  0.00     0.244 C 
HETATM   18  O1  UNL     1      -3.034  48.618 -27.111  1.00  0.00    -0.268 OA
HETATM   19  H4  UNL     1      -5.993  48.660 -25.930  1.00  0.00     0.169 HD
BRANCH  17  20
HETATM   20  C2  UNL     1      -5.043  47.985 -28.116  1.00  0.00     0.064 C 
HETATM   21  C1  UNL     1      -6.314  47.567 -28.028  1.00  0.00     0.017 C 
ENDBRANCH  17  20
ENDBRANCH  14  16
ENDBRANCH   9  10
ENDBRANCH   1   9
BRANCH   4  22
HETATM   22  N3  UNL     1       1.027  53.280 -23.298  1.00  0.00    -0.327 N 
HETATM   23  H8  UNL     1       1.971  53.476 -22.967  1.00  0.00     0.169 HD
BRANCH  22  24
HETATM   24  C11 UNL     1       0.641  53.737 -24.506  1.00  0.00     0.134 A 
HETATM   25  N4  UNL     1       0.240  54.973 -24.815  1.00  0.00    -0.284 N 
HETATM   26  N5  UNL     1      -0.053  54.911 -26.122  1.00  0.00    -0.298 N 
ATOM     27  H4  UNL     1       0.173  55.781 -24.197  1.00  0.00     0.188 HD
HETATM   28  C12 UNL     1       0.141  53.681 -26.690  1.00  0.00     0.062 A 
HETATM   29  H9  UNL     1      -0.394  55.753 -26.578  1.00  0.00     0.187 HD
HETATM   30  C13 UNL     1      -0.047  53.218 -27.997  1.00  0.00     0.032 A 
HETATM   31  C17 UNL     1       0.610  52.879 -25.657  1.00  0.00     0.037 A 
HETATM   32  C14 UNL     1       0.263  51.873 -28.250  1.00  0.00     0.002 A 
HETATM   33  C15 UNL     1       0.737  51.040 -27.237  1.00  0.00     0.001 A 
HETATM   34  C16 UNL     1       0.918  51.528 -25.934  1.00  0.00     0.017 A 
ENDBRANCH  22  24
ENDBRANCH   4  22
BRANCH   6  35
HETATM   35  N6  UNL     1      -0.030  51.873 -18.754  1.00  0.00    -0.364 N 
HETATM   36  C20 UNL     1      -0.270  50.661 -17.954  1.00  0.00     0.154 C 
HETATM   37  C21 UNL     1      -0.352  51.022 -16.453  1.00  0.00     0.291 C 
HETATM   38  N7  UNL     1       0.839  51.710 -15.898  1.00  0.00     0.087 N 
HETATM   39  C22 UNL     1       1.640  50.818 -15.062  1.00  0.00     0.310 C 
HETATM   40  C23 UNL     1       1.670  52.301 -16.968  1.00  0.00     0.291 C 
HETATM   41  C24 UNL     1       0.857  52.886 -18.153  1.00  0.00     0.154 C 
ENDBRANCH   6  35
TORSDOF 7
ENDMDL
MODEL 2
REMARK minimizedAffinity -9.84536457
REMARK  7 active torsions:
REMARK  status: ('A' for Active; 'I' for Inactive)
REMARK    1  A    between atoms: C2_2  and  C3_3 
REMARK       I    between atoms: C3_3  and  N1_5 
REMARK    2  A    between atoms: N1_5  and  C4_6 
REMARK    3  A    between atoms: C8_10  and  O2_11 
REMARK    4  A    between atoms: O2_11  and  C9_12 
REMARK    5  A    between atoms: C10_15  and  N3_16 
REMARK    6  A    between atoms: N3_16  and  C11_17 
REMARK    7  A    between atoms: C19_28  and  N6_29 
ROOT
HETATM    1  C9  UNL     1      -2.143  51.851 -21.712  1.00  0.00     0.232 A 
HETATM    2  N2  UNL     1      -1.302  52.383 -22.605  1.00  0.00    -0.308 N 
ATOM      3  H2  UNL     1      -1.620  52.710 -23.517  1.00  0.00     0.171 HD
HETATM    4  C10 UNL     1      -0.018  52.460 -22.231  1.00  0.00     0.113 A 
HETATM    5  C18 UNL     1       0.404  51.993 -21.001  1.00  0.00     0.097 A 
HETATM    6  C19 UNL     1      -0.525  51.406 -20.158  1.00  0.00     0.109 A 
HETATM    7  N8  UNL     1      -1.814  51.337 -20.520  1.00  0.00    -0.308 N 
ATOM      8  H8  UNL     1      -2.515  50.912 -19.912  1.00  0.00     0.171 HD
ENDROOT
BRANCH   1   9
HETATM    9  O2  UNL     1      -3.469  51.778 -22.093  1.00  0.00    -0.279 OA
BRANCH   9  10
HETATM   10  C8  UNL     1      -3.963  50.535 -22.428  1.00  0.00     0.081 A 
HETATM   11  C7  UNL     1      -4.308  49.529 -21.523  1.00  0.00     0.037 A 
HETATM   12  C6  UNL     1      -4.774  48.299 -21.990  1.00  0.00     0.005 A 
HETATM   13  C5  UNL     1      -4.909  48.078 -23.360  1.00  0.00     0.029 A 
HETATM   14  C4  UNL     1      -4.575  49.080 -24.282  1.00  0.00     0.037 A 
HETATM   15  C25 UNL     1      -4.097  50.303 -23.805  1.00  0.00     0.066 A 
BRANCH  14  16
HETATM   16  N1  UNL     1      -4.758  48.781 -25.649  1.00  0.00    -0.324 N 
HETATM   17  C3  UNL     1      -3.788  48.509 -26.588  1.00  0.00     0.244 C 
HETATM   18  O1  UNL     1      -2.582  48.397 -26.411  1.00  0.00    -0.268 OA
HETATM   19  H4  UNL     1      -5.718  48.737 -25.962  1.00  0.00     0.169 HD
BRANCH  17  20
HETATM   20  C2  UNL     1      -4.325  48.274 -27.958  1.00  0.00     0.064 C 
HETATM   21  C1  UNL     1      -5.602  47.975 -28.241  1.00  0.00     0.017 C 
ENDBRANCH  17  20
ENDBRANCH  14  16
ENDBRANCH   9  10
ENDBRANCH   1   9
BRANCH   4  22
HETATM   22  N3  UNL     1       0.823  53.039 -23.182  1.00  0.00    -0.327 N 
HETATM   23  H8  UNL     1       1.777  52.943 -22.834  1.00  0.00     0.169 HD
BRANCH  22  24
HETATM   24  C11 UNL     1       0.613  53.569 -24.403  1.00  0.00     0.134 A 
HETATM   25  N4  UNL     1       0.532  54.863 -24.722  1.00  0.00    -0.284 N 
HETATM   26  N5  UNL     1       0.294  54.868 -26.041  1.00  0.00    -0.298 N 
ATOM     27  H4  UNL     1       0.630  55.667 -24.101  1.00  0.00     0.188 HD
HETATM   28  C12 UNL     1       0.217  53.625 -26.608  1.00  0.00     0.062 A 
HETATM   29  H9  UNL     1       0.184  55.765 -26.506  1.00  0.00     0.187 HD
HETATM   30  C13 UNL     1      -0.015  53.215 -27.926  1.00  0.00     0.032 A 
HETATM   31  C17 UNL     1       0.434  52.738 -25.561  1.00  0.00     0.037 A 
HETATM   32  C14 UNL     1      -0.021  51.834 -28.174  1.00  0.00     0.002 A 
HETATM   33  C15 UNL     1       0.194  50.916 -27.147  1.00  0.00     0.001 A 
HETATM   34  C16 UNL     1       0.424  51.352 -25.833  1.00  0.00     0.017 A 
ENDBRANCH  22  24
ENDBRANCH   4  22
BRANCH   6  35
HETATM   35  N6  UNL     1      -0.166  50.917 -18.908  1.00  0.00    -0.364 N 
HETATM   36  C20 UNL     1       0.402  51.880 -17.951  1.00  0.00     0.154 C 
HETATM   37  C21 UNL     1       0.921  51.141 -16.696  1.00  0.00     0.291 C 
HETATM   38  N7  UNL     1      -0.084  50.319 -15.980  1.00  0.00     0.087 N 
HETATM   39  C22 UNL     1      -0.516  50.953 -14.736  1.00  0.00     0.310 C 
HETATM   40  C23 UNL     1      -1.249  50.019 -16.839  1.00  0.00     0.291 C 
HETATM   41  C24 UNL     1      -0.893  49.772 -18.328  1.00  0.00     0.154 C 
ENDBRANCH   6  35
TORSDOF 7
ENDMDL
MODEL 3
REMARK minimizedAffinity -9.80039787
REMARK  7 active torsions:
REMARK  status: ('A' for Active; 'I' for Inactive)
REMARK    1  A    between atoms: C2_2  and  C3_3 
REMARK       I    between atoms: C3_3  and  N1_5 
REMARK    2  A    between atoms: N1_5  and  C4_6 
REMARK    3  A    between atoms: C8_10  and  O2_11 
REMARK    4  A    between atoms: O2_11  and  C9_12 
REMARK    5  A    between atoms: C10_15  and  N3_16 
REMARK    6  A    between atoms: N3_16  and  C11_17 
REMARK    7  A    between atoms: C19_28  and  N6_29 
ROOT
HETATM    1  C9  UNL     1      -3.286  49.902 -23.108  1.00  0.00     0.232 A 
HETATM    2  N2  UNL     1      -2.896  50.806 -24.013  1.00  0.00    -0.308 N 
ATOM      3  H2  UNL     1      -3.114  50.706 -25.004  1.00  0.00     0.171 HD
HETATM    4  C10 UNL     1      -2.202  51.850 -23.540  1.00  0.00     0.113 A 
HETATM    5  C18 UNL     1      -1.894  51.963 -22.198  1.00  0.00     0.097 A 
HETATM    6  C19 UNL     1      -2.290  50.953 -21.337  1.00  0.00     0.109 A 
HETATM    7  N8  UNL     1      -2.996  49.912 -21.800  1.00  0.00    -0.308 N 
ATOM      8  H8  UNL     1      -3.301  49.159 -21.183  1.00  0.00     0.171 HD
ENDROOT
BRANCH   1   9
HETATM    9  O2  UNL     1      -4.009  48.829 -23.593  1.00  0.00    -0.279 OA
BRANCH   9  10
HETATM   10  C8  UNL     1      -4.005  48.629 -24.957  1.00  0.00     0.081 A 
HETATM   11  C7  UNL     1      -2.875  48.657 -25.778  1.00  0.00     0.037 A 
HETATM   12  C6  UNL     1      -3.006  48.464 -27.154  1.00  0.00     0.005 A 
HETATM   13  C5  UNL     1      -4.263  48.231 -27.710  1.00  0.00     0.029 A 
HETATM   14  C4  UNL     1      -5.406  48.192 -26.899  1.00  0.00     0.037 A 
HETATM   15  C25 UNL     1      -5.267  48.398 -25.524  1.00  0.00     0.066 A 
BRANCH  14  16
HETATM   16  N1  UNL     1      -6.637  47.932 -27.539  1.00  0.00    -0.324 N 
HETATM   17  C3  UNL     1      -6.899  47.934 -28.891  1.00  0.00     0.244 C 
HETATM   18  O1  UNL     1      -6.105  48.085 -29.810  1.00  0.00    -0.268 OA
HETATM   19  H4  UNL     1      -7.405  47.691 -26.928  1.00  0.00     0.169 HD
BRANCH  17  20
HETATM   20  C2  UNL     1      -8.324  47.657 -29.228  1.00  0.00     0.064 C 
HETATM   21  C1  UNL     1      -9.140  48.506 -29.871  1.00  0.00     0.017 C 
ENDBRANCH  17  20
ENDBRANCH  14  16
ENDBRANCH   9  10
ENDBRANCH   1   9
BRANCH   4  22
HETATM   22  N3  UNL     1      -1.831  52.780 -24.512  1.00  0.00    -0.327 N 
HETATM   23  H8  UNL     1      -1.793  53.691 -24.054  1.00  0.00     0.169 HD
BRANCH  22  24
HETATM   24  C11 UNL     1      -1.463  52.672 -25.804  1.00  0.00     0.134 A 
HETATM   25  N4  UNL     1      -2.221  52.887 -26.882  1.00  0.00    -0.284 N 
HETATM   26  N5  UNL     1      -1.409  52.627 -27.918  1.00  0.00    -0.298 N 
ATOM     27  H4  UNL     1      -3.198  53.181 -26.912  1.00  0.00     0.188 HD
HETATM   28  C12 UNL     1      -0.142  52.252 -27.564  1.00  0.00     0.062 A 
HETATM   29  H9  UNL     1      -1.786  52.718 -28.857  1.00  0.00     0.187 HD
HETATM   30  C13 UNL     1       0.975  51.904 -28.332  1.00  0.00     0.032 A 
HETATM   31  C17 UNL     1      -0.133  52.281 -26.175  1.00  0.00     0.037 A 
HETATM   32  C14 UNL     1       2.150  51.573 -27.640  1.00  0.00     0.002 A 
HETATM   33  C15 UNL     1       2.194  51.591 -26.246  1.00  0.00     0.001 A 
HETATM   34  C16 UNL     1       1.060  51.945 -25.498  1.00  0.00     0.017 A 
ENDBRANCH  22  24
ENDBRANCH   4  22
BRANCH   6  35
HETATM   35  N6  UNL     1      -2.013  51.007 -19.976  1.00  0.00    -0.364 N 
HETATM   36  C20 UNL     1      -2.113  49.748 -19.222  1.00  0.00     0.154 C 
HETATM   37  C21 UNL     1      -1.966  50.021 -17.708  1.00  0.00     0.291 C 
HETATM   38  N7  UNL     1      -0.711  50.699 -17.303  1.00  0.00     0.087 N 
HETATM   39  C22 UNL     1       0.219  49.778 -16.654  1.00  0.00     0.310 C 
HETATM   40  C23 UNL     1      -0.062  51.367 -18.451  1.00  0.00     0.291 C 
HETATM   41  C24 UNL     1      -1.054  52.002 -19.460  1.00  0.00     0.154 C 
ENDBRANCH   6  35
TORSDOF 7
ENDMDL
MODEL 4
REMARK minimizedAffinity -9.60187244
REMARK  7 active torsions:
REMARK  status: ('A' for Active; 'I' for Inactive)
REMARK    1  A    between atoms: C2_2  and  C3_3 
REMARK       I    between atoms: C3_3  and  N1_5 
REMARK    2  A    between atoms: N1_5  and  C4_6 
REMARK    3  A    between atoms: C8_10  and  O2_11 
REMARK    4  A    between atoms: O2_11  and  C9_12 
REMARK    5  A    between atoms: C10_15  and  N3_16 
REMARK    6  A    between atoms: N3_16  and  C11_17 
REMARK    7  A    between atoms: C19_28  and  N6_29 
ROOT
HETATM    1  C9  UNL     1      -2.320  51.261 -22.361  1.00  0.00     0.232 A 
HETATM    2  N2  UNL     1      -1.528  52.068 -23.073  1.00  0.00    -0.308 N 
ATOM      3  H2  UNL     1      -1.819  52.456 -23.970  1.00  0.00     0.171 HD
HETATM    4  C10 UNL     1      -0.329  52.337 -22.539  1.00  0.00     0.113 A 
HETATM    5  C18 UNL     1       0.063  51.788 -21.333  1.00  0.00     0.097 A 
HETATM    6  C19 UNL     1      -0.799  50.917 -20.687  1.00  0.00     0.109 A 
HETATM    7  N8  UNL     1      -2.006  50.654 -21.209  1.00  0.00    -0.308 N 
ATOM      8  H8  UNL     1      -2.657  50.018 -20.748  1.00  0.00     0.171 HD
ENDROOT
BRANCH   1   9
HETATM    9  O2  UNL     1      -3.560  50.989 -22.907  1.00  0.00    -0.279 OA
BRANCH   9  10
HETATM   10  C8  UNL     1      -3.605  50.108 -23.966  1.00  0.00     0.081 A 
HETATM   11  C7  UNL     1      -2.526  49.773 -24.789  1.00  0.00     0.037 A 
HETATM   12  C6  UNL     1      -2.706  48.884 -25.849  1.00  0.00     0.005 A 
HETATM   13  C5  UNL     1      -3.960  48.318 -26.082  1.00  0.00     0.029 A 
HETATM   14  C4  UNL     1      -5.050  48.638 -25.260  1.00  0.00     0.037 A 
HETATM   15  C25 UNL     1      -4.863  49.538 -24.209  1.00  0.00     0.066 A 
BRANCH  14  16
HETATM   16  N1  UNL     1      -6.279  48.007 -25.553  1.00  0.00    -0.324 N 
HETATM   17  C3  UNL     1      -6.771  47.656 -26.790  1.00  0.00     0.244 C 
HETATM   18  O1  UNL     1      -6.211  47.750 -27.875  1.00  0.00    -0.268 OA
HETATM   19  H4  UNL     1      -6.847  47.764 -24.753  1.00  0.00     0.169 HD
BRANCH  17  20
HETATM   20  C2  UNL     1      -8.126  47.039 -26.747  1.00  0.00     0.064 C 
HETATM   21  C1  UNL     1      -9.266  47.668 -27.070  1.00  0.00     0.017 C 
ENDBRANCH  17  20
ENDBRANCH  14  16
ENDBRANCH   9  10
ENDBRANCH   1   9
BRANCH   4  22
HETATM   22  N3  UNL     1       0.460  53.199 -23.302  1.00  0.00    -0.327 N 
HETATM   23  H8  UNL     1       1.293  53.407 -22.752  1.00  0.00     0.169 HD
BRANCH  22  24
HETATM   24  C11 UNL     1       0.357  53.680 -24.557  1.00  0.00     0.134 A 
HETATM   25  N4  UNL     1       0.210  54.955 -24.925  1.00  0.00    -0.284 N 
HETATM   26  N5  UNL     1       0.134  54.909 -26.263  1.00  0.00    -0.298 N 
ATOM     27  H4  UNL     1       0.165  55.779 -24.324  1.00  0.00     0.188 HD
HETATM   28  C12 UNL     1       0.228  53.652 -26.793  1.00  0.00     0.062 A 
HETATM   29  H9  UNL     1       0.008  55.783 -26.767  1.00  0.00     0.187 HD
HETATM   30  C13 UNL     1       0.194  53.193 -28.116  1.00  0.00     0.032 A 
HETATM   31  C17 UNL     1       0.389  52.811 -25.699  1.00  0.00     0.037 A 
HETATM   32  C14 UNL     1       0.330  51.811 -28.317  1.00  0.00     0.002 A 
HETATM   33  C15 UNL     1       0.493  50.939 -27.241  1.00  0.00     0.001 A 
HETATM   34  C16 UNL     1       0.526  51.424 -25.924  1.00  0.00     0.017 A 
ENDBRANCH  22  24
ENDBRANCH   4  22
BRANCH   6  35
HETATM   35  N6  UNL     1      -0.466  50.331 -19.472  1.00  0.00    -0.364 N 
HETATM   36  C20 UNL     1      -0.140  51.237 -18.360  1.00  0.00     0.154 C 
HETATM   37  C21 UNL     1       0.391  50.430 -17.153  1.00  0.00     0.291 C 
HETATM   38  N7  UNL     1      -0.521  49.380 -16.638  1.00  0.00     0.087 N 
HETATM   39  C22 UNL     1      -1.147  49.776 -15.379  1.00  0.00     0.310 C 
HETATM   40  C23 UNL     1      -1.551  49.021 -17.637  1.00  0.00     0.291 C 
HETATM   41  C24 UNL     1      -1.042  49.025 -19.102  1.00  0.00     0.154 C 
ENDBRANCH   6  35
TORSDOF 7
ENDMDL
MODEL 5
REMARK minimizedAffinity -9.57076836
REMARK  7 active torsions:
REMARK  status: ('A' for Active; 'I' for Inactive)
REMARK    1  A    between atoms: C2_2  and  C3_3 
REMARK       I    between atoms: C3_3  and  N1_5 
REMARK    2  A    between atoms: N1_5  and  C4_6 
REMARK    3  A    between atoms: C8_10  and  O2_11 
REMARK    4  A    between atoms: O2_11  and  C9_12 
REMARK    5  A    between atoms: C10_15  and  N3_16 
REMARK    6  A    between atoms: N3_16  and  C11_17 
REMARK    7  A    between atoms: C19_28  and  N6_29 
ROOT
HETATM    1  C9  UNL     1      -3.315  50.599 -26.779  1.00  0.00     0.232 A 
HETATM    2  N2  UNL     1      -3.786  49.948 -27.847  1.00  0.00    -0.308 N 
ATOM      3  H2  UNL     1      -3.687  50.319 -28.792  1.00  0.00     0.171 HD
HETATM    4  C10 UNL     1      -4.396  48.780 -27.604  1.00  0.00     0.113 A 
HETATM    5  C18 UNL     1      -4.543  48.298 -26.317  1.00  0.00     0.097 A 
HETATM    6  C19 UNL     1      -4.074  49.064 -25.262  1.00  0.00     0.109 A 
HETATM    7  N8  UNL     1      -3.451  50.227 -25.499  1.00  0.00    -0.308 N 
ATOM      8  H8  UNL     1      -3.096  50.805 -24.737  1.00  0.00     0.171 HD
ENDROOT
BRANCH   1   9
HETATM    9  O2  UNL     1      -2.680  51.800 -27.030  1.00  0.00    -0.279 OA
BRANCH   9  10
HETATM   10  C8  UNL     1      -1.318  51.849 -26.825  1.00  0.00     0.081 A 
HETATM   11  C7  UNL     1      -0.342  51.665 -27.808  1.00  0.00     0.037 A 
HETATM   12  C6  UNL     1       1.011  51.713 -27.467  1.00  0.00     0.005 A 
HETATM   13  C5  UNL     1       1.391  51.957 -26.148  1.00  0.00     0.029 A 
HETATM   14  C4  UNL     1       0.424  52.152 -25.151  1.00  0.00     0.037 A 
HETATM   15  C25 UNL     1      -0.927  52.090 -25.499  1.00  0.00     0.066 A 
BRANCH  14  16
HETATM   16  N1  UNL     1       0.894  52.412 -23.846  1.00  0.00    -0.324 N 
HETATM   17  C3  UNL     1       0.153  52.501 -22.688  1.00  0.00     0.244 C 
HETATM   18  O1  UNL     1      -1.045  52.298 -22.545  1.00  0.00    -0.268 OA
HETATM   19  H4  UNL     1       1.894  52.518 -23.754  1.00  0.00     0.169 HD
BRANCH  17  20
HETATM   20  C2  UNL     1       0.962  52.831 -21.480  1.00  0.00     0.064 C 
HETATM   21  C1  UNL     1       1.197  54.072 -21.029  1.00  0.00     0.017 C 
ENDBRANCH  17  20
ENDBRANCH  14  16
ENDBRANCH   9  10
ENDBRANCH   1   9
BRANCH   4  22
HETATM   22  N3  UNL     1      -4.854  48.122 -28.745  1.00  0.00    -0.327 N 
HETATM   23  H8  UNL     1      -4.198  47.365 -28.937  1.00  0.00     0.169 HD
BRANCH  22  24
HETATM   24  C11 UNL     1      -5.958  48.250 -29.507  1.00  0.00     0.134 A 
HETATM   25  N4  UNL     1      -7.170  48.653 -29.116  1.00  0.00    -0.284 N 
HETATM   26  N5  UNL     1      -7.918  48.587 -30.227  1.00  0.00    -0.298 N 
ATOM     27  H4  UNL     1      -7.461  48.945 -28.183  1.00  0.00     0.188 HD
HETATM   28  C12 UNL     1      -7.245  48.159 -31.339  1.00  0.00     0.062 A 
HETATM   29  H9  UNL     1      -8.899  48.845 -30.162  1.00  0.00     0.187 HD
HETATM   30  C13 UNL     1      -7.662  47.959 -32.661  1.00  0.00     0.032 A 
HETATM   31  C17 UNL     1      -5.943  47.937 -30.908  1.00  0.00     0.037 A 
HETATM   32  C14 UNL     1      -6.696  47.512 -33.575  1.00  0.00     0.002 A 
HETATM   33  C15 UNL     1      -5.379  47.279 -33.176  1.00  0.00     0.001 A 
HETATM   34  C16 UNL     1      -4.986  47.488 -31.845  1.00  0.00     0.017 A 
ENDBRANCH  22  24
ENDBRANCH   4  22
BRANCH   6  35
HETATM   35  N6  UNL     1      -4.191  48.637 -23.945  1.00  0.00    -0.364 N 
HETATM   36  C20 UNL     1      -2.942  48.424 -23.197  1.00  0.00     0.154 C 
HETATM   37  C21 UNL     1      -3.244  47.770 -21.830  1.00  0.00     0.291 C 
HETATM   38  N7  UNL     1      -4.179  48.521 -20.957  1.00  0.00     0.087 N 
HETATM   39  C22 UNL     1      -3.483  49.179 -19.855  1.00  0.00     0.310 C 
HETATM   40  C23 UNL     1      -4.968  49.505 -21.731  1.00  0.00     0.291 C 
HETATM   41  C24 UNL     1      -5.371  49.021 -23.148  1.00  0.00     0.154 C 
ENDBRANCH   6  35
TORSDOF 7
ENDMDL
MODEL 6
REMARK minimizedAffinity -9.51414204
REMARK  7 active torsions:
REMARK  status: ('A' for Active; 'I' for Inactive)
REMARK    1  A    between atoms: C2_2  and  C3_3 
REMARK       I    between atoms: C3_3  and  N1_5 
REMARK    2  A    between atoms: N1_5  and  C4_6 
REMARK    3  A    between atoms: C8_10  and  O2_11 
REMARK    4  A    between atoms: O2_11  and  C9_12 
REMARK    5  A    between atoms: C10_15  and  N3_16 
REMARK    6  A    between atoms: N3_16  and  C11_17 
REMARK    7  A    between atoms: C19_28  and  N6_29 
ROOT
HETATM    1  C9  UNL     1      -3.028  51.413 -21.488  1.00  0.00     0.232 A 
HETATM    2  N2  UNL     1      -2.532  51.306 -20.251  1.00  0.00    -0.308 N 
ATOM      3  H2  UNL     1      -3.134  51.182 -19.437  1.00  0.00     0.171 HD
HETATM    4  C10 UNL     1      -1.198  51.371 -20.144  1.00  0.00     0.113 A 
HETATM    5  C18 UNL     1      -0.394  51.561 -21.252  1.00  0.00     0.097 A 
HETATM    6  C19 UNL     1      -0.995  51.718 -22.491  1.00  0.00     0.109 A 
HETATM    7  N8  UNL     1      -2.328  51.641 -22.607  1.00  0.00    -0.308 N 
ATOM      8  H8  UNL     1      -2.791  51.750 -23.510  1.00  0.00     0.171 HD
ENDROOT
BRANCH   1   9
HETATM    9  O2  UNL     1      -4.403  51.339 -21.600  1.00  0.00    -0.279 OA
BRANCH   9  10
HETATM   10  C8  UNL     1      -4.934  50.171 -22.105  1.00  0.00     0.081 A 
HETATM   11  C7  UNL     1      -5.552  49.168 -21.354  1.00  0.00     0.037 A 
HETATM   12  C6  UNL     1      -6.027  48.016 -21.982  1.00  0.00     0.005 A 
HETATM   13  C5  UNL     1      -5.897  47.870 -23.363  1.00  0.00     0.029 A 
HETATM   14  C4  UNL     1      -5.286  48.870 -24.133  1.00  0.00     0.037 A 
HETATM   15  C25 UNL     1      -4.802  50.014 -23.493  1.00  0.00     0.066 A 
BRANCH  14  16
HETATM   16  N1  UNL     1      -5.212  48.651 -25.525  1.00  0.00    -0.324 N 
HETATM   17  C3  UNL     1      -4.080  48.470 -26.289  1.00  0.00     0.244 C 
HETATM   18  O1  UNL     1      -2.921  48.385 -25.905  1.00  0.00    -0.268 OA
HETATM   19  H4  UNL     1      -6.098  48.596 -26.007  1.00  0.00     0.169 HD
BRANCH  17  20
HETATM   20  C2  UNL     1      -4.356  48.303 -27.744  1.00  0.00     0.064 C 
HETATM   21  C1  UNL     1      -5.541  47.953 -28.265  1.00  0.00     0.017 C 
ENDBRANCH  17  20
ENDBRANCH  14  16
ENDBRANCH   9  10
ENDBRANCH   1   9
BRANCH   4  22
HETATM   22  N3  UNL     1      -0.718  51.235 -18.842  1.00  0.00    -0.327 N 
HETATM   23  H8  UNL     1      -1.239  50.471 -18.410  1.00  0.00     0.169 HD
BRANCH  22  24
HETATM   24  C11 UNL     1       0.282  51.824 -18.156  1.00  0.00     0.134 A 
HETATM   25  N4  UNL     1       0.943  52.937 -18.486  1.00  0.00    -0.284 N 
HETATM   26  N5  UNL     1       1.846  53.090 -17.506  1.00  0.00    -0.298 N 
ATOM     27  H4  UNL     1       0.795  53.535 -19.299  1.00  0.00     0.188 HD
HETATM   28  C12 UNL     1       1.804  52.122 -16.540  1.00  0.00     0.062 A 
HETATM   29  H9  UNL     1       2.479  53.884 -17.557  1.00  0.00     0.187 HD
HETATM   30  C13 UNL     1       2.564  51.931 -15.380  1.00  0.00     0.032 A 
HETATM   31  C17 UNL     1       0.776  51.272 -16.927  1.00  0.00     0.037 A 
HETATM   32  C14 UNL     1       2.249  50.817 -14.586  1.00  0.00     0.002 A 
HETATM   33  C15 UNL     1       1.223  49.944 -14.944  1.00  0.00     0.001 A 
HETATM   34  C16 UNL     1       0.474  50.158 -16.112  1.00  0.00     0.017 A 
ENDBRANCH  22  24
ENDBRANCH   4  22
BRANCH   6  35
HETATM   35  N6  UNL     1      -0.244  51.912 -23.644  1.00  0.00    -0.364 N 
HETATM   36  C20 UNL     1      -0.652  51.162 -24.842  1.00  0.00     0.154 C 
HETATM   37  C21 UNL     1       0.394  51.342 -25.965  1.00  0.00     0.291 C 
HETATM   38  N7  UNL     1       0.660  52.744 -26.369  1.00  0.00     0.087 N 
HETATM   39  C22 UNL     1       0.050  53.062 -27.659  1.00  0.00     0.310 C 
HETATM   40  C23 UNL     1       0.209  53.700 -25.334  1.00  0.00     0.291 C 
HETATM   41  C24 UNL     1       0.422  53.206 -23.879  1.00  0.00     0.154 C 
ENDBRANCH   6  35
TORSDOF 7
ENDMDL
MODEL 7
REMARK minimizedAffinity -9.38858795
REMARK  7 active torsions:
REMARK  status: ('A' for Active; 'I' for Inactive)
REMARK    1  A    between atoms: C2_2  and  C3_3 
REMARK       I    between atoms: C3_3  and  N1_5 
REMARK    2  A    between atoms: N1_5  and  C4_6 
REMARK    3  A    between atoms: C8_10  and  O2_11 
REMARK    4  A    between atoms: O2_11  and  C9_12 
REMARK    5  A    between atoms: C10_15  and  N3_16 
REMARK    6  A    between atoms: N3_16  and  C11_17 
REMARK    7  A    between atoms: C19_28  and  N6_29 
ROOT
HETATM    1  C9  UNL     1      -1.122  49.810 -21.718  1.00  0.00     0.232 A 
HETATM    2  N2  UNL     1      -0.847  50.672 -22.703  1.00  0.00    -0.308 N 
ATOM      3  H2  UNL     1      -0.966  50.425 -23.685  1.00  0.00     0.171 HD
HETATM    4  C10 UNL     1      -0.407  51.879 -22.322  1.00  0.00     0.113 A 
HETATM    5  C18 UNL     1      -0.230  52.195 -20.989  1.00  0.00     0.097 A 
HETATM    6  C19 UNL     1      -0.486  51.223 -20.035  1.00  0.00     0.109 A 
HETATM    7  N8  UNL     1      -0.940  50.018 -20.408  1.00  0.00    -0.308 N 
ATOM      8  H8  UNL     1      -1.138  49.289 -19.721  1.00  0.00     0.171 HD
ENDROOT
BRANCH   1   9
HETATM    9  O2  UNL     1      -1.583  48.568 -22.109  1.00  0.00    -0.279 OA
BRANCH   9  10
HETATM   10  C8  UNL     1      -2.833  48.511 -22.689  1.00  0.00     0.081 A 
HETATM   11  C7  UNL     1      -3.094  48.567 -24.061  1.00  0.00     0.037 A 
HETATM   12  C6  UNL     1      -4.410  48.526 -24.523  1.00  0.00     0.005 A 
HETATM   13  C5  UNL     1      -5.466  48.417 -23.619  1.00  0.00     0.029 A 
HETATM   14  C4  UNL     1      -5.220  48.351 -22.240  1.00  0.00     0.037 A 
HETATM   15  C25 UNL     1      -3.900  48.406 -21.785  1.00  0.00     0.066 A 
BRANCH  14  16
HETATM   16  N1  UNL     1      -6.343  48.222 -21.395  1.00  0.00    -0.324 N 
HETATM   17  C3  UNL     1      -6.857  49.163 -20.529  1.00  0.00     0.244 C 
HETATM   18  O1  UNL     1      -6.492  50.321 -20.375  1.00  0.00    -0.268 OA
HETATM   19  H4  UNL     1      -6.838  47.344 -21.457  1.00  0.00     0.169 HD
BRANCH  17  20
HETATM   20  C2  UNL     1      -8.034  48.684 -19.750  1.00  0.00     0.064 C 
HETATM   21  C1  UNL     1      -9.085  48.034 -20.270  1.00  0.00     0.017 C 
ENDBRANCH  17  20
ENDBRANCH  14  16
ENDBRANCH   9  10
ENDBRANCH   1   9
BRANCH   4  22
HETATM   22  N3  UNL     1      -0.152  52.756 -23.377  1.00  0.00    -0.327 N 
HETATM   23  H8  UNL     1       0.499  53.460 -23.030  1.00  0.00     0.169 HD
BRANCH  22  24
HETATM   24  C11 UNL     1      -0.514  52.773 -24.675  1.00  0.00     0.134 A 
HETATM   25  N4  UNL     1      -1.697  53.133 -25.181  1.00  0.00    -0.284 N 
HETATM   26  N5  UNL     1      -1.563  52.953 -26.503  1.00  0.00    -0.298 N 
ATOM     27  H4  UNL     1      -2.517  53.469 -24.676  1.00  0.00     0.188 HD
HETATM   28  C12 UNL     1      -0.335  52.491 -26.890  1.00  0.00     0.062 A 
HETATM   29  H9  UNL     1      -2.359  53.161 -27.099  1.00  0.00     0.187 HD
HETATM   30  C13 UNL     1       0.189  52.181 -28.152  1.00  0.00     0.032 A 
HETATM   31  C17 UNL     1       0.392  52.369 -25.713  1.00  0.00     0.037 A 
HETATM   32  C14 UNL     1       1.516  51.729 -28.199  1.00  0.00     0.002 A 
HETATM   33  C15 UNL     1       2.275  51.596 -27.036  1.00  0.00     0.001 A 
HETATM   34  C16 UNL     1       1.727  51.913 -25.784  1.00  0.00     0.017 A 
ENDBRANCH  22  24
ENDBRANCH   4  22
BRANCH   6  35
HETATM   35  N6  UNL     1      -0.329  51.477 -18.678  1.00  0.00    -0.364 N 
HETATM   36  C20 UNL     1      -0.317  50.314 -17.777  1.00  0.00     0.154 C 
HETATM   37  C21 UNL     1      -0.330  50.782 -16.304  1.00  0.00     0.291 C 
HETATM   38  N7  UNL     1       0.784  51.679 -15.911  1.00  0.00     0.087 N 
HETATM   39  C22 UNL     1       1.776  50.986 -15.093  1.00  0.00     0.310 C 
HETATM   40  C23 UNL     1       1.426  52.294 -17.093  1.00  0.00     0.291 C 
HETATM   41  C24 UNL     1       0.440  52.655 -18.234  1.00  0.00     0.154 C 
ENDBRANCH   6  35
TORSDOF 7
ENDMDL
MODEL 8
REMARK minimizedAffinity -9.37329006
REMARK  7 active torsions:
REMARK  status: ('A' for Active; 'I' for Inactive)
REMARK    1  A    between atoms: C2_2  and  C3_3 
REMARK       I    between atoms: C3_3  and  N1_5 
REMARK    2  A    between atoms: N1_5  and  C4_6 
REMARK    3  A    between atoms: C8_10  and  O2_11 
REMARK    4  A    between atoms: O2_11  and  C9_12 
REMARK    5  A    between atoms: C10_15  and  N3_16 
REMARK    6  A    between atoms: N3_16  and  C11_17 
REMARK    7  A    between atoms: C19_28  and  N6_29 
ROOT
HETATM    1  C9  UNL     1      -2.360  50.687 -22.239  1.00  0.00     0.232 A 
HETATM    2  N2  UNL     1      -1.811  51.580 -23.069  1.00  0.00    -0.308 N 
ATOM      3  H2  UNL     1      -0.880  51.964 -22.909  1.00  0.00     0.171 HD
HETATM    4  C10 UNL     1      -2.557  51.941 -24.122  1.00  0.00     0.113 A 
HETATM    5  C18 UNL     1      -3.826  51.430 -24.316  1.00  0.00     0.097 A 
HETATM    6  C19 UNL     1      -4.340  50.551 -23.376  1.00  0.00     0.109 A 
HETATM    7  N8  UNL     1      -3.595  50.175 -22.327  1.00  0.00    -0.308 N 
ATOM      8  H8  UNL     1      -3.953  49.526 -21.626  1.00  0.00     0.171 HD
ENDROOT
BRANCH   1   9
HETATM    9  O2  UNL     1      -1.589  50.309 -21.157  1.00  0.00    -0.279 OA
BRANCH   9  10
HETATM   10  C8  UNL     1      -0.853  51.292 -20.530  1.00  0.00     0.081 A 
HETATM   11  C7  UNL     1      -0.398  52.470 -21.128  1.00  0.00     0.037 A 
HETATM   12  C6  UNL     1       0.363  53.379 -20.391  1.00  0.00     0.005 A 
HETATM   13  C5  UNL     1       0.660  53.118 -19.054  1.00  0.00     0.029 A 
HETATM   14  C4  UNL     1       0.204  51.945 -18.437  1.00  0.00     0.037 A 
HETATM   15  C25 UNL     1      -0.546  51.035 -19.186  1.00  0.00     0.066 A 
BRANCH  14  16
HETATM   16  N1  UNL     1       0.533  51.767 -17.076  1.00  0.00    -0.324 N 
HETATM   17  C3  UNL     1       1.735  52.036 -16.458  1.00  0.00     0.244 C 
HETATM   18  O1  UNL     1       2.731  52.552 -16.947  1.00  0.00    -0.268 OA
HETATM   19  H4  UNL     1      -0.214  51.428 -16.486  1.00  0.00     0.169 HD
BRANCH  17  20
HETATM   20  C2  UNL     1       1.756  51.693 -15.008  1.00  0.00     0.064 C 
HETATM   21  C1  UNL     1       2.852  51.341 -14.319  1.00  0.00     0.017 C 
ENDBRANCH  17  20
ENDBRANCH  14  16
ENDBRANCH   9  10
ENDBRANCH   1   9
BRANCH   4  22
HETATM   22  N3  UNL     1      -1.942  52.858 -24.974  1.00  0.00    -0.327 N 
HETATM   23  H8  UNL     1      -1.879  53.741 -24.469  1.00  0.00     0.169 HD
BRANCH  22  24
HETATM   24  C11 UNL     1      -1.389  52.756 -26.200  1.00  0.00     0.134 A 
HETATM   25  N4  UNL     1      -1.962  53.036 -27.373  1.00  0.00    -0.284 N 
HETATM   26  N5  UNL     1      -1.018  52.751 -28.282  1.00  0.00    -0.298 N 
ATOM     27  H4  UNL     1      -2.905  53.388 -27.540  1.00  0.00     0.188 HD
HETATM   28  C12 UNL     1       0.159  52.296 -27.753  1.00  0.00     0.062 A 
HETATM   29  H9  UNL     1      -1.242  52.884 -29.264  1.00  0.00     0.187 HD
HETATM   30  C13 UNL     1       1.359  51.899 -28.355  1.00  0.00     0.032 A 
HETATM   31  C17 UNL     1      -0.041  52.295 -26.378  1.00  0.00     0.037 A 
HETATM   32  C14 UNL     1       2.395  51.485 -27.504  1.00  0.00     0.002 A 
HETATM   33  C15 UNL     1       2.229  51.472 -26.119  1.00  0.00     0.001 A 
HETATM   34  C16 UNL     1       1.016  51.876 -25.540  1.00  0.00     0.017 A 
ENDBRANCH  22  24
ENDBRANCH   4  22
BRANCH   6  35
HETATM   35  N6  UNL     1      -5.609  50.001 -23.513  1.00  0.00    -0.364 N 
HETATM   36  C20 UNL     1      -5.707  48.708 -24.209  1.00  0.00     0.154 C 
HETATM   37  C21 UNL     1      -7.190  48.340 -24.442  1.00  0.00     0.291 C 
HETATM   38  N7  UNL     1      -8.028  48.269 -23.221  1.00  0.00     0.087 N 
HETATM   39  C22 UNL     1      -8.329  46.889 -22.849  1.00  0.00     0.310 C 
HETATM   40  C23 UNL     1      -7.398  48.984 -22.090  1.00  0.00     0.291 C 
HETATM   41  C24 UNL     1      -6.643  50.276 -22.498  1.00  0.00     0.154 C 
ENDBRANCH   6  35
TORSDOF 7
ENDMDL
MODEL 9
REMARK minimizedAffinity -9.28947544
REMARK  7 active torsions:
REMARK  status: ('A' for Active; 'I' for Inactive)
REMARK    1  A    between atoms: C2_2  and  C3_3 
REMARK       I    between atoms: C3_3  and  N1_5 
REMARK    2  A    between atoms: N1_5  and  C4_6 
REMARK    3  A    between atoms: C8_10  and  O2_11 
REMARK    4  A    between atoms: O2_11  and  C9_12 
REMARK    5  A    between atoms: C10_15  and  N3_16 
REMARK    6  A    between atoms: N3_16  and  C11_17 
REMARK    7  A    between atoms: C19_28  and  N6_29 
ROOT
HETATM    1  C9  UNL     1      -2.353  50.807 -20.222  1.00  0.00     0.232 A 
HETATM    2  N2  UNL     1      -2.815  51.445 -21.302  1.00  0.00    -0.308 N 
ATOM      3  H2  UNL     1      -2.456  52.356 -21.586  1.00  0.00     0.171 HD
HETATM    4  C10 UNL     1      -3.778  50.816 -21.991  1.00  0.00     0.113 A 
HETATM    5  C18 UNL     1      -4.271  49.590 -21.585  1.00  0.00     0.097 A 
HETATM    6  C19 UNL     1      -3.774  49.025 -20.421  1.00  0.00     0.109 A 
HETATM    7  N8  UNL     1      -2.802  49.643 -19.735  1.00  0.00    -0.308 N 
ATOM      8  H8  UNL     1      -2.420  49.242 -18.878  1.00  0.00     0.171 HD
ENDROOT
BRANCH   1   9
HETATM    9  O2  UNL     1      -1.356  51.451 -19.516  1.00  0.00    -0.279 OA
BRANCH   9  10
HETATM   10  C8  UNL     1      -0.474  52.229 -20.235  1.00  0.00     0.081 A 
HETATM   11  C7  UNL     1       0.245  53.317 -19.732  1.00  0.00     0.037 A 
HETATM   12  C6  UNL     1       1.090  54.044 -20.572  1.00  0.00     0.005 A 
HETATM   13  C5  UNL     1       1.229  53.678 -21.910  1.00  0.00     0.029 A 
HETATM   14  C4  UNL     1       0.521  52.584 -22.428  1.00  0.00     0.037 A 
HETATM   15  C25 UNL     1      -0.332  51.870 -21.583  1.00  0.00     0.066 A 
BRANCH  14  16
HETATM   16  N1  UNL     1       0.733  52.269 -23.788  1.00  0.00    -0.324 N 
HETATM   17  C3  UNL     1       0.612  53.108 -24.874  1.00  0.00     0.244 C 
HETATM   18  O1  UNL     1       0.372  54.308 -24.873  1.00  0.00    -0.268 OA
HETATM   19  H4  UNL     1       1.034  51.323 -23.976  1.00  0.00     0.169 HD
BRANCH  17  20
HETATM   20  C2  UNL     1       0.870  52.440 -26.181  1.00  0.00     0.064 C 
HETATM   21  C1  UNL     1       1.350  51.196 -26.326  1.00  0.00     0.017 C 
ENDBRANCH  17  20
ENDBRANCH  14  16
ENDBRANCH   9  10
ENDBRANCH   1   9
BRANCH   4  22
HETATM   22  N3  UNL     1      -4.218  51.503 -23.122  1.00  0.00    -0.327 N 
HETATM   23  H8  UNL     1      -5.048  52.028 -22.848  1.00  0.00     0.169 HD
BRANCH  22  24
HETATM   24  C11 UNL     1      -3.725  51.646 -24.368  1.00  0.00     0.134 A 
HETATM   25  N4  UNL     1      -3.164  52.737 -24.897  1.00  0.00    -0.284 N 
HETATM   26  N5  UNL     1      -2.865  52.382 -26.155  1.00  0.00    -0.298 N 
ATOM     27  H4  UNL     1      -3.001  53.638 -24.445  1.00  0.00     0.188 HD
HETATM   28  C12 UNL     1      -3.204  51.096 -26.477  1.00  0.00     0.062 A 
HETATM   29  H9  UNL     1      -2.429  53.074 -26.758  1.00  0.00     0.187 HD
HETATM   30  C13 UNL     1      -3.061  50.364 -27.661  1.00  0.00     0.032 A 
HETATM   31  C17 UNL     1      -3.764  50.572 -25.319  1.00  0.00     0.037 A 
HETATM   32  C14 UNL     1      -3.515  49.036 -27.651  1.00  0.00     0.002 A 
HETATM   33  C15 UNL     1      -4.083  48.478 -26.506  1.00  0.00     0.001 A 
HETATM   34  C16 UNL     1      -4.214  49.233 -25.330  1.00  0.00     0.017 A 
ENDBRANCH  22  24
ENDBRANCH   4  22
BRANCH   6  35
HETATM   35  N6  UNL     1      -4.228  47.796 -19.959  1.00  0.00    -0.364 N 
HETATM   36  C20 UNL     1      -5.649  47.482 -20.176  1.00  0.00     0.154 C 
HETATM   37  C21 UNL     1      -6.024  46.177 -19.436  1.00  0.00     0.291 C 
HETATM   38  N7  UNL     1      -5.228  44.983 -19.808  1.00  0.00     0.087 N 
HETATM   39  C22 UNL     1      -5.991  44.062 -20.647  1.00  0.00     0.310 C 
HETATM   40  C23 UNL     1      -3.963  45.361 -20.474  1.00  0.00     0.291 C 
HETATM   41  C24 UNL     1      -3.306  46.646 -19.903  1.00  0.00     0.154 C 
ENDBRANCH   6  35
TORSDOF 7
ENDMDL
