MODEL 1
REMARK minimizedAffinity -10.6363134
REMARK CNNscore 0.203597605
REMARK CNNaffinity 7.53871155
REMARK  5 active torsions:
REMARK  status: ('A' for Active; 'I' for Inactive)
REMARK    1  A    between atoms: N1_1  and  C1_2 
REMARK    2  A    between atoms: C4_8  and  C5_9 
REMARK    3  A    between atoms: C17_25  and  C18_26 
REMARK       I    between atoms: C18_26  and  N6_28 
REMARK    4  A    between atoms: N6_28  and  C19_29 
REMARK    5  A    between atoms: C21_31  and  C22_32 
ROOT
HETATM    1  C1  UNL     1       0.616  53.706 -23.585  1.00  0.00     0.129 A 
HETATM    2  N2  UNL     1       1.562  54.485 -23.112  1.00  0.00    -0.349 N 
ATOM      3  H2  UNL     1       2.135  55.044 -23.743  1.00  0.00     0.167 HD
HETATM    4  C2  UNL     1       1.768  54.532 -21.750  1.00  0.00     0.107 A 
HETATM    5  C3  UNL     1       1.052  53.834 -20.857  1.00  0.00     0.116 A 
HETATM    6  N3  UNL     1       0.052  52.996 -21.322  1.00  0.00    -0.305 N 
HETATM    7  C4  UNL     1      -0.855  52.157 -20.694  1.00  0.00     0.094 A 
HETATM    8  N5  UNL     1      -1.585  51.515 -21.593  1.00  0.00    -0.343 N 
ATOM      9  H5  UNL     1      -2.312  50.823 -21.410  1.00  0.00     0.167 HD
HETATM   10  C13 UNL     1      -1.170  51.966 -22.817  1.00  0.00     0.075 A 
HETATM   11  C14 UNL     1      -1.736  51.486 -24.054  1.00  0.00    -0.007 A 
HETATM   12  C15 UNL     1      -1.150  50.402 -24.718  1.00  0.00     0.015 A 
HETATM   13  C16 UNL     1      -1.693  49.937 -25.922  1.00  0.00     0.018 A 
HETATM   14  C17 UNL     1      -2.836  50.549 -26.455  1.00  0.00     0.032 A 
HETATM   15  C25 UNL     1      -3.413  51.642 -25.792  1.00  0.00     0.018 A 
HETATM   16  C26 UNL     1      -2.868  52.105 -24.592  1.00  0.00     0.015 A 
HETATM   17  C27 UNL     1      -0.169  52.898 -22.681  1.00  0.00     0.112 A 
ENDROOT
BRANCH   7  18
HETATM   18  C5  UNL     1      -1.046  51.984 -19.211  1.00  0.00     0.072 C 
HETATM   19  C6  UNL     1       0.122  52.570 -18.377  1.00  0.00     0.016 C 
HETATM   20  C7  UNL     1       1.051  51.547 -17.707  1.00  0.00     0.026 C 
HETATM   21  C8  UNL     1       0.338  50.324 -17.101  1.00  0.00     0.087 C 
HETATM   22  C9  UNL     1       0.345  50.269 -15.579  1.00  0.00     0.034 C 
HETATM   23  N4  UNL     1      -1.067  50.312 -17.427  1.00  0.00    -0.347 N 
HETATM   24  C10 UNL     1      -0.947  50.964 -15.168  1.00  0.00     0.105 C 
HETATM   25  C11 UNL     1      -1.839  50.803 -16.373  1.00  0.00     0.220 C 
HETATM   26  O1  UNL     1      -3.010  51.136 -16.430  1.00  0.00    -0.273 OA
HETATM   27  C12 UNL     1      -1.457  50.563 -18.800  1.00  0.00     0.138 C 
ENDBRANCH   7  18
BRANCH   1  28
HETATM   28  N1  UNL     1       0.450  53.722 -24.938  1.00  0.00    -0.384 N 
HETATM   29  H1  UNL     1       0.061  52.896 -25.375  1.00  0.00     0.157 HD
HETATM   30  H2  UNL     1       1.236  54.134 -25.431  1.00  0.00     0.157 HD
ENDBRANCH   1  28
BRANCH  14  31
HETATM   31  C18 UNL     1      -3.462  50.086 -27.729  1.00  0.00     0.257 C 
HETATM   32  O2  UNL     1      -3.165  50.664 -28.771  1.00  0.00    -0.267 OA
HETATM   33  N6  UNL     1      -4.361  49.053 -27.601  1.00  0.00    -0.309 N 
HETATM   34  H19 UNL     1      -4.628  48.724 -26.685  1.00  0.00     0.170 HD
BRANCH  33  35
HETATM   35  C19 UNL     1      -5.096  48.419 -28.603  1.00  0.00     0.108 A 
HETATM   36  C20 UNL     1      -5.824  47.253 -28.426  1.00  0.00     0.064 A 
HETATM   37  C21 UNL     1      -6.513  46.706 -29.515  1.00  0.00     0.052 A 
HETATM   38  C23 UNL     1      -6.442  47.361 -30.747  1.00  0.00     0.033 A 
HETATM   39  C24 UNL     1      -5.701  48.524 -30.831  1.00  0.00     0.090 A 
HETATM   40  N7  UNL     1      -5.034  49.061 -29.789  1.00  0.00    -0.352 N 
ATOM     41  H7  UNL     1      -4.500  49.924 -29.894  1.00  0.00     0.166 HD
BRANCH  37  42
HETATM   42  C22 UNL     1      -7.293  45.429 -29.350  1.00  0.00     0.417 C 
HETATM   43  F1  UNL     1      -6.694  44.371 -29.960  1.00  0.00    -0.166 F 
HETATM   44  F2  UNL     1      -7.453  45.075 -28.046  1.00  0.00    -0.166 F 
HETATM   45  F3  UNL     1      -8.550  45.498 -29.872  1.00  0.00    -0.166 F 
ENDBRANCH  37  42
ENDBRANCH  33  35
ENDBRANCH  14  31
TORSDOF 5
ENDMDL
MODEL 2
REMARK minimizedAffinity -9.44724274
REMARK CNNscore 0.153982654
REMARK CNNaffinity 6.9480896
REMARK  5 active torsions:
REMARK  status: ('A' for Active; 'I' for Inactive)
REMARK    1  A    between atoms: N1_1  and  C1_2 
REMARK    2  A    between atoms: C4_8  and  C5_9 
REMARK    3  A    between atoms: C17_25  and  C18_26 
REMARK       I    between atoms: C18_26  and  N6_28 
REMARK    4  A    between atoms: N6_28  and  C19_29 
REMARK    5  A    between atoms: C21_31  and  C22_32 
ROOT
HETATM    1  C1  UNL     1       0.143  52.081 -19.124  1.00  0.00     0.129 A 
HETATM    2  N2  UNL     1       1.043  53.035 -19.037  1.00  0.00    -0.349 N 
ATOM      3  H2  UNL     1       1.503  53.234 -18.150  1.00  0.00     0.167 HD
HETATM    4  C2  UNL     1       1.354  53.762 -20.166  1.00  0.00     0.107 A 
HETATM    5  C3  UNL     1       0.799  53.555 -21.370  1.00  0.00     0.116 A 
HETATM    6  N3  UNL     1      -0.159  52.564 -21.494  1.00  0.00    -0.305 N 
HETATM    7  C4  UNL     1      -0.910  52.095 -22.560  1.00  0.00     0.094 A 
HETATM    8  N5  UNL     1      -1.744  51.150 -22.154  1.00  0.00    -0.343 N 
ATOM      9  H5  UNL     1      -2.425  50.648 -22.724  1.00  0.00     0.167 HD
HETATM   10  C13 UNL     1      -1.509  50.981 -20.815  1.00  0.00     0.075 A 
HETATM   11  C14 UNL     1      -2.239  50.029 -20.014  1.00  0.00    -0.007 A 
HETATM   12  C15 UNL     1      -3.397  50.428 -19.337  1.00  0.00     0.015 A 
HETATM   13  C16 UNL     1      -4.105  49.509 -18.552  1.00  0.00     0.018 A 
HETATM   14  C17 UNL     1      -3.661  48.182 -18.458  1.00  0.00     0.032 A 
HETATM   15  C25 UNL     1      -2.494  47.791 -19.130  1.00  0.00     0.018 A 
HETATM   16  C26 UNL     1      -1.788  48.710 -19.910  1.00  0.00     0.015 A 
HETATM   17  C27 UNL     1      -0.520  51.830 -20.381  1.00  0.00     0.112 A 
ENDROOT
BRANCH   7  18
HETATM   18  C5  UNL     1      -0.813  52.537 -23.996  1.00  0.00     0.072 C 
HETATM   19  C6  UNL     1      -1.664  51.669 -24.957  1.00  0.00     0.016 C 
HETATM   20  C7  UNL     1      -0.882  50.728 -25.885  1.00  0.00     0.026 C 
HETATM   21  C8  UNL     1       0.405  51.327 -26.480  1.00  0.00     0.087 C 
HETATM   22  C9  UNL     1       0.348  51.606 -27.977  1.00  0.00     0.034 C 
HETATM   23  N4  UNL     1       0.701  52.620 -25.914  1.00  0.00    -0.347 N 
HETATM   24  C10 UNL     1      -0.123  53.052 -28.077  1.00  0.00     0.105 C 
HETATM   25  C11 UNL     1       0.287  53.653 -26.756  1.00  0.00     0.220 C 
HETATM   26  O1  UNL     1       0.183  54.830 -26.457  1.00  0.00    -0.273 OA
HETATM   27  C12 UNL     1       0.627  52.774 -24.474  1.00  0.00     0.138 C 
ENDBRANCH   7  18
BRANCH   1  28
HETATM   28  N1  UNL     1      -0.101  51.386 -17.977  1.00  0.00    -0.384 N 
HETATM   29  H1  UNL     1      -1.013  50.958 -17.870  1.00  0.00     0.157 HD
HETATM   30  H2  UNL     1       0.250  51.852 -17.146  1.00  0.00     0.157 HD
ENDBRANCH   1  28
BRANCH  14  31
HETATM   31  C18 UNL     1      -4.384  47.159 -17.645  1.00  0.00     0.257 C 
HETATM   32  O2  UNL     1      -3.831  46.084 -17.432  1.00  0.00    -0.267 OA
HETATM   33  N6  UNL     1      -5.647  47.520 -17.234  1.00  0.00    -0.309 N 
HETATM   34  H19 UNL     1      -6.060  48.380 -17.562  1.00  0.00     0.170 HD
BRANCH  33  35
HETATM   35  C19 UNL     1      -6.550  46.779 -16.473  1.00  0.00     0.108 A 
HETATM   36  C20 UNL     1      -7.837  46.456 -16.875  1.00  0.00     0.064 A 
HETATM   37  C21 UNL     1      -8.656  45.714 -16.014  1.00  0.00     0.052 A 
HETATM   38  C23 UNL     1      -8.142  45.326 -14.775  1.00  0.00     0.033 A 
HETATM   39  C24 UNL     1      -6.845  45.683 -14.460  1.00  0.00     0.090 A 
HETATM   40  N7  UNL     1      -6.046  46.395 -15.280  1.00  0.00    -0.352 N 
ATOM     41  H7  UNL     1      -5.093  46.637 -15.010  1.00  0.00     0.166 HD
BRANCH  37  42
HETATM   42  C22 UNL     1     -10.063  45.370 -16.423  1.00  0.00     0.417 C 
HETATM   43  F1  UNL     1     -10.881  46.456 -16.438  1.00  0.00    -0.166 F 
HETATM   44  F2  UNL     1     -10.131  44.826 -17.668  1.00  0.00    -0.166 F 
HETATM   45  F3  UNL     1     -10.656  44.469 -15.591  1.00  0.00    -0.166 F 
ENDBRANCH  37  42
ENDBRANCH  33  35
ENDBRANCH  14  31
TORSDOF 5
ENDMDL
MODEL 3
REMARK minimizedAffinity -10.8281717
REMARK CNNscore 0.15171887
REMARK CNNaffinity 7.18161249
REMARK  5 active torsions:
REMARK  status: ('A' for Active; 'I' for Inactive)
REMARK    1  A    between atoms: N1_1  and  C1_2 
REMARK    2  A    between atoms: C4_8  and  C5_9 
REMARK    3  A    between atoms: C17_25  and  C18_26 
REMARK       I    between atoms: C18_26  and  N6_28 
REMARK    4  A    between atoms: N6_28  and  C19_29 
REMARK    5  A    between atoms: C21_31  and  C22_32 
ROOT
HETATM    1  C1  UNL     1       0.401  53.889 -24.231  1.00  0.00     0.129 A 
HETATM    2  N2  UNL     1       1.243  54.819 -23.840  1.00  0.00    -0.349 N 
ATOM      3  H2  UNL     1       1.522  55.565 -24.476  1.00  0.00     0.167 HD
HETATM    4  C2  UNL     1       1.741  54.769 -22.556  1.00  0.00     0.107 A 
HETATM    5  C3  UNL     1       1.415  53.827 -21.659  1.00  0.00     0.116 A 
HETATM    6  N3  UNL     1       0.537  52.827 -22.041  1.00  0.00    -0.305 N 
HETATM    7  C4  UNL     1      -0.001  51.731 -21.386  1.00  0.00     0.094 A 
HETATM    8  N5  UNL     1      -0.764  51.031 -22.210  1.00  0.00    -0.343 N 
ATOM      9  H5  UNL     1      -1.264  50.167 -21.998  1.00  0.00     0.167 HD
HETATM   10  C13 UNL     1      -0.747  51.697 -23.407  1.00  0.00     0.075 A 
HETATM   11  C14 UNL     1      -1.467  51.229 -24.565  1.00  0.00    -0.007 A 
HETATM   12  C15 UNL     1      -0.832  50.396 -25.494  1.00  0.00     0.015 A 
HETATM   13  C16 UNL     1      -1.525  49.945 -26.624  1.00  0.00     0.018 A 
HETATM   14  C17 UNL     1      -2.864  50.315 -26.817  1.00  0.00     0.032 A 
HETATM   15  C25 UNL     1      -3.492  51.158 -25.889  1.00  0.00     0.018 A 
HETATM   16  C26 UNL     1      -2.797  51.609 -24.764  1.00  0.00     0.015 A 
HETATM   17  C27 UNL     1       0.036  52.823 -23.328  1.00  0.00     0.112 A 
ENDROOT
BRANCH   7  18
HETATM   18  C5  UNL     1       0.195  51.359 -19.939  1.00  0.00     0.072 C 
HETATM   19  C6  UNL     1      -0.349  49.949 -19.597  1.00  0.00     0.016 C 
HETATM   20  C7  UNL     1      -1.627  49.909 -18.746  1.00  0.00     0.026 C 
HETATM   21  C8  UNL     1      -1.683  50.947 -17.611  1.00  0.00     0.087 C 
HETATM   22  C9  UNL     1      -1.578  50.365 -16.207  1.00  0.00     0.034 C 
HETATM   23  N4  UNL     1      -0.572  51.864 -17.673  1.00  0.00    -0.347 N 
HETATM   24  C10 UNL     1      -0.089  50.406 -15.889  1.00  0.00     0.105 C 
HETATM   25  C11 UNL     1       0.436  51.505 -16.778  1.00  0.00     0.220 C 
HETATM   26  O1  UNL     1       1.578  51.933 -16.767  1.00  0.00    -0.273 OA
HETATM   27  C12 UNL     1      -0.238  52.454 -18.955  1.00  0.00     0.138 C 
ENDBRANCH   7  18
BRANCH   1  28
HETATM   28  N1  UNL     1      -0.071  54.009 -25.504  1.00  0.00    -0.384 N 
HETATM   29  H1  UNL     1      -0.365  53.165 -25.979  1.00  0.00     0.157 HD
HETATM   30  H2  UNL     1       0.475  54.649 -26.073  1.00  0.00     0.157 HD
ENDBRANCH   1  28
BRANCH  14  31
HETATM   31  C18 UNL     1      -3.653  49.853 -27.998  1.00  0.00     0.257 C 
HETATM   32  O2  UNL     1      -3.503  50.439 -29.066  1.00  0.00    -0.267 OA
HETATM   33  N6  UNL     1      -4.518  48.811 -27.756  1.00  0.00    -0.309 N 
HETATM   34  H19 UNL     1      -4.656  48.476 -26.813  1.00  0.00     0.170 HD
BRANCH  33  35
HETATM   35  C19 UNL     1      -5.376  48.176 -28.653  1.00  0.00     0.108 A 
HETATM   36  C20 UNL     1      -4.961  47.370 -29.701  1.00  0.00     0.064 A 
HETATM   37  C21 UNL     1      -5.922  46.796 -30.543  1.00  0.00     0.052 A 
HETATM   38  C23 UNL     1      -7.271  47.059 -30.293  1.00  0.00     0.033 A 
HETATM   39  C24 UNL     1      -7.595  47.866 -29.219  1.00  0.00     0.090 A 
HETATM   40  N7  UNL     1      -6.679  48.424 -28.401  1.00  0.00    -0.352 N 
ATOM     41  H7  UNL     1      -6.962  49.013 -27.617  1.00  0.00     0.166 HD
BRANCH  37  42
HETATM   42  C22 UNL     1      -5.493  45.934 -31.700  1.00  0.00     0.417 C 
HETATM   43  F1  UNL     1      -5.844  44.630 -31.536  1.00  0.00    -0.166 F 
HETATM   44  F2  UNL     1      -6.039  46.329 -32.882  1.00  0.00    -0.166 F 
HETATM   45  F3  UNL     1      -4.144  45.934 -31.896  1.00  0.00    -0.166 F 
ENDBRANCH  37  42
ENDBRANCH  33  35
ENDBRANCH  14  31
TORSDOF 5
ENDMDL
MODEL 4
REMARK minimizedAffinity -8.88728142
REMARK CNNscore 0.134698361
REMARK CNNaffinity 6.4949441
REMARK  5 active torsions:
REMARK  status: ('A' for Active; 'I' for Inactive)
REMARK    1  A    between atoms: N1_1  and  C1_2 
REMARK    2  A    between atoms: C4_8  and  C5_9 
REMARK    3  A    between atoms: C17_25  and  C18_26 
REMARK       I    between atoms: C18_26  and  N6_28 
REMARK    4  A    between atoms: N6_28  and  C19_29 
REMARK    5  A    between atoms: C21_31  and  C22_32 
ROOT
HETATM    1  C1  UNL     1       1.339  49.733 -10.369  1.00  0.00     0.129 A 
HETATM    2  N2  UNL     1       1.227  49.121  -9.212  1.00  0.00    -0.349 N 
ATOM      3  H2  UNL     1       0.825  48.186  -9.157  1.00  0.00     0.167 HD
HETATM    4  C2  UNL     1       1.662  49.764  -8.073  1.00  0.00     0.107 A 
HETATM    5  C3  UNL     1       2.209  50.989  -8.063  1.00  0.00     0.116 A 
HETATM    6  N3  UNL     1       2.334  51.666  -9.264  1.00  0.00    -0.305 N 
HETATM    7  C4  UNL     1       2.840  52.909  -9.608  1.00  0.00     0.094 A 
HETATM    8  N5  UNL     1       2.683  53.127 -10.905  1.00  0.00    -0.343 N 
ATOM      9  H5  UNL     1       2.947  53.966 -11.421  1.00  0.00     0.167 HD
HETATM   10  C13 UNL     1       2.097  51.999 -11.415  1.00  0.00     0.075 A 
HETATM   11  C14 UNL     1       1.762  51.863 -12.811  1.00  0.00    -0.007 A 
HETATM   12  C15 UNL     1       0.487  52.227 -13.262  1.00  0.00     0.015 A 
HETATM   13  C16 UNL     1       0.155  52.090 -14.615  1.00  0.00     0.018 A 
HETATM   14  C17 UNL     1       1.106  51.603 -15.523  1.00  0.00     0.032 A 
HETATM   15  C25 UNL     1       2.377  51.230 -15.064  1.00  0.00     0.018 A 
HETATM   16  C26 UNL     1       2.706  51.365 -13.712  1.00  0.00     0.015 A 
HETATM   17  C27 UNL     1       1.884  51.069 -10.426  1.00  0.00     0.112 A 
ENDROOT
BRANCH   7  18
HETATM   18  C5  UNL     1       3.510  53.895  -8.688  1.00  0.00     0.072 C 
HETATM   19  C6  UNL     1       2.503  54.698  -7.825  1.00  0.00     0.016 C 
HETATM   20  C7  UNL     1       2.324  56.177  -8.200  1.00  0.00     0.026 C 
HETATM   21  C8  UNL     1       3.622  56.911  -8.579  1.00  0.00     0.087 C 
HETATM   22  C9  UNL     1       4.084  57.955  -7.570  1.00  0.00     0.034 C 
HETATM   23  N4  UNL     1       4.743  56.006  -8.654  1.00  0.00    -0.347 N 
HETATM   24  C10 UNL     1       5.028  57.199  -6.644  1.00  0.00     0.105 C 
HETATM   25  C11 UNL     1       5.511  56.048  -7.490  1.00  0.00     0.220 C 
HETATM   26  O1  UNL     1       6.365  55.243  -7.160  1.00  0.00    -0.273 OA
HETATM   27  C12 UNL     1       4.574  54.761  -9.377  1.00  0.00     0.138 C 
ENDBRANCH   7  18
BRANCH   1  28
HETATM   28  N1  UNL     1       0.910  49.034 -11.458  1.00  0.00    -0.384 N 
HETATM   29  H1  UNL     1       0.594  49.561 -12.262  1.00  0.00     0.157 HD
HETATM   30  H2  UNL     1       0.329  48.237 -11.216  1.00  0.00     0.157 HD
ENDBRANCH   1  28
BRANCH  14  31
HETATM   31  C18 UNL     1       0.808  51.448 -16.978  1.00  0.00     0.257 C 
HETATM   32  O2  UNL     1       0.485  50.339 -17.394  1.00  0.00    -0.267 OA
HETATM   33  N6  UNL     1       0.963  52.587 -17.735  1.00  0.00    -0.309 N 
HETATM   34  H19 UNL     1       1.349  53.422 -17.319  1.00  0.00     0.170 HD
BRANCH  33  35
HETATM   35  C19 UNL     1       0.762  52.746 -19.106  1.00  0.00     0.108 A 
HETATM   36  C20 UNL     1      -0.064  51.943 -19.877  1.00  0.00     0.064 A 
HETATM   37  C21 UNL     1      -0.174  52.197 -21.250  1.00  0.00     0.052 A 
HETATM   38  C23 UNL     1       0.557  53.257 -21.793  1.00  0.00     0.033 A 
HETATM   39  C24 UNL     1       1.347  54.012 -20.948  1.00  0.00     0.090 A 
HETATM   40  N7  UNL     1       1.461  53.778 -19.625  1.00  0.00    -0.352 N 
ATOM     41  H7  UNL     1       2.055  54.361 -19.036  1.00  0.00     0.166 HD
BRANCH  37  42
HETATM   42  C22 UNL     1      -1.049  51.326 -22.110  1.00  0.00     0.417 C 
HETATM   43  F1  UNL     1      -2.372  51.499 -21.850  1.00  0.00    -0.166 F 
HETATM   44  F2  UNL     1      -0.888  51.568 -23.440  1.00  0.00    -0.166 F 
HETATM   45  F3  UNL     1      -0.807  49.995 -21.944  1.00  0.00    -0.166 F 
ENDBRANCH  37  42
ENDBRANCH  33  35
ENDBRANCH  14  31
TORSDOF 5
ENDMDL
MODEL 5
REMARK minimizedAffinity -9.59489441
REMARK CNNscore 0.133056641
REMARK CNNaffinity 6.4413662
REMARK  5 active torsions:
REMARK  status: ('A' for Active; 'I' for Inactive)
REMARK    1  A    between atoms: N1_1  and  C1_2 
REMARK    2  A    between atoms: C4_8  and  C5_9 
REMARK    3  A    between atoms: C17_25  and  C18_26 
REMARK       I    between atoms: C18_26  and  N6_28 
REMARK    4  A    between atoms: N6_28  and  C19_29 
REMARK    5  A    between atoms: C21_31  and  C22_32 
ROOT
HETATM    1  C1  UNL     1       0.736  52.948 -19.358  1.00  0.00     0.129 A 
HETATM    2  N2  UNL     1       1.413  53.858 -20.020  1.00  0.00    -0.349 N 
ATOM      3  H2  UNL     1       1.995  54.532 -19.525  1.00  0.00     0.167 HD
HETATM    4  C2  UNL     1       1.323  53.887 -21.396  1.00  0.00     0.107 A 
HETATM    5  C3  UNL     1       0.586  53.030 -22.118  1.00  0.00     0.116 A 
HETATM    6  N3  UNL     1      -0.147  52.063 -21.451  1.00  0.00    -0.305 N 
HETATM    7  C4  UNL     1      -0.988  51.046 -21.874  1.00  0.00     0.094 A 
HETATM    8  N5  UNL     1      -1.501  50.411 -20.832  1.00  0.00    -0.343 N 
ATOM      9  H5  UNL     1      -2.165  49.637 -20.853  1.00  0.00     0.167 HD
HETATM   10  C13 UNL     1      -0.963  51.002 -19.720  1.00  0.00     0.075 A 
HETATM   11  C14 UNL     1      -1.293  50.580 -18.381  1.00  0.00    -0.007 A 
HETATM   12  C15 UNL     1      -2.343  51.199 -17.691  1.00  0.00     0.015 A 
HETATM   13  C16 UNL     1      -2.663  50.798 -16.389  1.00  0.00     0.018 A 
HETATM   14  C17 UNL     1      -1.940  49.762 -15.779  1.00  0.00     0.032 A 
HETATM   15  C25 UNL     1      -0.883  49.153 -16.470  1.00  0.00     0.018 A 
HETATM   16  C26 UNL     1      -0.564  49.557 -17.769  1.00  0.00     0.015 A 
HETATM   17  C27 UNL     1      -0.106  52.017 -20.071  1.00  0.00     0.112 A 
ENDROOT
BRANCH   7  18
HETATM   18  C5  UNL     1      -1.286  50.656 -23.297  1.00  0.00     0.072 C 
HETATM   19  C6  UNL     1      -0.482  51.482 -24.333  1.00  0.00     0.016 C 
HETATM   20  C7  UNL     1      -1.285  52.509 -25.144  1.00  0.00     0.026 C 
HETATM   21  C8  UNL     1      -2.676  52.033 -25.597  1.00  0.00     0.087 C 
HETATM   22  C9  UNL     1      -2.815  51.795 -27.095  1.00  0.00     0.034 C 
HETATM   23  N4  UNL     1      -3.012  50.752 -25.027  1.00  0.00    -0.347 N 
HETATM   24  C10 UNL     1      -2.480  50.321 -27.280  1.00  0.00     0.105 C 
HETATM   25  C11 UNL     1      -2.784  49.715 -25.933  1.00  0.00     0.220 C 
HETATM   26  O1  UNL     1      -2.744  48.525 -25.672  1.00  0.00    -0.273 OA
HETATM   27  C12 UNL     1      -2.785  50.550 -23.609  1.00  0.00     0.138 C 
ENDBRANCH   7  18
BRANCH   1  28
HETATM   28  N1  UNL     1       0.887  52.960 -18.003  1.00  0.00    -0.384 N 
HETATM   29  H1  UNL     1       0.128  52.595 -17.441  1.00  0.00     0.157 HD
HETATM   30  H2  UNL     1       1.298  53.821 -17.656  1.00  0.00     0.157 HD
ENDBRANCH   1  28
BRANCH  14  31
HETATM   31  C18 UNL     1      -2.247  49.287 -14.397  1.00  0.00     0.257 C 
HETATM   32  O2  UNL     1      -1.858  48.172 -14.062  1.00  0.00    -0.267 OA
HETATM   33  N6  UNL     1      -2.985  50.156 -13.627  1.00  0.00    -0.309 N 
HETATM   34  H19 UNL     1      -3.360  51.001 -14.034  1.00  0.00     0.170 HD
BRANCH  33  35
HETATM   35  C19 UNL     1      -3.420  49.988 -12.312  1.00  0.00     0.108 A 
HETATM   36  C20 UNL     1      -4.519  49.228 -11.940  1.00  0.00     0.064 A 
HETATM   37  C21 UNL     1      -4.863  49.145 -10.585  1.00  0.00     0.052 A 
HETATM   38  C23 UNL     1      -4.082  49.834  -9.655  1.00  0.00     0.033 A 
HETATM   39  C24 UNL     1      -2.999  50.559 -10.113  1.00  0.00     0.090 A 
HETATM   40  N7  UNL     1      -2.656  50.646 -11.415  1.00  0.00    -0.352 N 
ATOM     41  H7  UNL     1      -1.847  51.191 -11.712  1.00  0.00     0.166 HD
BRANCH  37  42
HETATM   42  C22 UNL     1      -6.064  48.343 -10.160  1.00  0.00     0.417 C 
HETATM   43  F1  UNL     1      -7.132  48.531 -10.981  1.00  0.00    -0.166 F 
HETATM   44  F2  UNL     1      -5.824  47.004 -10.149  1.00  0.00    -0.166 F 
HETATM   45  F3  UNL     1      -6.499  48.653  -8.907  1.00  0.00    -0.166 F 
ENDBRANCH  37  42
ENDBRANCH  33  35
ENDBRANCH  14  31
TORSDOF 5
ENDMDL
MODEL 6
REMARK minimizedAffinity -9.78736973
REMARK CNNscore 0.130338594
REMARK CNNaffinity 6.60037994
REMARK  5 active torsions:
REMARK  status: ('A' for Active; 'I' for Inactive)
REMARK    1  A    between atoms: N1_1  and  C1_2 
REMARK    2  A    between atoms: C4_8  and  C5_9 
REMARK    3  A    between atoms: C17_25  and  C18_26 
REMARK       I    between atoms: C18_26  and  N6_28 
REMARK    4  A    between atoms: N6_28  and  C19_29 
REMARK    5  A    between atoms: C21_31  and  C22_32 
ROOT
HETATM    1  C1  UNL     1       0.761  53.028 -19.645  1.00  0.00     0.129 A 
HETATM    2  N2  UNL     1       1.450  53.944 -20.287  1.00  0.00    -0.349 N 
ATOM      3  H2  UNL     1       2.029  54.609 -19.776  1.00  0.00     0.167 HD
HETATM    4  C2  UNL     1       1.377  53.991 -21.663  1.00  0.00     0.107 A 
HETATM    5  C3  UNL     1       0.646  53.146 -22.406  1.00  0.00     0.116 A 
HETATM    6  N3  UNL     1      -0.099  52.174 -21.761  1.00  0.00    -0.305 N 
HETATM    7  C4  UNL     1      -0.938  51.166 -22.207  1.00  0.00     0.094 A 
HETATM    8  N5  UNL     1      -1.468  50.520 -21.180  1.00  0.00    -0.343 N 
ATOM      9  H5  UNL     1      -2.134  49.749 -21.219  1.00  0.00     0.167 HD
HETATM   10  C13 UNL     1      -0.941  51.094 -20.053  1.00  0.00     0.075 A 
HETATM   11  C14 UNL     1      -1.290  50.657 -18.724  1.00  0.00    -0.007 A 
HETATM   12  C15 UNL     1      -2.346  51.271 -18.040  1.00  0.00     0.015 A 
HETATM   13  C16 UNL     1      -2.684  50.854 -16.747  1.00  0.00     0.018 A 
HETATM   14  C17 UNL     1      -1.973  49.808 -16.142  1.00  0.00     0.032 A 
HETATM   15  C25 UNL     1      -0.910  49.203 -16.827  1.00  0.00     0.018 A 
HETATM   16  C26 UNL     1      -0.573  49.622 -18.117  1.00  0.00     0.015 A 
HETATM   17  C27 UNL     1      -0.076  52.110 -20.381  1.00  0.00     0.112 A 
ENDROOT
BRANCH   7  18
HETATM   18  C5  UNL     1      -1.220  50.795 -23.639  1.00  0.00     0.072 C 
HETATM   19  C6  UNL     1      -0.436  51.665 -24.655  1.00  0.00     0.016 C 
HETATM   20  C7  UNL     1      -1.265  52.684 -25.450  1.00  0.00     0.026 C 
HETATM   21  C8  UNL     1      -2.640  52.177 -25.918  1.00  0.00     0.087 C 
HETATM   22  C9  UNL     1      -2.767  51.965 -27.421  1.00  0.00     0.034 C 
HETATM   23  N4  UNL     1      -2.941  50.876 -25.374  1.00  0.00    -0.347 N 
HETATM   24  C10 UNL     1      -2.389  50.505 -27.632  1.00  0.00     0.105 C 
HETATM   25  C11 UNL     1      -2.681  49.864 -26.299  1.00  0.00     0.220 C 
HETATM   26  O1  UNL     1      -2.607  48.671 -26.061  1.00  0.00    -0.273 OA
HETATM   27  C12 UNL     1      -2.715  50.653 -23.959  1.00  0.00     0.138 C 
ENDBRANCH   7  18
BRANCH   1  28
HETATM   28  N1  UNL     1       0.895  53.022 -18.289  1.00  0.00    -0.384 N 
HETATM   29  H1  UNL     1       0.128  52.653 -17.741  1.00  0.00     0.157 HD
HETATM   30  H2  UNL     1       1.304  53.877 -17.925  1.00  0.00     0.157 HD
ENDBRANCH   1  28
BRANCH  14  31
HETATM   31  C18 UNL     1      -2.299  49.316 -14.770  1.00  0.00     0.257 C 
HETATM   32  O2  UNL     1      -2.184  48.117 -14.536  1.00  0.00    -0.267 OA
HETATM   33  N6  UNL     1      -2.742  50.278 -13.891  1.00  0.00    -0.309 N 
HETATM   34  H19 UNL     1      -2.917  51.218 -14.214  1.00  0.00     0.170 HD
BRANCH  33  35
HETATM   35  C19 UNL     1      -3.120  50.119 -12.558  1.00  0.00     0.108 A 
HETATM   36  C20 UNL     1      -2.518  50.765 -11.489  1.00  0.00     0.064 A 
HETATM   37  C21 UNL     1      -2.981  50.513 -10.191  1.00  0.00     0.052 A 
HETATM   38  C23 UNL     1      -4.038  49.616 -10.022  1.00  0.00     0.033 A 
HETATM   39  C24 UNL     1      -4.585  49.026 -11.145  1.00  0.00     0.090 A 
HETATM   40  N7  UNL     1      -4.149  49.260 -12.399  1.00  0.00    -0.352 N 
ATOM     41  H7  UNL     1      -4.582  48.804 -13.202  1.00  0.00     0.166 HD
BRANCH  37  42
HETATM   42  C22 UNL     1      -2.329  51.188  -9.014  1.00  0.00     0.417 C 
HETATM   43  F1  UNL     1      -0.998  51.396  -9.205  1.00  0.00    -0.166 F 
HETATM   44  F2  UNL     1      -2.869  52.407  -8.741  1.00  0.00    -0.166 F 
HETATM   45  F3  UNL     1      -2.431  50.469  -7.861  1.00  0.00    -0.166 F 
ENDBRANCH  37  42
ENDBRANCH  33  35
ENDBRANCH  14  31
TORSDOF 5
ENDMDL
MODEL 7
REMARK minimizedAffinity -9.89756203
REMARK CNNscore 0.122723483
REMARK CNNaffinity 6.93608999
REMARK  5 active torsions:
REMARK  status: ('A' for Active; 'I' for Inactive)
REMARK    1  A    between atoms: N1_1  and  C1_2 
REMARK    2  A    between atoms: C4_8  and  C5_9 
REMARK    3  A    between atoms: C17_25  and  C18_26 
REMARK       I    between atoms: C18_26  and  N6_28 
REMARK    4  A    between atoms: N6_28  and  C19_29 
REMARK    5  A    between atoms: C21_31  and  C22_32 
ROOT
HETATM    1  C1  UNL     1       1.010  53.308 -19.851  1.00  0.00     0.129 A 
HETATM    2  N2  UNL     1       1.822  54.257 -20.259  1.00  0.00    -0.349 N 
ATOM      3  H2  UNL     1       2.413  54.754 -19.594  1.00  0.00     0.167 HD
HETATM    4  C2  UNL     1       1.860  54.570 -21.601  1.00  0.00     0.107 A 
HETATM    5  C3  UNL     1       1.121  53.957 -22.537  1.00  0.00     0.116 A 
HETATM    6  N3  UNL     1       0.248  52.958 -22.141  1.00  0.00    -0.305 N 
HETATM    7  C4  UNL     1      -0.637  52.140 -22.824  1.00  0.00     0.094 A 
HETATM    8  N5  UNL     1      -1.297  51.367 -21.977  1.00  0.00    -0.343 N 
ATOM      9  H5  UNL     1      -2.022  50.686 -22.206  1.00  0.00     0.167 HD
HETATM   10  C13 UNL     1      -0.813  51.663 -20.731  1.00  0.00     0.075 A 
HETATM   11  C14 UNL     1      -1.300  51.019 -19.536  1.00  0.00    -0.007 A 
HETATM   12  C15 UNL     1      -2.350  51.594 -18.810  1.00  0.00     0.015 A 
HETATM   13  C16 UNL     1      -2.821  50.975 -17.645  1.00  0.00     0.018 A 
HETATM   14  C17 UNL     1      -2.252  49.768 -17.215  1.00  0.00     0.032 A 
HETATM   15  C25 UNL     1      -1.193  49.203 -17.940  1.00  0.00     0.018 A 
HETATM   16  C26 UNL     1      -0.722  49.823 -19.100  1.00  0.00     0.015 A 
HETATM   17  C27 UNL     1       0.158  52.633 -20.801  1.00  0.00     0.112 A 
ENDROOT
BRANCH   7  18
HETATM   18  C5  UNL     1      -0.837  52.077 -24.316  1.00  0.00     0.072 C 
HETATM   19  C6  UNL     1      -0.176  50.833 -24.963  1.00  0.00     0.016 C 
HETATM   20  C7  UNL     1       1.078  51.100 -25.809  1.00  0.00     0.026 C 
HETATM   21  C8  UNL     1       1.010  52.361 -26.689  1.00  0.00     0.087 C 
HETATM   22  C9  UNL     1       0.921  52.092 -28.185  1.00  0.00     0.034 C 
HETATM   23  N4  UNL     1      -0.178  53.133 -26.420  1.00  0.00    -0.347 N 
HETATM   24  C10 UNL     1      -0.574  52.061 -28.478  1.00  0.00     0.105 C 
HETATM   25  C11 UNL     1      -1.173  52.885 -27.367  1.00  0.00     0.220 C 
HETATM   26  O1  UNL     1      -2.349  53.195 -27.277  1.00  0.00    -0.273 OA
HETATM   27  C12 UNL     1      -0.530  53.396 -25.038  1.00  0.00     0.138 C 
ENDBRANCH   7  18
BRANCH   1  28
HETATM   28  N1  UNL     1       1.037  53.033 -18.516  1.00  0.00    -0.384 N 
HETATM   29  H1  UNL     1       0.201  52.644 -18.098  1.00  0.00     0.157 HD
HETATM   30  H2  UNL     1       1.488  53.760 -17.969  1.00  0.00     0.157 HD
ENDBRANCH   1  28
BRANCH  14  31
HETATM   31  C18 UNL     1      -2.724  49.061 -15.988  1.00  0.00     0.257 C 
HETATM   32  O2  UNL     1      -3.210  47.940 -16.109  1.00  0.00    -0.267 OA
HETATM   33  N6  UNL     1      -2.595  49.769 -14.815  1.00  0.00    -0.309 N 
HETATM   34  H19 UNL     1      -2.294  50.732 -14.835  1.00  0.00     0.170 HD
BRANCH  33  35
HETATM   35  C19 UNL     1      -2.948  49.373 -13.525  1.00  0.00     0.108 A 
HETATM   36  C20 UNL     1      -3.558  50.195 -12.590  1.00  0.00     0.064 A 
HETATM   37  C21 UNL     1      -3.853  49.683 -11.320  1.00  0.00     0.052 A 
HETATM   38  C23 UNL     1      -3.521  48.355 -11.043  1.00  0.00     0.033 A 
HETATM   39  C24 UNL     1      -2.924  47.605 -12.037  1.00  0.00     0.090 A 
HETATM   40  N7  UNL     1      -2.636  48.086 -13.264  1.00  0.00    -0.352 N 
ATOM     41  H7  UNL     1      -2.196  47.497 -13.971  1.00  0.00     0.166 HD
BRANCH  37  42
HETATM   42  C22 UNL     1      -4.497  50.563 -10.283  1.00  0.00     0.417 C 
HETATM   43  F1  UNL     1      -5.795  50.231 -10.051  1.00  0.00    -0.166 F 
HETATM   44  F2  UNL     1      -3.868  50.501  -9.077  1.00  0.00    -0.166 F 
HETATM   45  F3  UNL     1      -4.505  51.881 -10.630  1.00  0.00    -0.166 F 
ENDBRANCH  37  42
ENDBRANCH  33  35
ENDBRANCH  14  31
TORSDOF 5
ENDMDL
MODEL 8
REMARK minimizedAffinity -10.3562946
REMARK CNNscore 0.103898421
REMARK CNNaffinity 7.3155055
REMARK  5 active torsions:
REMARK  status: ('A' for Active; 'I' for Inactive)
REMARK    1  A    between atoms: N1_1  and  C1_2 
REMARK    2  A    between atoms: C4_8  and  C5_9 
REMARK    3  A    between atoms: C17_25  and  C18_26 
REMARK       I    between atoms: C18_26  and  N6_28 
REMARK    4  A    between atoms: N6_28  and  C19_29 
REMARK    5  A    between atoms: C21_31  and  C22_32 
ROOT
HETATM    1  C1  UNL     1      -0.434  53.256 -25.277  1.00  0.00     0.129 A 
HETATM    2  N2  UNL     1       0.373  54.286 -25.161  1.00  0.00    -0.349 N 
ATOM      3  H2  UNL     1       0.497  54.937 -25.935  1.00  0.00     0.167 HD
HETATM    4  C2  UNL     1       1.051  54.471 -23.975  1.00  0.00     0.107 A 
HETATM    5  C3  UNL     1       0.935  53.665 -22.909  1.00  0.00     0.116 A 
HETATM    6  N3  UNL     1       0.099  52.565 -23.001  1.00  0.00    -0.305 N 
HETATM    7  C4  UNL     1      -0.247  51.556 -22.116  1.00  0.00     0.094 A 
HETATM    8  N5  UNL     1      -1.058  50.689 -22.702  1.00  0.00    -0.343 N 
ATOM      9  H5  UNL     1      -1.449  49.842 -22.290  1.00  0.00     0.167 HD
HETATM   10  C13 UNL     1      -1.267  51.157 -23.972  1.00  0.00     0.075 A 
HETATM   11  C14 UNL     1      -2.102  50.468 -24.925  1.00  0.00    -0.007 A 
HETATM   12  C15 UNL     1      -1.537  49.539 -25.807  1.00  0.00     0.015 A 
HETATM   13  C16 UNL     1      -2.343  48.873 -26.738  1.00  0.00     0.018 A 
HETATM   14  C17 UNL     1      -3.721  49.125 -26.777  1.00  0.00     0.032 A 
HETATM   15  C25 UNL     1      -4.280  50.065 -25.899  1.00  0.00     0.018 A 
HETATM   16  C26 UNL     1      -3.474  50.731 -24.972  1.00  0.00     0.015 A 
HETATM   17  C27 UNL     1      -0.578  52.327 -24.181  1.00  0.00     0.112 A 
ENDROOT
BRANCH   7  18
HETATM   18  C5  UNL     1       0.182  51.432 -20.678  1.00  0.00     0.072 C 
HETATM   19  C6  UNL     1      -0.063  50.017 -20.093  1.00  0.00     0.016 C 
HETATM   20  C7  UNL     1      -1.204  49.901 -19.071  1.00  0.00     0.026 C 
HETATM   21  C8  UNL     1      -1.304  51.069 -18.074  1.00  0.00     0.087 C 
HETATM   22  C9  UNL     1      -0.932  50.718 -16.639  1.00  0.00     0.034 C 
HETATM   23  N4  UNL     1      -0.385  52.130 -18.404  1.00  0.00    -0.347 N 
HETATM   24  C10 UNL     1       0.555  51.036 -16.543  1.00  0.00     0.105 C 
HETATM   25  C11 UNL     1       0.770  52.065 -17.624  1.00  0.00     0.220 C 
HETATM   26  O1  UNL     1       1.813  52.663 -17.827  1.00  0.00    -0.273 OA
HETATM   27  C12 UNL     1      -0.315  52.575 -19.782  1.00  0.00     0.138 C 
ENDBRANCH   7  18
BRANCH   1  28
HETATM   28  N1  UNL     1      -1.090  53.144 -26.467  1.00  0.00    -0.384 N 
HETATM   29  H1  UNL     1      -1.377  52.219 -26.761  1.00  0.00     0.157 HD
HETATM   30  H2  UNL     1      -0.686  53.718 -27.200  1.00  0.00     0.157 HD
ENDBRANCH   1  28
BRANCH  14  31
HETATM   31  C18 UNL     1      -4.628  48.435 -27.742  1.00  0.00     0.257 C 
HETATM   32  O2  UNL     1      -4.176  48.102 -28.834  1.00  0.00    -0.267 OA
HETATM   33  N6  UNL     1      -5.925  48.267 -27.313  1.00  0.00    -0.309 N 
HETATM   34  H19 UNL     1      -6.229  48.683 -26.445  1.00  0.00     0.170 HD
BRANCH  33  35
HETATM   35  C19 UNL     1      -6.986  47.666 -27.990  1.00  0.00     0.108 A 
HETATM   36  C20 UNL     1      -6.940  46.404 -28.561  1.00  0.00     0.064 A 
HETATM   37  C21 UNL     1      -8.071  45.914 -29.226  1.00  0.00     0.052 A 
HETATM   38  C23 UNL     1      -9.210  46.720 -29.288  1.00  0.00     0.033 A 
HETATM   39  C24 UNL     1      -9.171  47.961 -28.682  1.00  0.00     0.090 A 
HETATM   40  N7  UNL     1      -8.089  48.444 -28.038  1.00  0.00    -0.352 N 
ATOM     41  H7  UNL     1      -8.102  49.365 -27.602  1.00  0.00     0.166 HD
BRANCH  37  42
HETATM   42  C22 UNL     1      -8.036  44.555 -29.871  1.00  0.00     0.417 C 
HETATM   43  F1  UNL     1      -8.316  44.602 -31.201  1.00  0.00    -0.166 F 
HETATM   44  F2  UNL     1      -6.821  43.951 -29.761  1.00  0.00    -0.166 F 
HETATM   45  F3  UNL     1      -8.934  43.683 -29.332  1.00  0.00    -0.166 F 
ENDBRANCH  37  42
ENDBRANCH  33  35
ENDBRANCH  14  31
TORSDOF 5
ENDMDL
MODEL 9
REMARK minimizedAffinity -10.2608395
REMARK CNNscore 0.0933029428
REMARK CNNaffinity 5.82259321
REMARK  5 active torsions:
REMARK  status: ('A' for Active; 'I' for Inactive)
REMARK    1  A    between atoms: N1_1  and  C1_2 
REMARK    2  A    between atoms: C4_8  and  C5_9 
REMARK    3  A    between atoms: C17_25  and  C18_26 
REMARK       I    between atoms: C18_26  and  N6_28 
REMARK    4  A    between atoms: N6_28  and  C19_29 
REMARK    5  A    between atoms: C21_31  and  C22_32 
ROOT
HETATM    1  C1  UNL     1      -9.364  48.280 -29.496  1.00  0.00     0.129 A 
HETATM    2  N2  UNL     1     -10.605  48.417 -29.905  1.00  0.00    -0.349 N 
ATOM      3  H2  UNL     1     -11.025  49.343 -29.984  1.00  0.00     0.167 HD
HETATM    4  C2  UNL     1     -11.330  47.290 -30.227  1.00  0.00     0.107 A 
HETATM    5  C3  UNL     1     -10.846  46.041 -30.158  1.00  0.00     0.116 A 
HETATM    6  N3  UNL     1      -9.545  45.859 -29.723  1.00  0.00    -0.305 N 
HETATM    7  C4  UNL     1      -8.750  44.739 -29.540  1.00  0.00     0.094 A 
HETATM    8  N5  UNL     1      -7.572  45.087 -29.045  1.00  0.00    -0.343 N 
ATOM      9  H5  UNL     1      -6.805  44.463 -28.796  1.00  0.00     0.167 HD
HETATM   10  C13 UNL     1      -7.590  46.451 -28.935  1.00  0.00     0.075 A 
HETATM   11  C14 UNL     1      -6.472  47.203 -28.423  1.00  0.00    -0.007 A 
HETATM   12  C15 UNL     1      -6.401  47.510 -27.059  1.00  0.00     0.015 A 
HETATM   13  C16 UNL     1      -5.320  48.246 -26.558  1.00  0.00     0.018 A 
HETATM   14  C17 UNL     1      -4.298  48.662 -27.422  1.00  0.00     0.032 A 
HETATM   15  C25 UNL     1      -4.379  48.362 -28.789  1.00  0.00     0.018 A 
HETATM   16  C26 UNL     1      -5.460  47.629 -29.288  1.00  0.00     0.015 A 
HETATM   17  C27 UNL     1      -8.793  46.960 -29.364  1.00  0.00     0.112 A 
ENDROOT
BRANCH   7  18
HETATM   18  C5  UNL     1      -9.111  43.314 -29.868  1.00  0.00     0.072 C 
HETATM   19  C6  UNL     1      -8.492  42.824 -31.201  1.00  0.00     0.016 C 
HETATM   20  C7  UNL     1      -9.470  42.644 -32.372  1.00  0.00     0.026 C 
HETATM   21  C8  UNL     1     -10.827  42.026 -31.993  1.00  0.00     0.087 C 
HETATM   22  C9  UNL     1     -11.054  40.612 -32.510  1.00  0.00     0.034 C 
HETATM   23  N4  UNL     1     -10.966  41.881 -30.564  1.00  0.00    -0.347 N 
HETATM   24  C10 UNL     1     -10.565  39.711 -31.383  1.00  0.00     0.105 C 
HETATM   25  C11 UNL     1     -10.691  40.576 -30.155  1.00  0.00     0.220 C 
HETATM   26  O1  UNL     1     -10.492  40.205 -29.011  1.00  0.00    -0.273 OA
HETATM   27  C12 UNL     1     -10.608  43.005 -29.722  1.00  0.00     0.138 C 
ENDBRANCH   7  18
BRANCH   1  28
HETATM   28  N1  UNL     1      -8.696  49.435 -29.217  1.00  0.00    -0.384 N 
HETATM   29  H1  UNL     1      -7.941  49.391 -28.544  1.00  0.00     0.157 HD
HETATM   30  H2  UNL     1      -9.312  50.236 -29.115  1.00  0.00     0.157 HD
ENDBRANCH   1  28
BRANCH  14  31
HETATM   31  C18 UNL     1      -3.117  49.438 -26.939  1.00  0.00     0.257 C 
HETATM   32  O2  UNL     1      -2.638  49.154 -25.845  1.00  0.00    -0.267 OA
HETATM   33  N6  UNL     1      -2.694  50.446 -27.775  1.00  0.00    -0.309 N 
HETATM   34  H19 UNL     1      -3.229  50.679 -28.599  1.00  0.00     0.170 HD
BRANCH  33  35
HETATM   35  C19 UNL     1      -1.631  51.330 -27.592  1.00  0.00     0.108 A 
HETATM   36  C20 UNL     1      -0.371  50.962 -27.144  1.00  0.00     0.064 A 
HETATM   37  C21 UNL     1       0.612  51.947 -26.989  1.00  0.00     0.052 A 
HETATM   38  C23 UNL     1       0.285  53.271 -27.293  1.00  0.00     0.033 A 
HETATM   39  C24 UNL     1      -0.992  53.546 -27.743  1.00  0.00     0.090 A 
HETATM   40  N7  UNL     1      -1.947  52.606 -27.898  1.00  0.00    -0.352 N 
ATOM     41  H7  UNL     1      -2.878  52.852 -28.235  1.00  0.00     0.166 HD
BRANCH  37  42
HETATM   42  C22 UNL     1       1.980  51.573 -26.485  1.00  0.00     0.417 C 
HETATM   43  F1  UNL     1       2.972  51.969 -27.327  1.00  0.00    -0.166 F 
HETATM   44  F2  UNL     1       2.265  52.129 -25.275  1.00  0.00    -0.166 F 
HETATM   45  F3  UNL     1       2.143  50.230 -26.323  1.00  0.00    -0.166 F 
ENDBRANCH  37  42
ENDBRANCH  33  35
ENDBRANCH  14  31
TORSDOF 5
ENDMDL
