MODEL 1
REMARK minimizedAffinity -8.73609829
REMARK  10 active torsions:
REMARK  status: ('A' for Active; 'I' for Inactive)
REMARK    1  A    between atoms: N1_2  and  C3_4 
REMARK    2  A    between atoms: C3_4  and  C4_5 
REMARK    3  A    between atoms: C4_5  and  N2_6 
REMARK    4  A    between atoms: N2_6  and  C5_7 
REMARK    5  A    between atoms: C7_12  and  C8_13 
REMARK       I    between atoms: C8_13  and  N4_15 
REMARK    6  A    between atoms: N4_15  and  N5_16 
REMARK    7  A    between atoms: C9_18  and  C10_19 
REMARK    8  A    between atoms: C15_25  and  N7_26 
REMARK    9  A    between atoms: C18_29  and  C19_30 
REMARK   10  A    between atoms: C19_30  and  C20_31 
ROOT
HETATM    1  C5  UNL     1      -1.208  51.034 -23.600  1.00  0.00     0.087 A 
HETATM    2  N3  UNL     1      -1.283  50.403 -22.414  1.00  0.00    -0.340 N 
ATOM      3  H3  UNL     1      -1.731  49.492 -22.317  1.00  0.00     0.167 HD
HETATM    4  C6  UNL     1      -0.735  51.037 -21.365  1.00  0.00     0.088 A 
HETATM    5  S1  UNL     1      -0.736  50.304 -19.833  1.00  0.00    -0.064 SA
HETATM    6  C7  UNL     1       0.098  51.627 -19.116  1.00  0.00     0.103 A 
HETATM    7  C15 UNL     1       0.357  52.612 -20.057  1.00  0.00     0.061 A 
HETATM    8  C16 UNL     1      -0.120  52.279 -21.369  1.00  0.00     0.026 A 
HETATM    9  C17 UNL     1      -0.085  52.941 -22.611  1.00  0.00     0.027 A 
HETATM   10  C18 UNL     1      -0.646  52.314 -23.744  1.00  0.00    -0.015 A 
ENDROOT
BRANCH   6  11
HETATM   11  C8  UNL     1       0.432  51.629 -17.693  1.00  0.00     0.279 C 
HETATM   12  O1  UNL     1       0.063  50.736 -16.925  1.00  0.00    -0.265 OA
HETATM   13  N4  UNL     1       1.191  52.718 -17.272  1.00  0.00    -0.266 N 
HETATM   14  H12 UNL     1       1.442  53.431 -17.951  1.00  0.00     0.190 HD
BRANCH  13  15
HETATM   15  N5  UNL     1       1.502  52.895 -15.955  1.00  0.00    -0.307 N 
HETATM   16  C9  UNL     1       0.985  52.034 -15.140  1.00  0.00     0.136 C 
ATOM     17  H5  UNL     1       2.102  53.656 -15.634  1.00  0.00     0.186 HD
BRANCH  16  18
HETATM   18  C10 UNL     1       1.249  52.064 -13.722  1.00  0.00     0.050 A 
HETATM   19  C11 UNL     1       0.480  52.706 -12.761  1.00  0.00     0.032 A 
HETATM   20  C12 UNL     1       1.083  52.500 -11.500  1.00  0.00     0.019 A 
HETATM   21  C13 UNL     1       2.193  51.717 -11.705  1.00  0.00     0.091 A 
HETATM   22  N6  UNL     1       2.302  51.470 -13.051  1.00  0.00    -0.360 N 
HETATM   23  C14 UNL     1       3.397  50.731 -13.647  1.00  0.00     0.155 C 
ENDBRANCH  16  18
ENDBRANCH  13  15
ENDBRANCH   6  11
BRANCH   7  24
HETATM   24  N7  UNL     1       0.998  53.776 -19.772  1.00  0.00    -0.397 N 
HETATM   25  H20 UNL     1       0.782  54.601 -20.322  1.00  0.00     0.156 HD
HETATM   26  H21 UNL     1       1.123  54.014 -18.783  1.00  0.00     0.156 HD
ENDBRANCH   7  24
BRANCH   1  27
HETATM   27  N2  UNL     1      -1.736  50.381 -24.734  1.00  0.00    -0.277 NA
HETATM   28  H11 UNL     1      -1.707  49.371 -24.567  1.00  0.00     0.129 HD
BRANCH  27  29
HETATM   29  C4  UNL     1      -3.139  50.711 -25.052  1.00  0.00     0.124 C 
BRANCH  29  30
HETATM   30  C3  UNL     1      -3.832  49.521 -25.767  1.00  0.00     0.286 C 
BRANCH  30  31
HETATM   31  N1  UNL     1      -3.269  49.303 -27.126  1.00  0.00     0.081 N 
HETATM   32  C1  UNL     1      -3.154  50.580 -27.846  1.00  0.00     0.309 C 
HETATM   33  C2  UNL     1      -4.127  48.383 -27.885  1.00  0.00     0.309 C 
ENDBRANCH  30  31
ENDBRANCH  29  30
ENDBRANCH  27  29
ENDBRANCH   1  27
BRANCH  10  34
HETATM   34  C19 UNL     1      -0.636  53.070 -25.056  1.00  0.00     0.080 C 
BRANCH  34  35
HETATM   35  C20 UNL     1       0.350  52.514 -26.062  1.00  0.00    -0.054 A 
HETATM   36  C21 UNL     1       0.046  52.525 -27.430  1.00  0.00     0.007 A 
HETATM   37  C22 UNL     1       0.954  52.017 -28.360  1.00  0.00     0.001 A 
HETATM   38  C23 UNL     1       2.178  51.504 -27.935  1.00  0.00     0.000 A 
HETATM   39  C24 UNL     1       2.496  51.497 -26.576  1.00  0.00     0.001 A 
HETATM   40  C25 UNL     1       1.585  51.996 -25.642  1.00  0.00     0.007 A 
ENDBRANCH  34  35
ENDBRANCH  10  34
TORSDOF 10
ENDMDL
MODEL 2
REMARK minimizedAffinity -8.59077549
REMARK  10 active torsions:
REMARK  status: ('A' for Active; 'I' for Inactive)
REMARK    1  A    between atoms: N1_2  and  C3_4 
REMARK    2  A    between atoms: C3_4  and  C4_5 
REMARK    3  A    between atoms: C4_5  and  N2_6 
REMARK    4  A    between atoms: N2_6  and  C5_7 
REMARK    5  A    between atoms: C7_12  and  C8_13 
REMARK       I    between atoms: C8_13  and  N4_15 
REMARK    6  A    between atoms: N4_15  and  N5_16 
REMARK    7  A    between atoms: C9_18  and  C10_19 
REMARK    8  A    between atoms: C15_25  and  N7_26 
REMARK    9  A    between atoms: C18_29  and  C19_30 
REMARK   10  A    between atoms: C19_30  and  C20_31 
ROOT
HETATM    1  C5  UNL     1      -0.870  53.178 -24.772  1.00  0.00     0.087 A 
HETATM    2  N3  UNL     1       0.100  53.273 -23.842  1.00  0.00    -0.340 N 
ATOM      3  H3  UNL     1       1.011  53.679 -24.055  1.00  0.00     0.167 HD
HETATM    4  C6  UNL     1      -0.198  52.803 -22.621  1.00  0.00     0.088 A 
HETATM    5  S1  UNL     1       0.940  52.918 -21.365  1.00  0.00    -0.064 SA
HETATM    6  C7  UNL     1      -0.125  52.185 -20.231  1.00  0.00     0.103 A 
HETATM    7  C15 UNL     1      -1.330  51.857 -20.830  1.00  0.00     0.061 A 
HETATM    8  C16 UNL     1      -1.386  52.214 -22.220  1.00  0.00     0.026 A 
HETATM    9  C17 UNL     1      -2.374  52.089 -23.214  1.00  0.00     0.027 A 
HETATM   10  C18 UNL     1      -2.109  52.570 -24.515  1.00  0.00    -0.015 A 
ENDROOT
BRANCH   6  11
HETATM   11  C8  UNL     1       0.282  51.966 -18.844  1.00  0.00     0.279 C 
HETATM   12  O1  UNL     1      -0.033  50.954 -18.213  1.00  0.00    -0.265 OA
HETATM   13  N4  UNL     1       1.046  52.991 -18.290  1.00  0.00    -0.266 N 
HETATM   14  H12 UNL     1       1.250  53.809 -18.856  1.00  0.00     0.190 HD
BRANCH  13  15
HETATM   15  N5  UNL     1       1.422  52.962 -16.978  1.00  0.00    -0.307 N 
HETATM   16  C9  UNL     1       1.651  51.786 -16.490  1.00  0.00     0.136 C 
ATOM     17  H5  UNL     1       1.515  53.810 -16.419  1.00  0.00     0.186 HD
BRANCH  16  18
HETATM   18  C10 UNL     1       2.092  51.591 -15.131  1.00  0.00     0.050 A 
HETATM   19  C11 UNL     1       3.394  51.333 -14.722  1.00  0.00     0.032 A 
HETATM   20  C12 UNL     1       3.400  51.202 -13.316  1.00  0.00     0.019 A 
HETATM   21  C13 UNL     1       2.111  51.406 -12.884  1.00  0.00     0.091 A 
HETATM   22  N6  UNL     1       1.319  51.623 -13.984  1.00  0.00    -0.360 N 
HETATM   23  C14 UNL     1      -0.117  51.808 -13.918  1.00  0.00     0.155 C 
ENDBRANCH  16  18
ENDBRANCH  13  15
ENDBRANCH   6  11
BRANCH   7  24
HETATM   24  N7  UNL     1      -2.360  51.258 -20.175  1.00  0.00    -0.397 N 
HETATM   25  H20 UNL     1      -2.994  50.664 -20.699  1.00  0.00     0.156 HD
HETATM   26  H21 UNL     1      -2.163  50.864 -19.250  1.00  0.00     0.156 HD
ENDBRANCH   7  24
BRANCH   1  27
HETATM   27  N2  UNL     1      -0.609  53.698 -26.057  1.00  0.00    -0.277 NA
HETATM   28  H11 UNL     1       0.325  54.117 -26.053  1.00  0.00     0.129 HD
BRANCH  27  29
HETATM   29  C4  UNL     1      -0.614  52.705 -27.149  1.00  0.00     0.124 C 
BRANCH  29  30
HETATM   30  C3  UNL     1       0.811  52.528 -27.736  1.00  0.00     0.286 C 
BRANCH  30  31
HETATM   31  N1  UNL     1       1.419  51.242 -27.303  1.00  0.00     0.081 N 
HETATM   32  C1  UNL     1       0.453  50.453 -26.524  1.00  0.00     0.309 C 
HETATM   33  C2  UNL     1       2.616  51.498 -26.492  1.00  0.00     0.309 C 
ENDBRANCH  30  31
ENDBRANCH  29  30
ENDBRANCH  27  29
ENDBRANCH   1  27
BRANCH  10  34
HETATM   34  C19 UNL     1      -3.172  52.378 -25.576  1.00  0.00     0.080 C 
BRANCH  34  35
HETATM   35  C20 UNL     1      -3.512  50.924 -25.829  1.00  0.00    -0.054 A 
HETATM   36  C21 UNL     1      -4.243  50.194 -24.882  1.00  0.00     0.007 A 
HETATM   37  C22 UNL     1      -4.563  48.855 -25.114  1.00  0.00     0.001 A 
HETATM   38  C23 UNL     1      -4.165  48.236 -26.298  1.00  0.00     0.000 A 
HETATM   39  C24 UNL     1      -3.445  48.956 -27.253  1.00  0.00     0.001 A 
HETATM   40  C25 UNL     1      -3.117  50.294 -27.019  1.00  0.00     0.007 A 
ENDBRANCH  34  35
ENDBRANCH  10  34
TORSDOF 10
ENDMDL
MODEL 3
REMARK minimizedAffinity -8.58990192
REMARK  10 active torsions:
REMARK  status: ('A' for Active; 'I' for Inactive)
REMARK    1  A    between atoms: N1_2  and  C3_4 
REMARK    2  A    between atoms: C3_4  and  C4_5 
REMARK    3  A    between atoms: C4_5  and  N2_6 
REMARK    4  A    between atoms: N2_6  and  C5_7 
REMARK    5  A    between atoms: C7_12  and  C8_13 
REMARK       I    between atoms: C8_13  and  N4_15 
REMARK    6  A    between atoms: N4_15  and  N5_16 
REMARK    7  A    between atoms: C9_18  and  C10_19 
REMARK    8  A    between atoms: C15_25  and  N7_26 
REMARK    9  A    between atoms: C18_29  and  C19_30 
REMARK   10  A    between atoms: C19_30  and  C20_31 
ROOT
HETATM    1  C5  UNL     1      -1.329  50.902 -23.510  1.00  0.00     0.087 A 
HETATM    2  N3  UNL     1      -1.330  50.277 -22.317  1.00  0.00    -0.340 N 
ATOM      3  H3  UNL     1      -1.766  49.365 -22.189  1.00  0.00     0.167 HD
HETATM    4  C6  UNL     1      -0.725  50.921 -21.306  1.00  0.00     0.088 A 
HETATM    5  S1  UNL     1      -0.630  50.198 -19.773  1.00  0.00    -0.064 SA
HETATM    6  C7  UNL     1       0.236  51.530 -19.115  1.00  0.00     0.103 A 
HETATM    7  C15 UNL     1       0.432  52.510 -20.074  1.00  0.00     0.061 A 
HETATM    8  C16 UNL     1      -0.120  52.166 -21.354  1.00  0.00     0.026 A 
HETATM    9  C17 UNL     1      -0.162  52.821 -22.599  1.00  0.00     0.027 A 
HETATM   10  C18 UNL     1      -0.785  52.184 -23.694  1.00  0.00    -0.015 A 
ENDROOT
BRANCH   6  11
HETATM   11  C8  UNL     1       0.654  51.542 -17.714  1.00  0.00     0.279 C 
HETATM   12  O1  UNL     1       0.548  50.555 -16.982  1.00  0.00    -0.265 OA
HETATM   13  N4  UNL     1       1.173  52.756 -17.269  1.00  0.00    -0.266 N 
HETATM   14  H12 UNL     1       1.211  53.538 -17.917  1.00  0.00     0.190 HD
BRANCH  13  15
HETATM   15  N5  UNL     1       1.522  52.939 -15.962  1.00  0.00    -0.307 N 
HETATM   16  C9  UNL     1       1.232  51.961 -15.167  1.00  0.00     0.136 C 
ATOM     17  H5  UNL     1       1.981  53.789 -15.635  1.00  0.00     0.186 HD
BRANCH  16  18
HETATM   18  C10 UNL     1       1.570  51.987 -13.764  1.00  0.00     0.050 A 
HETATM   19  C11 UNL     1       2.836  51.810 -13.225  1.00  0.00     0.032 A 
HETATM   20  C12 UNL     1       2.737  51.901 -11.819  1.00  0.00     0.019 A 
HETATM   21  C13 UNL     1       1.420  52.156 -11.522  1.00  0.00     0.091 A 
HETATM   22  N6  UNL     1       0.712  52.189 -12.698  1.00  0.00    -0.360 N 
HETATM   23  C14 UNL     1      -0.724  52.366 -12.769  1.00  0.00     0.155 C 
ENDBRANCH  16  18
ENDBRANCH  13  15
ENDBRANCH   6  11
BRANCH   7  24
HETATM   24  N7  UNL     1       1.081  53.681 -19.835  1.00  0.00    -0.397 N 
HETATM   25  H20 UNL     1       0.828  54.501 -20.376  1.00  0.00     0.156 HD
HETATM   26  H21 UNL     1       1.264  53.925 -18.857  1.00  0.00     0.156 HD
ENDBRANCH   7  24
BRANCH   1  27
HETATM   27  N2  UNL     1      -1.919  50.239 -24.606  1.00  0.00    -0.277 NA
HETATM   28  H11 UNL     1      -1.970  49.239 -24.390  1.00  0.00     0.129 HD
BRANCH  27  29
HETATM   29  C4  UNL     1      -3.295  50.664 -24.931  1.00  0.00     0.124 C 
BRANCH  29  30
HETATM   30  C3  UNL     1      -4.329  49.861 -24.097  1.00  0.00     0.286 C 
BRANCH  30  31
HETATM   31  N1  UNL     1      -4.579  48.520 -24.689  1.00  0.00     0.081 N 
HETATM   32  C1  UNL     1      -4.468  48.576 -26.155  1.00  0.00     0.309 C 
HETATM   33  C2  UNL     1      -5.915  48.044 -24.312  1.00  0.00     0.309 C 
ENDBRANCH  30  31
ENDBRANCH  29  30
ENDBRANCH  27  29
ENDBRANCH   1  27
BRANCH  10  34
HETATM   34  C19 UNL     1      -0.859  52.932 -25.008  1.00  0.00     0.080 C 
BRANCH  34  35
HETATM   35  C20 UNL     1       0.165  52.466 -26.022  1.00  0.00    -0.054 A 
HETATM   36  C21 UNL     1       1.415  51.993 -25.598  1.00  0.00     0.007 A 
HETATM   37  C22 UNL     1       2.359  51.558 -26.530  1.00  0.00     0.001 A 
HETATM   38  C23 UNL     1       2.061  51.580 -27.891  1.00  0.00     0.000 A 
HETATM   39  C24 UNL     1       0.816  52.039 -28.324  1.00  0.00     0.001 A 
HETATM   40  C25 UNL     1      -0.127  52.484 -27.395  1.00  0.00     0.007 A 
ENDBRANCH  34  35
ENDBRANCH  10  34
TORSDOF 10
ENDMDL
MODEL 4
REMARK minimizedAffinity -8.54181671
REMARK  10 active torsions:
REMARK  status: ('A' for Active; 'I' for Inactive)
REMARK    1  A    between atoms: N1_2  and  C3_4 
REMARK    2  A    between atoms: C3_4  and  C4_5 
REMARK    3  A    between atoms: C4_5  and  N2_6 
REMARK    4  A    between atoms: N2_6  and  C5_7 
REMARK    5  A    between atoms: C7_12  and  C8_13 
REMARK       I    between atoms: C8_13  and  N4_15 
REMARK    6  A    between atoms: N4_15  and  N5_16 
REMARK    7  A    between atoms: C9_18  and  C10_19 
REMARK    8  A    between atoms: C15_25  and  N7_26 
REMARK    9  A    between atoms: C18_29  and  C19_30 
REMARK   10  A    between atoms: C19_30  and  C20_31 
ROOT
HETATM    1  C5  UNL     1      -0.744  51.992 -21.634  1.00  0.00     0.087 A 
HETATM    2  N3  UNL     1      -1.852  51.509 -21.041  1.00  0.00    -0.340 N 
ATOM      3  H3  UNL     1      -1.893  51.337 -20.037  1.00  0.00     0.167 HD
HETATM    4  C6  UNL     1      -2.901  51.267 -21.843  1.00  0.00     0.088 A 
HETATM    5  S1  UNL     1      -4.361  50.701 -21.186  1.00  0.00    -0.064 SA
HETATM    6  C7  UNL     1      -5.130  50.674 -22.724  1.00  0.00     0.103 A 
HETATM    7  C15 UNL     1      -4.257  51.090 -23.717  1.00  0.00     0.061 A 
HETATM    8  C16 UNL     1      -2.958  51.440 -23.217  1.00  0.00     0.026 A 
HETATM    9  C17 UNL     1      -1.779  51.909 -23.825  1.00  0.00     0.027 A 
HETATM   10  C18 UNL     1      -0.649  52.180 -23.023  1.00  0.00    -0.015 A 
ENDROOT
BRANCH   6  11
HETATM   11  C8  UNL     1      -6.519  50.240 -22.868  1.00  0.00     0.279 C 
HETATM   12  O1  UNL     1      -7.253  50.037 -21.897  1.00  0.00    -0.265 OA
HETATM   13  N4  UNL     1      -6.944  50.067 -24.183  1.00  0.00    -0.266 N 
HETATM   14  H12 UNL     1      -6.282  50.228 -24.936  1.00  0.00     0.190 HD
BRANCH  13  15
HETATM   15  N5  UNL     1      -8.189  49.581 -24.465  1.00  0.00    -0.307 N 
HETATM   16  C9  UNL     1      -8.230  48.347 -24.851  1.00  0.00     0.136 C 
ATOM     17  H5  UNL     1      -9.029  50.152 -24.376  1.00  0.00     0.186 HD
BRANCH  16  18
HETATM   18  C10 UNL     1      -9.473  47.678 -25.150  1.00  0.00     0.050 A 
HETATM   19  C11 UNL     1     -10.297  47.039 -24.234  1.00  0.00     0.032 A 
HETATM   20  C12 UNL     1     -11.407  46.509 -24.931  1.00  0.00     0.019 A 
HETATM   21  C13 UNL     1     -11.257  46.852 -26.253  1.00  0.00     0.091 A 
HETATM   22  N6  UNL     1     -10.078  47.543 -26.386  1.00  0.00    -0.360 N 
HETATM   23  C14 UNL     1      -9.556  48.006 -27.656  1.00  0.00     0.155 C 
ENDBRANCH  16  18
ENDBRANCH  13  15
ENDBRANCH   6  11
BRANCH   7  24
HETATM   24  N7  UNL     1      -4.591  51.162 -25.033  1.00  0.00    -0.397 N 
HETATM   25  H20 UNL     1      -3.864  51.035 -25.730  1.00  0.00     0.156 HD
HETATM   26  H21 UNL     1      -5.463  50.708 -25.322  1.00  0.00     0.156 HD
ENDBRANCH   7  24
BRANCH   1  27
HETATM   27  N2  UNL     1       0.365  52.298 -20.819  1.00  0.00    -0.277 NA
HETATM   28  H11 UNL     1       0.646  53.265 -21.004  1.00  0.00     0.129 HD
BRANCH  27  29
HETATM   29  C4  UNL     1       0.121  52.207 -19.366  1.00  0.00     0.124 C 
BRANCH  29  30
HETATM   30  C3  UNL     1       1.288  52.853 -18.572  1.00  0.00     0.286 C 
BRANCH  30  31
HETATM   31  N1  UNL     1       1.237  52.480 -17.134  1.00  0.00     0.081 N 
HETATM   32  C1  UNL     1       2.585  52.513 -16.546  1.00  0.00     0.309 C 
HETATM   33  C2  UNL     1       0.664  51.137 -16.982  1.00  0.00     0.309 C 
ENDBRANCH  30  31
ENDBRANCH  29  30
ENDBRANCH  27  29
ENDBRANCH   1  27
BRANCH  10  34
HETATM   34  C19 UNL     1       0.620  52.637 -23.710  1.00  0.00     0.080 C 
BRANCH  34  35
HETATM   35  C20 UNL     1       0.526  52.616 -25.222  1.00  0.00    -0.054 A 
HETATM   36  C21 UNL     1       0.035  53.730 -25.915  1.00  0.00     0.007 A 
HETATM   37  C22 UNL     1      -0.049  53.715 -27.309  1.00  0.00     0.001 A 
HETATM   38  C23 UNL     1       0.365  52.593 -28.023  1.00  0.00     0.000 A 
HETATM   39  C24 UNL     1       0.865  51.480 -27.343  1.00  0.00     0.001 A 
HETATM   40  C25 UNL     1       0.942  51.489 -25.949  1.00  0.00     0.007 A 
ENDBRANCH  34  35
ENDBRANCH  10  34
TORSDOF 10
ENDMDL
MODEL 5
REMARK minimizedAffinity -8.42784023
REMARK  10 active torsions:
REMARK  status: ('A' for Active; 'I' for Inactive)
REMARK    1  A    between atoms: N1_2  and  C3_4 
REMARK    2  A    between atoms: C3_4  and  C4_5 
REMARK    3  A    between atoms: C4_5  and  N2_6 
REMARK    4  A    between atoms: N2_6  and  C5_7 
REMARK    5  A    between atoms: C7_12  and  C8_13 
REMARK       I    between atoms: C8_13  and  N4_15 
REMARK    6  A    between atoms: N4_15  and  N5_16 
REMARK    7  A    between atoms: C9_18  and  C10_19 
REMARK    8  A    between atoms: C15_25  and  N7_26 
REMARK    9  A    between atoms: C18_29  and  C19_30 
REMARK   10  A    between atoms: C19_30  and  C20_31 
ROOT
HETATM    1  C5  UNL     1      -2.979  48.872 -21.419  1.00  0.00     0.087 A 
HETATM    2  N3  UNL     1      -3.824  48.565 -22.422  1.00  0.00    -0.340 N 
ATOM      3  H3  UNL     1      -4.691  48.055 -22.256  1.00  0.00     0.167 HD
HETATM    4  C6  UNL     1      -3.463  48.968 -23.650  1.00  0.00     0.088 A 
HETATM    5  S1  UNL     1      -4.483  48.673 -24.975  1.00  0.00    -0.064 SA
HETATM    6  C7  UNL     1      -3.411  49.452 -26.071  1.00  0.00     0.103 A 
HETATM    7  C15 UNL     1      -2.287  49.919 -25.409  1.00  0.00     0.061 A 
HETATM    8  C16 UNL     1      -2.307  49.647 -23.999  1.00  0.00     0.026 A 
HETATM    9  C17 UNL     1      -1.417  49.924 -22.945  1.00  0.00     0.027 A 
HETATM   10  C18 UNL     1      -1.753  49.522 -21.634  1.00  0.00    -0.015 A 
ENDROOT
BRANCH   6  11
HETATM   11  C8  UNL     1      -3.723  49.546 -27.496  1.00  0.00     0.279 C 
HETATM   12  O1  UNL     1      -3.051  50.224 -28.278  1.00  0.00    -0.265 OA
HETATM   13  N4  UNL     1      -4.840  48.818 -27.899  1.00  0.00    -0.266 N 
HETATM   14  H12 UNL     1      -5.363  48.300 -27.200  1.00  0.00     0.190 HD
BRANCH  13  15
HETATM   15  N5  UNL     1      -5.300  48.883 -29.183  1.00  0.00    -0.307 N 
HETATM   16  C9  UNL     1      -6.181  47.993 -29.505  1.00  0.00     0.136 C 
ATOM     17  H5  UNL     1      -4.971  49.587 -29.844  1.00  0.00     0.186 HD
BRANCH  16  18
HETATM   18  C10 UNL     1      -6.790  47.953 -30.812  1.00  0.00     0.050 A 
HETATM   19  C11 UNL     1      -8.037  48.462 -31.148  1.00  0.00     0.032 A 
HETATM   20  C12 UNL     1      -8.262  48.215 -32.521  1.00  0.00     0.019 A 
HETATM   21  C13 UNL     1      -7.142  47.585 -33.008  1.00  0.00     0.091 A 
HETATM   22  N6  UNL     1      -6.262  47.410 -31.969  1.00  0.00    -0.360 N 
HETATM   23  C14 UNL     1      -4.996  46.716 -32.094  1.00  0.00     0.155 C 
ENDBRANCH  16  18
ENDBRANCH  13  15
ENDBRANCH   6  11
BRANCH   7  24
HETATM   24  N7  UNL     1      -1.265  50.571 -26.025  1.00  0.00    -0.397 N 
HETATM   25  H20 UNL     1      -0.331  50.496 -25.635  1.00  0.00     0.156 HD
HETATM   26  H21 UNL     1      -1.241  50.545 -27.049  1.00  0.00     0.156 HD
ENDBRANCH   7  24
BRANCH   1  27
HETATM   27  N2  UNL     1      -3.343  48.501 -20.108  1.00  0.00    -0.277 NA
HETATM   28  H11 UNL     1      -2.489  48.402 -19.551  1.00  0.00     0.129 HD
BRANCH  27  29
HETATM   29  C4  UNL     1      -4.195  49.471 -19.393  1.00  0.00     0.124 C 
BRANCH  29  30
HETATM   30  C3  UNL     1      -4.954  50.378 -20.398  1.00  0.00     0.286 C 
BRANCH  30  31
HETATM   31  N1  UNL     1      -6.420  50.135 -20.346  1.00  0.00     0.081 N 
HETATM   32  C1  UNL     1      -6.725  49.021 -19.436  1.00  0.00     0.309 C 
HETATM   33  C2  UNL     1      -6.929  49.830 -21.690  1.00  0.00     0.309 C 
ENDBRANCH  30  31
ENDBRANCH  29  30
ENDBRANCH  27  29
ENDBRANCH   1  27
BRANCH  10  34
HETATM   34  C19 UNL     1      -0.755  49.792 -20.528  1.00  0.00     0.080 C 
BRANCH  34  35
HETATM   35  C20 UNL     1      -0.264  51.225 -20.498  1.00  0.00    -0.054 A 
HETATM   36  C21 UNL     1      -0.600  52.064 -19.427  1.00  0.00     0.007 A 
HETATM   37  C22 UNL     1      -0.146  53.384 -19.393  1.00  0.00     0.001 A 
HETATM   38  C23 UNL     1       0.655  53.874 -20.423  1.00  0.00     0.000 A 
HETATM   39  C24 UNL     1       1.003  53.045 -21.490  1.00  0.00     0.001 A 
HETATM   40  C25 UNL     1       0.543  51.726 -21.530  1.00  0.00     0.007 A 
ENDBRANCH  34  35
ENDBRANCH  10  34
TORSDOF 10
ENDMDL
MODEL 6
REMARK minimizedAffinity -8.20670509
REMARK  10 active torsions:
REMARK  status: ('A' for Active; 'I' for Inactive)
REMARK    1  A    between atoms: N1_2  and  C3_4 
REMARK    2  A    between atoms: C3_4  and  C4_5 
REMARK    3  A    between atoms: C4_5  and  N2_6 
REMARK    4  A    between atoms: N2_6  and  C5_7 
REMARK    5  A    between atoms: C7_12  and  C8_13 
REMARK       I    between atoms: C8_13  and  N4_15 
REMARK    6  A    between atoms: N4_15  and  N5_16 
REMARK    7  A    between atoms: C9_18  and  C10_19 
REMARK    8  A    between atoms: C15_25  and  N7_26 
REMARK    9  A    between atoms: C18_29  and  C19_30 
REMARK   10  A    between atoms: C19_30  and  C20_31 
ROOT
HETATM    1  C5  UNL     1      -0.885  52.559 -23.655  1.00  0.00     0.087 A 
HETATM    2  N3  UNL     1      -2.016  52.345 -24.354  1.00  0.00    -0.340 N 
ATOM      3  H3  UNL     1      -2.089  52.585 -25.343  1.00  0.00     0.167 HD
HETATM    4  C6  UNL     1      -3.041  51.801 -23.680  1.00  0.00     0.088 A 
HETATM    5  S1  UNL     1      -4.495  51.448 -24.483  1.00  0.00    -0.064 SA
HETATM    6  C7  UNL     1      -5.215  50.809 -23.057  1.00  0.00     0.103 A 
HETATM    7  C15 UNL     1      -4.336  50.882 -21.989  1.00  0.00     0.061 A 
HETATM    8  C16 UNL     1      -3.067  51.454 -22.339  1.00  0.00     0.026 A 
HETATM    9  C17 UNL     1      -1.890  51.719 -21.615  1.00  0.00     0.027 A 
HETATM   10  C18 UNL     1      -0.783  52.290 -22.279  1.00  0.00    -0.015 A 
ENDROOT
BRANCH   6  11
HETATM   11  C8  UNL     1      -6.583  50.294 -23.067  1.00  0.00     0.279 C 
HETATM   12  O1  UNL     1      -7.219  50.083 -22.031  1.00  0.00    -0.265 OA
HETATM   13  N4  UNL     1      -7.109  50.054 -24.335  1.00  0.00    -0.266 N 
HETATM   14  H12 UNL     1      -6.523  50.227 -25.147  1.00  0.00     0.190 HD
BRANCH  13  15
HETATM   15  N5  UNL     1      -8.342  49.491 -24.493  1.00  0.00    -0.307 N 
HETATM   16  C9  UNL     1      -8.345  48.228 -24.775  1.00  0.00     0.136 C 
ATOM     17  H5  UNL     1      -9.203  50.029 -24.396  1.00  0.00     0.186 HD
BRANCH  16  18
HETATM   18  C10 UNL     1      -9.568  47.481 -24.936  1.00  0.00     0.050 A 
HETATM   19  C11 UNL     1     -10.220  46.758 -23.946  1.00  0.00     0.032 A 
HETATM   20  C12 UNL     1     -11.374  46.170 -24.513  1.00  0.00     0.019 A 
HETATM   21  C13 UNL     1     -11.423  46.562 -25.829  1.00  0.00     0.091 A 
HETATM   22  N6  UNL     1     -10.320  47.338 -26.088  1.00  0.00    -0.360 N 
HETATM   23  C14 UNL     1     -10.002  47.874 -27.396  1.00  0.00     0.155 C 
ENDBRANCH  16  18
ENDBRANCH  13  15
ENDBRANCH   6  11
BRANCH   7  24
HETATM   24  N7  UNL     1      -4.638  50.456 -20.733  1.00  0.00    -0.397 N 
HETATM   25  H20 UNL     1      -4.189  50.905 -19.942  1.00  0.00     0.156 HD
HETATM   26  H21 UNL     1      -5.621  50.249 -20.531  1.00  0.00     0.156 HD
ENDBRANCH   7  24
BRANCH   1  27
HETATM   27  N2  UNL     1       0.227  53.092 -24.338  1.00  0.00    -0.277 NA
HETATM   28  H11 UNL     1       0.806  53.603 -23.665  1.00  0.00     0.129 HD
BRANCH  27  29
HETATM   29  C4  UNL     1       1.111  52.095 -24.974  1.00  0.00     0.124 C 
BRANCH  29  30
HETATM   30  C3  UNL     1       0.349  51.308 -26.072  1.00  0.00     0.286 C 
BRANCH  30  31
HETATM   31  N1  UNL     1       1.035  51.411 -27.387  1.00  0.00     0.081 N 
HETATM   32  C1  UNL     1       2.468  51.684 -27.201  1.00  0.00     0.309 C 
HETATM   33  C2  UNL     1       0.428  52.481 -28.189  1.00  0.00     0.309 C 
ENDBRANCH  30  31
ENDBRANCH  29  30
ENDBRANCH  27  29
ENDBRANCH   1  27
BRANCH  10  34
HETATM   34  C19 UNL     1       0.452  52.609 -21.464  1.00  0.00     0.080 C 
BRANCH  34  35
HETATM   35  C20 UNL     1       0.382  52.095 -20.041  1.00  0.00    -0.054 A 
HETATM   36  C21 UNL     1      -0.126  50.816 -19.776  1.00  0.00     0.007 A 
HETATM   37  C22 UNL     1      -0.189  50.338 -18.466  1.00  0.00     0.001 A 
HETATM   38  C23 UNL     1       0.265  51.126 -17.411  1.00  0.00     0.000 A 
HETATM   39  C24 UNL     1       0.782  52.398 -17.664  1.00  0.00     0.001 A 
HETATM   40  C25 UNL     1       0.838  52.883 -18.973  1.00  0.00     0.007 A 
ENDBRANCH  34  35
ENDBRANCH  10  34
TORSDOF 10
ENDMDL
MODEL 7
REMARK minimizedAffinity -8.09639835
REMARK  10 active torsions:
REMARK  status: ('A' for Active; 'I' for Inactive)
REMARK    1  A    between atoms: N1_2  and  C3_4 
REMARK    2  A    between atoms: C3_4  and  C4_5 
REMARK    3  A    between atoms: C4_5  and  N2_6 
REMARK    4  A    between atoms: N2_6  and  C5_7 
REMARK    5  A    between atoms: C7_12  and  C8_13 
REMARK       I    between atoms: C8_13  and  N4_15 
REMARK    6  A    between atoms: N4_15  and  N5_16 
REMARK    7  A    between atoms: C9_18  and  C10_19 
REMARK    8  A    between atoms: C15_25  and  N7_26 
REMARK    9  A    between atoms: C18_29  and  C19_30 
REMARK   10  A    between atoms: C19_30  and  C20_31 
ROOT
HETATM    1  C5  UNL     1      -1.102  51.078 -23.639  1.00  0.00     0.087 A 
HETATM    2  N3  UNL     1      -1.294  50.328 -22.537  1.00  0.00    -0.340 N 
ATOM      3  H3  UNL     1      -1.746  49.415 -22.580  1.00  0.00     0.167 HD
HETATM    4  C6  UNL     1      -0.859  50.848 -21.378  1.00  0.00     0.088 A 
HETATM    5  S1  UNL     1      -1.012  49.961 -19.938  1.00  0.00    -0.064 SA
HETATM    6  C7  UNL     1      -0.261  51.198 -19.008  1.00  0.00     0.103 A 
HETATM    7  C15 UNL     1       0.087  52.273 -19.811  1.00  0.00     0.061 A 
HETATM    8  C16 UNL     1      -0.252  52.080 -21.192  1.00  0.00     0.026 A 
HETATM    9  C17 UNL     1      -0.094  52.866 -22.349  1.00  0.00     0.027 A 
HETATM   10  C18 UNL     1      -0.535  52.362 -23.592  1.00  0.00    -0.015 A 
ENDROOT
BRANCH   6  11
HETATM   11  C8  UNL     1      -0.073  51.051 -17.566  1.00  0.00     0.279 C 
HETATM   12  O1  UNL     1       1.030  51.167 -17.027  1.00  0.00    -0.265 OA
HETATM   13  N4  UNL     1      -1.234  50.764 -16.851  1.00  0.00    -0.266 N 
HETATM   14  H12 UNL     1      -2.107  50.658 -17.360  1.00  0.00     0.190 HD
BRANCH  13  15
HETATM   15  N5  UNL     1      -1.194  50.514 -15.510  1.00  0.00    -0.307 N 
HETATM   16  C9  UNL     1      -2.343  50.341 -14.941  1.00  0.00     0.136 C 
ATOM     17  H5  UNL     1      -0.317  50.466 -14.991  1.00  0.00     0.186 HD
BRANCH  16  18
HETATM   18  C10 UNL     1      -2.465  50.031 -13.537  1.00  0.00     0.050 A 
HETATM   19  C11 UNL     1      -2.307  48.779 -12.960  1.00  0.00     0.032 A 
HETATM   20  C12 UNL     1      -2.515  48.903 -11.568  1.00  0.00     0.019 A 
HETATM   21  C13 UNL     1      -2.772  50.229 -11.313  1.00  0.00     0.091 A 
HETATM   22  N6  UNL     1      -2.760  50.906 -12.507  1.00  0.00    -0.360 N 
HETATM   23  C14 UNL     1      -3.059  52.318 -12.635  1.00  0.00     0.155 C 
ENDBRANCH  16  18
ENDBRANCH  13  15
ENDBRANCH   6  11
BRANCH   7  24
HETATM   24  N7  UNL     1       0.691  53.398 -19.344  1.00  0.00    -0.397 N 
HETATM   25  H20 UNL     1       0.528  54.277 -19.826  1.00  0.00     0.156 HD
HETATM   26  H21 UNL     1       0.714  53.532 -18.329  1.00  0.00     0.156 HD
ENDBRANCH   7  24
BRANCH   1  27
HETATM   27  N2  UNL     1      -1.509  50.548 -24.881  1.00  0.00    -0.277 NA
HETATM   28  H11 UNL     1      -0.781  49.909 -25.214  1.00  0.00     0.129 HD
BRANCH  27  29
HETATM   29  C4  UNL     1      -2.764  49.771 -24.852  1.00  0.00     0.124 C 
BRANCH  29  30
HETATM   30  C3  UNL     1      -2.867  48.849 -26.096  1.00  0.00     0.286 C 
BRANCH  30  31
HETATM   31  N1  UNL     1      -3.819  49.396 -27.098  1.00  0.00     0.081 N 
HETATM   32  C1  UNL     1      -4.358  48.316 -27.939  1.00  0.00     0.309 C 
HETATM   33  C2  UNL     1      -3.146  50.391 -27.943  1.00  0.00     0.309 C 
ENDBRANCH  30  31
ENDBRANCH  29  30
ENDBRANCH  27  29
ENDBRANCH   1  27
BRANCH  10  34
HETATM   34  C19 UNL     1      -0.396  53.249 -24.811  1.00  0.00     0.080 C 
BRANCH  34  35
HETATM   35  C20 UNL     1       0.484  52.652 -25.890  1.00  0.00    -0.054 A 
HETATM   36  C21 UNL     1       1.685  52.016 -25.551  1.00  0.00     0.007 A 
HETATM   37  C22 UNL     1       2.496  51.460 -26.542  1.00  0.00     0.001 A 
HETATM   38  C23 UNL     1       2.109  51.526 -27.880  1.00  0.00     0.000 A 
HETATM   39  C24 UNL     1       0.910  52.150 -28.229  1.00  0.00     0.001 A 
HETATM   40  C25 UNL     1       0.102  52.714 -27.239  1.00  0.00     0.007 A 
ENDBRANCH  34  35
ENDBRANCH  10  34
TORSDOF 10
ENDMDL
MODEL 8
REMARK minimizedAffinity -8.03839779
REMARK  10 active torsions:
REMARK  status: ('A' for Active; 'I' for Inactive)
REMARK    1  A    between atoms: N1_2  and  C3_4 
REMARK    2  A    between atoms: C3_4  and  C4_5 
REMARK    3  A    between atoms: C4_5  and  N2_6 
REMARK    4  A    between atoms: N2_6  and  C5_7 
REMARK    5  A    between atoms: C7_12  and  C8_13 
REMARK       I    between atoms: C8_13  and  N4_15 
REMARK    6  A    between atoms: N4_15  and  N5_16 
REMARK    7  A    between atoms: C9_18  and  C10_19 
REMARK    8  A    between atoms: C15_25  and  N7_26 
REMARK    9  A    between atoms: C18_29  and  C19_30 
REMARK   10  A    between atoms: C19_30  and  C20_31 
ROOT
HETATM    1  C5  UNL     1      -4.306  48.896 -22.065  1.00  0.00     0.087 A 
HETATM    2  N3  UNL     1      -5.328  48.587 -22.885  1.00  0.00    -0.340 N 
ATOM      3  H3  UNL     1      -6.277  48.460 -22.535  1.00  0.00     0.167 HD
HETATM    4  C6  UNL     1      -5.030  48.456 -24.187  1.00  0.00     0.088 A 
HETATM    5  S1  UNL     1      -6.256  48.115 -25.310  1.00  0.00    -0.064 SA
HETATM    6  C7  UNL     1      -5.156  48.132 -26.632  1.00  0.00     0.103 A 
HETATM    7  C15 UNL     1      -3.867  48.391 -26.194  1.00  0.00     0.061 A 
HETATM    8  C16 UNL     1      -3.781  48.585 -24.774  1.00  0.00     0.026 A 
HETATM    9  C17 UNL     1      -2.718  48.869 -23.897  1.00  0.00     0.027 A 
HETATM   10  C18 UNL     1      -2.981  49.018 -22.518  1.00  0.00    -0.015 A 
ENDROOT
BRANCH   6  11
HETATM   11  C8  UNL     1      -5.612  47.882 -27.999  1.00  0.00     0.279 C 
HETATM   12  O1  UNL     1      -6.257  46.877 -28.308  1.00  0.00    -0.265 OA
HETATM   13  N4  UNL     1      -5.254  48.861 -28.922  1.00  0.00    -0.266 N 
HETATM   14  H12 UNL     1      -4.701  49.652 -28.606  1.00  0.00     0.190 HD
BRANCH  13  15
HETATM   15  N5  UNL     1      -5.535  48.716 -30.250  1.00  0.00    -0.307 N 
HETATM   16  C9  UNL     1      -6.650  48.117 -30.521  1.00  0.00     0.136 C 
ATOM     17  H5  UNL     1      -4.909  49.056 -30.980  1.00  0.00     0.186 HD
BRANCH  16  18
HETATM   18  C10 UNL     1      -7.106  47.920 -31.875  1.00  0.00     0.050 A 
HETATM   19  C11 UNL     1      -8.421  47.997 -32.314  1.00  0.00     0.032 A 
HETATM   20  C12 UNL     1      -8.442  47.735 -33.702  1.00  0.00     0.019 A 
HETATM   21  C13 UNL     1      -7.141  47.527 -34.094  1.00  0.00     0.091 A 
HETATM   22  N6  UNL     1      -6.337  47.621 -32.985  1.00  0.00    -0.360 N 
HETATM   23  C14 UNL     1      -4.907  47.391 -33.006  1.00  0.00     0.155 C 
ENDBRANCH  16  18
ENDBRANCH  13  15
ENDBRANCH   6  11
BRANCH   7  24
HETATM   24  N7  UNL     1      -2.789  48.458 -27.019  1.00  0.00    -0.397 N 
HETATM   25  H20 UNL     1      -1.876  48.209 -26.653  1.00  0.00     0.156 HD
HETATM   26  H21 UNL     1      -2.909  48.114 -27.978  1.00  0.00     0.156 HD
ENDBRANCH   7  24
BRANCH   1  27
HETATM   27  N2  UNL     1      -4.586  49.082 -20.695  1.00  0.00    -0.277 NA
HETATM   28  H11 UNL     1      -3.719  49.351 -20.221  1.00  0.00     0.129 HD
BRANCH  27  29
HETATM   29  C4  UNL     1      -5.571  50.140 -20.393  1.00  0.00     0.124 C 
BRANCH  29  30
HETATM   30  C3  UNL     1      -7.016  49.579 -20.460  1.00  0.00     0.286 C 
BRANCH  30  31
HETATM   31  N1  UNL     1      -7.312  48.702 -19.296  1.00  0.00     0.081 N 
HETATM   32  C1  UNL     1      -8.582  49.094 -18.667  1.00  0.00     0.309 C 
HETATM   33  C2  UNL     1      -6.225  48.788 -18.312  1.00  0.00     0.309 C 
ENDBRANCH  30  31
ENDBRANCH  29  30
ENDBRANCH  27  29
ENDBRANCH   1  27
BRANCH  10  34
HETATM   34  C19 UNL     1      -1.811  49.276 -21.592  1.00  0.00     0.080 C 
BRANCH  34  35
HETATM   35  C20 UNL     1      -1.026  50.520 -21.951  1.00  0.00    -0.054 A 
HETATM   36  C21 UNL     1      -0.017  50.989 -21.098  1.00  0.00     0.007 A 
HETATM   37  C22 UNL     1       0.713  52.133 -21.427  1.00  0.00     0.001 A 
HETATM   38  C23 UNL     1       0.449  52.812 -22.615  1.00  0.00     0.000 A 
HETATM   39  C24 UNL     1      -0.546  52.349 -23.477  1.00  0.00     0.001 A 
HETATM   40  C25 UNL     1      -1.284  51.210 -23.146  1.00  0.00     0.007 A 
ENDBRANCH  34  35
ENDBRANCH  10  34
TORSDOF 10
ENDMDL
MODEL 9
REMARK minimizedAffinity -8.00816822
REMARK  10 active torsions:
REMARK  status: ('A' for Active; 'I' for Inactive)
REMARK    1  A    between atoms: N1_2  and  C3_4 
REMARK    2  A    between atoms: C3_4  and  C4_5 
REMARK    3  A    between atoms: C4_5  and  N2_6 
REMARK    4  A    between atoms: N2_6  and  C5_7 
REMARK    5  A    between atoms: C7_12  and  C8_13 
REMARK       I    between atoms: C8_13  and  N4_15 
REMARK    6  A    between atoms: N4_15  and  N5_16 
REMARK    7  A    between atoms: C9_18  and  C10_19 
REMARK    8  A    between atoms: C15_25  and  N7_26 
REMARK    9  A    between atoms: C18_29  and  C19_30 
REMARK   10  A    between atoms: C19_30  and  C20_31 
ROOT
HETATM    1  C5  UNL     1      -4.084  51.448 -23.616  1.00  0.00     0.087 A 
HETATM    2  N3  UNL     1      -3.961  51.277 -22.286  1.00  0.00    -0.340 N 
ATOM      3  H3  UNL     1      -4.742  50.960 -21.711  1.00  0.00     0.167 HD
HETATM    4  C6  UNL     1      -2.757  51.546 -21.759  1.00  0.00     0.088 A 
HETATM    5  S1  UNL     1      -2.485  51.316 -20.098  1.00  0.00    -0.064 SA
HETATM    6  C7  UNL     1      -0.843  51.812 -20.221  1.00  0.00     0.103 A 
HETATM    7  C15 UNL     1      -0.529  52.153 -21.527  1.00  0.00     0.061 A 
HETATM    8  C16 UNL     1      -1.633  51.999 -22.432  1.00  0.00     0.026 A 
HETATM    9  C17 UNL     1      -1.791  52.209 -23.814  1.00  0.00     0.027 A 
HETATM   10  C18 UNL     1      -3.038  51.939 -24.416  1.00  0.00    -0.015 A 
ENDROOT
BRANCH   6  11
HETATM   11  C8  UNL     1       0.025  51.851 -19.045  1.00  0.00     0.279 C 
HETATM   12  O1  UNL     1       0.914  52.694 -18.905  1.00  0.00    -0.265 OA
HETATM   13  N4  UNL     1      -0.226  50.858 -18.100  1.00  0.00    -0.266 N 
HETATM   14  H12 UNL     1      -0.958  50.179 -18.288  1.00  0.00     0.190 HD
BRANCH  13  15
HETATM   15  N5  UNL     1       0.563  50.719 -16.995  1.00  0.00    -0.307 N 
HETATM   16  C9  UNL     1       0.528  51.705 -16.159  1.00  0.00     0.136 C 
ATOM     17  H5  UNL     1       1.141  49.893 -16.839  1.00  0.00     0.186 HD
BRANCH  16  18
HETATM   18  C10 UNL     1       1.277  51.693 -14.926  1.00  0.00     0.050 A 
HETATM   19  C11 UNL     1       2.632  51.418 -14.795  1.00  0.00     0.032 A 
HETATM   20  C12 UNL     1       2.972  51.502 -13.426  1.00  0.00     0.019 A 
HETATM   21  C13 UNL     1       1.830  51.850 -12.746  1.00  0.00     0.091 A 
HETATM   22  N6  UNL     1       0.802  51.946 -13.652  1.00  0.00    -0.360 N 
HETATM   23  C14 UNL     1      -0.571  52.229 -13.285  1.00  0.00     0.155 C 
ENDBRANCH  16  18
ENDBRANCH  13  15
ENDBRANCH   6  11
BRANCH   7  24
HETATM   24  N7  UNL     1       0.698  52.588 -21.919  1.00  0.00    -0.397 N 
HETATM   25  H20 UNL     1       0.763  53.214 -22.714  1.00  0.00     0.156 HD
HETATM   26  H21 UNL     1       1.359  52.855 -21.183  1.00  0.00     0.156 HD
ENDBRANCH   7  24
BRANCH   1  27
HETATM   27  N2  UNL     1      -5.323  51.137 -24.214  1.00  0.00    -0.277 NA
HETATM   28  H11 UNL     1      -5.202  51.144 -25.231  1.00  0.00     0.129 HD
BRANCH  27  29
HETATM   29  C4  UNL     1      -5.872  49.811 -23.870  1.00  0.00     0.124 C 
BRANCH  29  30
HETATM   30  C3  UNL     1      -7.115  49.954 -22.952  1.00  0.00     0.286 C 
BRANCH  30  31
HETATM   31  N1  UNL     1      -7.006  49.082 -21.753  1.00  0.00     0.081 N 
HETATM   32  C1  UNL     1      -8.239  48.302 -21.570  1.00  0.00     0.309 C 
HETATM   33  C2  UNL     1      -6.756  49.898 -20.558  1.00  0.00     0.309 C 
ENDBRANCH  30  31
ENDBRANCH  29  30
ENDBRANCH  27  29
ENDBRANCH   1  27
BRANCH  10  34
HETATM   34  C19 UNL     1      -3.192  52.220 -25.896  1.00  0.00     0.080 C 
BRANCH  34  35
HETATM   35  C20 UNL     1      -1.881  52.183 -26.653  1.00  0.00    -0.054 A 
HETATM   36  C21 UNL     1      -1.468  53.291 -27.406  1.00  0.00     0.007 A 
HETATM   37  C22 UNL     1      -0.258  53.263 -28.101  1.00  0.00     0.001 A 
HETATM   38  C23 UNL     1       0.556  52.133 -28.043  1.00  0.00     0.000 A 
HETATM   39  C24 UNL     1       0.160  51.027 -27.289  1.00  0.00     0.001 A 
HETATM   40  C25 UNL     1      -1.054  51.050 -26.599  1.00  0.00     0.007 A 
ENDBRANCH  34  35
ENDBRANCH  10  34
TORSDOF 10
ENDMDL
