MODEL 1
REMARK minimizedAffinity -9.46782303
REMARK  5 active torsions:
REMARK  status: ('A' for Active; 'I' for Inactive)
REMARK    1  A    between atoms: O1_2  and  C2_3 
REMARK    2  A    between atoms: C6_11  and  N3_12 
REMARK    3  A    between atoms: N3_12  and  C7_13 
REMARK    4  A    between atoms: C15_23  and  O2_24 
REMARK    5  A    between atoms: O2_24  and  C16_25 
REMARK       I    between atoms: C16_25  and  N4_27 
ROOT
HETATM    1  C2  UNL     1       0.381  52.667 -23.187  1.00  0.00     0.104 A 
HETATM    2  C3  UNL     1       0.644  53.579 -24.211  1.00  0.00     0.070 A 
HETATM    3  C4  UNL     1      -0.013  53.522 -25.438  1.00  0.00     0.050 A 
HETATM    4  N1  UNL     1       0.295  54.434 -26.364  1.00  0.00    -0.351 N 
ATOM      5  H1  UNL     1       0.994  55.156 -26.191  1.00  0.00     0.166 HD
HETATM    6  C5  UNL     1      -0.356  54.354 -27.530  1.00  0.00     0.182 A 
HETATM    7  N2  UNL     1      -1.271  53.441 -27.863  1.00  0.00    -0.338 N 
ATOM      8  H2  UNL     1      -1.711  53.434 -28.784  1.00  0.00     0.168 HD
HETATM    9  C6  UNL     1      -1.584  52.530 -26.925  1.00  0.00     0.119 A 
HETATM   10  C13 UNL     1      -0.972  52.521 -25.657  1.00  0.00     0.038 A 
HETATM   11  C14 UNL     1      -1.264  51.602 -24.626  1.00  0.00     0.058 A 
HETATM   12  C15 UNL     1      -0.572  51.676 -23.420  1.00  0.00     0.115 A 
ENDROOT
BRANCH  12  13
HETATM   13  O2  UNL     1      -0.892  50.766 -22.408  1.00  0.00    -0.259 OA
BRANCH  13  14
HETATM   14  C16 UNL     1      -1.956  51.176 -21.620  1.00  0.00     0.368 C 
HETATM   15  O3  UNL     1      -2.804  51.990 -21.985  1.00  0.00    -0.238 OA
HETATM   16  N4  UNL     1      -1.944  50.617 -20.332  1.00  0.00    -0.320 N 
HETATM   17  C17 UNL     1      -2.701  51.404 -19.353  1.00  0.00     0.158 C 
HETATM   18  C21 UNL     1      -0.803  49.816 -19.817  1.00  0.00     0.113 C 
HETATM   19  C18 UNL     1      -2.883  50.741 -17.987  1.00  0.00     0.291 C 
HETATM   20  N5  UNL     1      -1.587  50.299 -17.445  1.00  0.00     0.087 N 
HETATM   21  C19 UNL     1      -1.758  49.734 -16.106  1.00  0.00     0.310 C 
HETATM   22  C20 UNL     1      -1.030  49.293 -18.365  1.00  0.00     0.296 C 
HETATM   23  C22 UNL     1      -0.487  48.577 -20.674  1.00  0.00     0.034 C 
ENDBRANCH  13  14
ENDBRANCH  12  13
BRANCH   1  24
HETATM   24  O1  UNL     1       0.970  52.662 -21.952  1.00  0.00    -0.353 OA
HETATM   25  C1  UNL     1       1.344  53.921 -21.407  1.00  0.00     0.210 C 
ENDBRANCH   1  24
BRANCH   9  26
HETATM   26  N3  UNL     1      -2.529  51.515 -27.242  1.00  0.00    -0.339 N 
HETATM   27  H6  UNL     1      -3.197  51.903 -27.901  1.00  0.00     0.167 HD
BRANCH  26  28
HETATM   28  C7  UNL     1      -3.136  50.636 -26.310  1.00  0.00     0.074 A 
HETATM   29  C8  UNL     1      -2.758  49.283 -26.303  1.00  0.00     0.033 A 
HETATM   30  C9  UNL     1      -3.320  48.383 -25.392  1.00  0.00     0.004 A 
HETATM   31  C10 UNL     1      -4.254  48.827 -24.458  1.00  0.00     0.027 A 
HETATM   32  C11 UNL     1      -4.617  50.173 -24.431  1.00  0.00     0.074 A 
HETATM   33 CL1  UNL     1      -5.746  50.712 -23.245  1.00  0.00    -0.081 Cl
HETATM   34  C12 UNL     1      -4.056  51.072 -25.342  1.00  0.00     0.164 A 
HETATM   35  F1  UNL     1      -4.372  52.375 -25.251  1.00  0.00    -0.202 F 
ENDBRANCH  26  28
ENDBRANCH   9  26
TORSDOF 5
ENDMDL
MODEL 2
REMARK minimizedAffinity -9.12478733
REMARK  5 active torsions:
REMARK  status: ('A' for Active; 'I' for Inactive)
REMARK    1  A    between atoms: O1_2  and  C2_3 
REMARK    2  A    between atoms: C6_11  and  N3_12 
REMARK    3  A    between atoms: N3_12  and  C7_13 
REMARK    4  A    between atoms: C15_23  and  O2_24 
REMARK    5  A    between atoms: O2_24  and  C16_25 
REMARK       I    between atoms: C16_25  and  N4_27 
ROOT
HETATM    1  C2  UNL     1      -0.148  52.632 -23.229  1.00  0.00     0.104 A 
HETATM    2  C3  UNL     1       0.940  52.518 -24.097  1.00  0.00     0.070 A 
HETATM    3  C4  UNL     1       0.781  52.200 -25.444  1.00  0.00     0.050 A 
HETATM    4  N1  UNL     1       1.873  52.113 -26.207  1.00  0.00    -0.351 N 
ATOM      5  H1  UNL     1       2.805  52.270 -25.826  1.00  0.00     0.166 HD
HETATM    6  C5  UNL     1       1.686  51.809 -27.497  1.00  0.00     0.182 A 
HETATM    7  N2  UNL     1       0.514  51.567 -28.090  1.00  0.00    -0.338 N 
ATOM      8  H2  UNL     1       0.454  51.321 -29.077  1.00  0.00     0.168 HD
HETATM    9  C6  UNL     1      -0.583  51.664 -27.319  1.00  0.00     0.119 A 
HETATM   10  C13 UNL     1      -0.510  51.988 -25.951  1.00  0.00     0.038 A 
HETATM   11  C14 UNL     1      -1.624  52.117 -25.091  1.00  0.00     0.058 A 
HETATM   12  C15 UNL     1      -1.425  52.415 -23.746  1.00  0.00     0.115 A 
ENDROOT
BRANCH  12  13
HETATM   13  O2  UNL     1      -2.543  52.555 -22.919  1.00  0.00    -0.259 OA
BRANCH  13  14
HETATM   14  C16 UNL     1      -3.676  51.932 -23.420  1.00  0.00     0.368 C 
HETATM   15  O3  UNL     1      -4.102  52.104 -24.562  1.00  0.00    -0.238 OA
HETATM   16  N4  UNL     1      -4.332  51.125 -22.477  1.00  0.00    -0.320 N 
HETATM   17  C17 UNL     1      -5.746  50.901 -22.793  1.00  0.00     0.158 C 
HETATM   18  C21 UNL     1      -3.948  51.097 -21.042  1.00  0.00     0.113 C 
HETATM   19  C18 UNL     1      -6.455  49.874 -21.908  1.00  0.00     0.291 C 
HETATM   20  N5  UNL     1      -6.259  50.189 -20.483  1.00  0.00     0.087 N 
HETATM   21  C19 UNL     1      -7.001  49.249 -19.643  1.00  0.00     0.310 C 
HETATM   22  C20 UNL     1      -4.817  50.115 -20.196  1.00  0.00     0.296 C 
HETATM   23  C22 UNL     1      -2.484  50.684 -20.807  1.00  0.00     0.034 C 
ENDBRANCH  13  14
ENDBRANCH  12  13
BRANCH   1  24
HETATM   24  O1  UNL     1      -0.079  52.953 -21.901  1.00  0.00    -0.353 OA
HETATM   25  C1  UNL     1       1.122  52.620 -21.215  1.00  0.00     0.210 C 
ENDBRANCH   1  24
BRANCH   9  26
HETATM   26  N3  UNL     1      -1.854  51.383 -27.895  1.00  0.00    -0.339 N 
HETATM   27  H6  UNL     1      -2.385  52.248 -27.918  1.00  0.00     0.167 HD
BRANCH  26  28
HETATM   28  C7  UNL     1      -2.662  50.258 -27.596  1.00  0.00     0.074 A 
HETATM   29  C8  UNL     1      -2.481  49.594 -26.371  1.00  0.00     0.033 A 
HETATM   30  C9  UNL     1      -3.266  48.489 -26.028  1.00  0.00     0.004 A 
HETATM   31  C10 UNL     1      -4.259  48.042 -26.897  1.00  0.00     0.027 A 
HETATM   32  C11 UNL     1      -4.473  48.709 -28.104  1.00  0.00     0.074 A 
HETATM   33 CL1  UNL     1      -5.731  48.165 -29.149  1.00  0.00    -0.081 Cl
HETATM   34  C12 UNL     1      -3.689  49.812 -28.446  1.00  0.00     0.164 A 
HETATM   35  F1  UNL     1      -3.959  50.478 -29.582  1.00  0.00    -0.202 F 
ENDBRANCH  26  28
ENDBRANCH   9  26
TORSDOF 5
ENDMDL
MODEL 3
REMARK minimizedAffinity -8.9169178
REMARK  5 active torsions:
REMARK  status: ('A' for Active; 'I' for Inactive)
REMARK    1  A    between atoms: O1_2  and  C2_3 
REMARK    2  A    between atoms: C6_11  and  N3_12 
REMARK    3  A    between atoms: N3_12  and  C7_13 
REMARK    4  A    between atoms: C15_23  and  O2_24 
REMARK    5  A    between atoms: O2_24  and  C16_25 
REMARK       I    between atoms: C16_25  and  N4_27 
ROOT
HETATM    1  C2  UNL     1       0.360  52.342 -22.782  1.00  0.00     0.104 A 
HETATM    2  C3  UNL     1       0.710  53.260 -23.775  1.00  0.00     0.070 A 
HETATM    3  C4  UNL     1       0.076  53.284 -25.015  1.00  0.00     0.050 A 
HETATM    4  N1  UNL     1       0.468  54.195 -25.909  1.00  0.00    -0.351 N 
ATOM      5  H1  UNL     1       1.214  54.860 -25.702  1.00  0.00     0.166 HD
HETATM    6  C5  UNL     1      -0.163  54.195 -27.088  1.00  0.00     0.182 A 
HETATM    7  N2  UNL     1      -1.135  53.361 -27.465  1.00  0.00    -0.338 N 
ATOM      8  H2  UNL     1      -1.555  53.411 -28.392  1.00  0.00     0.168 HD
HETATM    9  C6  UNL     1      -1.532  52.450 -26.559  1.00  0.00     0.119 A 
HETATM   10  C13 UNL     1      -0.948  52.362 -25.280  1.00  0.00     0.038 A 
HETATM   11  C14 UNL     1      -1.327  51.439 -24.281  1.00  0.00     0.058 A 
HETATM   12  C15 UNL     1      -0.657  51.429 -23.062  1.00  0.00     0.115 A 
ENDROOT
BRANCH  12  13
HETATM   13  O2  UNL     1      -1.062  50.518 -22.082  1.00  0.00    -0.259 OA
BRANCH  13  14
HETATM   14  C16 UNL     1      -2.307  50.809 -21.545  1.00  0.00     0.368 C 
HETATM   15  O3  UNL     1      -2.893  51.878 -21.717  1.00  0.00    -0.238 OA
HETATM   16  N4  UNL     1      -2.815  49.787 -20.729  1.00  0.00    -0.320 N 
HETATM   17  C17 UNL     1      -3.816  50.259 -19.766  1.00  0.00     0.158 C 
HETATM   18  C21 UNL     1      -2.012  48.599 -20.338  1.00  0.00     0.113 C 
HETATM   19  C18 UNL     1      -4.541  49.159 -18.989  1.00  0.00     0.291 C 
HETATM   20  N5  UNL     1      -3.576  48.239 -18.364  1.00  0.00     0.087 N 
HETATM   21  C19 UNL     1      -4.273  47.234 -17.561  1.00  0.00     0.310 C 
HETATM   22  C20 UNL     1      -2.799  47.598 -19.438  1.00  0.00     0.296 C 
HETATM   23  C22 UNL     1      -1.500  47.783 -21.540  1.00  0.00     0.034 C 
ENDBRANCH  13  14
ENDBRANCH  12  13
BRANCH   1  24
HETATM   24  O1  UNL     1       0.922  52.260 -21.538  1.00  0.00    -0.353 OA
HETATM   25  C1  UNL     1       0.660  53.328 -20.636  1.00  0.00     0.210 C 
ENDBRANCH   1  24
BRANCH   9  26
HETATM   26  N3  UNL     1      -2.542  51.516 -26.922  1.00  0.00    -0.339 N 
HETATM   27  H6  UNL     1      -3.190  51.982 -27.548  1.00  0.00     0.167 HD
BRANCH  26  28
HETATM   28  C7  UNL     1      -3.193  50.623 -26.035  1.00  0.00     0.074 A 
HETATM   29  C8  UNL     1      -2.824  49.267 -26.038  1.00  0.00     0.033 A 
HETATM   30  C9  UNL     1      -3.430  48.353 -25.170  1.00  0.00     0.004 A 
HETATM   31  C10 UNL     1      -4.402  48.785 -24.270  1.00  0.00     0.027 A 
HETATM   32  C11 UNL     1      -4.759  50.133 -24.232  1.00  0.00     0.074 A 
HETATM   33 CL1  UNL     1      -5.936  50.656 -23.087  1.00  0.00    -0.081 Cl
HETATM   34  C12 UNL     1      -4.154  51.045 -25.100  1.00  0.00     0.164 A 
HETATM   35  F1  UNL     1      -4.466  52.349 -24.998  1.00  0.00    -0.202 F 
ENDBRANCH  26  28
ENDBRANCH   9  26
TORSDOF 5
ENDMDL
MODEL 4
REMARK minimizedAffinity -8.75237942
REMARK  5 active torsions:
REMARK  status: ('A' for Active; 'I' for Inactive)
REMARK    1  A    between atoms: O1_2  and  C2_3 
REMARK    2  A    between atoms: C6_11  and  N3_12 
REMARK    3  A    between atoms: N3_12  and  C7_13 
REMARK    4  A    between atoms: C15_23  and  O2_24 
REMARK    5  A    between atoms: O2_24  and  C16_25 
REMARK       I    between atoms: C16_25  and  N4_27 
ROOT
HETATM    1  C2  UNL     1      -0.231  51.319 -18.604  1.00  0.00     0.104 A 
HETATM    2  C3  UNL     1       0.403  52.519 -18.937  1.00  0.00     0.070 A 
HETATM    3  C4  UNL     1       0.628  52.893 -20.260  1.00  0.00     0.050 A 
HETATM    4  N1  UNL     1       1.238  54.058 -20.493  1.00  0.00    -0.351 N 
ATOM      5  H1  UNL     1       1.540  54.665 -19.731  1.00  0.00     0.166 HD
HETATM    6  C5  UNL     1       1.436  54.390 -21.774  1.00  0.00     0.182 A 
HETATM    7  N2  UNL     1       1.099  53.662 -22.840  1.00  0.00    -0.338 N 
ATOM      8  H2  UNL     1       1.302  53.975 -23.789  1.00  0.00     0.168 HD
HETATM    9  C6  UNL     1       0.477  52.494 -22.601  1.00  0.00     0.119 A 
HETATM   10  C13 UNL     1       0.206  52.045 -21.295  1.00  0.00     0.038 A 
HETATM   11  C14 UNL     1      -0.453  50.836 -20.977  1.00  0.00     0.058 A 
HETATM   12  C15 UNL     1      -0.642  50.484 -19.644  1.00  0.00     0.115 A 
ENDROOT
BRANCH  12  13
HETATM   13  O2  UNL     1      -1.312  49.292 -19.354  1.00  0.00    -0.259 OA
BRANCH  13  14
HETATM   14  C16 UNL     1      -1.515  48.494 -20.470  1.00  0.00     0.368 C 
HETATM   15  O3  UNL     1      -0.650  47.767 -20.957  1.00  0.00    -0.238 OA
HETATM   16  N4  UNL     1      -2.793  48.638 -21.033  1.00  0.00    -0.320 N 
HETATM   17  C17 UNL     1      -2.850  48.245 -22.444  1.00  0.00     0.158 C 
HETATM   18  C21 UNL     1      -3.754  49.679 -20.583  1.00  0.00     0.113 C 
HETATM   19  C18 UNL     1      -4.254  48.197 -23.050  1.00  0.00     0.291 C 
HETATM   20  N5  UNL     1      -4.970  49.461 -22.808  1.00  0.00     0.087 N 
HETATM   21  C19 UNL     1      -6.282  49.438 -23.453  1.00  0.00     0.310 C 
HETATM   22  C20 UNL     1      -5.110  49.631 -21.352  1.00  0.00     0.296 C 
HETATM   23  C22 UNL     1      -4.106  49.583 -19.087  1.00  0.00     0.034 C 
ENDBRANCH  13  14
ENDBRANCH  12  13
BRANCH   1  24
HETATM   24  O1  UNL     1      -0.501  50.885 -17.336  1.00  0.00    -0.353 OA
HETATM   25  C1  UNL     1       0.611  50.654 -16.479  1.00  0.00     0.210 C 
ENDBRANCH   1  24
BRANCH   9  26
HETATM   26  N3  UNL     1       0.126  51.665 -23.703  1.00  0.00    -0.339 N 
HETATM   27  H6  UNL     1       0.341  50.705 -23.453  1.00  0.00     0.167 HD
BRANCH  26  28
HETATM   28  C7  UNL     1       0.402  51.945 -25.065  1.00  0.00     0.074 A 
HETATM   29  C8  UNL     1       1.539  51.376 -25.662  1.00  0.00     0.033 A 
HETATM   30  C9  UNL     1       1.842  51.614 -27.007  1.00  0.00     0.004 A 
HETATM   31  C10 UNL     1       1.000  52.410 -27.781  1.00  0.00     0.027 A 
HETATM   32  C11 UNL     1      -0.150  52.957 -27.212  1.00  0.00     0.074 A 
HETATM   33 CL1  UNL     1      -1.200  53.907 -28.195  1.00  0.00    -0.081 Cl
HETATM   34  C12 UNL     1      -0.452  52.719 -25.869  1.00  0.00     0.164 A 
HETATM   35  F1  UNL     1      -1.600  53.203 -25.363  1.00  0.00    -0.202 F 
ENDBRANCH  26  28
ENDBRANCH   9  26
TORSDOF 5
ENDMDL
MODEL 5
REMARK minimizedAffinity -8.72894192
REMARK  5 active torsions:
REMARK  status: ('A' for Active; 'I' for Inactive)
REMARK    1  A    between atoms: O1_2  and  C2_3 
REMARK    2  A    between atoms: C6_11  and  N3_12 
REMARK    3  A    between atoms: N3_12  and  C7_13 
REMARK    4  A    between atoms: C15_23  and  O2_24 
REMARK    5  A    between atoms: O2_24  and  C16_25 
REMARK       I    between atoms: C16_25  and  N4_27 
ROOT
HETATM    1  C2  UNL     1      -0.369  51.980 -25.076  1.00  0.00     0.104 A 
HETATM    2  C3  UNL     1       0.506  53.000 -24.695  1.00  0.00     0.070 A 
HETATM    3  C4  UNL     1       0.693  53.352 -23.360  1.00  0.00     0.050 A 
HETATM    4  N1  UNL     1       1.550  54.337 -23.080  1.00  0.00    -0.351 N 
ATOM      5  H1  UNL     1       2.058  54.829 -23.815  1.00  0.00     0.166 HD
HETATM    6  C5  UNL     1       1.710  54.649 -21.789  1.00  0.00     0.182 A 
HETATM    7  N2  UNL     1       1.083  54.083 -20.756  1.00  0.00    -0.338 N 
ATOM      8  H2  UNL     1       1.244  54.391 -19.797  1.00  0.00     0.168 HD
HETATM    9  C6  UNL     1       0.228  53.087 -21.042  1.00  0.00     0.119 A 
HETATM   10  C13 UNL     1      -0.014  52.664 -22.363  1.00  0.00     0.038 A 
HETATM   11  C14 UNL     1      -0.890  51.618 -22.729  1.00  0.00     0.058 A 
HETATM   12  C15 UNL     1      -1.068  51.307 -24.074  1.00  0.00     0.115 A 
ENDROOT
BRANCH  12  13
HETATM   13  O2  UNL     1      -1.926  50.256 -24.410  1.00  0.00    -0.259 OA
BRANCH  13  14
HETATM   14  C16 UNL     1      -3.247  50.652 -24.554  1.00  0.00     0.368 C 
HETATM   15  O3  UNL     1      -3.639  51.418 -25.433  1.00  0.00    -0.238 OA
HETATM   16  N4  UNL     1      -4.094  50.141 -23.557  1.00  0.00    -0.320 N 
HETATM   17  C17 UNL     1      -5.314  50.934 -23.375  1.00  0.00     0.158 C 
HETATM   18  C21 UNL     1      -3.583  49.406 -22.372  1.00  0.00     0.113 C 
HETATM   19  C18 UNL     1      -6.358  50.314 -22.443  1.00  0.00     0.291 C 
HETATM   20  N5  UNL     1      -5.751  49.944 -21.154  1.00  0.00     0.087 N 
HETATM   21  C19 UNL     1      -6.768  49.422 -20.240  1.00  0.00     0.310 C 
HETATM   22  C20 UNL     1      -4.717  48.928 -21.413  1.00  0.00     0.296 C 
HETATM   23  C22 UNL     1      -2.770  48.149 -22.733  1.00  0.00     0.034 C 
ENDBRANCH  13  14
ENDBRANCH  12  13
BRANCH   1  24
HETATM   24  O1  UNL     1      -0.599  51.564 -26.359  1.00  0.00    -0.353 OA
HETATM   25  C1  UNL     1      -0.860  52.570 -27.329  1.00  0.00     0.210 C 
ENDBRANCH   1  24
BRANCH   9  26
HETATM   26  N3  UNL     1      -0.492  52.472 -19.978  1.00  0.00    -0.339 N 
HETATM   27  H6  UNL     1      -1.332  53.017 -19.813  1.00  0.00     0.167 HD
BRANCH  26  28
HETATM   28  C7  UNL     1       0.078  51.976 -18.779  1.00  0.00     0.074 A 
HETATM   29  C8  UNL     1       0.949  52.798 -18.046  1.00  0.00     0.033 A 
HETATM   30  C9  UNL     1       1.522  52.354 -16.850  1.00  0.00     0.004 A 
HETATM   31  C10 UNL     1       1.217  51.087 -16.357  1.00  0.00     0.027 A 
HETATM   32  C11 UNL     1       0.329  50.270 -17.057  1.00  0.00     0.074 A 
HETATM   33 CL1  UNL     1      -0.067  48.720 -16.414  1.00  0.00    -0.081 Cl
HETATM   34  C12 UNL     1      -0.243  50.713 -18.252  1.00  0.00     0.164 A 
HETATM   35  F1  UNL     1      -1.146  49.933 -18.872  1.00  0.00    -0.202 F 
ENDBRANCH  26  28
ENDBRANCH   9  26
TORSDOF 5
ENDMDL
MODEL 6
REMARK minimizedAffinity -8.69980621
REMARK  5 active torsions:
REMARK  status: ('A' for Active; 'I' for Inactive)
REMARK    1  A    between atoms: O1_2  and  C2_3 
REMARK    2  A    between atoms: C6_11  and  N3_12 
REMARK    3  A    between atoms: N3_12  and  C7_13 
REMARK    4  A    between atoms: C15_23  and  O2_24 
REMARK    5  A    between atoms: O2_24  and  C16_25 
REMARK       I    between atoms: C16_25  and  N4_27 
ROOT
HETATM    1  C2  UNL     1      -0.068  51.059 -18.048  1.00  0.00     0.104 A 
HETATM    2  C3  UNL     1       0.500  52.291 -18.381  1.00  0.00     0.070 A 
HETATM    3  C4  UNL     1       0.657  52.698 -19.704  1.00  0.00     0.050 A 
HETATM    4  N1  UNL     1       1.206  53.893 -19.937  1.00  0.00    -0.351 N 
ATOM      5  H1  UNL     1       1.510  54.499 -19.176  1.00  0.00     0.166 HD
HETATM    6  C5  UNL     1       1.339  54.257 -21.218  1.00  0.00     0.182 A 
HETATM    7  N2  UNL     1       0.993  53.533 -22.285  1.00  0.00    -0.338 N 
ATOM      8  H2  UNL     1       1.145  53.872 -23.235  1.00  0.00     0.168 HD
HETATM    9  C6  UNL     1       0.433  52.335 -22.045  1.00  0.00     0.119 A 
HETATM   10  C13 UNL     1       0.232  51.851 -20.738  1.00  0.00     0.038 A 
HETATM   11  C14 UNL     1      -0.361  50.609 -20.419  1.00  0.00     0.058 A 
HETATM   12  C15 UNL     1      -0.482  50.225 -19.087  1.00  0.00     0.115 A 
ENDROOT
BRANCH  12  13
HETATM   13  O2  UNL     1      -1.088  49.000 -18.795  1.00  0.00    -0.259 OA
BRANCH  13  14
HETATM   14  C16 UNL     1      -1.535  48.328 -19.923  1.00  0.00     0.368 C 
HETATM   15  O3  UNL     1      -0.794  47.720 -20.695  1.00  0.00    -0.238 OA
HETATM   16  N4  UNL     1      -2.916  48.458 -20.139  1.00  0.00    -0.320 N 
HETATM   17  C17 UNL     1      -3.307  48.232 -21.534  1.00  0.00     0.158 C 
HETATM   18  C21 UNL     1      -3.768  49.376 -19.339  1.00  0.00     0.113 C 
HETATM   19  C18 UNL     1      -4.815  48.169 -21.785  1.00  0.00     0.291 C 
HETATM   20  N5  UNL     1      -5.488  49.348 -21.215  1.00  0.00     0.087 N 
HETATM   21  C19 UNL     1      -6.918  49.320 -21.523  1.00  0.00     0.310 C 
HETATM   22  C20 UNL     1      -5.270  49.335 -19.759  1.00  0.00     0.296 C 
HETATM   23  C22 UNL     1      -3.738  49.081 -17.828  1.00  0.00     0.034 C 
ENDBRANCH  13  14
ENDBRANCH  12  13
BRANCH   1  24
HETATM   24  O1  UNL     1      -0.269  50.591 -16.779  1.00  0.00    -0.353 OA
HETATM   25  C1  UNL     1       0.840  50.629 -15.890  1.00  0.00     0.210 C 
ENDBRANCH   1  24
BRANCH   9  26
HETATM   26  N3  UNL     1       0.076  51.510 -23.149  1.00  0.00    -0.339 N 
HETATM   27  H6  UNL     1       0.906  51.368 -23.715  1.00  0.00     0.167 HD
BRANCH  26  28
HETATM   28  C7  UNL     1      -1.097  51.647 -23.932  1.00  0.00     0.074 A 
HETATM   29  C8  UNL     1      -2.220  52.282 -23.375  1.00  0.00     0.033 A 
HETATM   30  C9  UNL     1      -3.393  52.451 -24.117  1.00  0.00     0.004 A 
HETATM   31  C10 UNL     1      -3.456  52.005 -25.435  1.00  0.00     0.027 A 
HETATM   32  C11 UNL     1      -2.340  51.401 -26.014  1.00  0.00     0.074 A 
HETATM   33 CL1  UNL     1      -2.423  50.890 -27.658  1.00  0.00    -0.081 Cl
HETATM   34  C12 UNL     1      -1.169  51.231 -25.273  1.00  0.00     0.164 A 
HETATM   35  F1  UNL     1      -0.086  50.707 -25.874  1.00  0.00    -0.202 F 
ENDBRANCH  26  28
ENDBRANCH   9  26
TORSDOF 5
ENDMDL
MODEL 7
REMARK minimizedAffinity -8.69397926
REMARK  5 active torsions:
REMARK  status: ('A' for Active; 'I' for Inactive)
REMARK    1  A    between atoms: O1_2  and  C2_3 
REMARK    2  A    between atoms: C6_11  and  N3_12 
REMARK    3  A    between atoms: N3_12  and  C7_13 
REMARK    4  A    between atoms: C15_23  and  O2_24 
REMARK    5  A    between atoms: O2_24  and  C16_25 
REMARK       I    between atoms: C16_25  and  N4_27 
ROOT
HETATM    1  C2  UNL     1       0.461  52.230 -18.449  1.00  0.00     0.104 A 
HETATM    2  C3  UNL     1       1.065  53.255 -19.183  1.00  0.00     0.070 A 
HETATM    3  C4  UNL     1       0.954  53.335 -20.569  1.00  0.00     0.050 A 
HETATM    4  N1  UNL     1       1.559  54.348 -21.195  1.00  0.00    -0.351 N 
ATOM      5  H1  UNL     1       2.094  55.049 -20.683  1.00  0.00     0.166 HD
HETATM    6  C5  UNL     1       1.430  54.399 -22.525  1.00  0.00     0.182 A 
HETATM    7  N2  UNL     1       0.770  53.526 -23.290  1.00  0.00    -0.338 N 
ATOM      8  H2  UNL     1       0.733  53.621 -24.304  1.00  0.00     0.168 HD
HETATM    9  C6  UNL     1       0.155  52.512 -22.654  1.00  0.00     0.119 A 
HETATM   10  C13 UNL     1       0.212  52.362 -21.256  1.00  0.00     0.038 A 
HETATM   11  C14 UNL     1      -0.420  51.329 -20.528  1.00  0.00     0.058 A 
HETATM   12  C15 UNL     1      -0.269  51.268 -19.146  1.00  0.00     0.115 A 
ENDROOT
BRANCH  12  13
HETATM   13  O2  UNL     1      -0.919  50.247 -18.446  1.00  0.00    -0.259 OA
BRANCH  13  14
HETATM   14  C16 UNL     1      -2.296  50.401 -18.407  1.00  0.00     0.368 C 
HETATM   15  O3  UNL     1      -2.859  51.429 -18.033  1.00  0.00    -0.238 OA
HETATM   16  N4  UNL     1      -2.998  49.243 -18.780  1.00  0.00    -0.320 N 
HETATM   17  C17 UNL     1      -4.366  49.203 -18.256  1.00  0.00     0.158 C 
HETATM   18  C21 UNL     1      -2.325  47.939 -19.011  1.00  0.00     0.113 C 
HETATM   19  C18 UNL     1      -5.235  48.063 -18.792  1.00  0.00     0.291 C 
HETATM   20  N5  UNL     1      -4.552  46.768 -18.632  1.00  0.00     0.087 N 
HETATM   21  C19 UNL     1      -5.417  45.675 -19.076  1.00  0.00     0.310 C 
HETATM   22  C20 UNL     1      -3.314  46.806 -19.428  1.00  0.00     0.296 C 
HETATM   23  C22 UNL     1      -1.246  47.990 -20.109  1.00  0.00     0.034 C 
ENDBRANCH  13  14
ENDBRANCH  12  13
BRANCH   1  24
HETATM   24  O1  UNL     1       0.511  52.087 -17.090  1.00  0.00    -0.353 OA
HETATM   25  C1  UNL     1       1.723  52.453 -16.443  1.00  0.00     0.210 C 
ENDBRANCH   1  24
BRANCH   9  26
HETATM   26  N3  UNL     1      -0.534  51.535 -23.426  1.00  0.00    -0.339 N 
HETATM   27  H6  UNL     1      -0.067  50.644 -23.293  1.00  0.00     0.167 HD
BRANCH  26  28
HETATM   28  C7  UNL     1      -0.995  51.712 -24.755  1.00  0.00     0.074 A 
HETATM   29  C8  UNL     1      -2.339  52.062 -24.970  1.00  0.00     0.033 A 
HETATM   30  C9  UNL     1      -2.833  52.261 -26.263  1.00  0.00     0.004 A 
HETATM   31  C10 UNL     1      -1.986  52.132 -27.361  1.00  0.00     0.027 A 
HETATM   32  C11 UNL     1      -0.642  51.815 -27.164  1.00  0.00     0.074 A 
HETATM   33 CL1  UNL     1       0.400  51.697 -28.532  1.00  0.00    -0.081 Cl
HETATM   34  C12 UNL     1      -0.148  51.617 -25.873  1.00  0.00     0.164 A 
HETATM   35  F1  UNL     1       1.164  51.379 -25.705  1.00  0.00    -0.202 F 
ENDBRANCH  26  28
ENDBRANCH   9  26
TORSDOF 5
ENDMDL
MODEL 8
REMARK minimizedAffinity -8.62871552
REMARK  5 active torsions:
REMARK  status: ('A' for Active; 'I' for Inactive)
REMARK    1  A    between atoms: O1_2  and  C2_3 
REMARK    2  A    between atoms: C6_11  and  N3_12 
REMARK    3  A    between atoms: N3_12  and  C7_13 
REMARK    4  A    between atoms: C15_23  and  O2_24 
REMARK    5  A    between atoms: O2_24  and  C16_25 
REMARK       I    between atoms: C16_25  and  N4_27 
ROOT
HETATM    1  C2  UNL     1      -0.675  50.812 -20.874  1.00  0.00     0.104 A 
HETATM    2  C3  UNL     1      -0.849  49.531 -20.347  1.00  0.00     0.070 A 
HETATM    3  C4  UNL     1      -1.841  48.669 -20.812  1.00  0.00     0.050 A 
HETATM    4  N1  UNL     1      -1.939  47.459 -20.256  1.00  0.00    -0.351 N 
ATOM      5  H1  UNL     1      -1.313  47.162 -19.508  1.00  0.00     0.166 HD
HETATM    6  C5  UNL     1      -2.898  46.654 -20.728  1.00  0.00     0.182 A 
HETATM    7  N2  UNL     1      -3.778  46.951 -21.687  1.00  0.00    -0.338 N 
ATOM      8  H2  UNL     1      -4.496  46.289 -21.979  1.00  0.00     0.168 HD
HETATM    9  C6  UNL     1      -3.670  48.168 -22.249  1.00  0.00     0.119 A 
HETATM   10  C13 UNL     1      -2.692  49.096 -21.843  1.00  0.00     0.038 A 
HETATM   11  C14 UNL     1      -2.518  50.382 -22.400  1.00  0.00     0.058 A 
HETATM   12  C15 UNL     1      -1.531  51.223 -21.895  1.00  0.00     0.115 A 
ENDROOT
BRANCH  12  13
HETATM   13  O2  UNL     1      -1.366  52.485 -22.475  1.00  0.00    -0.259 OA
BRANCH  13  14
HETATM   14  C16 UNL     1      -2.032  52.623 -23.684  1.00  0.00     0.368 C 
HETATM   15  O3  UNL     1      -3.256  52.688 -23.787  1.00  0.00    -0.238 OA
HETATM   16  N4  UNL     1      -1.174  52.621 -24.795  1.00  0.00    -0.320 N 
HETATM   17  C17 UNL     1      -1.845  52.238 -26.042  1.00  0.00     0.158 C 
HETATM   18  C21 UNL     1       0.276  52.315 -24.688  1.00  0.00     0.113 C 
HETATM   19  C18 UNL     1      -1.007  52.408 -27.310  1.00  0.00     0.291 C 
HETATM   20  N5  UNL     1       0.298  51.741 -27.167  1.00  0.00     0.087 N 
HETATM   21  C19 UNL     1       1.064  51.842 -28.408  1.00  0.00     0.310 C 
HETATM   22  C20 UNL     1       1.019  52.388 -26.058  1.00  0.00     0.296 C 
HETATM   23  C22 UNL     1       1.034  53.262 -23.739  1.00  0.00     0.034 C 
ENDBRANCH  13  14
ENDBRANCH  12  13
BRANCH   1  24
HETATM   24  O1  UNL     1       0.279  51.712 -20.484  1.00  0.00    -0.353 OA
HETATM   25  C1  UNL     1      -0.067  52.613 -19.440  1.00  0.00     0.210 C 
ENDBRANCH   1  24
BRANCH   9  26
HETATM   26  N3  UNL     1      -4.604  48.546 -23.253  1.00  0.00    -0.339 N 
HETATM   27  H6  UNL     1      -5.513  48.180 -22.989  1.00  0.00     0.167 HD
BRANCH  26  28
HETATM   28  C7  UNL     1      -4.381  48.482 -24.651  1.00  0.00     0.074 A 
HETATM   29  C8  UNL     1      -3.080  48.678 -25.144  1.00  0.00     0.033 A 
HETATM   30  C9  UNL     1      -2.810  48.609 -26.515  1.00  0.00     0.004 A 
HETATM   31  C10 UNL     1      -3.835  48.322 -27.414  1.00  0.00     0.027 A 
HETATM   32  C11 UNL     1      -5.127  48.094 -26.939  1.00  0.00     0.074 A 
HETATM   33 CL1  UNL     1      -6.375  47.703 -28.062  1.00  0.00    -0.081 Cl
HETATM   34  C12 UNL     1      -5.396  48.163 -25.570  1.00  0.00     0.164 A 
HETATM   35  F1  UNL     1      -6.633  47.873 -25.132  1.00  0.00    -0.202 F 
ENDBRANCH  26  28
ENDBRANCH   9  26
TORSDOF 5
ENDMDL
MODEL 9
REMARK minimizedAffinity -8.61549854
REMARK  5 active torsions:
REMARK  status: ('A' for Active; 'I' for Inactive)
REMARK    1  A    between atoms: O1_2  and  C2_3 
REMARK    2  A    between atoms: C6_11  and  N3_12 
REMARK    3  A    between atoms: N3_12  and  C7_13 
REMARK    4  A    between atoms: C15_23  and  O2_24 
REMARK    5  A    between atoms: O2_24  and  C16_25 
REMARK       I    between atoms: C16_25  and  N4_27 
ROOT
HETATM    1  C2  UNL     1       0.485  52.465 -22.695  1.00  0.00     0.104 A 
HETATM    2  C3  UNL     1       0.696  52.511 -24.075  1.00  0.00     0.070 A 
HETATM    3  C4  UNL     1      -0.083  51.777 -24.966  1.00  0.00     0.050 A 
HETATM    4  N1  UNL     1       0.182  51.880 -26.271  1.00  0.00    -0.351 N 
ATOM      5  H1  UNL     1       0.934  52.474 -26.618  1.00  0.00     0.166 HD
HETATM    6  C5  UNL     1      -0.587  51.165 -27.101  1.00  0.00     0.182 A 
HETATM    7  N2  UNL     1      -1.581  50.347 -26.750  1.00  0.00    -0.338 N 
ATOM      8  H2  UNL     1      -2.111  49.818 -27.443  1.00  0.00     0.168 HD
HETATM    9  C6  UNL     1      -1.849  50.253 -25.436  1.00  0.00     0.119 A 
HETATM   10  C13 UNL     1      -1.114  50.966 -24.469  1.00  0.00     0.038 A 
HETATM   11  C14 UNL     1      -1.353  50.921 -23.078  1.00  0.00     0.058 A 
HETATM   12  C15 UNL     1      -0.541  51.651 -22.215  1.00  0.00     0.115 A 
ENDROOT
BRANCH  12  13
HETATM   13  O2  UNL     1      -0.808  51.605 -20.844  1.00  0.00    -0.259 OA
BRANCH  13  14
HETATM   14  C16 UNL     1      -0.641  50.342 -20.296  1.00  0.00     0.368 C 
HETATM   15  O3  UNL     1      -0.776  49.297 -20.933  1.00  0.00    -0.238 OA
HETATM   16  N4  UNL     1      -0.360  50.363 -18.921  1.00  0.00    -0.320 N 
HETATM   17  C17 UNL     1      -0.700  49.107 -18.243  1.00  0.00     0.158 C 
HETATM   18  C21 UNL     1      -0.423  51.606 -18.110  1.00  0.00     0.113 C 
HETATM   19  C18 UNL     1      -0.235  49.008 -16.789  1.00  0.00     0.291 C 
HETATM   20  N5  UNL     1      -0.679  50.180 -16.018  1.00  0.00     0.087 N 
HETATM   21  C19 UNL     1      -0.297  50.044 -14.612  1.00  0.00     0.310 C 
HETATM   22  C20 UNL     1      -0.057  51.376 -16.611  1.00  0.00     0.296 C 
HETATM   23  C22 UNL     1       0.519  52.715 -18.614  1.00  0.00     0.034 C 
ENDBRANCH  13  14
ENDBRANCH  12  13
BRANCH   1  24
HETATM   24  O1  UNL     1       1.195  53.162 -21.756  1.00  0.00    -0.353 OA
HETATM   25  C1  UNL     1       1.499  54.520 -22.049  1.00  0.00     0.210 C 
ENDBRANCH   1  24
BRANCH   9  26
HETATM   26  N3  UNL     1      -2.878  49.368 -25.006  1.00  0.00    -0.339 N 
HETATM   27  H6  UNL     1      -2.455  48.660 -24.415  1.00  0.00     0.167 HD
BRANCH  26  28
HETATM   28  C7  UNL     1      -3.909  48.846 -25.826  1.00  0.00     0.074 A 
HETATM   29  C8  UNL     1      -3.691  48.735 -27.209  1.00  0.00     0.033 A 
HETATM   30  C9  UNL     1      -4.675  48.211 -28.054  1.00  0.00     0.004 A 
HETATM   31  C10 UNL     1      -5.886  47.771 -27.525  1.00  0.00     0.027 A 
HETATM   32  C11 UNL     1      -6.107  47.844 -26.150  1.00  0.00     0.074 A 
HETATM   33 CL1  UNL     1      -7.596  47.259 -25.509  1.00  0.00    -0.081 Cl
HETATM   34  C12 UNL     1      -5.125  48.368 -25.307  1.00  0.00     0.164 A 
HETATM   35  F1  UNL     1      -5.335  48.366 -23.979  1.00  0.00    -0.202 F 
ENDBRANCH  26  28
ENDBRANCH   9  26
TORSDOF 5
ENDMDL
