MODEL 1
REMARK minimizedAffinity -8.98586369
REMARK CNNscore 0.723021746
REMARK CNNaffinity 7.82430601
REMARK  8 active torsions:
REMARK  status: ('A' for Active; 'I' for Inactive)
REMARK    1  A    between atoms: C2_2  and  C3_3 
REMARK       I    between atoms: C3_3  and  N1_5 
REMARK    2  A    between atoms: N2_8  and  C6_9 
REMARK    3  A    between atoms: C6_9  and  C7_10 
REMARK    4  A    between atoms: C7_10  and  C8_11 
REMARK    5  A    between atoms: C8_11  and  C9_12 
REMARK    6  A    between atoms: C10_13  and  C11_14 
REMARK    7  A    between atoms: C17_22  and  S1_23 
REMARK    8  A    between atoms: S1_23  and  C18_26 
ROOT
HETATM    1  C9  UNL     1      -7.634   7.013  14.951  1.00  0.00    -0.023 A 
HETATM    2  C10 UNL     1      -7.492   6.122  13.884  1.00  0.00     0.040 A 
HETATM    3  N4  UNL     1      -8.734   5.976  13.309  1.00  0.00    -0.359 N 
HETATM    4  C22 UNL     1      -9.651   6.728  13.983  1.00  0.00     0.016 A 
HETATM    5  C23 UNL     1      -9.007   7.401  14.996  1.00  0.00    -0.027 A 
HETATM    6  C24 UNL     1      -9.733   8.314  15.930  1.00  0.00     0.041 C 
HETATM    7  C25 UNL     1     -11.136   8.664  15.399  1.00  0.00     0.005 C 
HETATM    8  C26 UNL     1     -11.863   7.435  14.821  1.00  0.00     0.006 C 
HETATM    9  C27 UNL     1     -11.096   6.815  13.639  1.00  0.00     0.057 C 
HETATM   10  H26 UNL     1      -8.942   5.416  12.488  1.00  0.00     0.166 HD
ENDROOT
BRANCH   2  11
HETATM   11  C11 UNL     1      -6.347   5.422  13.407  1.00  0.00     0.048 C 
HETATM   12  C12 UNL     1      -6.245   4.170  12.931  1.00  0.00     0.047 A 
HETATM   13  C13 UNL     1      -7.287   3.093  12.740  1.00  0.00     0.257 A 
HETATM   14  C21 UNL     1      -4.974   3.597  12.443  1.00  0.00     0.008 A 
HETATM   15  O2  UNL     1      -8.466   3.115  13.040  1.00  0.00    -0.267 OA
HETATM   16  N3  UNL     1      -6.619   2.030  12.156  1.00  0.00    -0.322 N 
HETATM   17  C14 UNL     1      -5.270   2.311  11.980  1.00  0.00     0.046 A 
HETATM   18  H17 UNL     1      -7.084   1.170  11.906  1.00  0.00     0.169 HD
HETATM   19  C15 UNL     1      -4.320   1.473  11.429  1.00  0.00     0.032 A 
HETATM   20  C16 UNL     1      -3.010   1.950  11.353  1.00  0.00     0.026 A 
HETATM   21  C17 UNL     1      -2.696   3.236  11.840  1.00  0.00     0.060 A 
HETATM   22  C20 UNL     1      -3.677   4.079  12.380  1.00  0.00     0.038 A 
BRANCH  21  23
HETATM   23  S1  UNL     1      -1.015   3.814  11.720  1.00  0.00     0.175 S 
HETATM   24  O3  UNL     1      -0.927   4.635  10.528  1.00  0.00    -0.223 OA
HETATM   25  O4  UNL     1      -0.159   2.655  11.897  1.00  0.00    -0.223 OA
BRANCH  23  26
HETATM   26  C18 UNL     1      -0.850   4.873  13.147  1.00  0.00     0.141 C 
HETATM   27  C19 UNL     1      -1.000   6.334  12.776  1.00  0.00     0.021 C 
ENDBRANCH  23  26
ENDBRANCH  21  23
ENDBRANCH   2  11
BRANCH   1  28
HETATM   28  C8  UNL     1      -6.555   7.497  15.876  1.00  0.00     0.043 C 
BRANCH  28  29
HETATM   29  C7  UNL     1      -5.845   8.772  15.410  1.00  0.00     0.035 C 
BRANCH  29  30
HETATM   30  C6  UNL     1      -4.446   8.496  14.840  1.00  0.00     0.273 C 
BRANCH  30  31
HETATM   31  N2  UNL     1      -3.366   9.131  15.617  1.00  0.00     0.091 N 
HETATM   32  C5  UNL     1      -2.671  10.163  14.811  1.00  0.00     0.292 C 
HETATM   33  C4  UNL     1      -1.377   9.692  14.124  1.00  0.00     0.156 C 
HETATM   34  N1  UNL     1      -0.413   9.143  15.080  1.00  0.00    -0.349 N 
HETATM   35  C3  UNL     1       0.932   9.151  14.748  1.00  0.00     0.219 C 
HETATM   36  C29 UNL     1      -0.975   8.650  16.342  1.00  0.00     0.156 C 
HETATM   37  O1  UNL     1       1.329   9.557  13.654  1.00  0.00    -0.273 OA
HETATM   38  C28 UNL     1      -2.416   8.132  16.158  1.00  0.00     0.292 C 
BRANCH  35  39
HETATM   39  C2  UNL     1       1.898   8.632  15.801  1.00  0.00     0.098 C 
HETATM   40  C1  UNL     1       3.205   9.410  15.825  1.00  0.00     0.014 C 
ENDBRANCH  35  39
ENDBRANCH  30  31
ENDBRANCH  29  30
ENDBRANCH  28  29
ENDBRANCH   1  28
TORSDOF 8
ENDMDL
MODEL 2
REMARK minimizedAffinity -9.50539303
REMARK CNNscore 0.718722939
REMARK CNNaffinity 7.73506403
REMARK  8 active torsions:
REMARK  status: ('A' for Active; 'I' for Inactive)
REMARK    1  A    between atoms: C2_2  and  C3_3 
REMARK       I    between atoms: C3_3  and  N1_5 
REMARK    2  A    between atoms: N2_8  and  C6_9 
REMARK    3  A    between atoms: C6_9  and  C7_10 
REMARK    4  A    between atoms: C7_10  and  C8_11 
REMARK    5  A    between atoms: C8_11  and  C9_12 
REMARK    6  A    between atoms: C10_13  and  C11_14 
REMARK    7  A    between atoms: C17_22  and  S1_23 
REMARK    8  A    between atoms: S1_23  and  C18_26 
ROOT
HETATM    1  C9  UNL     1      -7.857   7.076  14.840  1.00  0.00    -0.023 A 
HETATM    2  C10 UNL     1      -7.645   6.213  13.761  1.00  0.00     0.040 A 
HETATM    3  N4  UNL     1      -8.851   6.070  13.113  1.00  0.00    -0.359 N 
HETATM    4  C22 UNL     1      -9.813   6.796  13.752  1.00  0.00     0.016 A 
HETATM    5  C23 UNL     1      -9.235   7.449  14.816  1.00  0.00    -0.027 A 
HETATM    6  C24 UNL     1     -10.023   8.331  15.730  1.00  0.00     0.041 C 
HETATM    7  C25 UNL     1     -11.397   8.681  15.129  1.00  0.00     0.005 C 
HETATM    8  C26 UNL     1     -12.076   7.460  14.481  1.00  0.00     0.006 C 
HETATM    9  C27 UNL     1     -11.237   6.878  13.329  1.00  0.00     0.057 C 
HETATM   10  H26 UNL     1      -9.006   5.529  12.268  1.00  0.00     0.166 HD
ENDROOT
BRANCH   2  11
HETATM   11  C11 UNL     1      -6.467   5.537  13.333  1.00  0.00     0.048 C 
HETATM   12  C12 UNL     1      -6.318   4.282  12.877  1.00  0.00     0.047 A 
HETATM   13  C13 UNL     1      -7.325   3.177  12.666  1.00  0.00     0.257 A 
HETATM   14  C21 UNL     1      -5.017   3.736  12.440  1.00  0.00     0.008 A 
HETATM   15  O2  UNL     1      -8.514   3.172  12.926  1.00  0.00    -0.267 OA
HETATM   16  N3  UNL     1      -6.611   2.123  12.120  1.00  0.00    -0.322 N 
HETATM   17  C14 UNL     1      -5.264   2.436  11.985  1.00  0.00     0.046 A 
HETATM   18  H17 UNL     1      -7.045   1.249  11.866  1.00  0.00     0.169 HD
HETATM   19  C15 UNL     1      -4.275   1.617  11.479  1.00  0.00     0.032 A 
HETATM   20  C16 UNL     1      -2.976   2.126  11.439  1.00  0.00     0.026 A 
HETATM   21  C17 UNL     1      -2.711   3.425  11.919  1.00  0.00     0.060 A 
HETATM   22  C20 UNL     1      -3.731   4.251  12.414  1.00  0.00     0.038 A 
BRANCH  21  23
HETATM   23  S1  UNL     1      -1.042   4.046  11.848  1.00  0.00     0.175 S 
HETATM   24  O3  UNL     1      -0.942   4.872  10.661  1.00  0.00    -0.223 OA
HETATM   25  O4  UNL     1      -0.164   2.907  12.046  1.00  0.00    -0.223 OA
BRANCH  23  26
HETATM   26  C18 UNL     1      -0.944   5.103  13.281  1.00  0.00     0.141 C 
HETATM   27  C19 UNL     1       0.417   5.760  13.396  1.00  0.00     0.021 C 
ENDBRANCH  23  26
ENDBRANCH  21  23
ENDBRANCH   2  11
BRANCH   1  28
HETATM   28  C8  UNL     1      -6.838   7.546  15.836  1.00  0.00     0.043 C 
BRANCH  28  29
HETATM   29  C7  UNL     1      -6.005   8.746  15.373  1.00  0.00     0.035 C 
BRANCH  29  30
HETATM   30  C6  UNL     1      -4.526   8.392  15.158  1.00  0.00     0.273 C 
BRANCH  30  31
HETATM   31  N2  UNL     1      -3.643   9.573  15.133  1.00  0.00     0.091 N 
HETATM   32  C5  UNL     1      -2.300   9.219  14.615  1.00  0.00     0.292 C 
HETATM   33  C4  UNL     1      -1.241   8.928  15.692  1.00  0.00     0.156 C 
HETATM   34  N1  UNL     1      -1.083  10.044  16.628  1.00  0.00    -0.349 N 
HETATM   35  C3  UNL     1       0.117  10.177  17.308  1.00  0.00     0.219 C 
HETATM   36  C29 UNL     1      -2.228  10.953  16.736  1.00  0.00     0.156 C 
HETATM   37  O1  UNL     1       1.028   9.355  17.187  1.00  0.00    -0.273 OA
HETATM   38  C28 UNL     1      -3.560  10.225  16.461  1.00  0.00     0.292 C 
BRANCH  35  39
HETATM   39  C2  UNL     1       0.256  11.389  18.215  1.00  0.00     0.098 C 
HETATM   40  C1  UNL     1       0.068  11.041  19.683  1.00  0.00     0.014 C 
ENDBRANCH  35  39
ENDBRANCH  30  31
ENDBRANCH  29  30
ENDBRANCH  28  29
ENDBRANCH   1  28
TORSDOF 8
ENDMDL
MODEL 3
REMARK minimizedAffinity -9.37572479
REMARK CNNscore 0.388206959
REMARK CNNaffinity 7.50784302
REMARK  8 active torsions:
REMARK  status: ('A' for Active; 'I' for Inactive)
REMARK    1  A    between atoms: C2_2  and  C3_3 
REMARK       I    between atoms: C3_3  and  N1_5 
REMARK    2  A    between atoms: N2_8  and  C6_9 
REMARK    3  A    between atoms: C6_9  and  C7_10 
REMARK    4  A    between atoms: C7_10  and  C8_11 
REMARK    5  A    between atoms: C8_11  and  C9_12 
REMARK    6  A    between atoms: C10_13  and  C11_14 
REMARK    7  A    between atoms: C17_22  and  S1_23 
REMARK    8  A    between atoms: S1_23  and  C18_26 
ROOT
HETATM    1  C9  UNL     1       0.052   6.166  12.868  1.00  0.00    -0.023 A 
HETATM    2  C10 UNL     1      -0.722   5.519  11.901  1.00  0.00     0.040 A 
HETATM    3  N4  UNL     1       0.017   5.491  10.741  1.00  0.00    -0.359 N 
HETATM    4  C22 UNL     1       1.218   6.108  10.937  1.00  0.00     0.016 A 
HETATM    5  C23 UNL     1       1.287   6.524  12.248  1.00  0.00    -0.027 A 
HETATM    6  C24 UNL     1       2.479   7.244  12.791  1.00  0.00     0.041 C 
HETATM    7  C25 UNL     1       3.689   7.126  11.844  1.00  0.00     0.005 C 
HETATM    8  C26 UNL     1       3.292   7.320  10.369  1.00  0.00     0.006 C 
HETATM    9  C27 UNL     1       2.274   6.264   9.902  1.00  0.00     0.057 C 
HETATM   10  H26 UNL     1      -0.267   5.054   9.869  1.00  0.00     0.166 HD
ENDROOT
BRANCH   2  11
HETATM   11  C11 UNL     1      -2.037   4.977  11.977  1.00  0.00     0.048 C 
HETATM   12  C12 UNL     1      -2.471   3.739  11.689  1.00  0.00     0.047 A 
HETATM   13  C13 UNL     1      -1.731   2.519  11.193  1.00  0.00     0.257 A 
HETATM   14  C21 UNL     1      -3.879   3.323  11.851  1.00  0.00     0.008 A 
HETATM   15  O2  UNL     1      -0.557   2.413  10.888  1.00  0.00    -0.267 OA
HETATM   16  N3  UNL     1      -2.679   1.510  11.131  1.00  0.00    -0.322 N 
HETATM   17  C14 UNL     1      -3.935   1.968  11.509  1.00  0.00     0.046 A 
HETATM   18  H17 UNL     1      -2.452   0.572  10.837  1.00  0.00     0.169 HD
HETATM   19  C15 UNL     1      -5.100   1.228  11.560  1.00  0.00     0.032 A 
HETATM   20  C16 UNL     1      -6.262   1.887  11.961  1.00  0.00     0.026 A 
HETATM   21  C17 UNL     1      -6.222   3.259  12.283  1.00  0.00     0.060 A 
HETATM   22  C20 UNL     1      -5.027   3.990  12.244  1.00  0.00     0.038 A 
BRANCH  21  23
HETATM   23  S1  UNL     1      -7.725   4.066  12.799  1.00  0.00     0.175 S 
HETATM   24  O3  UNL     1      -8.766   3.057  12.828  1.00  0.00    -0.223 OA
HETATM   25  O4  UNL     1      -7.860   5.259  11.983  1.00  0.00    -0.223 OA
BRANCH  23  26
HETATM   26  C18 UNL     1      -7.365   4.554  14.476  1.00  0.00     0.141 C 
HETATM   27  C19 UNL     1      -6.362   5.689  14.523  1.00  0.00     0.021 C 
ENDBRANCH  23  26
ENDBRANCH  21  23
ENDBRANCH   2  11
BRANCH   1  28
HETATM   28  C8  UNL     1      -0.320   6.428  14.298  1.00  0.00     0.043 C 
BRANCH  28  29
HETATM   29  C7  UNL     1      -1.069   7.746  14.526  1.00  0.00     0.035 C 
BRANCH  29  30
HETATM   30  C6  UNL     1      -2.594   7.566  14.531  1.00  0.00     0.273 C 
BRANCH  30  31
HETATM   31  N2  UNL     1      -3.228   8.010  15.787  1.00  0.00     0.091 N 
HETATM   32  C5  UNL     1      -4.453   8.798  15.511  1.00  0.00     0.292 C 
HETATM   33  C4  UNL     1      -4.261  10.325  15.517  1.00  0.00     0.156 C 
HETATM   34  N1  UNL     1      -3.691  10.805  16.778  1.00  0.00    -0.349 N 
HETATM   35  C3  UNL     1      -3.919  12.119  17.153  1.00  0.00     0.219 C 
HETATM   36  C29 UNL     1      -2.938   9.816  17.555  1.00  0.00     0.156 C 
HETATM   37  O1  UNL     1      -4.539  12.903  16.432  1.00  0.00    -0.273 OA
HETATM   38  C28 UNL     1      -2.281   8.758  16.646  1.00  0.00     0.292 C 
BRANCH  35  39
HETATM   39  C2  UNL     1      -3.363  12.550  18.501  1.00  0.00     0.098 C 
HETATM   40  C1  UNL     1      -4.456  12.780  19.533  1.00  0.00     0.014 C 
ENDBRANCH  35  39
ENDBRANCH  30  31
ENDBRANCH  29  30
ENDBRANCH  28  29
ENDBRANCH   1  28
TORSDOF 8
ENDMDL
MODEL 4
REMARK minimizedAffinity -7.82249594
REMARK CNNscore 0.174735248
REMARK CNNaffinity 7.03591585
REMARK  8 active torsions:
REMARK  status: ('A' for Active; 'I' for Inactive)
REMARK    1  A    between atoms: C2_2  and  C3_3 
REMARK       I    between atoms: C3_3  and  N1_5 
REMARK    2  A    between atoms: N2_8  and  C6_9 
REMARK    3  A    between atoms: C6_9  and  C7_10 
REMARK    4  A    between atoms: C7_10  and  C8_11 
REMARK    5  A    between atoms: C8_11  and  C9_12 
REMARK    6  A    between atoms: C10_13  and  C11_14 
REMARK    7  A    between atoms: C17_22  and  S1_23 
REMARK    8  A    between atoms: S1_23  and  C18_26 
ROOT
HETATM    1  C9  UNL     1      -6.001   5.735  14.105  1.00  0.00    -0.023 A 
HETATM    2  C10 UNL     1      -7.347   5.714  13.730  1.00  0.00     0.040 A 
HETATM    3  N4  UNL     1      -7.468   4.807  12.702  1.00  0.00    -0.359 N 
HETATM    4  C22 UNL     1      -6.249   4.271  12.407  1.00  0.00     0.016 A 
HETATM    5  C23 UNL     1      -5.316   4.806  13.266  1.00  0.00    -0.027 A 
HETATM    6  C24 UNL     1      -3.871   4.427  13.206  1.00  0.00     0.041 C 
HETATM    7  C25 UNL     1      -3.655   3.160  12.356  1.00  0.00     0.005 C 
HETATM    8  C26 UNL     1      -4.490   3.180  11.061  1.00  0.00     0.006 C 
HETATM    9  C27 UNL     1      -6.000   3.254  11.350  1.00  0.00     0.057 C 
HETATM   10  H26 UNL     1      -8.335   4.548  12.242  1.00  0.00     0.166 HD
ENDROOT
BRANCH   2  11
HETATM   11  C11 UNL     1      -8.458   6.456  14.223  1.00  0.00     0.048 C 
HETATM   12  C12 UNL     1      -8.512   7.723  14.669  1.00  0.00     0.047 A 
HETATM   13  C13 UNL     1      -7.437   8.775  14.800  1.00  0.00     0.257 A 
HETATM   14  C21 UNL     1      -9.764   8.360  15.125  1.00  0.00     0.008 A 
HETATM   15  O2  UNL     1      -6.246   8.677  14.574  1.00  0.00    -0.267 OA
HETATM   16  N3  UNL     1      -8.084   9.910  15.261  1.00  0.00    -0.322 N 
HETATM   17  C14 UNL     1      -9.440   9.680  15.457  1.00  0.00     0.046 A 
HETATM   18  H17 UNL     1      -7.599  10.779  15.430  1.00  0.00     0.169 HD
HETATM   19  C15 UNL     1     -10.373  10.592  15.909  1.00  0.00     0.032 A 
HETATM   20  C16 UNL     1     -11.690  10.151  16.043  1.00  0.00     0.026 A 
HETATM   21  C17 UNL     1     -12.023   8.816  15.735  1.00  0.00     0.060 A 
HETATM   22  C20 UNL     1     -11.066   7.908  15.260  1.00  0.00     0.038 A 
BRANCH  21  23
HETATM   23  S1  UNL     1     -13.717   8.288  15.912  1.00  0.00     0.175 S 
HETATM   24  O3  UNL     1     -14.108   8.555  17.283  1.00  0.00    -0.223 OA
HETATM   25  O4  UNL     1     -13.799   6.951  15.356  1.00  0.00    -0.223 OA
BRANCH  23  26
HETATM   26  C18 UNL     1     -14.601   9.410  14.844  1.00  0.00     0.141 C 
HETATM   27  C19 UNL     1     -15.069   8.722  13.578  1.00  0.00     0.021 C 
ENDBRANCH  23  26
ENDBRANCH  21  23
ENDBRANCH   2  11
BRANCH   1  28
HETATM   28  C8  UNL     1      -5.377   6.560  15.193  1.00  0.00     0.043 C 
BRANCH  28  29
HETATM   29  C7  UNL     1      -4.074   5.984  15.758  1.00  0.00     0.035 C 
BRANCH  29  30
HETATM   30  C6  UNL     1      -2.931   7.010  15.772  1.00  0.00     0.273 C 
BRANCH  30  31
HETATM   31  N2  UNL     1      -1.668   6.480  15.225  1.00  0.00     0.091 N 
HETATM   32  C5  UNL     1      -0.521   7.327  15.628  1.00  0.00     0.292 C 
HETATM   33  C4  UNL     1      -0.086   8.373  14.587  1.00  0.00     0.156 C 
HETATM   34  N1  UNL     1       0.235   7.766  13.293  1.00  0.00    -0.349 N 
HETATM   35  C3  UNL     1       1.095   8.436  12.438  1.00  0.00     0.219 C 
HETATM   36  C29 UNL     1      -0.379   6.460  13.032  1.00  0.00     0.156 C 
HETATM   37  O1  UNL     1       1.552   9.547  12.715  1.00  0.00    -0.273 OA
HETATM   38  C28 UNL     1      -1.734   6.314  13.754  1.00  0.00     0.292 C 
BRANCH  35  39
HETATM   39  C2  UNL     1       1.450   7.732  11.138  1.00  0.00     0.098 C 
HETATM   40  C1  UNL     1       0.593   8.200   9.972  1.00  0.00     0.014 C 
ENDBRANCH  35  39
ENDBRANCH  30  31
ENDBRANCH  29  30
ENDBRANCH  28  29
ENDBRANCH   1  28
TORSDOF 8
ENDMDL
MODEL 5
REMARK minimizedAffinity -8.27441025
REMARK CNNscore 0.157083422
REMARK CNNaffinity 6.56491041
REMARK  8 active torsions:
REMARK  status: ('A' for Active; 'I' for Inactive)
REMARK    1  A    between atoms: C2_2  and  C3_3 
REMARK       I    between atoms: C3_3  and  N1_5 
REMARK    2  A    between atoms: N2_8  and  C6_9 
REMARK    3  A    between atoms: C6_9  and  C7_10 
REMARK    4  A    between atoms: C7_10  and  C8_11 
REMARK    5  A    between atoms: C8_11  and  C9_12 
REMARK    6  A    between atoms: C10_13  and  C11_14 
REMARK    7  A    between atoms: C17_22  and  S1_23 
REMARK    8  A    between atoms: S1_23  and  C18_26 
ROOT
HETATM    1  C9  UNL     1      -6.397   5.607  13.395  1.00  0.00    -0.023 A 
HETATM    2  C10 UNL     1      -7.719   5.472  13.828  1.00  0.00     0.040 A 
HETATM    3  N4  UNL     1      -8.120   4.194  13.513  1.00  0.00    -0.359 N 
HETATM    4  C22 UNL     1      -7.108   3.528  12.886  1.00  0.00     0.016 A 
HETATM    5  C23 UNL     1      -6.016   4.363  12.809  1.00  0.00    -0.027 A 
HETATM    6  C24 UNL     1      -4.733   3.936  12.171  1.00  0.00     0.041 C 
HETATM    7  C25 UNL     1      -4.687   2.410  11.964  1.00  0.00     0.005 C 
HETATM    8  C26 UNL     1      -6.021   1.855  11.432  1.00  0.00     0.006 C 
HETATM    9  C27 UNL     1      -7.185   2.123  12.403  1.00  0.00     0.057 C 
HETATM   10  H26 UNL     1      -9.024   3.786  13.735  1.00  0.00     0.166 HD
ENDROOT
BRANCH   2  11
HETATM   11  C11 UNL     1      -8.587   6.407  14.460  1.00  0.00     0.048 C 
HETATM   12  C12 UNL     1      -9.664   7.043  13.968  1.00  0.00     0.047 A 
HETATM   13  C13 UNL     1     -10.311   6.990  12.604  1.00  0.00     0.257 A 
HETATM   14  C21 UNL     1     -10.484   7.972  14.772  1.00  0.00     0.008 A 
HETATM   15  O2  UNL     1      -9.948   6.381  11.615  1.00  0.00    -0.267 OA
HETATM   16  N3  UNL     1     -11.424   7.810  12.690  1.00  0.00    -0.322 N 
HETATM   17  C14 UNL     1     -11.534   8.389  13.947  1.00  0.00     0.046 A 
HETATM   18  H17 UNL     1     -12.053   7.951  11.914  1.00  0.00     0.169 HD
HETATM   19  C15 UNL     1     -12.522   9.257  14.370  1.00  0.00     0.032 A 
HETATM   20  C16 UNL     1     -12.441   9.733  15.680  1.00  0.00     0.026 A 
HETATM   21  C17 UNL     1     -11.373   9.339  16.511  1.00  0.00     0.060 A 
HETATM   22  C20 UNL     1     -10.388   8.443  16.071  1.00  0.00     0.038 A 
BRANCH  21  23
HETATM   23  S1  UNL     1     -11.306   9.962  18.180  1.00  0.00     0.175 S 
HETATM   24  O3  UNL     1     -10.608  11.232  18.135  1.00  0.00    -0.223 OA
HETATM   25  O4  UNL     1     -10.830   8.873  19.014  1.00  0.00    -0.223 OA
BRANCH  23  26
HETATM   26  C18 UNL     1     -13.020  10.273  18.563  1.00  0.00     0.141 C 
HETATM   27  C19 UNL     1     -13.653   9.097  19.280  1.00  0.00     0.021 C 
ENDBRANCH  23  26
ENDBRANCH  21  23
ENDBRANCH   2  11
BRANCH   1  28
HETATM   28  C8  UNL     1      -5.521   6.819  13.527  1.00  0.00     0.043 C 
BRANCH  28  29
HETATM   29  C7  UNL     1      -5.040   7.102  14.955  1.00  0.00     0.035 C 
BRANCH  29  30
HETATM   30  C6  UNL     1      -3.548   7.462  15.016  1.00  0.00     0.273 C 
BRANCH  30  31
HETATM   31  N2  UNL     1      -3.298   8.914  14.962  1.00  0.00     0.091 N 
HETATM   32  C5  UNL     1      -1.935   9.234  15.447  1.00  0.00     0.292 C 
HETATM   33  C4  UNL     1      -1.852   9.664  16.922  1.00  0.00     0.156 C 
HETATM   34  N1  UNL     1      -2.715  10.811  17.213  1.00  0.00    -0.349 N 
HETATM   35  C3  UNL     1      -2.401  11.623  18.291  1.00  0.00     0.219 C 
HETATM   36  C29 UNL     1      -3.840  11.012  16.295  1.00  0.00     0.156 C 
HETATM   37  O1  UNL     1      -1.452  11.375  19.037  1.00  0.00    -0.273 OA
HETATM   38  C28 UNL     1      -4.332   9.678  15.698  1.00  0.00     0.292 C 
BRANCH  35  39
HETATM   39  C2  UNL     1      -3.287  12.839  18.510  1.00  0.00     0.098 C 
HETATM   40  C1  UNL     1      -4.432  12.558  19.471  1.00  0.00     0.014 C 
ENDBRANCH  35  39
ENDBRANCH  30  31
ENDBRANCH  29  30
ENDBRANCH  28  29
ENDBRANCH   1  28
TORSDOF 8
ENDMDL
MODEL 6
REMARK minimizedAffinity -7.88871479
REMARK CNNscore 0.15412648
REMARK CNNaffinity 6.81470823
REMARK  8 active torsions:
REMARK  status: ('A' for Active; 'I' for Inactive)
REMARK    1  A    between atoms: C2_2  and  C3_3 
REMARK       I    between atoms: C3_3  and  N1_5 
REMARK    2  A    between atoms: N2_8  and  C6_9 
REMARK    3  A    between atoms: C6_9  and  C7_10 
REMARK    4  A    between atoms: C7_10  and  C8_11 
REMARK    5  A    between atoms: C8_11  and  C9_12 
REMARK    6  A    between atoms: C10_13  and  C11_14 
REMARK    7  A    between atoms: C17_22  and  S1_23 
REMARK    8  A    between atoms: S1_23  and  C18_26 
ROOT
HETATM    1  C9  UNL     1      -6.247   5.558  13.522  1.00  0.00    -0.023 A 
HETATM    2  C10 UNL     1      -7.608   5.452  13.818  1.00  0.00     0.040 A 
HETATM    3  N4  UNL     1      -8.027   4.221  13.368  1.00  0.00    -0.359 N 
HETATM    4  C22 UNL     1      -6.987   3.558  12.786  1.00  0.00     0.016 A 
HETATM    5  C23 UNL     1      -5.861   4.345  12.877  1.00  0.00    -0.027 A 
HETATM    6  C24 UNL     1      -4.541   3.908  12.329  1.00  0.00     0.041 C 
HETATM    7  C25 UNL     1      -4.534   2.402  12.007  1.00  0.00     0.005 C 
HETATM    8  C26 UNL     1      -5.832   1.950  11.312  1.00  0.00     0.006 C 
HETATM    9  C27 UNL     1      -7.072   2.199  12.188  1.00  0.00     0.057 C 
HETATM   10  H26 UNL     1      -8.964   3.841  13.471  1.00  0.00     0.166 HD
ENDROOT
BRANCH   2  11
HETATM   11  C11 UNL     1      -8.497   6.377  14.439  1.00  0.00     0.048 C 
HETATM   12  C12 UNL     1      -9.579   6.994  13.936  1.00  0.00     0.047 A 
HETATM   13  C13 UNL     1     -10.215   6.923  12.568  1.00  0.00     0.257 A 
HETATM   14  C21 UNL     1     -10.420   7.913  14.729  1.00  0.00     0.008 A 
HETATM   15  O2  UNL     1      -9.836   6.315  11.584  1.00  0.00    -0.267 OA
HETATM   16  N3  UNL     1     -11.342   7.726  12.640  1.00  0.00    -0.322 N 
HETATM   17  C14 UNL     1     -11.471   8.310  13.894  1.00  0.00     0.046 A 
HETATM   18  H17 UNL     1     -11.967   7.853  11.859  1.00  0.00     0.169 HD
HETATM   19  C15 UNL     1     -12.475   9.164  14.305  1.00  0.00     0.032 A 
HETATM   20  C16 UNL     1     -12.412   9.648  15.613  1.00  0.00     0.026 A 
HETATM   21  C17 UNL     1     -11.344   9.275  16.454  1.00  0.00     0.060 A 
HETATM   22  C20 UNL     1     -10.342   8.392  16.026  1.00  0.00     0.038 A 
BRANCH  21  23
HETATM   23  S1  UNL     1     -11.298   9.907  18.120  1.00  0.00     0.175 S 
HETATM   24  O3  UNL     1     -10.629  11.193  18.072  1.00  0.00    -0.223 OA
HETATM   25  O4  UNL     1     -10.802   8.834  18.962  1.00  0.00    -0.223 OA
BRANCH  23  26
HETATM   26  C18 UNL     1     -13.021  10.181  18.493  1.00  0.00     0.141 C 
HETATM   27  C19 UNL     1     -13.621   9.010  19.246  1.00  0.00     0.021 C 
ENDBRANCH  23  26
ENDBRANCH  21  23
ENDBRANCH   2  11
BRANCH   1  28
HETATM   28  C8  UNL     1      -5.341   6.715  13.830  1.00  0.00     0.043 C 
BRANCH  28  29
HETATM   29  C7  UNL     1      -4.682   6.654  15.212  1.00  0.00     0.035 C 
BRANCH  29  30
HETATM   30  C6  UNL     1      -3.187   7.003  15.171  1.00  0.00     0.273 C 
BRANCH  30  31
HETATM   31  N2  UNL     1      -2.917   8.432  15.416  1.00  0.00     0.091 N 
HETATM   32  C5  UNL     1      -2.279   9.060  14.235  1.00  0.00     0.292 C 
HETATM   33  C4  UNL     1      -0.745   9.155  14.296  1.00  0.00     0.156 C 
HETATM   34  N1  UNL     1      -0.282   9.867  15.490  1.00  0.00    -0.349 N 
HETATM   35  C3  UNL     1       0.961  10.477  15.461  1.00  0.00     0.219 C 
HETATM   36  C29 UNL     1      -1.216   9.891  16.620  1.00  0.00     0.156 C 
HETATM   37  O1  UNL     1       1.705  10.389  14.482  1.00  0.00    -0.273 OA
HETATM   38  C28 UNL     1      -2.114   8.637  16.643  1.00  0.00     0.292 C 
BRANCH  35  39
HETATM   39  C2  UNL     1       1.366  11.260  16.699  1.00  0.00     0.098 C 
HETATM   40  C1  UNL     1       2.378  10.514  17.554  1.00  0.00     0.014 C 
ENDBRANCH  35  39
ENDBRANCH  30  31
ENDBRANCH  29  30
ENDBRANCH  28  29
ENDBRANCH   1  28
TORSDOF 8
ENDMDL
MODEL 7
REMARK minimizedAffinity -7.62585545
REMARK CNNscore 0.139470771
REMARK CNNaffinity 7.00810957
REMARK  8 active torsions:
REMARK  status: ('A' for Active; 'I' for Inactive)
REMARK    1  A    between atoms: C2_2  and  C3_3 
REMARK       I    between atoms: C3_3  and  N1_5 
REMARK    2  A    between atoms: N2_8  and  C6_9 
REMARK    3  A    between atoms: C6_9  and  C7_10 
REMARK    4  A    between atoms: C7_10  and  C8_11 
REMARK    5  A    between atoms: C8_11  and  C9_12 
REMARK    6  A    between atoms: C10_13  and  C11_14 
REMARK    7  A    between atoms: C17_22  and  S1_23 
REMARK    8  A    between atoms: S1_23  and  C18_26 
ROOT
HETATM    1  C9  UNL     1      -3.562   6.117  13.747  1.00  0.00    -0.023 A 
HETATM    2  C10 UNL     1      -4.882   5.691  13.584  1.00  0.00     0.040 A 
HETATM    3  N4  UNL     1      -4.839   4.453  12.984  1.00  0.00    -0.359 N 
HETATM    4  C22 UNL     1      -3.544   4.094  12.748  1.00  0.00     0.016 A 
HETATM    5  C23 UNL     1      -2.720   5.090  13.223  1.00  0.00    -0.027 A 
HETATM    6  C24 UNL     1      -1.231   5.007  13.117  1.00  0.00     0.041 C 
HETATM    7  C25 UNL     1      -0.770   3.580  12.767  1.00  0.00     0.005 C 
HETATM    8  C26 UNL     1      -1.646   2.936  11.676  1.00  0.00     0.006 C 
HETATM    9  C27 UNL     1      -3.117   2.818  12.113  1.00  0.00     0.057 C 
HETATM   10  H26 UNL     1      -5.643   3.872  12.768  1.00  0.00     0.166 HD
ENDROOT
BRANCH   2  11
HETATM   11  C11 UNL     1      -6.111   6.332  13.913  1.00  0.00     0.048 C 
HETATM   12  C12 UNL     1      -7.362   6.038  13.523  1.00  0.00     0.047 A 
HETATM   13  C13 UNL     1      -7.889   4.950  12.618  1.00  0.00     0.257 A 
HETATM   14  C21 UNL     1      -8.545   6.794  13.983  1.00  0.00     0.008 A 
HETATM   15  O2  UNL     1      -7.264   4.117  11.987  1.00  0.00    -0.267 OA
HETATM   16  N3  UNL     1      -9.266   5.096  12.625  1.00  0.00    -0.322 N 
HETATM   17  C14 UNL     1      -9.661   6.168  13.415  1.00  0.00     0.046 A 
HETATM   18  H17 UNL     1      -9.879   4.485  12.106  1.00  0.00     0.169 HD
HETATM   19  C15 UNL     1     -10.955   6.593  13.641  1.00  0.00     0.032 A 
HETATM   20  C16 UNL     1     -11.132   7.704  14.466  1.00  0.00     0.026 A 
HETATM   21  C17 UNL     1     -10.013   8.357  15.023  1.00  0.00     0.060 A 
HETATM   22  C20 UNL     1      -8.707   7.902  14.798  1.00  0.00     0.038 A 
BRANCH  21  23
HETATM   23  S1  UNL     1     -10.277   9.770  16.077  1.00  0.00     0.175 S 
HETATM   24  O3  UNL     1     -10.147   9.313  17.447  1.00  0.00    -0.223 OA
HETATM   25  O4  UNL     1     -11.491  10.417  15.614  1.00  0.00    -0.223 OA
BRANCH  23  26
HETATM   26  C18 UNL     1      -8.887  10.821  15.698  1.00  0.00     0.141 C 
HETATM   27  C19 UNL     1      -9.243  12.287  15.835  1.00  0.00     0.021 C 
ENDBRANCH  23  26
ENDBRANCH  21  23
ENDBRANCH   2  11
BRANCH   1  28
HETATM   28  C8  UNL     1      -3.095   7.402  14.366  1.00  0.00     0.043 C 
BRANCH  28  29
HETATM   29  C7  UNL     1      -1.645   7.774  14.039  1.00  0.00     0.035 C 
BRANCH  29  30
HETATM   30  C6  UNL     1      -1.533   8.709  12.825  1.00  0.00     0.273 C 
BRANCH  30  31
HETATM   31  N2  UNL     1      -1.220   7.998  11.571  1.00  0.00     0.091 N 
HETATM   32  C5  UNL     1      -0.097   7.051  11.767  1.00  0.00     0.292 C 
HETATM   33  C4  UNL     1       1.286   7.587  11.359  1.00  0.00     0.156 C 
HETATM   34  N1  UNL     1       1.315   8.038   9.965  1.00  0.00    -0.349 N 
HETATM   35  C3  UNL     1       2.529   8.062   9.299  1.00  0.00     0.219 C 
HETATM   36  C29 UNL     1       0.019   8.404   9.387  1.00  0.00     0.156 C 
HETATM   37  O1  UNL     1       3.586   7.766   9.861  1.00  0.00    -0.273 OA
HETATM   38  C28 UNL     1      -0.952   8.939  10.459  1.00  0.00     0.292 C 
BRANCH  35  39
HETATM   39  C2  UNL     1       2.496   8.473   7.835  1.00  0.00     0.098 C 
HETATM   40  C1  UNL     1       2.127   7.320   6.916  1.00  0.00     0.014 C 
ENDBRANCH  35  39
ENDBRANCH  30  31
ENDBRANCH  29  30
ENDBRANCH  28  29
ENDBRANCH   1  28
TORSDOF 8
ENDMDL
MODEL 8
REMARK minimizedAffinity -7.61208439
REMARK CNNscore 0.125199348
REMARK CNNaffinity 6.17975235
REMARK  8 active torsions:
REMARK  status: ('A' for Active; 'I' for Inactive)
REMARK    1  A    between atoms: C2_2  and  C3_3 
REMARK       I    between atoms: C3_3  and  N1_5 
REMARK    2  A    between atoms: N2_8  and  C6_9 
REMARK    3  A    between atoms: C6_9  and  C7_10 
REMARK    4  A    between atoms: C7_10  and  C8_11 
REMARK    5  A    between atoms: C8_11  and  C9_12 
REMARK    6  A    between atoms: C10_13  and  C11_14 
REMARK    7  A    between atoms: C17_22  and  S1_23 
REMARK    8  A    between atoms: S1_23  and  C18_26 
ROOT
HETATM    1  C9  UNL     1     -11.039   9.067  16.069  1.00  0.00    -0.023 A 
HETATM    2  C10 UNL     1     -11.756   9.601  17.143  1.00  0.00     0.040 A 
HETATM    3  N4  UNL     1     -13.093   9.474  16.840  1.00  0.00    -0.359 N 
HETATM    4  C22 UNL     1     -13.241   8.898  15.612  1.00  0.00     0.016 A 
HETATM    5  C23 UNL     1     -11.992   8.613  15.109  1.00  0.00    -0.027 A 
HETATM    6  C24 UNL     1     -11.802   7.976  13.770  1.00  0.00     0.041 C 
HETATM    7  C25 UNL     1     -13.119   7.381  13.237  1.00  0.00     0.005 C 
HETATM    8  C26 UNL     1     -14.317   8.320  13.467  1.00  0.00     0.006 C 
HETATM    9  C27 UNL     1     -14.547   8.606  14.962  1.00  0.00     0.057 C 
HETATM   10  H26 UNL     1     -13.864   9.742  17.445  1.00  0.00     0.166 HD
ENDROOT
BRANCH   2  11
HETATM   11  C11 UNL     1     -11.305  10.204  18.351  1.00  0.00     0.048 C 
HETATM   12  C12 UNL     1     -11.588   9.885  19.625  1.00  0.00     0.047 A 
HETATM   13  C13 UNL     1     -12.465   8.801  20.205  1.00  0.00     0.257 A 
HETATM   14  C21 UNL     1     -11.007  10.600  20.780  1.00  0.00     0.008 A 
HETATM   15  O2  UNL     1     -13.167   7.997  19.620  1.00  0.00    -0.267 OA
HETATM   16  N3  UNL     1     -12.331   8.910  21.579  1.00  0.00    -0.322 N 
HETATM   17  C14 UNL     1     -11.486   9.957  21.927  1.00  0.00     0.046 A 
HETATM   18  H17 UNL     1     -12.806   8.294  22.221  1.00  0.00     0.169 HD
HETATM   19  C15 UNL     1     -11.136  10.343  23.206  1.00  0.00     0.032 A 
HETATM   20  C16 UNL     1     -10.274  11.433  23.334  1.00  0.00     0.026 A 
HETATM   21  C17 UNL     1      -9.807  12.104  22.186  1.00  0.00     0.060 A 
HETATM   22  C20 UNL     1     -10.158  11.687  20.894  1.00  0.00     0.038 A 
BRANCH  21  23
HETATM   23  S1  UNL     1      -8.702  13.489  22.388  1.00  0.00     0.175 S 
HETATM   24  O3  UNL     1      -7.448  12.967  22.895  1.00  0.00    -0.223 OA
HETATM   25  O4  UNL     1      -9.438  14.509  23.113  1.00  0.00    -0.223 OA
BRANCH  23  26
HETATM   26  C18 UNL     1      -8.446  14.047  20.714  1.00  0.00     0.141 C 
HETATM   27  C19 UNL     1      -7.085  13.631  20.190  1.00  0.00     0.021 C 
ENDBRANCH  23  26
ENDBRANCH  21  23
ENDBRANCH   2  11
BRANCH   1  28
HETATM   28  C8  UNL     1      -9.547   8.967  15.938  1.00  0.00     0.043 C 
BRANCH  28  29
HETATM   29  C7  UNL     1      -8.935   7.723  16.592  1.00  0.00     0.035 C 
BRANCH  29  30
HETATM   30  C6  UNL     1      -8.955   6.498  15.666  1.00  0.00     0.273 C 
BRANCH  30  31
HETATM   31  N2  UNL     1      -8.102   6.657  14.474  1.00  0.00     0.091 N 
HETATM   32  C5  UNL     1      -8.635   5.873  13.334  1.00  0.00     0.292 C 
HETATM   33  C4  UNL     1      -7.990   4.490  13.137  1.00  0.00     0.156 C 
HETATM   34  N1  UNL     1      -6.535   4.575  12.985  1.00  0.00    -0.349 N 
HETATM   35  C3  UNL     1      -5.876   3.557  12.315  1.00  0.00     0.219 C 
HETATM   36  C29 UNL     1      -5.904   5.774  13.546  1.00  0.00     0.156 C 
HETATM   37  O1  UNL     1      -6.471   2.564  11.894  1.00  0.00    -0.273 OA
HETATM   38  C28 UNL     1      -6.689   6.315  14.758  1.00  0.00     0.292 C 
BRANCH  35  39
HETATM   39  C2  UNL     1      -4.377   3.726  12.124  1.00  0.00     0.098 C 
HETATM   40  C1  UNL     1      -3.952   3.551  10.674  1.00  0.00     0.014 C 
ENDBRANCH  35  39
ENDBRANCH  30  31
ENDBRANCH  29  30
ENDBRANCH  28  29
ENDBRANCH   1  28
TORSDOF 8
ENDMDL
MODEL 9
REMARK minimizedAffinity -8.71774006
REMARK CNNscore 0.122682765
REMARK CNNaffinity 6.79048729
REMARK  8 active torsions:
REMARK  status: ('A' for Active; 'I' for Inactive)
REMARK    1  A    between atoms: C2_2  and  C3_3 
REMARK       I    between atoms: C3_3  and  N1_5 
REMARK    2  A    between atoms: N2_8  and  C6_9 
REMARK    3  A    between atoms: C6_9  and  C7_10 
REMARK    4  A    between atoms: C7_10  and  C8_11 
REMARK    5  A    between atoms: C8_11  and  C9_12 
REMARK    6  A    between atoms: C10_13  and  C11_14 
REMARK    7  A    between atoms: C17_22  and  S1_23 
REMARK    8  A    between atoms: S1_23  and  C18_26 
ROOT
HETATM    1  C9  UNL     1      -6.401   5.549  13.403  1.00  0.00    -0.023 A 
HETATM    2  C10 UNL     1      -7.726   5.432  13.828  1.00  0.00     0.040 A 
HETATM    3  N4  UNL     1      -8.145   4.161  13.507  1.00  0.00    -0.359 N 
HETATM    4  C22 UNL     1      -7.139   3.482  12.883  1.00  0.00     0.016 A 
HETATM    5  C23 UNL     1      -6.035   4.301  12.815  1.00  0.00    -0.027 A 
HETATM    6  C24 UNL     1      -4.755   3.857  12.182  1.00  0.00     0.041 C 
HETATM    7  C25 UNL     1      -4.730   2.332  11.971  1.00  0.00     0.005 C 
HETATM    8  C26 UNL     1      -6.069   1.797  11.430  1.00  0.00     0.006 C 
HETATM    9  C27 UNL     1      -7.234   2.080  12.396  1.00  0.00     0.057 C 
HETATM   10  H26 UNL     1      -9.056   3.766  13.723  1.00  0.00     0.166 HD
ENDROOT
BRANCH   2  11
HETATM   11  C11 UNL     1      -8.585   6.378  14.458  1.00  0.00     0.048 C 
HETATM   12  C12 UNL     1      -9.648   7.033  13.962  1.00  0.00     0.047 A 
HETATM   13  C13 UNL     1     -10.287   6.995  12.594  1.00  0.00     0.257 A 
HETATM   14  C21 UNL     1     -10.459   7.971  14.764  1.00  0.00     0.008 A 
HETATM   15  O2  UNL     1      -9.927   6.385  11.604  1.00  0.00    -0.267 OA
HETATM   16  N3  UNL     1     -11.388   7.832  12.675  1.00  0.00    -0.322 N 
HETATM   17  C14 UNL     1     -11.497   8.408  13.935  1.00  0.00     0.046 A 
HETATM   18  H17 UNL     1     -12.010   7.986  11.896  1.00  0.00     0.169 HD
HETATM   19  C15 UNL     1     -12.474   9.289  14.355  1.00  0.00     0.032 A 
HETATM   20  C16 UNL     1     -12.394   9.759  15.667  1.00  0.00     0.026 A 
HETATM   21  C17 UNL     1     -11.338   9.344  16.503  1.00  0.00     0.060 A 
HETATM   22  C20 UNL     1     -10.364   8.435  16.066  1.00  0.00     0.038 A 
BRANCH  21  23
HETATM   23  S1  UNL     1     -11.271   9.960  18.175  1.00  0.00     0.175 S 
HETATM   24  O3  UNL     1     -10.592  11.241  18.134  1.00  0.00    -0.223 OA
HETATM   25  O4  UNL     1     -10.776   8.874  19.001  1.00  0.00    -0.223 OA
BRANCH  23  26
HETATM   26  C18 UNL     1     -12.988  10.244  18.568  1.00  0.00     0.141 C 
HETATM   27  C19 UNL     1     -13.660   8.983  19.074  1.00  0.00     0.021 C 
ENDBRANCH  23  26
ENDBRANCH  21  23
ENDBRANCH   2  11
BRANCH   1  28
HETATM   28  C8  UNL     1      -5.508   6.748  13.543  1.00  0.00     0.043 C 
BRANCH  28  29
HETATM   29  C7  UNL     1      -4.539   6.681  14.728  1.00  0.00     0.035 C 
BRANCH  29  30
HETATM   30  C6  UNL     1      -3.126   7.165  14.366  1.00  0.00     0.273 C 
BRANCH  30  31
HETATM   31  N2  UNL     1      -2.193   6.062  14.069  1.00  0.00     0.091 N 
HETATM   32  C5  UNL     1      -0.913   6.244  14.793  1.00  0.00     0.292 C 
HETATM   33  C4  UNL     1       0.211   6.903  13.973  1.00  0.00     0.156 C 
HETATM   34  N1  UNL     1       0.493   6.174  12.734  1.00  0.00    -0.349 N 
HETATM   35  C3  UNL     1       1.746   6.302  12.157  1.00  0.00     0.219 C 
HETATM   36  C29 UNL     1      -0.597   5.334  12.227  1.00  0.00     0.156 C 
HETATM   37  O1  UNL     1       2.604   7.050  12.627  1.00  0.00    -0.273 OA
HETATM   38  C28 UNL     1      -1.979   5.901  12.613  1.00  0.00     0.292 C 
BRANCH  35  39
HETATM   39  C2  UNL     1       2.011   5.472  10.911  1.00  0.00     0.098 C 
HETATM   40  C1  UNL     1       1.948   6.300   9.637  1.00  0.00     0.014 C 
ENDBRANCH  35  39
ENDBRANCH  30  31
ENDBRANCH  29  30
ENDBRANCH  28  29
ENDBRANCH   1  28
TORSDOF 8
ENDMDL
