MODEL 1
REMARK minimizedAffinity -7.6369586
REMARK CNNscore 0.414602578
REMARK CNNaffinity 7.33781433
REMARK  10 active torsions:
REMARK  status: ('A' for Active; 'I' for Inactive)
REMARK    1  A    between atoms: O1_2  and  C2_3 
REMARK    2  A    between atoms: C5_9  and  N2_10 
REMARK    3  A    between atoms: N2_10  and  C6_11 
REMARK    4  A    between atoms: C10_19  and  O2_20 
REMARK    5  A    between atoms: O2_20  and  C11_21 
REMARK    6  A    between atoms: C11_21  and  C12_22 
REMARK    7  A    between atoms: C12_22  and  C13_23 
REMARK    8  A    between atoms: C13_23  and  N5_24 
REMARK    9  A    between atoms: C19_31  and  O4_32 
REMARK   10  A    between atoms: O4_32  and  C20_33 
ROOT
HETATM    1  C6  UNL     1      -0.358  52.088 -23.887  1.00  0.00     0.122 A 
HETATM    2  N3  UNL     1       0.940  52.315 -24.167  1.00  0.00    -0.338 N 
ATOM      3  H3  UNL     1       1.556  52.783 -23.502  1.00  0.00     0.168 HD
HETATM    4  C7  UNL     1       1.382  51.901 -25.353  1.00  0.00     0.182 A 
HETATM    5  N4  UNL     1       0.658  51.279 -26.285  1.00  0.00    -0.351 N 
ATOM      6  H4  UNL     1       1.065  50.997 -27.176  1.00  0.00     0.166 HD
HETATM    7  C8  UNL     1      -0.625  51.042 -25.999  1.00  0.00     0.052 A 
HETATM    8  C9  UNL     1      -1.396  50.427 -26.975  1.00  0.00     0.067 A 
HETATM    9  C10 UNL     1      -2.754  50.159 -26.800  1.00  0.00     0.073 A 
HETATM   10  C18 UNL     1      -3.351  50.470 -25.589  1.00  0.00     0.074 A 
HETATM   11  C19 UNL     1      -2.586  51.055 -24.572  1.00  0.00     0.088 A 
HETATM   12  C25 UNL     1      -1.217  51.398 -24.779  1.00  0.00     0.068 A 
ENDROOT
BRANCH   1  13
HETATM   13  N2  UNL     1      -0.874  52.560 -22.652  1.00  0.00    -0.339 N 
HETATM   14  H5  UNL     1      -1.372  53.435 -22.821  1.00  0.00     0.167 HD
BRANCH  13  15
HETATM   15  C5  UNL     1      -0.223  52.573 -21.395  1.00  0.00     0.075 A 
HETATM   16  C4  UNL     1       0.735  53.545 -21.068  1.00  0.00     0.130 A 
HETATM   17  N1  UNL     1       1.384  53.639 -19.888  1.00  0.00    -0.352 N 
HETATM   18 CL1  UNL     1       1.208  54.753 -22.205  1.00  0.00    -0.062 Cl
HETATM   19  C3  UNL     1       1.060  52.706 -18.966  1.00  0.00     0.126 A 
ATOM     20  H1  UNL     1       2.074  54.368 -19.705  1.00  0.00     0.166 HD
HETATM   21  C2  UNL     1       0.120  51.697 -19.158  1.00  0.00     0.085 A 
HETATM   22  C26 UNL     1      -0.526  51.642 -20.392  1.00  0.00     0.071 A 
BRANCH  21  23
HETATM   23  O1  UNL     1      -0.073  50.854 -18.103  1.00  0.00    -0.355 OA
HETATM   24  C1  UNL     1      -0.789  49.653 -18.365  1.00  0.00     0.210 C 
ENDBRANCH  21  23
ENDBRANCH  13  15
ENDBRANCH   1  13
BRANCH  11  25
HETATM   25  O4  UNL     1      -3.183  51.370 -23.370  1.00  0.00    -0.345 OA
BRANCH  25  26
HETATM   26  C20 UNL     1      -4.261  50.477 -23.011  1.00  0.00     0.133 C 
HETATM   27  C21 UNL     1      -5.031  51.091 -21.840  1.00  0.00     0.058 C 
HETATM   28  C22 UNL     1      -4.207  51.045 -20.562  1.00  0.00     0.170 C 
HETATM   29  O5  UNL     1      -3.825  49.703 -20.272  1.00  0.00    -0.391 OA
HETATM   30  C23 UNL     1      -2.964  49.171 -21.278  1.00  0.00     0.170 C 
HETATM   31  C24 UNL     1      -3.675  49.117 -22.622  1.00  0.00     0.058 C 
ENDBRANCH  25  26
ENDBRANCH  11  25
BRANCH   9  32
HETATM   32  O2  UNL     1      -3.369  49.586 -27.876  1.00  0.00    -0.351 OA
BRANCH  32  33
HETATM   33  C11 UNL     1      -4.266  48.503 -27.622  1.00  0.00     0.177 C 
BRANCH  33  34
HETATM   34  C12 UNL     1      -5.102  48.245 -28.879  1.00  0.00     0.057 C 
BRANCH  34  35
HETATM   35  C13 UNL     1      -6.173  47.156 -28.692  1.00  0.00     0.274 C 
BRANCH  35  36
HETATM   36  N5  UNL     1      -7.372  47.311 -29.522  1.00  0.00     0.092 N 
HETATM   37  C14 UNL     1      -8.182  48.479 -29.107  1.00  0.00     0.298 C 
HETATM   38  C15 UNL     1      -8.981  48.257 -27.812  1.00  0.00     0.198 C 
HETATM   39  O3  UNL     1      -9.825  47.103 -27.909  1.00  0.00    -0.388 OA
HETATM   40  C16 UNL     1      -9.054  45.936 -28.222  1.00  0.00     0.198 C 
HETATM   41  C17 UNL     1      -8.251  46.121 -29.522  1.00  0.00     0.298 C 
ENDBRANCH  35  36
ENDBRANCH  34  35
ENDBRANCH  33  34
ENDBRANCH  32  33
ENDBRANCH   9  32
TORSDOF 10
ENDMDL
MODEL 2
REMARK minimizedAffinity -8.40799904
REMARK CNNscore 0.37342909
REMARK CNNaffinity 7.48864937
REMARK  10 active torsions:
REMARK  status: ('A' for Active; 'I' for Inactive)
REMARK    1  A    between atoms: O1_2  and  C2_3 
REMARK    2  A    between atoms: C5_9  and  N2_10 
REMARK    3  A    between atoms: N2_10  and  C6_11 
REMARK    4  A    between atoms: C10_19  and  O2_20 
REMARK    5  A    between atoms: O2_20  and  C11_21 
REMARK    6  A    between atoms: C11_21  and  C12_22 
REMARK    7  A    between atoms: C12_22  and  C13_23 
REMARK    8  A    between atoms: C13_23  and  N5_24 
REMARK    9  A    between atoms: C19_31  and  O4_32 
REMARK   10  A    between atoms: O4_32  and  C20_33 
ROOT
HETATM    1  C6  UNL     1      -0.021  52.401 -21.388  1.00  0.00     0.122 A 
HETATM    2  N3  UNL     1       0.767  53.456 -21.673  1.00  0.00    -0.338 N 
ATOM      3  H3  UNL     1       0.854  53.817 -22.623  1.00  0.00     0.168 HD
HETATM    4  C7  UNL     1       1.427  54.006 -20.656  1.00  0.00     0.182 A 
HETATM    5  N4  UNL     1       1.376  53.611 -19.383  1.00  0.00    -0.351 N 
ATOM      6  H4  UNL     1       1.918  54.079 -18.657  1.00  0.00     0.166 HD
HETATM    7  C8  UNL     1       0.583  52.574 -19.101  1.00  0.00     0.052 A 
HETATM    8  C9  UNL     1       0.549  52.132 -17.786  1.00  0.00     0.067 A 
HETATM    9  C10 UNL     1      -0.218  51.039 -17.381  1.00  0.00     0.073 A 
HETATM   10  C18 UNL     1      -1.018  50.396 -18.313  1.00  0.00     0.074 A 
HETATM   11  C19 UNL     1      -1.033  50.847 -19.638  1.00  0.00     0.088 A 
HETATM   12  C25 UNL     1      -0.191  51.916 -20.067  1.00  0.00     0.068 A 
ENDROOT
BRANCH   1  13
HETATM   13  N2  UNL     1      -0.702  51.760 -22.456  1.00  0.00    -0.339 N 
HETATM   14  H5  UNL     1      -0.620  50.749 -22.333  1.00  0.00     0.167 HD
BRANCH  13  15
HETATM   15  C5  UNL     1      -0.682  52.115 -23.826  1.00  0.00     0.075 A 
HETATM   16  C4  UNL     1      -1.851  52.472 -24.515  1.00  0.00     0.130 A 
HETATM   17  N1  UNL     1      -1.913  52.842 -25.812  1.00  0.00    -0.352 N 
HETATM   18 CL1  UNL     1      -3.390  52.449 -23.738  1.00  0.00    -0.062 Cl
HETATM   19  C3  UNL     1      -0.735  52.862 -26.473  1.00  0.00     0.126 A 
ATOM     20  H1  UNL     1      -2.794  53.090 -26.263  1.00  0.00     0.166 HD
HETATM   21  C2  UNL     1       0.496  52.544 -25.905  1.00  0.00     0.085 A 
HETATM   22  C26 UNL     1       0.510  52.170 -24.561  1.00  0.00     0.071 A 
BRANCH  21  23
HETATM   23  O1  UNL     1       1.575  52.631 -26.734  1.00  0.00    -0.355 OA
HETATM   24  C1  UNL     1       2.488  51.540 -26.714  1.00  0.00     0.210 C 
ENDBRANCH  21  23
ENDBRANCH  13  15
ENDBRANCH   1  13
BRANCH  11  25
HETATM   25  O4  UNL     1      -1.824  50.202 -20.565  1.00  0.00    -0.345 OA
BRANCH  25  26
HETATM   26  C20 UNL     1      -1.274  48.945 -21.017  1.00  0.00     0.133 C 
HETATM   27  C21 UNL     1      -1.966  48.553 -22.324  1.00  0.00     0.058 C 
HETATM   28  C22 UNL     1      -3.409  48.141 -22.074  1.00  0.00     0.170 C 
HETATM   29  O5  UNL     1      -3.459  47.073 -21.132  1.00  0.00    -0.391 OA
HETATM   30  C23 UNL     1      -2.970  47.475 -19.853  1.00  0.00     0.170 C 
HETATM   31  C24 UNL     1      -1.506  47.882 -19.939  1.00  0.00     0.058 C 
ENDBRANCH  25  26
ENDBRANCH  11  25
BRANCH   9  32
HETATM   32  O2  UNL     1      -0.103  50.716 -16.060  1.00  0.00    -0.351 OA
BRANCH  32  33
HETATM   33  C11 UNL     1      -1.302  50.688 -15.282  1.00  0.00     0.177 C 
BRANCH  33  34
HETATM   34  C12 UNL     1      -1.041  51.379 -13.941  1.00  0.00     0.057 C 
BRANCH  34  35
HETATM   35  C13 UNL     1      -2.294  52.031 -13.330  1.00  0.00     0.274 C 
BRANCH  35  36
HETATM   36  N5  UNL     1      -2.578  51.657 -11.941  1.00  0.00     0.092 N 
HETATM   37  C14 UNL     1      -3.850  52.243 -11.462  1.00  0.00     0.298 C 
HETATM   38  C15 UNL     1      -3.768  53.747 -11.150  1.00  0.00     0.198 C 
HETATM   39  O3  UNL     1      -2.728  54.029 -10.205  1.00  0.00    -0.388 OA
HETATM   40  C16 UNL     1      -1.464  53.552 -10.684  1.00  0.00     0.198 C 
HETATM   41  C17 UNL     1      -1.509  52.045 -10.994  1.00  0.00     0.298 C 
ENDBRANCH  35  36
ENDBRANCH  34  35
ENDBRANCH  33  34
ENDBRANCH  32  33
ENDBRANCH   9  32
TORSDOF 10
ENDMDL
MODEL 3
REMARK minimizedAffinity -7.92028522
REMARK CNNscore 0.266546279
REMARK CNNaffinity 7.33700418
REMARK  10 active torsions:
REMARK  status: ('A' for Active; 'I' for Inactive)
REMARK    1  A    between atoms: O1_2  and  C2_3 
REMARK    2  A    between atoms: C5_9  and  N2_10 
REMARK    3  A    between atoms: N2_10  and  C6_11 
REMARK    4  A    between atoms: C10_19  and  O2_20 
REMARK    5  A    between atoms: O2_20  and  C11_21 
REMARK    6  A    between atoms: C11_21  and  C12_22 
REMARK    7  A    between atoms: C12_22  and  C13_23 
REMARK    8  A    between atoms: C13_23  and  N5_24 
REMARK    9  A    between atoms: C19_31  and  O4_32 
REMARK   10  A    between atoms: O4_32  and  C20_33 
ROOT
HETATM    1  C6  UNL     1       0.168  52.317 -21.461  1.00  0.00     0.122 A 
HETATM    2  N3  UNL     1       0.734  53.489 -21.809  1.00  0.00    -0.338 N 
ATOM      3  H3  UNL     1       0.735  53.816 -22.775  1.00  0.00     0.168 HD
HETATM    4  C7  UNL     1       1.291  54.202 -20.832  1.00  0.00     0.182 A 
HETATM    5  N4  UNL     1       1.337  53.863 -19.542  1.00  0.00    -0.351 N 
ATOM      6  H4  UNL     1       1.790  54.459 -18.850  1.00  0.00     0.166 HD
HETATM    7  C8  UNL     1       0.763  52.707 -19.199  1.00  0.00     0.052 A 
HETATM    8  C9  UNL     1       0.835  52.328 -17.865  1.00  0.00     0.067 A 
HETATM    9  C10 UNL     1       0.300  51.128 -17.397  1.00  0.00     0.073 A 
HETATM   10  C18 UNL     1      -0.375  50.301 -18.281  1.00  0.00     0.074 A 
HETATM   11  C19 UNL     1      -0.497  50.679 -19.623  1.00  0.00     0.088 A 
HETATM   12  C25 UNL     1       0.116  51.869 -20.117  1.00  0.00     0.068 A 
ENDROOT
BRANCH   1  13
HETATM   13  N2  UNL     1      -0.392  51.509 -22.485  1.00  0.00    -0.339 N 
HETATM   14  H5  UNL     1       0.370  51.072 -23.007  1.00  0.00     0.167 HD
BRANCH  13  15
HETATM   15  C5  UNL     1      -1.482  51.824 -23.331  1.00  0.00     0.075 A 
HETATM   16  C4  UNL     1      -1.291  52.321 -24.629  1.00  0.00     0.130 A 
HETATM   17  N1  UNL     1      -2.274  52.625 -25.503  1.00  0.00    -0.352 N 
HETATM   18 CL1  UNL     1       0.290  52.623 -25.248  1.00  0.00    -0.062 Cl
HETATM   19  C3  UNL     1      -3.534  52.420 -25.062  1.00  0.00     0.126 A 
ATOM     20  H1  UNL     1      -2.076  52.986 -26.437  1.00  0.00     0.166 HD
HETATM   21  C2  UNL     1      -3.860  51.921 -23.804  1.00  0.00     0.085 A 
HETATM   22  C26 UNL     1      -2.811  51.619 -22.937  1.00  0.00     0.071 A 
BRANCH  21  23
HETATM   23  O1  UNL     1      -5.192  51.778 -23.546  1.00  0.00    -0.355 OA
HETATM   24  C1  UNL     1      -5.722  50.460 -23.625  1.00  0.00     0.210 C 
ENDBRANCH  21  23
ENDBRANCH  13  15
ENDBRANCH   1  13
BRANCH  11  25
HETATM   25  O4  UNL     1      -1.164  49.853 -20.504  1.00  0.00    -0.345 OA
BRANCH  25  26
HETATM   26  C20 UNL     1      -1.599  48.610 -19.908  1.00  0.00     0.133 C 
HETATM   27  C21 UNL     1      -1.350  47.479 -20.908  1.00  0.00     0.058 C 
HETATM   28  C22 UNL     1      -2.314  47.568 -22.083  1.00  0.00     0.170 C 
HETATM   29  O5  UNL     1      -3.660  47.547 -21.615  1.00  0.00    -0.391 OA
HETATM   30  C23 UNL     1      -3.957  48.689 -20.814  1.00  0.00     0.170 C 
HETATM   31  C24 UNL     1      -3.088  48.714 -19.566  1.00  0.00     0.058 C 
ENDBRANCH  25  26
ENDBRANCH  11  25
BRANCH   9  32
HETATM   32  O2  UNL     1       0.495  50.893 -16.066  1.00  0.00    -0.351 OA
BRANCH  32  33
HETATM   33  C11 UNL     1      -0.644  50.984 -15.208  1.00  0.00     0.177 C 
BRANCH  33  34
HETATM   34  C12 UNL     1      -0.293  51.869 -14.009  1.00  0.00     0.057 C 
BRANCH  34  35
HETATM   35  C13 UNL     1      -1.273  51.726 -12.831  1.00  0.00     0.274 C 
BRANCH  35  36
HETATM   36  N5  UNL     1      -2.662  51.440 -13.205  1.00  0.00     0.092 N 
HETATM   37  C14 UNL     1      -3.503  52.658 -13.168  1.00  0.00     0.298 C 
HETATM   38  C15 UNL     1      -3.873  53.120 -11.749  1.00  0.00     0.198 C 
HETATM   39  O3  UNL     1      -4.515  52.075 -11.009  1.00  0.00    -0.388 OA
HETATM   40  C16 UNL     1      -3.682  50.910 -10.950  1.00  0.00     0.198 C 
HETATM   41  C17 UNL     1      -3.305  50.413 -12.357  1.00  0.00     0.298 C 
ENDBRANCH  35  36
ENDBRANCH  34  35
ENDBRANCH  33  34
ENDBRANCH  32  33
ENDBRANCH   9  32
TORSDOF 10
ENDMDL
MODEL 4
REMARK minimizedAffinity -7.56287241
REMARK CNNscore 0.25479427
REMARK CNNaffinity 7.07292795
REMARK  10 active torsions:
REMARK  status: ('A' for Active; 'I' for Inactive)
REMARK    1  A    between atoms: O1_2  and  C2_3 
REMARK    2  A    between atoms: C5_9  and  N2_10 
REMARK    3  A    between atoms: N2_10  and  C6_11 
REMARK    4  A    between atoms: C10_19  and  O2_20 
REMARK    5  A    between atoms: O2_20  and  C11_21 
REMARK    6  A    between atoms: C11_21  and  C12_22 
REMARK    7  A    between atoms: C12_22  and  C13_23 
REMARK    8  A    between atoms: C13_23  and  N5_24 
REMARK    9  A    between atoms: C19_31  and  O4_32 
REMARK   10  A    between atoms: O4_32  and  C20_33 
ROOT
HETATM    1  C6  UNL     1      -0.338  51.962 -20.554  1.00  0.00     0.122 A 
HETATM    2  N3  UNL     1       0.187  53.076 -21.103  1.00  0.00    -0.338 N 
ATOM      3  H3  UNL     1       0.006  53.329 -22.074  1.00  0.00     0.168 HD
HETATM    4  C7  UNL     1       0.954  53.830 -20.318  1.00  0.00     0.182 A 
HETATM    5  N4  UNL     1       1.246  53.586 -19.040  1.00  0.00    -0.351 N 
ATOM      6  H4  UNL     1       1.849  54.208 -18.503  1.00  0.00     0.166 HD
HETATM    7  C8  UNL     1       0.713  52.489 -18.495  1.00  0.00     0.052 A 
HETATM    8  C9  UNL     1       1.038  52.208 -17.175  1.00  0.00     0.067 A 
HETATM    9  C10 UNL     1       0.566  51.074 -16.512  1.00  0.00     0.073 A 
HETATM   10  C18 UNL     1      -0.301  50.219 -17.173  1.00  0.00     0.074 A 
HETATM   11  C19 UNL     1      -0.677  50.502 -18.492  1.00  0.00     0.088 A 
HETATM   12  C25 UNL     1      -0.135  51.619 -19.194  1.00  0.00     0.068 A 
ENDROOT
BRANCH   1  13
HETATM   13  N2  UNL     1      -1.120  51.110 -21.376  1.00  0.00    -0.339 N 
HETATM   14  H5  UNL     1      -0.960  50.144 -21.086  1.00  0.00     0.167 HD
BRANCH  13  15
HETATM   15  C5  UNL     1      -1.314  51.203 -22.775  1.00  0.00     0.075 A 
HETATM   16  C4  UNL     1      -1.849  50.141 -23.520  1.00  0.00     0.130 A 
HETATM   17  N1  UNL     1      -2.084  50.157 -24.849  1.00  0.00    -0.352 N 
HETATM   18 CL1  UNL     1      -2.256  48.640 -22.774  1.00  0.00    -0.062 Cl
HETATM   19  C3  UNL     1      -1.769  51.307 -25.486  1.00  0.00     0.126 A 
ATOM     20  H1  UNL     1      -2.475  49.353 -25.341  1.00  0.00     0.166 HD
HETATM   21  C2  UNL     1      -1.244  52.436 -24.864  1.00  0.00     0.085 A 
HETATM   22  C26 UNL     1      -1.021  52.372 -23.489  1.00  0.00     0.071 A 
BRANCH  21  23
HETATM   23  O1  UNL     1      -0.997  53.503 -25.677  1.00  0.00    -0.355 OA
HETATM   24  C1  UNL     1      -0.369  53.229 -26.923  1.00  0.00     0.210 C 
ENDBRANCH  21  23
ENDBRANCH  13  15
ENDBRANCH   1  13
BRANCH  11  25
HETATM   25  O4  UNL     1      -1.535  49.647 -19.151  1.00  0.00    -0.345 OA
BRANCH  25  26
HETATM   26  C20 UNL     1      -2.603  49.147 -18.316  1.00  0.00     0.133 C 
HETATM   27  C21 UNL     1      -2.635  47.622 -18.429  1.00  0.00     0.058 C 
HETATM   28  C22 UNL     1      -3.137  47.187 -19.798  1.00  0.00     0.170 C 
HETATM   29  O5  UNL     1      -4.426  47.743 -20.047  1.00  0.00    -0.391 OA
HETATM   30  C23 UNL     1      -4.382  49.168 -20.112  1.00  0.00     0.170 C 
HETATM   31  C24 UNL     1      -3.929  49.754 -18.783  1.00  0.00     0.058 C 
ENDBRANCH  25  26
ENDBRANCH  11  25
BRANCH   9  32
HETATM   32  O2  UNL     1       1.017  50.930 -15.231  1.00  0.00    -0.351 OA
BRANCH  32  33
HETATM   33  C11 UNL     1       0.601  51.905 -14.273  1.00  0.00     0.177 C 
BRANCH  33  34
HETATM   34  C12 UNL     1      -0.814  51.564 -13.799  1.00  0.00     0.057 C 
BRANCH  34  35
HETATM   35  C13 UNL     1      -1.222  52.292 -12.505  1.00  0.00     0.274 C 
BRANCH  35  36
HETATM   36  N5  UNL     1      -2.666  52.409 -12.283  1.00  0.00     0.092 N 
HETATM   37  C14 UNL     1      -2.976  53.244 -11.101  1.00  0.00     0.298 C 
HETATM   38  C15 UNL     1      -2.722  52.542  -9.756  1.00  0.00     0.198 C 
HETATM   39  O3  UNL     1      -3.440  51.305  -9.667  1.00  0.00    -0.388 OA
HETATM   40  C16 UNL     1      -3.092  50.437 -10.753  1.00  0.00     0.198 C 
HETATM   41  C17 UNL     1      -3.347  51.106 -12.115  1.00  0.00     0.298 C 
ENDBRANCH  35  36
ENDBRANCH  34  35
ENDBRANCH  33  34
ENDBRANCH  32  33
ENDBRANCH   9  32
TORSDOF 10
ENDMDL
MODEL 5
REMARK minimizedAffinity -8.00389194
REMARK CNNscore 0.192035452
REMARK CNNaffinity 7.08580971
REMARK  10 active torsions:
REMARK  status: ('A' for Active; 'I' for Inactive)
REMARK    1  A    between atoms: O1_2  and  C2_3 
REMARK    2  A    between atoms: C5_9  and  N2_10 
REMARK    3  A    between atoms: N2_10  and  C6_11 
REMARK    4  A    between atoms: C10_19  and  O2_20 
REMARK    5  A    between atoms: O2_20  and  C11_21 
REMARK    6  A    between atoms: C11_21  and  C12_22 
REMARK    7  A    between atoms: C12_22  and  C13_23 
REMARK    8  A    between atoms: C13_23  and  N5_24 
REMARK    9  A    between atoms: C19_31  and  O4_32 
REMARK   10  A    between atoms: O4_32  and  C20_33 
ROOT
HETATM    1  C6  UNL     1      -0.099  52.309 -21.205  1.00  0.00     0.122 A 
HETATM    2  N3  UNL     1       0.549  53.426 -21.591  1.00  0.00    -0.338 N 
ATOM      3  H3  UNL     1       0.512  53.760 -22.554  1.00  0.00     0.168 HD
HETATM    4  C7  UNL     1       1.241  54.074 -20.656  1.00  0.00     0.182 A 
HETATM    5  N4  UNL     1       1.347  53.721 -19.374  1.00  0.00    -0.351 N 
ATOM      6  H4  UNL     1       1.903  54.266 -18.716  1.00  0.00     0.166 HD
HETATM    7  C8  UNL     1       0.692  52.622 -18.992  1.00  0.00     0.052 A 
HETATM    8  C9  UNL     1       0.824  52.226 -17.668  1.00  0.00     0.067 A 
HETATM    9  C10 UNL     1       0.212  51.078 -17.164  1.00  0.00     0.073 A 
HETATM   10  C18 UNL     1      -0.601  50.327 -17.998  1.00  0.00     0.074 A 
HETATM   11  C19 UNL     1      -0.783  50.726 -19.327  1.00  0.00     0.088 A 
HETATM   12  C25 UNL     1      -0.097  51.857 -19.862  1.00  0.00     0.068 A 
ENDROOT
BRANCH   1  13
HETATM   13  N2  UNL     1      -0.806  51.567 -22.187  1.00  0.00    -0.339 N 
HETATM   14  H5  UNL     1      -0.587  50.577 -22.065  1.00  0.00     0.167 HD
BRANCH  13  15
HETATM   15  C5  UNL     1      -0.978  51.892 -23.554  1.00  0.00     0.075 A 
HETATM   16  C4  UNL     1      -2.212  52.323 -24.063  1.00  0.00     0.130 A 
HETATM   17  N1  UNL     1      -2.452  52.670 -25.345  1.00  0.00    -0.352 N 
HETATM   18 CL1  UNL     1      -3.606  52.433 -23.054  1.00  0.00    -0.062 Cl
HETATM   19  C3  UNL     1      -1.395  52.588 -26.182  1.00  0.00     0.126 A 
ATOM     20  H1  UNL     1      -3.373  52.976 -25.660  1.00  0.00     0.166 HD
HETATM   21  C2  UNL     1      -0.116  52.187 -25.803  1.00  0.00     0.085 A 
HETATM   22  C26 UNL     1       0.084  51.840 -24.468  1.00  0.00     0.071 A 
BRANCH  21  23
HETATM   23  O1  UNL     1       0.822  52.175 -26.794  1.00  0.00    -0.355 OA
HETATM   24  C1  UNL     1       0.372  51.831 -28.099  1.00  0.00     0.210 C 
ENDBRANCH  21  23
ENDBRANCH  13  15
ENDBRANCH   1  13
BRANCH  11  25
HETATM   25  O4  UNL     1      -1.587  49.975 -20.158  1.00  0.00    -0.345 OA
BRANCH  25  26
HETATM   26  C20 UNL     1      -1.609  48.569 -19.821  1.00  0.00     0.133 C 
HETATM   27  C21 UNL     1      -1.133  47.770 -21.036  1.00  0.00     0.058 C 
HETATM   28  C22 UNL     1      -2.173  47.797 -22.146  1.00  0.00     0.170 C 
HETATM   29  O5  UNL     1      -3.419  47.299 -21.664  1.00  0.00    -0.391 OA
HETATM   30  C23 UNL     1      -3.959  48.132 -20.641  1.00  0.00     0.170 C 
HETATM   31  C24 UNL     1      -3.035  48.171 -19.433  1.00  0.00     0.058 C 
ENDBRANCH  25  26
ENDBRANCH  11  25
BRANCH   9  32
HETATM   32  O2  UNL     1       0.479  50.815 -15.851  1.00  0.00    -0.351 OA
BRANCH  32  33
HETATM   33  C11 UNL     1      -0.558  51.073 -14.903  1.00  0.00     0.177 C 
BRANCH  33  34
HETATM   34  C12 UNL     1       0.002  50.886 -13.491  1.00  0.00     0.057 C 
BRANCH  34  35
HETATM   35  C13 UNL     1       1.399  50.239 -13.463  1.00  0.00     0.274 C 
BRANCH  35  36
HETATM   36  N5  UNL     1       2.509  51.163 -13.211  1.00  0.00     0.092 N 
HETATM   37  C14 UNL     1       3.595  51.004 -14.205  1.00  0.00     0.298 C 
HETATM   38  C15 UNL     1       4.456  49.748 -13.994  1.00  0.00     0.198 C 
HETATM   39  O3  UNL     1       5.011  49.708 -12.674  1.00  0.00    -0.388 OA
HETATM   40  C16 UNL     1       3.973  49.769 -11.686  1.00  0.00     0.198 C 
HETATM   41  C17 UNL     1       3.100  51.024 -11.861  1.00  0.00     0.298 C 
ENDBRANCH  35  36
ENDBRANCH  34  35
ENDBRANCH  33  34
ENDBRANCH  32  33
ENDBRANCH   9  32
TORSDOF 10
ENDMDL
MODEL 6
REMARK minimizedAffinity -8.26110268
REMARK CNNscore 0.177567497
REMARK CNNaffinity 6.96537018
REMARK  10 active torsions:
REMARK  status: ('A' for Active; 'I' for Inactive)
REMARK    1  A    between atoms: O1_2  and  C2_3 
REMARK    2  A    between atoms: C5_9  and  N2_10 
REMARK    3  A    between atoms: N2_10  and  C6_11 
REMARK    4  A    between atoms: C10_19  and  O2_20 
REMARK    5  A    between atoms: O2_20  and  C11_21 
REMARK    6  A    between atoms: C11_21  and  C12_22 
REMARK    7  A    between atoms: C12_22  and  C13_23 
REMARK    8  A    between atoms: C13_23  and  N5_24 
REMARK    9  A    between atoms: C19_31  and  O4_32 
REMARK   10  A    between atoms: O4_32  and  C20_33 
ROOT
HETATM    1  C6  UNL     1      -2.829  49.347 -23.399  1.00  0.00     0.122 A 
HETATM    2  N3  UNL     1      -3.670  48.955 -22.421  1.00  0.00    -0.338 N 
ATOM      3  H3  UNL     1      -3.431  49.064 -21.436  1.00  0.00     0.168 HD
HETATM    4  C7  UNL     1      -4.827  48.418 -22.802  1.00  0.00     0.182 A 
HETATM    5  N4  UNL     1      -5.230  48.237 -24.061  1.00  0.00    -0.351 N 
ATOM      6  H4  UNL     1      -6.131  47.811 -24.276  1.00  0.00     0.166 HD
HETATM    7  C8  UNL     1      -4.400  48.641 -25.027  1.00  0.00     0.052 A 
HETATM    8  C9  UNL     1      -4.795  48.426 -26.341  1.00  0.00     0.067 A 
HETATM    9  C10 UNL     1      -3.997  48.776 -27.430  1.00  0.00     0.073 A 
HETATM   10  C18 UNL     1      -2.785  49.409 -27.201  1.00  0.00     0.074 A 
HETATM   11  C19 UNL     1      -2.382  49.674 -25.887  1.00  0.00     0.088 A 
HETATM   12  C25 UNL     1      -3.162  49.247 -24.772  1.00  0.00     0.068 A 
ENDROOT
BRANCH   1  13
HETATM   13  N2  UNL     1      -1.566  49.879 -23.028  1.00  0.00    -0.339 N 
HETATM   14  H5  UNL     1      -0.836  49.335 -23.491  1.00  0.00     0.167 HD
BRANCH  13  15
HETATM   15  C5  UNL     1      -1.154  50.304 -21.742  1.00  0.00     0.075 A 
HETATM   16  C4  UNL     1      -0.869  49.389 -20.716  1.00  0.00     0.130 A 
HETATM   17  N1  UNL     1      -0.452  49.711 -19.474  1.00  0.00    -0.352 N 
HETATM   18 CL1  UNL     1      -1.054  47.691 -20.955  1.00  0.00    -0.062 Cl
HETATM   19  C3  UNL     1      -0.304  51.032 -19.229  1.00  0.00     0.126 A 
ATOM     20  H1  UNL     1      -0.260  49.003 -18.765  1.00  0.00     0.166 HD
HETATM   21  C2  UNL     1      -0.541  52.040 -20.160  1.00  0.00     0.085 A 
HETATM   22  C26 UNL     1      -0.968  51.658 -21.432  1.00  0.00     0.071 A 
BRANCH  21  23
HETATM   23  O1  UNL     1      -0.329  53.315 -19.725  1.00  0.00    -0.355 OA
HETATM   24  C1  UNL     1       0.781  54.007 -20.285  1.00  0.00     0.210 C 
ENDBRANCH  21  23
ENDBRANCH  13  15
ENDBRANCH   1  13
BRANCH  11  25
HETATM   25  O4  UNL     1      -1.173  50.298 -25.661  1.00  0.00    -0.345 OA
BRANCH  25  26
HETATM   26  C20 UNL     1      -1.008  51.521 -26.412  1.00  0.00     0.133 C 
HETATM   27  C21 UNL     1       0.235  51.385 -27.294  1.00  0.00     0.058 C 
HETATM   28  C22 UNL     1       1.505  51.410 -26.455  1.00  0.00     0.170 C 
HETATM   29  O5  UNL     1       1.558  52.606 -25.682  1.00  0.00    -0.391 OA
HETATM   30  C23 UNL     1       0.494  52.667 -24.733  1.00  0.00     0.170 C 
HETATM   31  C24 UNL     1      -0.855  52.690 -25.436  1.00  0.00     0.058 C 
ENDBRANCH  25  26
ENDBRANCH  11  25
BRANCH   9  32
HETATM   32  O2  UNL     1      -4.520  48.457 -28.650  1.00  0.00    -0.351 OA
BRANCH  32  33
HETATM   33  C11 UNL     1      -5.644  47.576 -28.675  1.00  0.00     0.177 C 
BRANCH  33  34
HETATM   34  C12 UNL     1      -6.645  48.077 -29.720  1.00  0.00     0.057 C 
BRANCH  34  35
HETATM   35  C13 UNL     1      -8.077  48.228 -29.178  1.00  0.00     0.274 C 
BRANCH  35  36
HETATM   36  N5  UNL     1      -8.878  47.000 -29.179  1.00  0.00     0.092 N 
HETATM   37  C14 UNL     1      -8.918  46.370 -30.518  1.00  0.00     0.298 C 
HETATM   38  C15 UNL     1      -9.834  47.091 -31.521  1.00  0.00     0.198 C 
HETATM   39  O3  UNL     1     -11.168  47.217 -31.014  1.00  0.00    -0.388 OA
HETATM   40  C16 UNL     1     -11.171  47.905 -29.757  1.00  0.00     0.198 C 
HETATM   41  C17 UNL     1     -10.272  47.201 -28.725  1.00  0.00     0.298 C 
ENDBRANCH  35  36
ENDBRANCH  34  35
ENDBRANCH  33  34
ENDBRANCH  32  33
ENDBRANCH   9  32
TORSDOF 10
ENDMDL
MODEL 7
REMARK minimizedAffinity -8.69339657
REMARK CNNscore 0.119250387
REMARK CNNaffinity 6.73569441
REMARK  10 active torsions:
REMARK  status: ('A' for Active; 'I' for Inactive)
REMARK    1  A    between atoms: O1_2  and  C2_3 
REMARK    2  A    between atoms: C5_9  and  N2_10 
REMARK    3  A    between atoms: N2_10  and  C6_11 
REMARK    4  A    between atoms: C10_19  and  O2_20 
REMARK    5  A    between atoms: O2_20  and  C11_21 
REMARK    6  A    between atoms: C11_21  and  C12_22 
REMARK    7  A    between atoms: C12_22  and  C13_23 
REMARK    8  A    between atoms: C13_23  and  N5_24 
REMARK    9  A    between atoms: C19_31  and  O4_32 
REMARK   10  A    between atoms: O4_32  and  C20_33 
ROOT
HETATM    1  C6  UNL     1      -2.866  49.502 -23.358  1.00  0.00     0.122 A 
HETATM    2  N3  UNL     1      -3.742  49.208 -22.376  1.00  0.00    -0.338 N 
ATOM      3  H3  UNL     1      -3.532  49.404 -21.398  1.00  0.00     0.168 HD
HETATM    4  C7  UNL     1      -4.893  48.649 -22.744  1.00  0.00     0.182 A 
HETATM    5  N4  UNL     1      -5.259  48.358 -23.994  1.00  0.00    -0.351 N 
ATOM      6  H4  UNL     1      -6.158  47.922 -24.198  1.00  0.00     0.166 HD
HETATM    7  C8  UNL     1      -4.395  48.663 -24.965  1.00  0.00     0.052 A 
HETATM    8  C9  UNL     1      -4.751  48.333 -26.266  1.00  0.00     0.067 A 
HETATM    9  C10 UNL     1      -3.915  48.576 -27.356  1.00  0.00     0.073 A 
HETATM   10  C18 UNL     1      -2.704  49.216 -27.148  1.00  0.00     0.074 A 
HETATM   11  C19 UNL     1      -2.338  49.595 -25.851  1.00  0.00     0.088 A 
HETATM   12  C25 UNL     1      -3.158  49.280 -24.727  1.00  0.00     0.068 A 
ENDROOT
BRANCH   1  13
HETATM   13  N2  UNL     1      -1.609  50.054 -22.997  1.00  0.00    -0.339 N 
HETATM   14  H5  UNL     1      -0.882  49.589 -23.543  1.00  0.00     0.167 HD
BRANCH  13  15
HETATM   15  C5  UNL     1      -1.151  50.374 -21.697  1.00  0.00     0.075 A 
HETATM   16  C4  UNL     1      -0.858  49.381 -20.750  1.00  0.00     0.130 A 
HETATM   17  N1  UNL     1      -0.398  49.603 -19.500  1.00  0.00    -0.352 N 
HETATM   18 CL1  UNL     1      -1.089  47.710 -21.105  1.00  0.00    -0.062 Cl
HETATM   19  C3  UNL     1      -0.212  50.899 -19.165  1.00  0.00     0.126 A 
ATOM     20  H1  UNL     1      -0.203  48.840 -18.851  1.00  0.00     0.166 HD
HETATM   21  C2  UNL     1      -0.452  51.976 -20.013  1.00  0.00     0.085 A 
HETATM   22  C26 UNL     1      -0.924  51.698 -21.295  1.00  0.00     0.071 A 
BRANCH  21  23
HETATM   23  O1  UNL     1      -0.197  53.211 -19.494  1.00  0.00    -0.355 OA
HETATM   24  C1  UNL     1       0.680  54.051 -20.235  1.00  0.00     0.210 C 
ENDBRANCH  21  23
ENDBRANCH  13  15
ENDBRANCH   1  13
BRANCH  11  25
HETATM   25  O4  UNL     1      -1.130  50.226 -25.643  1.00  0.00    -0.345 OA
BRANCH  25  26
HETATM   26  C20 UNL     1      -0.960  51.420 -26.441  1.00  0.00     0.133 C 
HETATM   27  C21 UNL     1       0.349  51.299 -27.223  1.00  0.00     0.058 C 
HETATM   28  C22 UNL     1       1.551  51.420 -26.296  1.00  0.00     0.170 C 
HETATM   29  O5  UNL     1       1.496  52.652 -25.581  1.00  0.00    -0.391 OA
HETATM   30  C23 UNL     1       0.364  52.709 -24.716  1.00  0.00     0.170 C 
HETATM   31  C24 UNL     1      -0.929  52.639 -25.515  1.00  0.00     0.058 C 
ENDBRANCH  25  26
ENDBRANCH  11  25
BRANCH   9  32
HETATM   32  O2  UNL     1      -4.404  48.152 -28.559  1.00  0.00    -0.351 OA
BRANCH  32  33
HETATM   33  C11 UNL     1      -5.754  47.684 -28.593  1.00  0.00     0.177 C 
BRANCH  33  34
HETATM   34  C12 UNL     1      -6.357  48.006 -29.962  1.00  0.00     0.057 C 
BRANCH  34  35
HETATM   35  C13 UNL     1      -5.308  48.138 -31.081  1.00  0.00     0.274 C 
BRANCH  35  36
HETATM   36  N5  UNL     1      -5.233  47.000 -32.003  1.00  0.00     0.092 N 
HETATM   37  C14 UNL     1      -4.259  47.238 -33.093  1.00  0.00     0.298 C 
HETATM   38  C15 UNL     1      -4.756  48.214 -34.173  1.00  0.00     0.198 C 
HETATM   39  O3  UNL     1      -6.002  47.784 -34.734  1.00  0.00    -0.388 OA
HETATM   40  C16 UNL     1      -6.994  47.632 -33.710  1.00  0.00     0.198 C 
HETATM   41  C17 UNL     1      -6.532  46.650 -32.618  1.00  0.00     0.298 C 
ENDBRANCH  35  36
ENDBRANCH  34  35
ENDBRANCH  33  34
ENDBRANCH  32  33
ENDBRANCH   9  32
TORSDOF 10
ENDMDL
MODEL 8
REMARK minimizedAffinity -7.17647982
REMARK CNNscore 0.113189302
REMARK CNNaffinity 6.49332285
REMARK  10 active torsions:
REMARK  status: ('A' for Active; 'I' for Inactive)
REMARK    1  A    between atoms: O1_2  and  C2_3 
REMARK    2  A    between atoms: C5_9  and  N2_10 
REMARK    3  A    between atoms: N2_10  and  C6_11 
REMARK    4  A    between atoms: C10_19  and  O2_20 
REMARK    5  A    between atoms: O2_20  and  C11_21 
REMARK    6  A    between atoms: C11_21  and  C12_22 
REMARK    7  A    between atoms: C12_22  and  C13_23 
REMARK    8  A    between atoms: C13_23  and  N5_24 
REMARK    9  A    between atoms: C19_31  and  O4_32 
REMARK   10  A    between atoms: O4_32  and  C20_33 
ROOT
HETATM    1  C6  UNL     1      -0.070  50.877 -16.600  1.00  0.00     0.122 A 
HETATM    2  N3  UNL     1       0.600  51.436 -15.572  1.00  0.00    -0.338 N 
ATOM      3  H3  UNL     1       0.514  51.077 -14.621  1.00  0.00     0.168 HD
HETATM    4  C7  UNL     1       1.379  52.477 -15.856  1.00  0.00     0.182 A 
HETATM    5  N4  UNL     1       1.560  53.014 -17.064  1.00  0.00    -0.351 N 
ATOM      6  H4  UNL     1       2.170  53.819 -17.203  1.00  0.00     0.166 HD
HETATM    7  C8  UNL     1       0.906  52.450 -18.082  1.00  0.00     0.052 A 
HETATM    8  C9  UNL     1       1.060  53.022 -19.338  1.00  0.00     0.067 A 
HETATM    9  C10 UNL     1       0.402  52.538 -20.468  1.00  0.00     0.073 A 
HETATM   10  C18 UNL     1      -0.398  51.412 -20.351  1.00  0.00     0.074 A 
HETATM   11  C19 UNL     1      -0.538  50.791 -19.104  1.00  0.00     0.088 A 
HETATM   12  C25 UNL     1       0.074  51.331 -17.935  1.00  0.00     0.068 A 
ENDROOT
BRANCH   1  13
HETATM   13  N2  UNL     1      -0.947  49.796 -16.325  1.00  0.00    -0.339 N 
HETATM   14  H5  UNL     1      -1.836  50.176 -15.994  1.00  0.00     0.167 HD
BRANCH  13  15
HETATM   15  C5  UNL     1      -0.635  48.577 -15.677  1.00  0.00     0.075 A 
HETATM   16  C4  UNL     1      -1.605  47.588 -15.453  1.00  0.00     0.130 A 
HETATM   17  N1  UNL     1      -1.384  46.394 -14.864  1.00  0.00    -0.352 N 
HETATM   18 CL1  UNL     1      -3.250  47.828 -15.913  1.00  0.00    -0.062 Cl
HETATM   19  C3  UNL     1      -0.113  46.161 -14.470  1.00  0.00     0.126 A 
ATOM     20  H1  UNL     1      -2.130  45.712 -14.725  1.00  0.00     0.166 HD
HETATM   21  C2  UNL     1       0.944  47.050 -14.644  1.00  0.00     0.085 A 
HETATM   22  C26 UNL     1       0.668  48.270 -15.260  1.00  0.00     0.071 A 
BRANCH  21  23
HETATM   23  O1  UNL     1       2.158  46.630 -14.185  1.00  0.00    -0.355 OA
HETATM   24  C1  UNL     1       3.060  47.637 -13.744  1.00  0.00     0.210 C 
ENDBRANCH  21  23
ENDBRANCH  13  15
ENDBRANCH   1  13
BRANCH  11  25
HETATM   25  O4  UNL     1      -1.339  49.675 -18.988  1.00  0.00    -0.345 OA
BRANCH  25  26
HETATM   26  C20 UNL     1      -1.949  49.272 -20.235  1.00  0.00     0.133 C 
HETATM   27  C21 UNL     1      -3.423  49.683 -20.210  1.00  0.00     0.058 C 
HETATM   28  C22 UNL     1      -4.212  48.823 -19.234  1.00  0.00     0.170 C 
HETATM   29  O5  UNL     1      -4.073  47.445 -19.570  1.00  0.00    -0.391 OA
HETATM   30  C23 UNL     1      -2.724  47.003 -19.434  1.00  0.00     0.170 C 
HETATM   31  C24 UNL     1      -1.811  47.755 -20.391  1.00  0.00     0.058 C 
ENDBRANCH  25  26
ENDBRANCH  11  25
BRANCH   9  32
HETATM   32  O2  UNL     1       0.635  53.243 -21.614  1.00  0.00    -0.351 OA
BRANCH  32  33
HETATM   33  C11 UNL     1       0.664  52.514 -22.842  1.00  0.00     0.177 C 
BRANCH  33  34
HETATM   34  C12 UNL     1       0.091  53.394 -23.956  1.00  0.00     0.057 C 
BRANCH  34  35
HETATM   35  C13 UNL     1       0.702  53.110 -25.340  1.00  0.00     0.274 C 
BRANCH  35  36
HETATM   36  N5  UNL     1       0.837  51.691 -25.683  1.00  0.00     0.092 N 
HETATM   37  C14 UNL     1       2.174  51.384 -26.240  1.00  0.00     0.298 C 
HETATM   38  C15 UNL     1       2.372  51.859 -27.690  1.00  0.00     0.198 C 
HETATM   39  O3  UNL     1       1.362  51.330 -28.557  1.00  0.00    -0.388 OA
HETATM   40  C16 UNL     1       0.054  51.689 -28.091  1.00  0.00     0.198 C 
HETATM   41  C17 UNL     1      -0.180  51.215 -26.646  1.00  0.00     0.298 C 
ENDBRANCH  35  36
ENDBRANCH  34  35
ENDBRANCH  33  34
ENDBRANCH  32  33
ENDBRANCH   9  32
TORSDOF 10
ENDMDL
MODEL 9
REMARK minimizedAffinity -7.66938257
REMARK CNNscore 0.10792198
REMARK CNNaffinity 6.41273546
REMARK  10 active torsions:
REMARK  status: ('A' for Active; 'I' for Inactive)
REMARK    1  A    between atoms: O1_2  and  C2_3 
REMARK    2  A    between atoms: C5_9  and  N2_10 
REMARK    3  A    between atoms: N2_10  and  C6_11 
REMARK    4  A    between atoms: C10_19  and  O2_20 
REMARK    5  A    between atoms: O2_20  and  C11_21 
REMARK    6  A    between atoms: C11_21  and  C12_22 
REMARK    7  A    between atoms: C12_22  and  C13_23 
REMARK    8  A    between atoms: C13_23  and  N5_24 
REMARK    9  A    between atoms: C19_31  and  O4_32 
REMARK   10  A    between atoms: O4_32  and  C20_33 
ROOT
HETATM    1  C6  UNL     1      -1.782  50.352 -23.691  1.00  0.00     0.122 A 
HETATM    2  N3  UNL     1      -0.733  51.188 -23.827  1.00  0.00    -0.338 N 
ATOM      3  H3  UNL     1      -0.247  51.571 -23.017  1.00  0.00     0.168 HD
HETATM    4  C7  UNL     1      -0.362  51.490 -25.070  1.00  0.00     0.182 A 
HETATM    5  N4  UNL     1      -0.930  51.038 -26.189  1.00  0.00    -0.351 N 
ATOM      6  H4  UNL     1      -0.593  51.320 -27.109  1.00  0.00     0.166 HD
HETATM    7  C8  UNL     1      -1.959  50.199 -26.050  1.00  0.00     0.052 A 
HETATM    8  C9  UNL     1      -2.580  49.750 -27.208  1.00  0.00     0.067 A 
HETATM    9  C10 UNL     1      -3.683  48.897 -27.185  1.00  0.00     0.073 A 
HETATM   10  C18 UNL     1      -4.152  48.435 -25.965  1.00  0.00     0.074 A 
HETATM   11  C19 UNL     1      -3.520  48.841 -24.784  1.00  0.00     0.088 A 
HETATM   12  C25 UNL     1      -2.440  49.773 -24.804  1.00  0.00     0.068 A 
ENDROOT
BRANCH   1  13
HETATM   13  N2  UNL     1      -2.235  50.047 -22.381  1.00  0.00    -0.339 N 
HETATM   14  H5  UNL     1      -3.239  50.228 -22.335  1.00  0.00     0.167 HD
BRANCH  13  15
HETATM   15  C5  UNL     1      -1.599  50.359 -21.155  1.00  0.00     0.075 A 
HETATM   16  C4  UNL     1      -1.255  49.365 -20.226  1.00  0.00     0.130 A 
HETATM   17  N1  UNL     1      -0.630  49.577 -19.049  1.00  0.00    -0.352 N 
HETATM   18 CL1  UNL     1      -1.636  47.707 -20.508  1.00  0.00    -0.062 Cl
HETATM   19  C3  UNL     1      -0.321  50.863 -18.772  1.00  0.00     0.126 A 
ATOM     20  H1  UNL     1      -0.405  48.815 -18.409  1.00  0.00     0.166 HD
HETATM   21  C2  UNL     1      -0.595  51.940 -19.611  1.00  0.00     0.085 A 
HETATM   22  C26 UNL     1      -1.239  51.671 -20.818  1.00  0.00     0.071 A 
BRANCH  21  23
HETATM   23  O1  UNL     1      -0.199  53.164 -19.159  1.00  0.00    -0.355 OA
HETATM   24  C1  UNL     1       0.568  53.961 -20.053  1.00  0.00     0.210 C 
ENDBRANCH  21  23
ENDBRANCH  13  15
ENDBRANCH   1  13
BRANCH  11  25
HETATM   25  O4  UNL     1      -3.991  48.386 -23.571  1.00  0.00    -0.345 OA
BRANCH  25  26
HETATM   26  C20 UNL     1      -5.433  48.336 -23.496  1.00  0.00     0.133 C 
HETATM   27  C21 UNL     1      -5.944  49.703 -23.035  1.00  0.00     0.058 C 
HETATM   28  C22 UNL     1      -5.607  49.945 -21.571  1.00  0.00     0.170 C 
HETATM   29  O5  UNL     1      -6.146  48.901 -20.764  1.00  0.00    -0.391 OA
HETATM   30  C23 UNL     1      -5.553  47.640 -21.069  1.00  0.00     0.170 C 
HETATM   31  C24 UNL     1      -5.845  47.241 -22.508  1.00  0.00     0.058 C 
ENDBRANCH  25  26
ENDBRANCH  11  25
BRANCH   9  32
HETATM   32  O2  UNL     1      -4.194  48.586 -28.413  1.00  0.00    -0.351 OA
BRANCH  32  33
HETATM   33  C11 UNL     1      -5.482  47.968 -28.453  1.00  0.00     0.177 C 
BRANCH  33  34
HETATM   34  C12 UNL     1      -5.896  47.778 -29.914  1.00  0.00     0.057 C 
BRANCH  34  35
HETATM   35  C13 UNL     1      -7.377  47.394 -30.089  1.00  0.00     0.274 C 
BRANCH  35  36
HETATM   36  N5  UNL     1      -8.197  48.379 -30.801  1.00  0.00     0.092 N 
HETATM   37  C14 UNL     1      -9.567  48.459 -30.246  1.00  0.00     0.298 C 
HETATM   38  C15 UNL     1     -10.469  47.275 -30.633  1.00  0.00     0.198 C 
HETATM   39  O3  UNL     1     -10.540  47.114 -32.055  1.00  0.00    -0.388 OA
HETATM   40  C16 UNL     1      -9.230  46.943 -32.613  1.00  0.00     0.198 C 
HETATM   41  C17 UNL     1      -8.306  48.120 -32.254  1.00  0.00     0.298 C 
ENDBRANCH  35  36
ENDBRANCH  34  35
ENDBRANCH  33  34
ENDBRANCH  32  33
ENDBRANCH   9  32
TORSDOF 10
ENDMDL
