MODEL 1
REMARK minimizedAffinity -10.4710608
REMARK CNNscore 0.906708062
REMARK CNNaffinity 7.56148291
REMARK  8 active torsions:
REMARK  status: ('A' for Active; 'I' for Inactive)
REMARK    1  A    between atoms: C4_4  and  C5_5 
REMARK    2  A    between atoms: C7_7  and  O1_8 
REMARK    3  A    between atoms: C13_19  and  N3_20 
REMARK    4  A    between atoms: N3_20  and  C14_21 
REMARK    5  A    between atoms: C18_25  and  O2_26 
REMARK    6  A    between atoms: O2_26  and  C19_27 
REMARK    7  A    between atoms: C19_27  and  C20_28 
REMARK    8  A    between atoms: C20_28  and  N4_29 
ROOT
HETATM    1  C1  UNL     1      -1.373  50.130 -21.590  1.00  0.00     0.050 C 
HETATM    2  C2  UNL     1      -0.601  51.254 -22.229  1.00  0.00    -0.032 A 
HETATM    3  C3  UNL     1      -0.556  51.351 -23.630  1.00  0.00     0.021 A 
HETATM    4  C4  UNL     1       0.157  52.378 -24.254  1.00  0.00    -0.021 A 
HETATM    5  C11 UNL     1       0.815  53.308 -23.441  1.00  0.00     0.045 A 
HETATM    6  C12 UNL     1       0.777  53.221 -22.054  1.00  0.00     0.077 A 
HETATM    7  N1  UNL     1       1.416  54.121 -21.299  1.00  0.00    -0.284 N 
ATOM      8  H1  UNL     1       1.936  54.883 -21.734  1.00  0.00     0.187 HD
HETATM    9  N2  UNL     1       1.365  54.010 -19.938  1.00  0.00    -0.131 N 
ATOM     10  H2  UNL     1       1.851  54.692 -19.356  1.00  0.00     0.205 HD
HETATM   11  C13 UNL     1       0.676  53.005 -19.360  1.00  0.00     0.697 A 
HETATM   12  N5  UNL     1       0.021  52.089 -20.084  1.00  0.00    -0.188 N 
ATOM     13  H5  UNL     1      -0.499  51.337 -19.631  1.00  0.00     0.184 HD
HETATM   14  C26 UNL     1       0.067  52.187 -21.426  1.00  0.00     0.083 A 
ENDROOT
BRANCH  11  15
HETATM   15  N3  UNL     1       0.689  52.977 -17.965  1.00  0.00    -0.190 N 
HETATM   16  H10 UNL     1      -0.187  53.336 -17.614  1.00  0.00     0.184 HD
BRANCH  15  17
HETATM   17  C14 UNL     1       1.634  52.587 -17.009  1.00  0.00     0.051 A 
HETATM   18  C15 UNL     1       3.009  52.788 -17.139  1.00  0.00     0.030 A 
HETATM   19  C16 UNL     1       3.898  52.372 -16.143  1.00  0.00     0.005 A 
HETATM   20  C17 UNL     1       3.426  51.743 -14.992  1.00  0.00     0.037 A 
HETATM   21  C18 UNL     1       2.060  51.528 -14.835  1.00  0.00     0.070 A 
HETATM   22  C25 UNL     1       1.180  51.949 -15.841  1.00  0.00     0.066 A 
BRANCH  21  23
HETATM   23  O2  UNL     1       1.456  50.926 -13.764  1.00  0.00    -0.349 OA
BRANCH  23  24
HETATM   24  C19 UNL     1       0.270  51.545 -13.257  1.00  0.00     0.206 C 
BRANCH  24  25
HETATM   25  C20 UNL     1       0.658  52.371 -12.020  1.00  0.00     0.299 C 
BRANCH  25  26
HETATM   26  N4  UNL     1      -0.349  53.373 -11.648  1.00  0.00     0.090 N 
HETATM   27  C21 UNL     1       0.203  54.497 -10.887  1.00  0.00     0.272 C 
HETATM   28  C22 UNL     1      -1.028  55.136 -10.257  1.00  0.00     0.032 C 
HETATM   29  C23 UNL     1      -2.086  54.040 -10.240  1.00  0.00     0.032 C 
HETATM   30  C24 UNL     1      -1.382  52.805 -10.778  1.00  0.00     0.272 C 
ENDBRANCH  25  26
ENDBRANCH  24  25
ENDBRANCH  23  24
ENDBRANCH  21  23
ENDBRANCH  15  17
ENDBRANCH  11  15
BRANCH   4  31
HETATM   31  C5  UNL     1       0.203  52.484 -25.719  1.00  0.00    -0.001 A 
HETATM   32  C6  UNL     1      -0.796  53.221 -26.382  1.00  0.00     0.050 A 
HETATM   33  C7  UNL     1      -0.787  53.347 -27.769  1.00  0.00     0.066 A 
HETATM   34  C8  UNL     1       0.206  52.749 -28.534  1.00  0.00     0.038 A 
HETATM   35  C9  UNL     1       1.204  52.011 -27.897  1.00  0.00     0.027 A 
HETATM   36  C10 UNL     1       1.204  51.878 -26.502  1.00  0.00     0.045 A 
HETATM   37 CL1  UNL     1       2.465  50.926 -25.795  1.00  0.00    -0.083 Cl
BRANCH  33  38
HETATM   38  O1  UNL     1      -1.784  54.075 -28.344  1.00  0.00    -0.361 OA
HETATM   39  H6  UNL     1      -1.646  54.099 -29.306  1.00  0.00     0.217 HD
ENDBRANCH  33  38
ENDBRANCH   4  31
TORSDOF 8
ENDMDL
MODEL 2
REMARK minimizedAffinity -9.19564533
REMARK CNNscore 0.861235678
REMARK CNNaffinity 7.6633606
REMARK  8 active torsions:
REMARK  status: ('A' for Active; 'I' for Inactive)
REMARK    1  A    between atoms: C4_4  and  C5_5 
REMARK    2  A    between atoms: C7_7  and  O1_8 
REMARK    3  A    between atoms: C13_19  and  N3_20 
REMARK    4  A    between atoms: N3_20  and  C14_21 
REMARK    5  A    between atoms: C18_25  and  O2_26 
REMARK    6  A    between atoms: O2_26  and  C19_27 
REMARK    7  A    between atoms: C19_27  and  C20_28 
REMARK    8  A    between atoms: C20_28  and  N4_29 
ROOT
HETATM    1  C1  UNL     1      -1.286  50.100 -21.701  1.00  0.00     0.050 C 
HETATM    2  C2  UNL     1      -0.539  51.237 -22.345  1.00  0.00    -0.032 A 
HETATM    3  C3  UNL     1      -0.519  51.346 -23.746  1.00  0.00     0.021 A 
HETATM    4  C4  UNL     1       0.169  52.386 -24.375  1.00  0.00    -0.021 A 
HETATM    5  C11 UNL     1       0.830  53.318 -23.567  1.00  0.00     0.045 A 
HETATM    6  C12 UNL     1       0.818  53.220 -22.180  1.00  0.00     0.077 A 
HETATM    7  N1  UNL     1       1.458  54.123 -21.429  1.00  0.00    -0.284 N 
ATOM      8  H1  UNL     1       1.961  54.895 -21.868  1.00  0.00     0.187 HD
HETATM    9  N2  UNL     1       1.433  54.002 -20.068  1.00  0.00    -0.131 N 
ATOM     10  H2  UNL     1       1.920  54.686 -19.490  1.00  0.00     0.205 HD
HETATM   11  C13 UNL     1       0.767  52.984 -19.486  1.00  0.00     0.697 A 
HETATM   12  N5  UNL     1       0.110  52.065 -20.205  1.00  0.00    -0.188 N 
ATOM     13  H5  UNL     1      -0.393  51.303 -19.749  1.00  0.00     0.184 HD
HETATM   14  C26 UNL     1       0.131  52.174 -21.548  1.00  0.00     0.083 A 
ENDROOT
BRANCH  11  15
HETATM   15  N3  UNL     1       0.804  52.946 -18.092  1.00  0.00    -0.190 N 
HETATM   16  H10 UNL     1       0.779  53.888 -17.730  1.00  0.00     0.184 HD
BRANCH  15  17
HETATM   17  C14 UNL     1       0.883  51.915 -17.149  1.00  0.00     0.051 A 
HETATM   18  C15 UNL     1       1.676  51.963 -16.000  1.00  0.00     0.030 A 
HETATM   19  C16 UNL     1       1.707  50.894 -15.099  1.00  0.00     0.005 A 
HETATM   20  C17 UNL     1       0.943  49.751 -15.331  1.00  0.00     0.037 A 
HETATM   21  C18 UNL     1       0.145  49.674 -16.468  1.00  0.00     0.070 A 
HETATM   22  C25 UNL     1       0.123  50.752 -17.363  1.00  0.00     0.066 A 
BRANCH  21  23
HETATM   23  O2  UNL     1      -0.654  48.621 -16.823  1.00  0.00    -0.349 OA
BRANCH  23  24
HETATM   24  C19 UNL     1      -2.049  48.892 -16.992  1.00  0.00     0.206 C 
BRANCH  24  25
HETATM   25  C20 UNL     1      -2.658  49.127 -15.600  1.00  0.00     0.299 C 
BRANCH  25  26
HETATM   26  N4  UNL     1      -2.709  47.914 -14.773  1.00  0.00     0.090 N 
HETATM   27  C21 UNL     1      -3.699  46.937 -15.234  1.00  0.00     0.272 C 
HETATM   28  C22 UNL     1      -3.881  46.023 -14.029  1.00  0.00     0.032 C 
HETATM   29  C23 UNL     1      -3.430  46.846 -12.828  1.00  0.00     0.032 C 
HETATM   30  C24 UNL     1      -3.098  48.217 -13.394  1.00  0.00     0.272 C 
ENDBRANCH  25  26
ENDBRANCH  24  25
ENDBRANCH  23  24
ENDBRANCH  21  23
ENDBRANCH  15  17
ENDBRANCH  11  15
BRANCH   4  31
HETATM   31  C5  UNL     1       0.188  52.503 -25.840  1.00  0.00    -0.001 A 
HETATM   32  C6  UNL     1      -0.827  53.238 -26.479  1.00  0.00     0.050 A 
HETATM   33  C7  UNL     1      -0.843  53.375 -27.865  1.00  0.00     0.066 A 
HETATM   34  C8  UNL     1       0.140  52.789 -28.652  1.00  0.00     0.038 A 
HETATM   35  C9  UNL     1       1.154  52.053 -28.039  1.00  0.00     0.027 A 
HETATM   36  C10 UNL     1       1.179  51.909 -26.645  1.00  0.00     0.045 A 
HETATM   37 CL1  UNL     1       2.458  50.961 -25.968  1.00  0.00    -0.083 Cl
BRANCH  33  38
HETATM   38  O1  UNL     1      -1.856  54.100 -28.417  1.00  0.00    -0.361 OA
HETATM   39  H6  UNL     1      -1.735  54.132 -29.381  1.00  0.00     0.217 HD
ENDBRANCH  33  38
ENDBRANCH   4  31
TORSDOF 8
ENDMDL
MODEL 3
REMARK minimizedAffinity -9.86744976
REMARK CNNscore 0.861049533
REMARK CNNaffinity 7.53754663
REMARK  8 active torsions:
REMARK  status: ('A' for Active; 'I' for Inactive)
REMARK    1  A    between atoms: C4_4  and  C5_5 
REMARK    2  A    between atoms: C7_7  and  O1_8 
REMARK    3  A    between atoms: C13_19  and  N3_20 
REMARK    4  A    between atoms: N3_20  and  C14_21 
REMARK    5  A    between atoms: C18_25  and  O2_26 
REMARK    6  A    between atoms: O2_26  and  C19_27 
REMARK    7  A    between atoms: C19_27  and  C20_28 
REMARK    8  A    between atoms: C20_28  and  N4_29 
ROOT
HETATM    1  C1  UNL     1      -1.307  50.136 -21.646  1.00  0.00     0.050 C 
HETATM    2  C2  UNL     1      -0.553  51.266 -22.295  1.00  0.00    -0.032 A 
HETATM    3  C3  UNL     1      -0.529  51.365 -23.697  1.00  0.00     0.021 A 
HETATM    4  C4  UNL     1       0.167  52.397 -24.331  1.00  0.00    -0.021 A 
HETATM    5  C11 UNL     1       0.830  53.331 -23.527  1.00  0.00     0.045 A 
HETATM    6  C12 UNL     1       0.815  53.242 -22.140  1.00  0.00     0.077 A 
HETATM    7  N1  UNL     1       1.458  54.146 -21.393  1.00  0.00    -0.284 N 
ATOM      8  H1  UNL     1       1.966  54.912 -21.836  1.00  0.00     0.187 HD
HETATM    9  N2  UNL     1       1.429  54.034 -20.032  1.00  0.00    -0.131 N 
ATOM     10  H2  UNL     1       1.919  54.719 -19.457  1.00  0.00     0.205 HD
HETATM   11  C13 UNL     1       0.756  53.024 -19.445  1.00  0.00     0.697 A 
HETATM   12  N5  UNL     1       0.096  52.103 -20.160  1.00  0.00    -0.188 N 
ATOM     13  H5  UNL     1      -0.412  51.347 -19.699  1.00  0.00     0.184 HD
HETATM   14  C26 UNL     1       0.121  52.204 -21.502  1.00  0.00     0.083 A 
ENDROOT
BRANCH  11  15
HETATM   15  N3  UNL     1       0.790  52.994 -18.050  1.00  0.00    -0.190 N 
HETATM   16  H10 UNL     1       0.776  53.939 -17.694  1.00  0.00     0.184 HD
BRANCH  15  17
HETATM   17  C14 UNL     1       0.855  51.968 -17.101  1.00  0.00     0.051 A 
HETATM   18  C15 UNL     1       0.326  50.690 -17.291  1.00  0.00     0.030 A 
HETATM   19  C16 UNL     1       0.427  49.711 -16.298  1.00  0.00     0.005 A 
HETATM   20  C17 UNL     1       1.062  49.993 -15.090  1.00  0.00     0.037 A 
HETATM   21  C18 UNL     1       1.598  51.258 -14.871  1.00  0.00     0.070 A 
HETATM   22  C25 UNL     1       1.490  52.230 -15.874  1.00  0.00     0.066 A 
BRANCH  21  23
HETATM   23  O2  UNL     1       2.246  51.675 -13.740  1.00  0.00    -0.349 OA
BRANCH  23  24
HETATM   24  C19 UNL     1       1.679  51.284 -12.486  1.00  0.00     0.206 C 
BRANCH  24  25
HETATM   25  C20 UNL     1       1.725  52.498 -11.545  1.00  0.00     0.299 C 
BRANCH  25  26
HETATM   26  N4  UNL     1       3.089  52.912 -11.191  1.00  0.00     0.090 N 
HETATM   27  C21 UNL     1       3.657  52.149 -10.076  1.00  0.00     0.272 C 
HETATM   28  C22 UNL     1       4.827  53.010  -9.618  1.00  0.00     0.032 C 
HETATM   29  C23 UNL     1       4.508  54.416 -10.111  1.00  0.00     0.032 C 
HETATM   30  C24 UNL     1       3.132  54.307 -10.748  1.00  0.00     0.272 C 
ENDBRANCH  25  26
ENDBRANCH  24  25
ENDBRANCH  23  24
ENDBRANCH  21  23
ENDBRANCH  15  17
ENDBRANCH  11  15
BRANCH   4  31
HETATM   31  C5  UNL     1       0.190  52.505 -25.797  1.00  0.00    -0.001 A 
HETATM   32  C6  UNL     1      -0.807  53.261 -26.441  1.00  0.00     0.050 A 
HETATM   33  C7  UNL     1      -0.819  53.389 -27.828  1.00  0.00     0.066 A 
HETATM   34  C8  UNL     1       0.150  52.775 -28.611  1.00  0.00     0.038 A 
HETATM   35  C9  UNL     1       1.145  52.018 -27.992  1.00  0.00     0.027 A 
HETATM   36  C10 UNL     1       1.166  51.882 -26.598  1.00  0.00     0.045 A 
HETATM   37 CL1  UNL     1       2.422  50.907 -25.913  1.00  0.00    -0.083 Cl
BRANCH  33  38
HETATM   38  O1  UNL     1      -1.813  54.136 -28.385  1.00  0.00    -0.361 OA
HETATM   39  H6  UNL     1      -1.691  54.159 -29.349  1.00  0.00     0.217 HD
ENDBRANCH  33  38
ENDBRANCH   4  31
TORSDOF 8
ENDMDL
MODEL 4
REMARK minimizedAffinity -10.3773365
REMARK CNNscore 0.846269429
REMARK CNNaffinity 7.51141405
REMARK  8 active torsions:
REMARK  status: ('A' for Active; 'I' for Inactive)
REMARK    1  A    between atoms: C4_4  and  C5_5 
REMARK    2  A    between atoms: C7_7  and  O1_8 
REMARK    3  A    between atoms: C13_19  and  N3_20 
REMARK    4  A    between atoms: N3_20  and  C14_21 
REMARK    5  A    between atoms: C18_25  and  O2_26 
REMARK    6  A    between atoms: O2_26  and  C19_27 
REMARK    7  A    between atoms: C19_27  and  C20_28 
REMARK    8  A    between atoms: C20_28  and  N4_29 
ROOT
HETATM    1  C1  UNL     1      -1.256  49.985 -21.592  1.00  0.00     0.050 C 
HETATM    2  C2  UNL     1      -0.544  51.153 -22.221  1.00  0.00    -0.032 A 
HETATM    3  C3  UNL     1      -0.488  51.255 -23.622  1.00  0.00     0.021 A 
HETATM    4  C4  UNL     1       0.170  52.323 -24.237  1.00  0.00    -0.021 A 
HETATM    5  C11 UNL     1       0.763  53.289 -23.416  1.00  0.00     0.045 A 
HETATM    6  C12 UNL     1       0.715  53.197 -22.029  1.00  0.00     0.077 A 
HETATM    7  N1  UNL     1       1.292  54.131 -21.266  1.00  0.00    -0.284 N 
ATOM      8  H1  UNL     1       1.771  54.923 -21.695  1.00  0.00     0.187 HD
HETATM    9  N2  UNL     1       1.232  54.016 -19.906  1.00  0.00    -0.131 N 
ATOM     10  H2  UNL     1       1.671  54.724 -19.318  1.00  0.00     0.205 HD
HETATM   11  C13 UNL     1       0.597  52.971 -19.337  1.00  0.00     0.697 A 
HETATM   12  N5  UNL     1       0.004  52.019 -20.069  1.00  0.00    -0.188 N 
ATOM     13  H5  UNL     1      -0.476  51.238 -19.622  1.00  0.00     0.184 HD
HETATM   14  C26 UNL     1       0.060  52.123 -21.411  1.00  0.00     0.083 A 
ENDROOT
BRANCH  11  15
HETATM   15  N3  UNL     1       0.596  52.942 -17.942  1.00  0.00    -0.190 N 
HETATM   16  H10 UNL     1      -0.301  53.255 -17.601  1.00  0.00     0.184 HD
BRANCH  15  17
HETATM   17  C14 UNL     1       1.548  52.599 -16.976  1.00  0.00     0.051 A 
HETATM   18  C15 UNL     1       2.928  52.638 -17.188  1.00  0.00     0.030 A 
HETATM   19  C16 UNL     1       3.825  52.282 -16.176  1.00  0.00     0.005 A 
HETATM   20  C17 UNL     1       3.357  51.876 -14.927  1.00  0.00     0.037 A 
HETATM   21  C18 UNL     1       1.987  51.826 -14.687  1.00  0.00     0.070 A 
HETATM   22  C25 UNL     1       1.099  52.186 -15.709  1.00  0.00     0.066 A 
BRANCH  21  23
HETATM   23  O2  UNL     1       1.386  51.450 -13.516  1.00  0.00    -0.349 OA
BRANCH  23  24
HETATM   24  C19 UNL     1       0.315  52.272 -13.043  1.00  0.00     0.206 C 
BRANCH  24  25
HETATM   25  C20 UNL     1      -0.918  51.376 -12.845  1.00  0.00     0.299 C 
BRANCH  25  26
HETATM   26  N4  UNL     1      -1.881  51.914 -11.875  1.00  0.00     0.090 N 
HETATM   27  C21 UNL     1      -3.156  52.309 -12.479  1.00  0.00     0.272 C 
HETATM   28  C22 UNL     1      -3.785  53.207 -11.421  1.00  0.00     0.032 C 
HETATM   29  C23 UNL     1      -2.622  53.699 -10.568  1.00  0.00     0.032 C 
HETATM   30  C24 UNL     1      -1.379  53.131 -11.233  1.00  0.00     0.272 C 
ENDBRANCH  25  26
ENDBRANCH  24  25
ENDBRANCH  23  24
ENDBRANCH  21  23
ENDBRANCH  15  17
ENDBRANCH  11  15
BRANCH   4  31
HETATM   31  C5  UNL     1       0.226  52.434 -25.701  1.00  0.00    -0.001 A 
HETATM   32  C6  UNL     1      -0.766  53.176 -26.368  1.00  0.00     0.050 A 
HETATM   33  C7  UNL     1      -0.747  53.307 -27.755  1.00  0.00     0.066 A 
HETATM   34  C8  UNL     1       0.250  52.708 -28.515  1.00  0.00     0.038 A 
HETATM   35  C9  UNL     1       1.241  51.965 -27.875  1.00  0.00     0.027 A 
HETATM   36  C10 UNL     1       1.231  51.826 -26.480  1.00  0.00     0.045 A 
HETATM   37 CL1  UNL     1       2.484  50.869 -25.768  1.00  0.00    -0.083 Cl
BRANCH  33  38
HETATM   38  O1  UNL     1      -1.738  54.040 -28.334  1.00  0.00    -0.361 OA
HETATM   39  H6  UNL     1      -1.594  54.066 -29.295  1.00  0.00     0.217 HD
ENDBRANCH  33  38
ENDBRANCH   4  31
TORSDOF 8
ENDMDL
MODEL 5
REMARK minimizedAffinity -9.71575737
REMARK CNNscore 0.797130644
REMARK CNNaffinity 7.79710913
REMARK  8 active torsions:
REMARK  status: ('A' for Active; 'I' for Inactive)
REMARK    1  A    between atoms: C4_4  and  C5_5 
REMARK    2  A    between atoms: C7_7  and  O1_8 
REMARK    3  A    between atoms: C13_19  and  N3_20 
REMARK    4  A    between atoms: N3_20  and  C14_21 
REMARK    5  A    between atoms: C18_25  and  O2_26 
REMARK    6  A    between atoms: O2_26  and  C19_27 
REMARK    7  A    between atoms: C19_27  and  C20_28 
REMARK    8  A    between atoms: C20_28  and  N4_29 
ROOT
HETATM    1  C1  UNL     1      -1.045  49.987 -21.764  1.00  0.00     0.050 C 
HETATM    2  C2  UNL     1      -0.388  51.185 -22.395  1.00  0.00    -0.032 A 
HETATM    3  C3  UNL     1      -0.386  51.316 -23.794  1.00  0.00     0.021 A 
HETATM    4  C4  UNL     1       0.221  52.412 -24.411  1.00  0.00    -0.021 A 
HETATM    5  C11 UNL     1       0.818  53.378 -23.593  1.00  0.00     0.045 A 
HETATM    6  C12 UNL     1       0.824  53.258 -22.207  1.00  0.00     0.077 A 
HETATM    7  N1  UNL     1       1.404  54.193 -21.447  1.00  0.00    -0.284 N 
ATOM      8  H1  UNL     1       1.846  55.005 -21.877  1.00  0.00     0.187 HD
HETATM    9  N2  UNL     1       1.398  54.050 -20.088  1.00  0.00    -0.131 N 
ATOM     10  H2  UNL     1       1.839  54.758 -19.502  1.00  0.00     0.205 HD
HETATM   11  C13 UNL     1       0.811  52.978 -19.518  1.00  0.00     0.697 A 
HETATM   12  N5  UNL     1       0.217  52.024 -20.247  1.00  0.00    -0.188 N 
ATOM     13  H5  UNL     1      -0.226  51.222 -19.799  1.00  0.00     0.184 HD
HETATM   14  C26 UNL     1       0.220  52.155 -21.587  1.00  0.00     0.083 A 
ENDROOT
BRANCH  11  15
HETATM   15  N3  UNL     1       0.862  52.921 -18.124  1.00  0.00    -0.190 N 
HETATM   16  H10 UNL     1       1.046  53.844 -17.758  1.00  0.00     0.184 HD
BRANCH  15  17
HETATM   17  C14 UNL     1       0.734  51.889 -17.188  1.00  0.00     0.051 A 
HETATM   18  C15 UNL     1       1.587  51.712 -16.096  1.00  0.00     0.030 A 
HETATM   19  C16 UNL     1       1.400  50.657 -15.198  1.00  0.00     0.005 A 
HETATM   20  C17 UNL     1       0.352  49.754 -15.375  1.00  0.00     0.037 A 
HETATM   21  C18 UNL     1      -0.513  49.905 -16.454  1.00  0.00     0.070 A 
HETATM   22  C25 UNL     1      -0.315  50.967 -17.347  1.00  0.00     0.066 A 
BRANCH  21  23
HETATM   23  O2  UNL     1      -1.579  49.101 -16.752  1.00  0.00    -0.349 OA
BRANCH  23  24
HETATM   24  C19 UNL     1      -2.851  49.739 -16.905  1.00  0.00     0.206 C 
BRANCH  24  25
HETATM   25  C20 UNL     1      -3.705  48.876 -17.848  1.00  0.00     0.299 C 
BRANCH  25  26
HETATM   26  N4  UNL     1      -3.866  49.457 -19.187  1.00  0.00     0.090 N 
HETATM   27  C21 UNL     1      -3.521  50.880 -19.249  1.00  0.00     0.272 C 
HETATM   28  C22 UNL     1      -4.165  51.344 -20.549  1.00  0.00     0.032 C 
HETATM   29  C23 UNL     1      -5.267  50.331 -20.835  1.00  0.00     0.032 C 
HETATM   30  C24 UNL     1      -5.257  49.391 -19.641  1.00  0.00     0.272 C 
ENDBRANCH  25  26
ENDBRANCH  24  25
ENDBRANCH  23  24
ENDBRANCH  21  23
ENDBRANCH  15  17
ENDBRANCH  11  15
BRANCH   4  31
HETATM   31  C5  UNL     1       0.220  52.553 -25.874  1.00  0.00    -0.001 A 
HETATM   32  C6  UNL     1      -0.795  53.312 -26.486  1.00  0.00     0.050 A 
HETATM   33  C7  UNL     1      -0.830  53.470 -27.869  1.00  0.00     0.066 A 
HETATM   34  C8  UNL     1       0.134  52.884 -28.681  1.00  0.00     0.038 A 
HETATM   35  C9  UNL     1       1.146  52.125 -28.094  1.00  0.00     0.027 A 
HETATM   36  C10 UNL     1       1.190  51.958 -26.703  1.00  0.00     0.045 A 
HETATM   37 CL1  UNL     1       2.466  50.983 -26.060  1.00  0.00    -0.083 Cl
BRANCH  33  38
HETATM   38  O1  UNL     1      -1.840  54.218 -28.394  1.00  0.00    -0.361 OA
HETATM   39  H6  UNL     1      -1.733  54.264 -29.359  1.00  0.00     0.217 HD
ENDBRANCH  33  38
ENDBRANCH   4  31
TORSDOF 8
ENDMDL
MODEL 6
REMARK minimizedAffinity -9.16328526
REMARK CNNscore 0.749757588
REMARK CNNaffinity 7.8675065
REMARK  8 active torsions:
REMARK  status: ('A' for Active; 'I' for Inactive)
REMARK    1  A    between atoms: C4_4  and  C5_5 
REMARK    2  A    between atoms: C7_7  and  O1_8 
REMARK    3  A    between atoms: C13_19  and  N3_20 
REMARK    4  A    between atoms: N3_20  and  C14_21 
REMARK    5  A    between atoms: C18_25  and  O2_26 
REMARK    6  A    between atoms: O2_26  and  C19_27 
REMARK    7  A    between atoms: C19_27  and  C20_28 
REMARK    8  A    between atoms: C20_28  and  N4_29 
ROOT
HETATM    1  C1  UNL     1      -0.843  49.721 -21.111  1.00  0.00     0.050 C 
HETATM    2  C2  UNL     1      -0.262  50.766 -20.197  1.00  0.00    -0.032 A 
HETATM    3  C3  UNL     1      -0.259  50.546 -18.809  1.00  0.00     0.021 A 
HETATM    4  C4  UNL     1       0.267  51.498 -17.933  1.00  0.00    -0.021 A 
HETATM    5  C11 UNL     1       0.797  52.672 -18.481  1.00  0.00     0.045 A 
HETATM    6  C12 UNL     1       0.798  52.901 -19.852  1.00  0.00     0.077 A 
HETATM    7  N1  UNL     1       1.308  54.032 -20.351  1.00  0.00    -0.284 N 
ATOM      8  H1  UNL     1       1.704  54.737 -19.729  1.00  0.00     0.187 HD
HETATM    9  N2  UNL     1       1.295  54.234 -21.702  1.00  0.00    -0.131 N 
ATOM     10  H2  UNL     1       1.681  55.094 -22.090  1.00  0.00     0.205 HD
HETATM   11  C13 UNL     1       0.775  53.301 -22.526  1.00  0.00     0.697 A 
HETATM   12  N5  UNL     1       0.259  52.155 -22.063  1.00  0.00    -0.188 N 
ATOM     13  H5  UNL     1      -0.127  51.459 -22.701  1.00  0.00     0.184 HD
HETATM   14  C26 UNL     1       0.266  51.948 -20.732  1.00  0.00     0.083 A 
ENDROOT
BRANCH  11  15
HETATM   15  N3  UNL     1       0.804  53.603 -23.889  1.00  0.00    -0.190 N 
HETATM   16  H10 UNL     1       0.935  54.597 -24.009  1.00  0.00     0.184 HD
BRANCH  15  17
HETATM   17  C14 UNL     1       0.677  52.842 -25.056  1.00  0.00     0.051 A 
HETATM   18  C15 UNL     1       1.704  52.072 -25.605  1.00  0.00     0.030 A 
HETATM   19  C16 UNL     1       1.508  51.334 -26.776  1.00  0.00     0.005 A 
HETATM   20  C17 UNL     1       0.273  51.352 -27.424  1.00  0.00     0.037 A 
HETATM   21  C18 UNL     1      -0.769  52.111 -26.901  1.00  0.00     0.070 A 
HETATM   22  C25 UNL     1      -0.559  52.847 -25.727  1.00  0.00     0.066 A 
BRANCH  21  23
HETATM   23  O2  UNL     1      -2.028  52.224 -27.426  1.00  0.00    -0.349 OA
BRANCH  23  24
HETATM   24  C19 UNL     1      -3.105  51.690 -26.650  1.00  0.00     0.206 C 
BRANCH  24  25
HETATM   25  C20 UNL     1      -3.171  50.176 -26.907  1.00  0.00     0.299 C 
BRANCH  25  26
HETATM   26  N4  UNL     1      -3.315  49.381 -25.681  1.00  0.00     0.090 N 
HETATM   27  C21 UNL     1      -4.584  48.653 -25.606  1.00  0.00     0.272 C 
HETATM   28  C22 UNL     1      -4.697  48.289 -24.131  1.00  0.00     0.032 C 
HETATM   29  C23 UNL     1      -3.805  49.287 -23.401  1.00  0.00     0.032 C 
HETATM   30  C24 UNL     1      -3.299  50.226 -24.484  1.00  0.00     0.272 C 
ENDBRANCH  25  26
ENDBRANCH  24  25
ENDBRANCH  23  24
ENDBRANCH  21  23
ENDBRANCH  15  17
ENDBRANCH  11  15
BRANCH   4  31
HETATM   31  C5  UNL     1       0.274  51.267 -16.481  1.00  0.00    -0.001 A 
HETATM   32  C6  UNL     1      -0.886  50.765 -15.864  1.00  0.00     0.050 A 
HETATM   33  C7  UNL     1      -0.919  50.531 -14.491  1.00  0.00     0.066 A 
HETATM   34  C8  UNL     1       0.191  50.787 -13.696  1.00  0.00     0.038 A 
HETATM   35  C9  UNL     1       1.350  51.288 -14.287  1.00  0.00     0.027 A 
HETATM   36  C10 UNL     1       1.393  51.528 -15.667  1.00  0.00     0.045 A 
HETATM   37 CL1  UNL     1       2.863  52.172 -16.316  1.00  0.00    -0.083 Cl
BRANCH  33  38
HETATM   38  O1  UNL     1      -2.076  50.044 -13.961  1.00  0.00    -0.361 OA
HETATM   39  H6  UNL     1      -1.955  49.909 -13.006  1.00  0.00     0.217 HD
ENDBRANCH  33  38
ENDBRANCH   4  31
TORSDOF 8
ENDMDL
MODEL 7
REMARK minimizedAffinity -9.40865326
REMARK CNNscore 0.717918277
REMARK CNNaffinity 7.23784447
REMARK  8 active torsions:
REMARK  status: ('A' for Active; 'I' for Inactive)
REMARK    1  A    between atoms: C4_4  and  C5_5 
REMARK    2  A    between atoms: C7_7  and  O1_8 
REMARK    3  A    between atoms: C13_19  and  N3_20 
REMARK    4  A    between atoms: N3_20  and  C14_21 
REMARK    5  A    between atoms: C18_25  and  O2_26 
REMARK    6  A    between atoms: O2_26  and  C19_27 
REMARK    7  A    between atoms: C19_27  and  C20_28 
REMARK    8  A    between atoms: C20_28  and  N4_29 
ROOT
HETATM    1  C1  UNL     1      -1.605  50.061 -21.123  1.00  0.00     0.050 C 
HETATM    2  C2  UNL     1      -0.745  51.072 -21.834  1.00  0.00    -0.032 A 
HETATM    3  C3  UNL     1      -0.710  51.082 -23.239  1.00  0.00     0.021 A 
HETATM    4  C4  UNL     1       0.081  52.003 -23.930  1.00  0.00    -0.021 A 
HETATM    5  C11 UNL     1       0.830  52.918 -23.180  1.00  0.00     0.045 A 
HETATM    6  C12 UNL     1       0.803  52.916 -21.789  1.00  0.00     0.077 A 
HETATM    7  N1  UNL     1       1.528  53.799 -21.095  1.00  0.00    -0.284 N 
ATOM      8  H1  UNL     1       2.107  54.485 -21.580  1.00  0.00     0.187 HD
HETATM    9  N2  UNL     1       1.487  53.774 -19.730  1.00  0.00    -0.131 N 
ATOM     10  H2  UNL     1       2.038  54.443 -19.193  1.00  0.00     0.205 HD
HETATM   11  C13 UNL     1       0.720  52.870 -19.087  1.00  0.00     0.697 A 
HETATM   12  N5  UNL     1      -0.024  51.974 -19.749  1.00  0.00    -0.188 N 
ATOM     13  H5  UNL     1      -0.601  51.299 -19.247  1.00  0.00     0.184 HD
HETATM   14  C26 UNL     1       0.013  51.989 -21.095  1.00  0.00     0.083 A 
ENDROOT
BRANCH  11  15
HETATM   15  N3  UNL     1       0.749  52.923 -17.693  1.00  0.00    -0.190 N 
HETATM   16  H10 UNL     1      -0.045  53.451 -17.361  1.00  0.00     0.184 HD
BRANCH  15  17
HETATM   17  C14 UNL     1       1.625  52.430 -16.719  1.00  0.00     0.051 A 
HETATM   18  C15 UNL     1       2.953  52.838 -16.582  1.00  0.00     0.030 A 
HETATM   19  C16 UNL     1       3.774  52.303 -15.584  1.00  0.00     0.005 A 
HETATM   20  C17 UNL     1       3.280  51.345 -14.700  1.00  0.00     0.037 A 
HETATM   21  C18 UNL     1       1.960  50.919 -14.813  1.00  0.00     0.070 A 
HETATM   22  C25 UNL     1       1.148  51.462 -15.818  1.00  0.00     0.066 A 
BRANCH  21  23
HETATM   23  O2  UNL     1       1.342  49.990 -14.020  1.00  0.00    -0.349 OA
BRANCH  23  24
HETATM   24  C19 UNL     1       0.789  48.844 -14.675  1.00  0.00     0.206 C 
BRANCH  24  25
HETATM   25  C20 UNL     1       1.787  47.684 -14.523  1.00  0.00     0.299 C 
BRANCH  25  26
HETATM   26  N4  UNL     1       1.193  46.475 -13.939  1.00  0.00     0.090 N 
HETATM   27  C21 UNL     1       1.419  46.355 -12.496  1.00  0.00     0.272 C 
HETATM   28  C22 UNL     1       1.127  44.887 -12.213  1.00  0.00     0.032 C 
HETATM   29  C23 UNL     1       1.303  44.177 -13.549  1.00  0.00     0.032 C 
HETATM   30  C24 UNL     1       1.774  45.258 -14.509  1.00  0.00     0.272 C 
ENDBRANCH  25  26
ENDBRANCH  24  25
ENDBRANCH  23  24
ENDBRANCH  21  23
ENDBRANCH  15  17
ENDBRANCH  11  15
BRANCH   4  31
HETATM   31  C5  UNL     1       0.117  52.018 -25.399  1.00  0.00    -0.001 A 
HETATM   32  C6  UNL     1       1.355  51.882 -26.054  1.00  0.00     0.050 A 
HETATM   33  C7  UNL     1       1.430  51.889 -27.444  1.00  0.00     0.066 A 
HETATM   34  C8  UNL     1       0.287  52.030 -28.221  1.00  0.00     0.038 A 
HETATM   35  C9  UNL     1      -0.950  52.170 -27.592  1.00  0.00     0.027 A 
HETATM   36  C10 UNL     1      -1.037  52.165 -26.194  1.00  0.00     0.045 A 
HETATM   37 CL1  UNL     1      -2.607  52.366 -25.495  1.00  0.00    -0.083 Cl
BRANCH  33  38
HETATM   38  O1  UNL     1       2.662  51.752 -28.011  1.00  0.00    -0.361 OA
HETATM   39  H6  UNL     1       2.568  51.753 -28.979  1.00  0.00     0.217 HD
ENDBRANCH  33  38
ENDBRANCH   4  31
TORSDOF 8
ENDMDL
MODEL 8
REMARK minimizedAffinity -9.08908939
REMARK CNNscore 0.678030491
REMARK CNNaffinity 7.19179964
REMARK  8 active torsions:
REMARK  status: ('A' for Active; 'I' for Inactive)
REMARK    1  A    between atoms: C4_4  and  C5_5 
REMARK    2  A    between atoms: C7_7  and  O1_8 
REMARK    3  A    between atoms: C13_19  and  N3_20 
REMARK    4  A    between atoms: N3_20  and  C14_21 
REMARK    5  A    between atoms: C18_25  and  O2_26 
REMARK    6  A    between atoms: O2_26  and  C19_27 
REMARK    7  A    between atoms: C19_27  and  C20_28 
REMARK    8  A    between atoms: C20_28  and  N4_29 
ROOT
HETATM    1  C1  UNL     1      -1.527  49.746 -21.795  1.00  0.00     0.050 C 
HETATM    2  C2  UNL     1      -0.744  50.906 -22.350  1.00  0.00    -0.032 A 
HETATM    3  C3  UNL     1      -0.679  51.093 -23.741  1.00  0.00     0.021 A 
HETATM    4  C4  UNL     1       0.044  52.156 -24.288  1.00  0.00    -0.021 A 
HETATM    5  C11 UNL     1       0.693  53.030 -23.408  1.00  0.00     0.045 A 
HETATM    6  C12 UNL     1       0.636  52.853 -22.030  1.00  0.00     0.077 A 
HETATM    7  N1  UNL     1       1.266  53.701 -21.210  1.00  0.00    -0.284 N 
ATOM      8  H1  UNL     1       1.794  54.488 -21.588  1.00  0.00     0.187 HD
HETATM    9  N2  UNL     1       1.197  53.503 -19.860  1.00  0.00    -0.131 N 
ATOM     10  H2  UNL     1       1.676  54.144 -19.228  1.00  0.00     0.205 HD
HETATM   11  C13 UNL     1       0.498  52.465 -19.358  1.00  0.00     0.697 A 
HETATM   12  N5  UNL     1      -0.150  51.598 -20.148  1.00  0.00    -0.188 N 
ATOM     13  H5  UNL     1      -0.677  50.821 -19.751  1.00  0.00     0.184 HD
HETATM   14  C26 UNL     1      -0.085  51.784 -21.480  1.00  0.00     0.083 A 
ENDROOT
BRANCH  11  15
HETATM   15  N3  UNL     1       0.492  52.346 -17.967  1.00  0.00    -0.190 N 
HETATM   16  H10 UNL     1       0.762  53.227 -17.554  1.00  0.00     0.184 HD
BRANCH  15  17
HETATM   17  C14 UNL     1       0.216  51.298 -17.082  1.00  0.00     0.051 A 
HETATM   18  C15 UNL     1       0.203  49.950 -17.444  1.00  0.00     0.030 A 
HETATM   19  C16 UNL     1      -0.080  48.952 -16.506  1.00  0.00     0.005 A 
HETATM   20  C17 UNL     1      -0.358  49.285 -15.182  1.00  0.00     0.037 A 
HETATM   21  C18 UNL     1      -0.354  50.621 -14.791  1.00  0.00     0.070 A 
HETATM   22  C25 UNL     1      -0.069  51.611 -15.741  1.00  0.00     0.066 A 
BRANCH  21  23
HETATM   23  O2  UNL     1      -0.607  51.095 -13.532  1.00  0.00    -0.349 OA
BRANCH  23  24
HETATM   24  C19 UNL     1      -1.788  51.884 -13.362  1.00  0.00     0.206 C 
BRANCH  24  25
HETATM   25  C20 UNL     1      -2.187  51.826 -11.878  1.00  0.00     0.299 C 
BRANCH  25  26
HETATM   26  N4  UNL     1      -3.376  51.002 -11.625  1.00  0.00     0.090 N 
HETATM   27  C21 UNL     1      -4.357  51.650 -10.750  1.00  0.00     0.272 C 
HETATM   28  C22 UNL     1      -5.236  50.495 -10.288  1.00  0.00     0.032 C 
HETATM   29  C23 UNL     1      -4.384  49.245 -10.467  1.00  0.00     0.032 C 
HETATM   30  C24 UNL     1      -3.032  49.755 -10.938  1.00  0.00     0.272 C 
ENDBRANCH  25  26
ENDBRANCH  24  25
ENDBRANCH  23  24
ENDBRANCH  21  23
ENDBRANCH  15  17
ENDBRANCH  11  15
BRANCH   4  31
HETATM   31  C5  UNL     1       0.110  52.356 -25.743  1.00  0.00    -0.001 A 
HETATM   32  C6  UNL     1      -0.920  53.071 -26.381  1.00  0.00     0.050 A 
HETATM   33  C7  UNL     1      -0.893  53.284 -27.757  1.00  0.00     0.066 A 
HETATM   34  C8  UNL     1       0.149  52.797 -28.535  1.00  0.00     0.038 A 
HETATM   35  C9  UNL     1       1.179  52.082 -27.923  1.00  0.00     0.027 A 
HETATM   36  C10 UNL     1       1.161  51.862 -26.539  1.00  0.00     0.045 A 
HETATM   37 CL1  UNL     1       2.465  50.947 -25.864  1.00  0.00    -0.083 Cl
BRANCH  33  38
HETATM   38  O1  UNL     1      -1.924  53.985 -28.308  1.00  0.00    -0.361 OA
HETATM   39  H6  UNL     1      -1.770  54.077 -29.264  1.00  0.00     0.217 HD
ENDBRANCH  33  38
ENDBRANCH   4  31
TORSDOF 8
ENDMDL
MODEL 9
REMARK minimizedAffinity -10.5062294
REMARK CNNscore 0.535128713
REMARK CNNaffinity 7.04282904
REMARK  8 active torsions:
REMARK  status: ('A' for Active; 'I' for Inactive)
REMARK    1  A    between atoms: C4_4  and  C5_5 
REMARK    2  A    between atoms: C7_7  and  O1_8 
REMARK    3  A    between atoms: C13_19  and  N3_20 
REMARK    4  A    between atoms: N3_20  and  C14_21 
REMARK    5  A    between atoms: C18_25  and  O2_26 
REMARK    6  A    between atoms: O2_26  and  C19_27 
REMARK    7  A    between atoms: C19_27  and  C20_28 
REMARK    8  A    between atoms: C20_28  and  N4_29 
ROOT
HETATM    1  C1  UNL     1      -1.766  50.161 -21.150  1.00  0.00     0.050 C 
HETATM    2  C2  UNL     1      -0.837  51.127 -21.835  1.00  0.00    -0.032 A 
HETATM    3  C3  UNL     1      -0.744  51.120 -23.238  1.00  0.00     0.021 A 
HETATM    4  C4  UNL     1       0.113  51.999 -23.904  1.00  0.00    -0.021 A 
HETATM    5  C11 UNL     1       0.867  52.890 -23.132  1.00  0.00     0.045 A 
HETATM    6  C12 UNL     1       0.784  52.905 -21.744  1.00  0.00     0.077 A 
HETATM    7  N1  UNL     1       1.517  53.765 -21.029  1.00  0.00    -0.284 N 
ATOM      8  H1  UNL     1       2.144  54.421 -21.496  1.00  0.00     0.187 HD
HETATM    9  N2  UNL     1       1.419  53.757 -19.666  1.00  0.00    -0.131 N 
ATOM     10  H2  UNL     1       1.976  54.409 -19.114  1.00  0.00     0.205 HD
HETATM   11  C13 UNL     1       0.589  52.893 -19.047  1.00  0.00     0.697 A 
HETATM   12  N5  UNL     1      -0.163  52.021 -19.731  1.00  0.00    -0.188 N 
ATOM     13  H5  UNL     1      -0.789  51.377 -19.247  1.00  0.00     0.184 HD
HETATM   14  C26 UNL     1      -0.071  52.019 -21.074  1.00  0.00     0.083 A 
ENDROOT
BRANCH  11  15
HETATM   15  N3  UNL     1       0.564  52.960 -17.653  1.00  0.00    -0.190 N 
HETATM   16  H10 UNL     1      -0.292  53.406 -17.355  1.00  0.00     0.184 HD
BRANCH  15  17
HETATM   17  C14 UNL     1       1.451  52.569 -16.645  1.00  0.00     0.051 A 
HETATM   18  C15 UNL     1       2.840  52.550 -16.788  1.00  0.00     0.030 A 
HETATM   19  C16 UNL     1       3.670  52.147 -15.736  1.00  0.00     0.005 A 
HETATM   20  C17 UNL     1       3.123  51.754 -14.515  1.00  0.00     0.037 A 
HETATM   21  C18 UNL     1       1.742  51.763 -14.344  1.00  0.00     0.070 A 
HETATM   22  C25 UNL     1       0.922  52.168 -15.406  1.00  0.00     0.066 A 
BRANCH  21  23
HETATM   23  O2  UNL     1       1.068  51.406 -13.207  1.00  0.00    -0.349 OA
BRANCH  23  24
HETATM   24  C19 UNL     1      -0.266  51.902 -13.061  1.00  0.00     0.206 C 
BRANCH  24  25
HETATM   25  C20 UNL     1      -0.355  52.636 -11.714  1.00  0.00     0.299 C 
BRANCH  25  26
HETATM   26  N4  UNL     1      -1.714  52.676 -11.159  1.00  0.00     0.090 N 
HETATM   27  C21 UNL     1      -2.756  52.393 -12.149  1.00  0.00     0.272 C 
HETATM   28  C22 UNL     1      -4.025  52.911 -11.486  1.00  0.00     0.032 C 
HETATM   29  C23 UNL     1      -3.553  53.926 -10.452  1.00  0.00     0.032 C 
HETATM   30  C24 UNL     1      -2.046  54.004 -10.637  1.00  0.00     0.272 C 
ENDBRANCH  25  26
ENDBRANCH  24  25
ENDBRANCH  23  24
ENDBRANCH  21  23
ENDBRANCH  15  17
ENDBRANCH  11  15
BRANCH   4  31
HETATM   31  C5  UNL     1       0.208  51.996 -25.370  1.00  0.00    -0.001 A 
HETATM   32  C6  UNL     1       1.471  51.846 -25.972  1.00  0.00     0.050 A 
HETATM   33  C7  UNL     1       1.604  51.836 -27.358  1.00  0.00     0.066 A 
HETATM   34  C8  UNL     1       0.495  51.974 -28.183  1.00  0.00     0.038 A 
HETATM   35  C9  UNL     1      -0.767  52.128 -27.607  1.00  0.00     0.027 A 
HETATM   36  C10 UNL     1      -0.911  52.140 -26.213  1.00  0.00     0.045 A 
HETATM   37 CL1  UNL     1      -2.507  52.358 -25.582  1.00  0.00    -0.083 Cl
BRANCH  33  38
HETATM   38  O1  UNL     1       2.857  51.686 -27.872  1.00  0.00    -0.361 OA
HETATM   39  H6  UNL     1       2.803  51.675 -28.843  1.00  0.00     0.217 HD
ENDBRANCH  33  38
ENDBRANCH   4  31
TORSDOF 8
ENDMDL
