MODEL 1
REMARK minimizedAffinity -8.65364742
REMARK  6 active torsions:
REMARK  status: ('A' for Active; 'I' for Inactive)
REMARK    1  A    between atoms: C6_11  and  N4_12 
REMARK    2  A    between atoms: N4_12  and  C7_13 
REMARK    3  A    between atoms: C7_13  and  C8_14 
REMARK    4  A    between atoms: C8_14  and  N5_15 
REMARK    5  A    between atoms: C15_23  and  N6_24 
REMARK    6  A    between atoms: N6_24  and  C16_25 
ROOT
HETATM    1  N1  UNL     1      -0.830  49.957 -17.448  1.00  0.00    -0.191 NA
HETATM    2  C1  UNL     1      -0.431  50.749 -18.196  1.00  0.00     0.103 C 
HETATM    3  C2  UNL     1       0.073  51.698 -19.138  1.00  0.00     0.087 A 
HETATM    4  C3  UNL     1       0.670  52.856 -18.676  1.00  0.00     0.113 A 
HETATM    5  N2  UNL     1       1.166  53.820 -19.481  1.00  0.00    -0.363 N 
ATOM      6  H2  UNL     1       1.594  54.660 -19.090  1.00  0.00     0.165 HD
HETATM    7  C4  UNL     1       1.078  53.643 -20.815  1.00  0.00     0.060 A 
HETATM    8  C5  UNL     1       1.572  54.591 -21.694  1.00  0.00     0.119 A 
HETATM    9  N3  UNL     1       1.544  54.519 -23.051  1.00  0.00    -0.355 N 
ATOM     10  H3  UNL     1       1.931  55.265 -23.628  1.00  0.00     0.166 HD
HETATM   11  C6  UNL     1       0.987  53.430 -23.602  1.00  0.00     0.080 A 
HETATM   12  C13 UNL     1       0.472  52.410 -22.809  1.00  0.00     0.058 A 
HETATM   13  C14 UNL     1       0.495  52.507 -21.397  1.00  0.00     0.023 A 
HETATM   14  C15 UNL     1      -0.021  51.505 -20.525  1.00  0.00     0.067 A 
ENDROOT
BRANCH  14  15
HETATM   15  N6  UNL     1      -0.696  50.366 -21.058  1.00  0.00    -0.354 N 
HETATM   16  H17 UNL     1      -0.403  49.497 -20.608  1.00  0.00     0.166 HD
BRANCH  15  17
HETATM   17  C16 UNL     1      -2.077  50.292 -21.380  1.00  0.00     0.034 A 
HETATM   18  C17 UNL     1      -2.867  51.437 -21.192  1.00  0.00     0.032 A 
HETATM   19  C18 UNL     1      -4.244  51.408 -21.430  1.00  0.00     0.046 A 
HETATM   20  C19 UNL     1      -4.845  50.224 -21.841  1.00  0.00     0.138 A 
HETATM   21  F1  UNL     1      -6.168  50.214 -22.059  1.00  0.00    -0.204 F 
HETATM   22  C20 UNL     1      -4.084  49.071 -22.007  1.00  0.00     0.074 A 
HETATM   23 CL1  UNL     1      -4.824  47.595 -22.496  1.00  0.00    -0.081 Cl
HETATM   24  C21 UNL     1      -2.706  49.101 -21.771  1.00  0.00     0.056 A 
ENDBRANCH  15  17
ENDBRANCH  14  15
BRANCH  11  25
HETATM   25  N4  UNL     1       0.957  53.268 -24.995  1.00  0.00    -0.277 NA
HETATM   26  H3  UNL     1       1.643  53.890 -25.417  1.00  0.00     0.129 HD
BRANCH  25  27
HETATM   27  C7  UNL     1       1.125  51.881 -25.447  1.00  0.00     0.124 C 
BRANCH  27  28
HETATM   28  C8  UNL     1       1.431  51.856 -26.958  1.00  0.00     0.287 C 
BRANCH  28  29
HETATM   29  N5  UNL     1       0.323  51.872 -27.919  1.00  0.00     0.093 N 
HETATM   30  C9  UNL     1       0.119  53.148 -28.622  1.00  0.00     0.298 C 
HETATM   31  C10 UNL     1      -0.896  54.105 -27.975  1.00  0.00     0.198 C 
HETATM   32  O1  UNL     1      -2.137  53.446 -27.705  1.00  0.00    -0.388 OA
HETATM   33  C11 UNL     1      -1.927  52.336 -26.827  1.00  0.00     0.198 C 
HETATM   34  C12 UNL     1      -0.949  51.316 -27.434  1.00  0.00     0.298 C 
ENDBRANCH  28  29
ENDBRANCH  27  28
ENDBRANCH  25  27
ENDBRANCH  11  25
TORSDOF 6
ENDMDL
MODEL 2
REMARK minimizedAffinity -8.44858551
REMARK  6 active torsions:
REMARK  status: ('A' for Active; 'I' for Inactive)
REMARK    1  A    between atoms: C6_11  and  N4_12 
REMARK    2  A    between atoms: N4_12  and  C7_13 
REMARK    3  A    between atoms: C7_13  and  C8_14 
REMARK    4  A    between atoms: C8_14  and  N5_15 
REMARK    5  A    between atoms: C15_23  and  N6_24 
REMARK    6  A    between atoms: N6_24  and  C16_25 
ROOT
HETATM    1  N1  UNL     1       2.716  52.027 -26.628  1.00  0.00    -0.191 NA
HETATM    2  C1  UNL     1       1.590  51.827 -26.436  1.00  0.00     0.103 C 
HETATM    3  C2  UNL     1       0.210  51.577 -26.166  1.00  0.00     0.087 A 
HETATM    4  C3  UNL     1      -0.509  50.759 -27.018  1.00  0.00     0.113 A 
HETATM    5  N2  UNL     1      -1.819  50.471 -26.859  1.00  0.00    -0.363 N 
ATOM      6  H2  UNL     1      -2.305  49.864 -27.519  1.00  0.00     0.165 HD
HETATM    7  C4  UNL     1      -2.465  51.008 -25.804  1.00  0.00     0.060 A 
HETATM    8  C5  UNL     1      -3.806  50.747 -25.581  1.00  0.00     0.119 A 
HETATM    9  N3  UNL     1      -4.557  51.226 -24.556  1.00  0.00    -0.355 N 
ATOM     10  H3  UNL     1      -5.544  50.985 -24.464  1.00  0.00     0.166 HD
HETATM   11  C6  UNL     1      -3.952  52.029 -23.667  1.00  0.00     0.080 A 
HETATM   12  C13 UNL     1      -2.603  52.345 -23.789  1.00  0.00     0.058 A 
HETATM   13  C14 UNL     1      -1.838  51.850 -24.872  1.00  0.00     0.023 A 
HETATM   14  C15 UNL     1      -0.456  52.139 -25.064  1.00  0.00     0.067 A 
ENDROOT
BRANCH  14  15
HETATM   15  N6  UNL     1       0.215  53.051 -24.196  1.00  0.00    -0.354 N 
HETATM   16  H17 UNL     1       0.001  54.025 -24.417  1.00  0.00     0.166 HD
BRANCH  15  17
HETATM   17  C16 UNL     1       0.369  52.906 -22.792  1.00  0.00     0.034 A 
HETATM   18  C17 UNL     1       1.027  53.924 -22.085  1.00  0.00     0.032 A 
HETATM   19  C18 UNL     1       1.265  53.810 -20.712  1.00  0.00     0.046 A 
HETATM   20  C19 UNL     1       0.862  52.663 -20.039  1.00  0.00     0.138 A 
HETATM   21  F1  UNL     1       1.103  52.568 -18.723  1.00  0.00    -0.204 F 
HETATM   22  C20 UNL     1       0.231  51.630 -20.726  1.00  0.00     0.074 A 
HETATM   23 CL1  UNL     1      -0.253  50.198 -19.903  1.00  0.00    -0.081 Cl
HETATM   24  C21 UNL     1      -0.008  51.746 -22.099  1.00  0.00     0.056 A 
ENDBRANCH  15  17
ENDBRANCH  14  15
BRANCH  11  25
HETATM   25  N4  UNL     1      -4.654  52.530 -22.560  1.00  0.00    -0.277 NA
HETATM   26  H3  UNL     1      -5.585  52.812 -22.856  1.00  0.00     0.129 HD
BRANCH  25  27
HETATM   27  C7  UNL     1      -4.696  51.620 -21.408  1.00  0.00     0.124 C 
BRANCH  27  28
HETATM   28  C8  UNL     1      -3.602  50.543 -21.551  1.00  0.00     0.287 C 
BRANCH  28  29
HETATM   29  N5  UNL     1      -3.985  49.162 -21.859  1.00  0.00     0.093 N 
HETATM   30  C9  UNL     1      -4.498  48.382 -20.722  1.00  0.00     0.298 C 
HETATM   31  C10 UNL     1      -3.451  47.547 -19.967  1.00  0.00     0.198 C 
HETATM   32  O1  UNL     1      -2.685  46.735 -20.863  1.00  0.00    -0.388 OA
HETATM   33  C11 UNL     1      -2.014  47.556 -21.824  1.00  0.00     0.198 C 
HETATM   34  C12 UNL     1      -3.010  48.391 -22.644  1.00  0.00     0.298 C 
ENDBRANCH  28  29
ENDBRANCH  27  28
ENDBRANCH  25  27
ENDBRANCH  11  25
TORSDOF 6
ENDMDL
MODEL 3
REMARK minimizedAffinity -8.42621899
REMARK  6 active torsions:
REMARK  status: ('A' for Active; 'I' for Inactive)
REMARK    1  A    between atoms: C6_11  and  N4_12 
REMARK    2  A    between atoms: N4_12  and  C7_13 
REMARK    3  A    between atoms: C7_13  and  C8_14 
REMARK    4  A    between atoms: C8_14  and  N5_15 
REMARK    5  A    between atoms: C15_23  and  N6_24 
REMARK    6  A    between atoms: N6_24  and  C16_25 
ROOT
HETATM    1  N1  UNL     1      -4.700  48.136 -29.509  1.00  0.00    -0.191 NA
HETATM    2  C1  UNL     1      -4.821  48.169 -28.355  1.00  0.00     0.103 C 
HETATM    3  C2  UNL     1      -4.939  48.192 -26.932  1.00  0.00     0.087 A 
HETATM    4  C3  UNL     1      -6.167  47.936 -26.351  1.00  0.00     0.113 A 
HETATM    5  N2  UNL     1      -6.387  47.946 -25.019  1.00  0.00    -0.363 N 
ATOM      6  H2  UNL     1      -7.314  47.754 -24.639  1.00  0.00     0.165 HD
HETATM    7  C4  UNL     1      -5.346  48.217 -24.204  1.00  0.00     0.060 A 
HETATM    8  C5  UNL     1      -5.504  48.238 -22.829  1.00  0.00     0.119 A 
HETATM    9  N3  UNL     1      -4.533  48.493 -21.914  1.00  0.00    -0.355 N 
ATOM     10  H3  UNL     1      -4.734  48.489 -20.914  1.00  0.00     0.166 HD
HETATM   11  C6  UNL     1      -3.300  48.751 -22.375  1.00  0.00     0.080 A 
HETATM   12  C13 UNL     1      -3.029  48.742 -23.739  1.00  0.00     0.058 A 
HETATM   13  C14 UNL     1      -4.054  48.489 -24.680  1.00  0.00     0.023 A 
HETATM   14  C15 UNL     1      -3.850  48.473 -26.091  1.00  0.00     0.067 A 
ENDROOT
BRANCH  14  15
HETATM   15  N6  UNL     1      -2.579  48.820 -26.637  1.00  0.00    -0.354 N 
HETATM   16  H17 UNL     1      -2.391  48.338 -27.517  1.00  0.00     0.166 HD
BRANCH  15  17
HETATM   17  C16 UNL     1      -2.020  50.125 -26.683  1.00  0.00     0.034 A 
HETATM   18  C17 UNL     1      -2.800  51.166 -27.212  1.00  0.00     0.032 A 
HETATM   19  C18 UNL     1      -2.284  52.458 -27.342  1.00  0.00     0.046 A 
HETATM   20  C19 UNL     1      -0.973  52.714 -26.961  1.00  0.00     0.138 A 
HETATM   21  F1  UNL     1      -0.492  53.959 -27.098  1.00  0.00    -0.204 F 
HETATM   22  C20 UNL     1      -0.174  51.692 -26.459  1.00  0.00     0.074 A 
HETATM   23 CL1  UNL     1       1.458  51.997 -26.004  1.00  0.00    -0.081 Cl
HETATM   24  C21 UNL     1      -0.692  50.400 -26.328  1.00  0.00     0.056 A 
ENDBRANCH  15  17
ENDBRANCH  14  15
BRANCH  11  25
HETATM   25  N4  UNL     1      -2.238  48.984 -21.488  1.00  0.00    -0.277 NA
HETATM   26  H3  UNL     1      -1.885  48.093 -21.150  1.00  0.00     0.129 HD
BRANCH  25  27
HETATM   27  C7  UNL     1      -1.166  49.826 -22.035  1.00  0.00     0.124 C 
BRANCH  27  28
HETATM   28  C8  UNL     1      -0.439  50.558 -20.889  1.00  0.00     0.287 C 
BRANCH  28  29
HETATM   29  N5  UNL     1      -0.649  51.997 -20.704  1.00  0.00     0.093 N 
HETATM   30  C9  UNL     1      -0.057  52.858 -21.739  1.00  0.00     0.298 C 
HETATM   31  C10 UNL     1       1.355  53.385 -21.433  1.00  0.00     0.198 C 
HETATM   32  O1  UNL     1       1.415  53.995 -20.139  1.00  0.00    -0.388 OA
HETATM   33  C11 UNL     1       1.047  53.051 -19.129  1.00  0.00     0.198 C 
HETATM   34  C12 UNL     1      -0.375  52.512 -19.354  1.00  0.00     0.298 C 
ENDBRANCH  28  29
ENDBRANCH  27  28
ENDBRANCH  25  27
ENDBRANCH  11  25
TORSDOF 6
ENDMDL
MODEL 4
REMARK minimizedAffinity -8.33132935
REMARK  6 active torsions:
REMARK  status: ('A' for Active; 'I' for Inactive)
REMARK    1  A    between atoms: C6_11  and  N4_12 
REMARK    2  A    between atoms: N4_12  and  C7_13 
REMARK    3  A    between atoms: C7_13  and  C8_14 
REMARK    4  A    between atoms: C8_14  and  N5_15 
REMARK    5  A    between atoms: C15_23  and  N6_24 
REMARK    6  A    between atoms: N6_24  and  C16_25 
ROOT
HETATM    1  N1  UNL     1       1.385  54.446 -21.250  1.00  0.00    -0.191 NA
HETATM    2  C1  UNL     1       0.861  53.413 -21.328  1.00  0.00     0.103 C 
HETATM    3  C2  UNL     1       0.186  52.159 -21.435  1.00  0.00     0.087 A 
HETATM    4  C3  UNL     1       0.338  51.222 -20.430  1.00  0.00     0.113 A 
HETATM    5  N2  UNL     1      -0.244  50.003 -20.442  1.00  0.00    -0.363 N 
ATOM      6  H2  UNL     1      -0.097  49.345 -19.676  1.00  0.00     0.165 HD
HETATM    7  C4  UNL     1      -1.026  49.682 -21.494  1.00  0.00     0.060 A 
HETATM    8  C5  UNL     1      -1.656  48.451 -21.563  1.00  0.00     0.119 A 
HETATM    9  N3  UNL     1      -2.465  48.020 -22.565  1.00  0.00    -0.355 N 
ATOM     10  H3  UNL     1      -2.892  47.094 -22.540  1.00  0.00     0.166 HD
HETATM   11  C6  UNL     1      -2.682  48.859 -23.590  1.00  0.00     0.080 A 
HETATM   12  C13 UNL     1      -2.108  50.125 -23.614  1.00  0.00     0.058 A 
HETATM   13  C14 UNL     1      -1.255  50.554 -22.569  1.00  0.00     0.023 A 
HETATM   14  C15 UNL     1      -0.627  51.832 -22.532  1.00  0.00     0.067 A 
ENDROOT
BRANCH  14  15
HETATM   15  N6  UNL     1      -0.758  52.730 -23.633  1.00  0.00    -0.354 N 
HETATM   16  H17 UNL     1      -0.520  53.690 -23.381  1.00  0.00     0.166 HD
BRANCH  15  17
HETATM   17  C16 UNL     1      -0.348  52.475 -24.969  1.00  0.00     0.034 A 
HETATM   18  C17 UNL     1      -1.331  52.431 -25.971  1.00  0.00     0.032 A 
HETATM   19  C18 UNL     1      -0.998  52.122 -27.292  1.00  0.00     0.046 A 
HETATM   20  C19 UNL     1       0.321  51.834 -27.619  1.00  0.00     0.138 A 
HETATM   21  F1  UNL     1       0.621  51.534 -28.891  1.00  0.00    -0.204 F 
HETATM   22  C20 UNL     1       1.307  51.846 -26.636  1.00  0.00     0.074 A 
HETATM   23 CL1  UNL     1       2.941  51.471 -27.029  1.00  0.00    -0.081 Cl
HETATM   24  C21 UNL     1       0.974  52.157 -25.315  1.00  0.00     0.056 A 
ENDBRANCH  15  17
ENDBRANCH  14  15
BRANCH  11  25
HETATM   25  N4  UNL     1      -3.538  48.498 -24.642  1.00  0.00    -0.277 NA
HETATM   26  H3  UNL     1      -3.898  47.562 -24.472  1.00  0.00     0.129 HD
BRANCH  25  27
HETATM   27  C7  UNL     1      -4.616  49.460 -24.903  1.00  0.00     0.124 C 
BRANCH  27  28
HETATM   28  C8  UNL     1      -5.842  49.122 -24.032  1.00  0.00     0.287 C 
BRANCH  28  29
HETATM   29  N5  UNL     1      -6.411  50.151 -23.157  1.00  0.00     0.093 N 
HETATM   30  C9  UNL     1      -5.438  51.079 -22.560  1.00  0.00     0.298 C 
HETATM   31  C10 UNL     1      -4.918  50.686 -21.168  1.00  0.00     0.198 C 
HETATM   32  O1  UNL     1      -5.994  50.399 -20.270  1.00  0.00    -0.388 OA
HETATM   33  C11 UNL     1      -6.794  49.329 -20.781  1.00  0.00     0.198 C 
HETATM   34  C12 UNL     1      -7.381  49.674 -22.160  1.00  0.00     0.298 C 
ENDBRANCH  28  29
ENDBRANCH  27  28
ENDBRANCH  25  27
ENDBRANCH  11  25
TORSDOF 6
ENDMDL
MODEL 5
REMARK minimizedAffinity -8.29858589
REMARK  6 active torsions:
REMARK  status: ('A' for Active; 'I' for Inactive)
REMARK    1  A    between atoms: C6_11  and  N4_12 
REMARK    2  A    between atoms: N4_12  and  C7_13 
REMARK    3  A    between atoms: C7_13  and  C8_14 
REMARK    4  A    between atoms: C8_14  and  N5_15 
REMARK    5  A    between atoms: C15_23  and  N6_24 
REMARK    6  A    between atoms: N6_24  and  C16_25 
ROOT
HETATM    1  N1  UNL     1       1.755  54.787 -21.716  1.00  0.00    -0.191 NA
HETATM    2  C1  UNL     1       1.319  53.907 -21.098  1.00  0.00     0.103 C 
HETATM    3  C2  UNL     1       0.757  52.819 -20.362  1.00  0.00     0.087 A 
HETATM    4  C3  UNL     1       0.642  52.920 -18.989  1.00  0.00     0.113 A 
HETATM    5  N2  UNL     1       0.138  51.945 -18.201  1.00  0.00    -0.363 N 
ATOM      6  H2  UNL     1       0.078  52.067 -17.190  1.00  0.00     0.165 HD
HETATM    7  C4  UNL     1      -0.283  50.806 -18.789  1.00  0.00     0.060 A 
HETATM    8  C5  UNL     1      -0.814  49.771 -18.038  1.00  0.00     0.119 A 
HETATM    9  N3  UNL     1      -1.273  48.586 -18.518  1.00  0.00    -0.355 N 
ATOM     10  H3  UNL     1      -1.650  47.873 -17.894  1.00  0.00     0.166 HD
HETATM   11  C6  UNL     1      -1.209  48.388 -19.844  1.00  0.00     0.080 A 
HETATM   12  C13 UNL     1      -0.705  49.369 -20.691  1.00  0.00     0.058 A 
HETATM   13  C14 UNL     1      -0.218  50.593 -20.174  1.00  0.00     0.023 A 
HETATM   14  C15 UNL     1       0.319  51.637 -20.982  1.00  0.00     0.067 A 
ENDROOT
BRANCH  14  15
HETATM   15  N6  UNL     1       0.484  51.447 -22.386  1.00  0.00    -0.354 N 
HETATM   16  H17 UNL     1       0.917  50.549 -22.607  1.00  0.00     0.166 HD
BRANCH  15  17
HETATM   17  C16 UNL     1      -0.466  51.776 -23.389  1.00  0.00     0.034 A 
HETATM   18  C17 UNL     1      -1.695  52.323 -22.988  1.00  0.00     0.032 A 
HETATM   19  C18 UNL     1      -2.695  52.608 -23.922  1.00  0.00     0.046 A 
HETATM   20  C19 UNL     1      -2.479  52.328 -25.265  1.00  0.00     0.138 A 
HETATM   21  F1  UNL     1      -3.452  52.603 -26.147  1.00  0.00    -0.204 F 
HETATM   22  C20 UNL     1      -1.278  51.761 -25.681  1.00  0.00     0.074 A 
HETATM   23 CL1  UNL     1      -1.011  51.392 -27.341  1.00  0.00    -0.081 Cl
HETATM   24  C21 UNL     1      -0.278  51.478 -24.746  1.00  0.00     0.056 A 
ENDBRANCH  15  17
ENDBRANCH  14  15
BRANCH  11  25
HETATM   25  N4  UNL     1      -1.700  47.205 -20.416  1.00  0.00    -0.277 NA
HETATM   26  H3  UNL     1      -2.469  46.855 -19.848  1.00  0.00     0.129 HD
BRANCH  25  27
HETATM   27  C7  UNL     1      -2.075  47.325 -21.830  1.00  0.00     0.124 C 
BRANCH  27  28
HETATM   28  C8  UNL     1      -3.582  47.626 -21.949  1.00  0.00     0.287 C 
BRANCH  28  29
HETATM   29  N5  UNL     1      -4.029  48.759 -22.766  1.00  0.00     0.093 N 
HETATM   30  C9  UNL     1      -5.465  48.778 -23.084  1.00  0.00     0.298 C 
HETATM   31  C10 UNL     1      -5.856  48.120 -24.417  1.00  0.00     0.198 C 
HETATM   32  O1  UNL     1      -5.068  48.626 -25.500  1.00  0.00    -0.388 OA
HETATM   33  C11 UNL     1      -3.680  48.383 -25.256  1.00  0.00     0.198 C 
HETATM   34  C12 UNL     1      -3.212  49.050 -23.952  1.00  0.00     0.298 C 
ENDBRANCH  28  29
ENDBRANCH  27  28
ENDBRANCH  25  27
ENDBRANCH  11  25
TORSDOF 6
ENDMDL
MODEL 6
REMARK minimizedAffinity -8.28199291
REMARK  6 active torsions:
REMARK  status: ('A' for Active; 'I' for Inactive)
REMARK    1  A    between atoms: C6_11  and  N4_12 
REMARK    2  A    between atoms: N4_12  and  C7_13 
REMARK    3  A    between atoms: C7_13  and  C8_14 
REMARK    4  A    between atoms: C8_14  and  N5_15 
REMARK    5  A    between atoms: C15_23  and  N6_24 
REMARK    6  A    between atoms: N6_24  and  C16_25 
ROOT
HETATM    1  N1  UNL     1      -2.450  48.143 -18.278  1.00  0.00    -0.191 NA
HETATM    2  C1  UNL     1      -3.028  48.621 -19.163  1.00  0.00     0.103 C 
HETATM    3  C2  UNL     1      -3.718  49.239 -20.250  1.00  0.00     0.087 A 
HETATM    4  C3  UNL     1      -5.098  49.173 -20.300  1.00  0.00     0.113 A 
HETATM    5  N2  UNL     1      -5.843  49.710 -21.289  1.00  0.00    -0.363 N 
ATOM      6  H2  UNL     1      -6.860  49.631 -21.282  1.00  0.00     0.165 HD
HETATM    7  C4  UNL     1      -5.205  50.355 -22.288  1.00  0.00     0.060 A 
HETATM    8  C5  UNL     1      -5.911  50.933 -23.329  1.00  0.00     0.119 A 
HETATM    9  N3  UNL     1      -5.379  51.608 -24.381  1.00  0.00    -0.355 N 
ATOM     10  H3  UNL     1      -5.972  52.005 -25.110  1.00  0.00     0.166 HD
HETATM   11  C6  UNL     1      -4.044  51.733 -24.426  1.00  0.00     0.080 A 
HETATM   12  C13 UNL     1      -3.241  51.201 -23.423  1.00  0.00     0.058 A 
HETATM   13  C14 UNL     1      -3.809  50.488 -22.341  1.00  0.00     0.023 A 
HETATM   14  C15 UNL     1      -3.047  49.910 -21.285  1.00  0.00     0.067 A 
ENDROOT
BRANCH  14  15
HETATM   15  N6  UNL     1      -1.621  49.943 -21.326  1.00  0.00    -0.354 N 
HETATM   16  H17 UNL     1      -1.248  49.537 -22.186  1.00  0.00     0.166 HD
BRANCH  15  17
HETATM   17  C16 UNL     1      -0.800  51.028 -20.919  1.00  0.00     0.034 A 
HETATM   18  C17 UNL     1      -0.272  51.871 -21.910  1.00  0.00     0.032 A 
HETATM   19  C18 UNL     1       0.593  52.917 -21.578  1.00  0.00     0.046 A 
HETATM   20  C19 UNL     1       0.953  53.116 -20.251  1.00  0.00     0.138 A 
HETATM   21  F1  UNL     1       1.788  54.121 -19.952  1.00  0.00    -0.204 F 
HETATM   22  C20 UNL     1       0.462  52.275 -19.256  1.00  0.00     0.074 A 
HETATM   23 CL1  UNL     1       0.919  52.503 -17.612  1.00  0.00    -0.081 Cl
HETATM   24  C21 UNL     1      -0.405  51.230 -19.589  1.00  0.00     0.056 A 
ENDBRANCH  15  17
ENDBRANCH  14  15
BRANCH  11  25
HETATM   25  N4  UNL     1      -3.426  52.451 -25.461  1.00  0.00    -0.277 NA
HETATM   26  H3  UNL     1      -2.757  53.104 -25.060  1.00  0.00     0.129 HD
BRANCH  25  27
HETATM   27  C7  UNL     1      -2.817  51.612 -26.501  1.00  0.00     0.124 C 
BRANCH  27  28
HETATM   28  C8  UNL     1      -2.124  52.501 -27.553  1.00  0.00     0.287 C 
BRANCH  28  29
HETATM   29  N5  UNL     1      -0.662  52.607 -27.557  1.00  0.00     0.093 N 
HETATM   30  C9  UNL     1       0.054  51.460 -26.978  1.00  0.00     0.298 C 
HETATM   31  C10 UNL     1       0.404  51.582 -25.487  1.00  0.00     0.198 C 
HETATM   32  O1  UNL     1       1.071  52.817 -25.206  1.00  0.00    -0.388 OA
HETATM   33  C11 UNL     1       0.241  53.922 -25.576  1.00  0.00     0.198 C 
HETATM   34  C12 UNL     1      -0.115  53.882 -27.072  1.00  0.00     0.298 C 
ENDBRANCH  28  29
ENDBRANCH  27  28
ENDBRANCH  25  27
ENDBRANCH  11  25
TORSDOF 6
ENDMDL
MODEL 7
REMARK minimizedAffinity -8.16503143
REMARK  6 active torsions:
REMARK  status: ('A' for Active; 'I' for Inactive)
REMARK    1  A    between atoms: C6_11  and  N4_12 
REMARK    2  A    between atoms: N4_12  and  C7_13 
REMARK    3  A    between atoms: C7_13  and  C8_14 
REMARK    4  A    between atoms: C8_14  and  N5_15 
REMARK    5  A    between atoms: C15_23  and  N6_24 
REMARK    6  A    between atoms: N6_24  and  C16_25 
ROOT
HETATM    1  N1  UNL     1      -1.094  50.743 -26.739  1.00  0.00    -0.191 NA
HETATM    2  C1  UNL     1      -0.654  51.334 -25.843  1.00  0.00     0.103 C 
HETATM    3  C2  UNL     1      -0.143  52.061 -24.725  1.00  0.00     0.087 A 
HETATM    4  C3  UNL     1       0.689  53.142 -24.945  1.00  0.00     0.113 A 
HETATM    5  N2  UNL     1       1.235  53.886 -23.958  1.00  0.00    -0.363 N 
ATOM      6  H2  UNL     1       1.847  54.673 -24.172  1.00  0.00     0.165 HD
HETATM    7  C4  UNL     1       0.947  53.559 -22.681  1.00  0.00     0.060 A 
HETATM    8  C5  UNL     1       1.469  54.285 -21.624  1.00  0.00     0.119 A 
HETATM    9  N3  UNL     1       1.247  54.052 -20.304  1.00  0.00    -0.355 N 
ATOM     10  H3  UNL     1       1.673  54.637 -19.585  1.00  0.00     0.166 HD
HETATM   11  C6  UNL     1       0.446  53.025 -19.983  1.00  0.00     0.080 A 
HETATM   12  C13 UNL     1      -0.141  52.239 -20.968  1.00  0.00     0.058 A 
HETATM   13  C14 UNL     1       0.112  52.485 -22.338  1.00  0.00     0.023 A 
HETATM   14  C15 UNL     1      -0.449  51.716 -23.399  1.00  0.00     0.067 A 
ENDROOT
BRANCH  14  15
HETATM   15  N6  UNL     1      -1.240  50.564 -23.111  1.00  0.00    -0.354 N 
HETATM   16  H17 UNL     1      -0.863  50.018 -22.334  1.00  0.00     0.166 HD
BRANCH  15  17
HETATM   17  C16 UNL     1      -2.659  50.514 -23.081  1.00  0.00     0.034 A 
HETATM   18  C17 UNL     1      -3.368  51.725 -23.039  1.00  0.00     0.032 A 
HETATM   19  C18 UNL     1      -4.762  51.741 -22.943  1.00  0.00     0.046 A 
HETATM   20  C19 UNL     1      -5.458  50.541 -22.869  1.00  0.00     0.138 A 
HETATM   21  F1  UNL     1      -6.795  50.575 -22.772  1.00  0.00    -0.204 F 
HETATM   22  C20 UNL     1      -4.773  49.329 -22.882  1.00  0.00     0.074 A 
HETATM   23 CL1  UNL     1      -5.628  47.838 -22.770  1.00  0.00    -0.081 Cl
HETATM   24  C21 UNL     1      -3.379  49.314 -22.979  1.00  0.00     0.056 A 
ENDBRANCH  15  17
ENDBRANCH  14  15
BRANCH  11  25
HETATM   25  N4  UNL     1       0.139  52.749 -18.641  1.00  0.00    -0.277 NA
HETATM   26  H3  UNL     1      -0.754  53.177 -18.409  1.00  0.00     0.129 HD
BRANCH  25  27
HETATM   27  C7  UNL     1       0.170  51.322 -18.294  1.00  0.00     0.124 C 
BRANCH  27  28
HETATM   28  C8  UNL     1       0.283  51.158 -16.765  1.00  0.00     0.287 C 
BRANCH  28  29
HETATM   29  N5  UNL     1       0.876  52.235 -15.966  1.00  0.00     0.093 N 
HETATM   30  C9  UNL     1       2.225  52.653 -16.375  1.00  0.00     0.298 C 
HETATM   31  C10 UNL     1       3.384  51.955 -15.646  1.00  0.00     0.198 C 
HETATM   32  O1  UNL     1       3.220  52.017 -14.225  1.00  0.00    -0.388 OA
HETATM   33  C11 UNL     1       1.992  51.392 -13.842  1.00  0.00     0.198 C 
HETATM   34  C12 UNL     1       0.783  52.070 -14.508  1.00  0.00     0.298 C 
ENDBRANCH  28  29
ENDBRANCH  27  28
ENDBRANCH  25  27
ENDBRANCH  11  25
TORSDOF 6
ENDMDL
MODEL 8
REMARK minimizedAffinity -8.10330009
REMARK  6 active torsions:
REMARK  status: ('A' for Active; 'I' for Inactive)
REMARK    1  A    between atoms: C6_11  and  N4_12 
REMARK    2  A    between atoms: N4_12  and  C7_13 
REMARK    3  A    between atoms: C7_13  and  C8_14 
REMARK    4  A    between atoms: C8_14  and  N5_15 
REMARK    5  A    between atoms: C15_23  and  N6_24 
REMARK    6  A    between atoms: N6_24  and  C16_25 
ROOT
HETATM    1  N1  UNL     1      -1.953  49.601 -22.269  1.00  0.00    -0.191 NA
HETATM    2  C1  UNL     1      -2.732  49.265 -23.060  1.00  0.00     0.103 C 
HETATM    3  C2  UNL     1      -3.682  48.878 -24.054  1.00  0.00     0.087 A 
HETATM    4  C3  UNL     1      -4.949  48.487 -23.662  1.00  0.00     0.113 A 
HETATM    5  N2  UNL     1      -5.914  48.091 -24.520  1.00  0.00    -0.363 N 
ATOM      6  H2  UNL     1      -6.834  47.808 -24.180  1.00  0.00     0.165 HD
HETATM    7  C4  UNL     1      -5.629  48.082 -25.839  1.00  0.00     0.060 A 
HETATM    8  C5  UNL     1      -6.576  47.692 -26.770  1.00  0.00     0.119 A 
HETATM    9  N3  UNL     1      -6.405  47.646 -28.117  1.00  0.00    -0.355 N 
ATOM     10  H3  UNL     1      -7.157  47.346 -28.736  1.00  0.00     0.166 HD
HETATM   11  C6  UNL     1      -5.208  48.012 -28.602  1.00  0.00     0.080 A 
HETATM   12  C13 UNL     1      -4.190  48.433 -27.754  1.00  0.00     0.058 A 
HETATM   13  C14 UNL     1      -4.379  48.461 -26.352  1.00  0.00     0.023 A 
HETATM   14  C15 UNL     1      -3.378  48.873 -25.425  1.00  0.00     0.067 A 
ENDROOT
BRANCH  14  15
HETATM   15  N6  UNL     1      -2.064  49.192 -25.880  1.00  0.00    -0.354 N 
HETATM   16  H17 UNL     1      -1.744  48.560 -26.615  1.00  0.00     0.166 HD
BRANCH  15  17
HETATM   17  C16 UNL     1      -1.562  50.498 -26.124  1.00  0.00     0.034 A 
HETATM   18  C17 UNL     1      -1.793  51.075 -27.383  1.00  0.00     0.032 A 
HETATM   19  C18 UNL     1      -1.270  52.330 -27.706  1.00  0.00     0.046 A 
HETATM   20  C19 UNL     1      -0.493  53.010 -26.777  1.00  0.00     0.138 A 
HETATM   21  F1  UNL     1       0.005  54.211 -27.106  1.00  0.00    -0.204 F 
HETATM   22  C20 UNL     1      -0.230  52.444 -25.533  1.00  0.00     0.074 A 
HETATM   23 CL1  UNL     1       0.749  53.272 -24.383  1.00  0.00    -0.081 Cl
HETATM   24  C21 UNL     1      -0.755  51.190 -25.210  1.00  0.00     0.056 A 
ENDBRANCH  15  17
ENDBRANCH  14  15
BRANCH  11  25
HETATM   25  N4  UNL     1      -4.970  48.028 -29.985  1.00  0.00    -0.277 NA
HETATM   26  H3  UNL     1      -4.668  47.103 -30.281  1.00  0.00     0.129 HD
BRANCH  25  27
HETATM   27  C7  UNL     1      -6.098  48.520 -30.787  1.00  0.00     0.124 C 
BRANCH  27  28
HETATM   28  C8  UNL     1      -6.837  47.332 -31.435  1.00  0.00     0.287 C 
BRANCH  28  29
HETATM   29  N5  UNL     1      -6.318  46.750 -32.677  1.00  0.00     0.093 N 
HETATM   30  C9  UNL     1      -5.250  45.753 -32.507  1.00  0.00     0.298 C 
HETATM   31  C10 UNL     1      -3.816  46.300 -32.581  1.00  0.00     0.198 C 
HETATM   32  O1  UNL     1      -3.619  47.090 -33.759  1.00  0.00    -0.388 OA
HETATM   33  C11 UNL     1      -4.533  48.190 -33.775  1.00  0.00     0.198 C 
HETATM   34  C12 UNL     1      -5.993  47.709 -33.742  1.00  0.00     0.298 C 
ENDBRANCH  28  29
ENDBRANCH  27  28
ENDBRANCH  25  27
ENDBRANCH  11  25
TORSDOF 6
ENDMDL
MODEL 9
REMARK minimizedAffinity -8.091959
REMARK  6 active torsions:
REMARK  status: ('A' for Active; 'I' for Inactive)
REMARK    1  A    between atoms: C6_11  and  N4_12 
REMARK    2  A    between atoms: N4_12  and  C7_13 
REMARK    3  A    between atoms: C7_13  and  C8_14 
REMARK    4  A    between atoms: C8_14  and  N5_15 
REMARK    5  A    between atoms: C15_23  and  N6_24 
REMARK    6  A    between atoms: N6_24  and  C16_25 
ROOT
HETATM    1  N1  UNL     1       1.799  54.822 -21.722  1.00  0.00    -0.191 NA
HETATM    2  C1  UNL     1       1.382  53.941 -21.093  1.00  0.00     0.103 C 
HETATM    3  C2  UNL     1       0.842  52.853 -20.341  1.00  0.00     0.087 A 
HETATM    4  C3  UNL     1       0.807  52.936 -18.962  1.00  0.00     0.113 A 
HETATM    5  N2  UNL     1       0.330  51.960 -18.160  1.00  0.00    -0.363 N 
ATOM      6  H2  UNL     1       0.329  52.068 -17.145  1.00  0.00     0.165 HD
HETATM    7  C4  UNL     1      -0.146  50.837 -18.738  1.00  0.00     0.060 A 
HETATM    8  C5  UNL     1      -0.654  49.802 -17.972  1.00  0.00     0.119 A 
HETATM    9  N3  UNL     1      -1.162  48.633 -18.441  1.00  0.00    -0.355 N 
ATOM     10  H3  UNL     1      -1.517  47.917 -17.807  1.00  0.00     0.166 HD
HETATM   11  C6  UNL     1      -1.178  48.453 -19.771  1.00  0.00     0.080 A 
HETATM   12  C13 UNL     1      -0.704  49.436 -20.632  1.00  0.00     0.058 A 
HETATM   13  C14 UNL     1      -0.164  50.643 -20.128  1.00  0.00     0.023 A 
HETATM   14  C15 UNL     1       0.346  51.689 -20.950  1.00  0.00     0.067 A 
ENDROOT
BRANCH  14  15
HETATM   15  N6  UNL     1       0.428  51.517 -22.364  1.00  0.00    -0.354 N 
HETATM   16  H17 UNL     1       0.896  50.646 -22.622  1.00  0.00     0.166 HD
BRANCH  15  17
HETATM   17  C16 UNL     1      -0.604  51.795 -23.299  1.00  0.00     0.034 A 
HETATM   18  C17 UNL     1      -1.840  52.248 -22.811  1.00  0.00     0.032 A 
HETATM   19  C18 UNL     1      -2.914  52.479 -23.674  1.00  0.00     0.046 A 
HETATM   20  C19 UNL     1      -2.765  52.238 -25.035  1.00  0.00     0.138 A 
HETATM   21  F1  UNL     1      -3.808  52.460 -25.848  1.00  0.00    -0.204 F 
HETATM   22  C20 UNL     1      -1.556  51.764 -25.536  1.00  0.00     0.074 A 
HETATM   23 CL1  UNL     1      -1.370  51.444 -27.218  1.00  0.00    -0.081 Cl
HETATM   24  C21 UNL     1      -0.482  51.535 -24.671  1.00  0.00     0.056 A 
ENDBRANCH  15  17
ENDBRANCH  14  15
BRANCH  11  25
HETATM   25  N4  UNL     1      -1.723  47.287 -20.330  1.00  0.00    -0.277 NA
HETATM   26  H3  UNL     1      -1.711  46.547 -19.633  1.00  0.00     0.129 HD
BRANCH  25  27
HETATM   27  C7  UNL     1      -3.057  47.464 -20.919  1.00  0.00     0.124 C 
BRANCH  27  28
HETATM   28  C8  UNL     1      -4.137  47.268 -19.837  1.00  0.00     0.287 C 
BRANCH  28  29
HETATM   29  N5  UNL     1      -4.718  48.441 -19.177  1.00  0.00     0.093 N 
HETATM   30  C9  UNL     1      -6.128  48.307 -18.780  1.00  0.00     0.298 C 
HETATM   31  C10 UNL     1      -7.155  48.816 -19.804  1.00  0.00     0.198 C 
HETATM   32  O1  UNL     1      -6.851  50.148 -20.231  1.00  0.00    -0.388 OA
HETATM   33  C11 UNL     1      -5.549  50.193 -20.823  1.00  0.00     0.198 C 
HETATM   34  C12 UNL     1      -4.466  49.732 -19.834  1.00  0.00     0.298 C 
ENDBRANCH  28  29
ENDBRANCH  27  28
ENDBRANCH  25  27
ENDBRANCH  11  25
TORSDOF 6
ENDMDL
