MODEL 1
REMARK minimizedAffinity -8.80488968
REMARK  8 active torsions:
REMARK  status: ('A' for Active; 'I' for Inactive)
REMARK    1  A    between atoms: O1_2  and  C2_3 
REMARK    2  A    between atoms: C2_3  and  C3_4 
REMARK    3  A    between atoms: C3_4  and  O2_5 
REMARK    4  A    between atoms: O2_5  and  C4_6 
REMARK    5  A    between atoms: C8_14  and  N3_15 
REMARK    6  A    between atoms: N3_15  and  C9_16 
REMARK    7  A    between atoms: C17_26  and  N4_27 
REMARK       I    between atoms: N4_27  and  C18_28 
REMARK    8  A    between atoms: C18_28  and  C19_30 
ROOT
HETATM    1  C4  UNL     1      -0.593  51.751 -24.623  1.00  0.00     0.097 A 
HETATM    2  C5  UNL     1       0.225  52.708 -24.016  1.00  0.00     0.069 A 
HETATM    3  C6  UNL     1       0.367  52.780 -22.637  1.00  0.00     0.049 A 
HETATM    4  N1  UNL     1       1.158  53.731 -22.138  1.00  0.00    -0.351 N 
ATOM      5  H1  UNL     1       1.656  54.385 -22.744  1.00  0.00     0.166 HD
HETATM    6  C7  UNL     1       1.268  53.786 -20.807  1.00  0.00     0.182 A 
HETATM    7  N2  UNL     1       0.670  52.975 -19.934  1.00  0.00    -0.338 N 
ATOM      8  H2  UNL     1       0.797  53.088 -18.928  1.00  0.00     0.168 HD
HETATM    9  C8  UNL     1      -0.109  52.001 -20.440  1.00  0.00     0.119 A 
HETATM   10  C15 UNL     1      -0.319  51.864 -21.829  1.00  0.00     0.037 A 
HETATM   11  C16 UNL     1      -1.153  50.892 -22.440  1.00  0.00     0.050 A 
HETATM   12  C17 UNL     1      -1.281  50.822 -23.825  1.00  0.00     0.069 A 
ENDROOT
BRANCH   9  13
HETATM   13  N3  UNL     1      -0.741  51.081 -19.556  1.00  0.00    -0.342 N 
HETATM   14  H10 UNL     1      -1.128  50.314 -20.098  1.00  0.00     0.167 HD
BRANCH  13  15
HETATM   15  C9  UNL     1      -0.319  50.645 -18.278  1.00  0.00     0.035 A 
HETATM   16  C10 UNL     1      -0.621  49.374 -17.767  1.00  0.00     0.032 A 
HETATM   17  C11 UNL     1      -0.148  48.966 -16.515  1.00  0.00     0.046 A 
HETATM   18  C12 UNL     1       0.660  49.820 -15.773  1.00  0.00     0.138 A 
HETATM   19  F1  UNL     1       1.105  49.411 -14.576  1.00  0.00    -0.204 F 
HETATM   20  C13 UNL     1       1.005  51.070 -16.275  1.00  0.00     0.074 A 
HETATM   21 CL1  UNL     1       2.021  52.130 -15.372  1.00  0.00    -0.081 Cl
HETATM   22  C14 UNL     1       0.530  51.476 -17.526  1.00  0.00     0.056 A 
ENDBRANCH  13  15
ENDBRANCH   9  13
BRANCH  12  23
HETATM   23  N4  UNL     1      -2.067  49.860 -24.494  1.00  0.00    -0.323 N 
HETATM   24  C18 UNL     1      -3.446  49.801 -24.601  1.00  0.00     0.255 C 
HETATM   25  O3  UNL     1      -4.244  50.630 -24.164  1.00  0.00    -0.271 OA
HETATM   26  H15 UNL     1      -1.527  49.099 -24.893  1.00  0.00     0.169 HD
BRANCH  24  27
HETATM   27  C19 UNL     1      -3.917  48.567 -25.394  1.00  0.00     0.311 C 
HETATM   28  C20 UNL     1      -3.156  48.433 -26.713  1.00  0.00     0.047 C 
HETATM   29  C21 UNL     1      -4.234  48.475 -27.788  1.00  0.00     0.033 C 
HETATM   30  C22 UNL     1      -5.478  48.034 -27.052  1.00  0.00     0.271 C 
HETATM   31  N5  UNL     1      -5.352  48.685 -25.746  1.00  0.00     0.097 N 
HETATM   32  H23 UNL     1      -5.543  49.689 -25.858  1.00  0.00     0.317 HD
ENDBRANCH  24  27
ENDBRANCH  12  23
BRANCH   1  33
HETATM   33  O2  UNL     1      -0.789  51.619 -25.978  1.00  0.00    -0.347 OA
BRANCH  33  34
HETATM   34  C3  UNL     1       0.190  50.930 -26.753  1.00  0.00     0.201 C 
BRANCH  34  35
HETATM   35  C2  UNL     1       0.620  51.730 -27.981  1.00  0.00     0.193 C 
BRANCH  35  36
HETATM   36  O1  UNL     1       2.048  51.804 -28.012  1.00  0.00    -0.394 OA
HETATM   37  C1  UNL     1       2.617  51.510 -26.738  1.00  0.00     0.201 C 
ENDBRANCH  35  36
ENDBRANCH  34  35
ENDBRANCH  33  34
ENDBRANCH   1  33
TORSDOF 8
ENDMDL
MODEL 2
REMARK minimizedAffinity -8.56790066
REMARK  8 active torsions:
REMARK  status: ('A' for Active; 'I' for Inactive)
REMARK    1  A    between atoms: O1_2  and  C2_3 
REMARK    2  A    between atoms: C2_3  and  C3_4 
REMARK    3  A    between atoms: C3_4  and  O2_5 
REMARK    4  A    between atoms: O2_5  and  C4_6 
REMARK    5  A    between atoms: C8_14  and  N3_15 
REMARK    6  A    between atoms: N3_15  and  C9_16 
REMARK    7  A    between atoms: C17_26  and  N4_27 
REMARK       I    between atoms: N4_27  and  C18_28 
REMARK    8  A    between atoms: C18_28  and  C19_30 
ROOT
HETATM    1  C4  UNL     1       0.503  52.626 -23.303  1.00  0.00     0.097 A 
HETATM    2  C5  UNL     1       0.686  53.590 -24.299  1.00  0.00     0.069 A 
HETATM    3  C6  UNL     1       0.001  53.534 -25.506  1.00  0.00     0.049 A 
HETATM    4  N1  UNL     1       0.242  54.489 -26.406  1.00  0.00    -0.351 N 
ATOM      5  H1  UNL     1       0.900  55.245 -26.220  1.00  0.00     0.166 HD
HETATM    6  C7  UNL     1      -0.422  54.405 -27.563  1.00  0.00     0.182 A 
HETATM    7  N2  UNL     1      -1.307  53.466 -27.897  1.00  0.00    -0.338 N 
ATOM      8  H2  UNL     1      -1.767  53.466 -28.808  1.00  0.00     0.168 HD
HETATM    9  C8  UNL     1      -1.568  52.517 -26.978  1.00  0.00     0.119 A 
HETATM   10  C15 UNL     1      -0.906  52.490 -25.731  1.00  0.00     0.037 A 
HETATM   11  C16 UNL     1      -1.093  51.507 -24.725  1.00  0.00     0.050 A 
HETATM   12  C17 UNL     1      -0.408  51.578 -23.514  1.00  0.00     0.069 A 
ENDROOT
BRANCH   9  13
HETATM   13  N3  UNL     1      -2.533  51.512 -27.264  1.00  0.00    -0.342 N 
HETATM   14  H10 UNL     1      -2.269  51.035 -28.122  1.00  0.00     0.167 HD
BRANCH  13  15
HETATM   15  C9  UNL     1      -3.196  50.637 -26.373  1.00  0.00     0.035 A 
HETATM   16  C10 UNL     1      -3.034  49.244 -26.409  1.00  0.00     0.032 A 
HETATM   17  C11 UNL     1      -3.675  48.416 -25.480  1.00  0.00     0.046 A 
HETATM   18  C12 UNL     1      -4.464  48.980 -24.484  1.00  0.00     0.138 A 
HETATM   19  F1  UNL     1      -5.069  48.171 -23.603  1.00  0.00    -0.204 F 
HETATM   20  C13 UNL     1      -4.610  50.361 -24.404  1.00  0.00     0.074 A 
HETATM   21 CL1  UNL     1      -5.570  51.073 -23.164  1.00  0.00    -0.081 Cl
HETATM   22  C14 UNL     1      -3.969  51.185 -25.334  1.00  0.00     0.056 A 
ENDBRANCH  13  15
ENDBRANCH   9  13
BRANCH  12  23
HETATM   23  N4  UNL     1      -0.573  50.651 -22.463  1.00  0.00    -0.323 N 
HETATM   24  C18 UNL     1      -1.549  50.630 -21.481  1.00  0.00     0.255 C 
HETATM   25  O3  UNL     1      -2.498  51.408 -21.384  1.00  0.00    -0.271 OA
HETATM   26  H15 UNL     1       0.163  49.953 -22.416  1.00  0.00     0.169 HD
BRANCH  24  27
HETATM   27  C19 UNL     1      -1.358  49.462 -20.495  1.00  0.00     0.311 C 
HETATM   28  C20 UNL     1      -1.208  48.132 -21.235  1.00  0.00     0.047 C 
HETATM   29  C21 UNL     1      -2.347  47.268 -20.711  1.00  0.00     0.033 C 
HETATM   30  C22 UNL     1      -2.664  47.882 -19.367  1.00  0.00     0.271 C 
HETATM   31  N5  UNL     1      -2.541  49.321 -19.613  1.00  0.00     0.097 N 
HETATM   32  H23 UNL     1      -3.353  49.634 -20.160  1.00  0.00     0.317 HD
ENDBRANCH  24  27
ENDBRANCH  12  23
BRANCH   1  33
HETATM   33  O2  UNL     1       1.147  52.609 -22.088  1.00  0.00    -0.347 OA
BRANCH  33  34
HETATM   34  C3  UNL     1       1.342  53.839 -21.394  1.00  0.00     0.201 C 
BRANCH  34  35
HETATM   35  C2  UNL     1       0.535  53.903 -20.099  1.00  0.00     0.193 C 
BRANCH  35  36
HETATM   36  O1  UNL     1       1.147  53.052 -19.125  1.00  0.00    -0.394 OA
HETATM   37  C1  UNL     1       0.194  52.185 -18.513  1.00  0.00     0.201 C 
ENDBRANCH  35  36
ENDBRANCH  34  35
ENDBRANCH  33  34
ENDBRANCH   1  33
TORSDOF 8
ENDMDL
MODEL 3
REMARK minimizedAffinity -8.52386856
REMARK  8 active torsions:
REMARK  status: ('A' for Active; 'I' for Inactive)
REMARK    1  A    between atoms: O1_2  and  C2_3 
REMARK    2  A    between atoms: C2_3  and  C3_4 
REMARK    3  A    between atoms: C3_4  and  O2_5 
REMARK    4  A    between atoms: O2_5  and  C4_6 
REMARK    5  A    between atoms: C8_14  and  N3_15 
REMARK    6  A    between atoms: N3_15  and  C9_16 
REMARK    7  A    between atoms: C17_26  and  N4_27 
REMARK       I    between atoms: N4_27  and  C18_28 
REMARK    8  A    between atoms: C18_28  and  C19_30 
ROOT
HETATM    1  C4  UNL     1      -0.598  51.539 -24.221  1.00  0.00     0.097 A 
HETATM    2  C5  UNL     1       0.321  52.570 -24.012  1.00  0.00     0.069 A 
HETATM    3  C6  UNL     1       0.588  53.067 -22.743  1.00  0.00     0.049 A 
HETATM    4  N1  UNL     1       1.472  54.059 -22.633  1.00  0.00    -0.351 N 
ATOM      5  H1  UNL     1       1.950  54.443 -23.448  1.00  0.00     0.166 HD
HETATM    6  C7  UNL     1       1.701  54.527 -21.402  1.00  0.00     0.182 A 
HETATM    7  N2  UNL     1       1.139  54.087 -20.275  1.00  0.00    -0.338 N 
ATOM      8  H2  UNL     1       1.361  54.504 -19.371  1.00  0.00     0.168 HD
HETATM    9  C8  UNL     1       0.266  53.069 -20.386  1.00  0.00     0.119 A 
HETATM   10  C15 UNL     1      -0.074  52.514 -21.639  1.00  0.00     0.037 A 
HETATM   11  C16 UNL     1      -1.011  51.469 -21.845  1.00  0.00     0.050 A 
HETATM   12  C17 UNL     1      -1.264  50.972 -23.122  1.00  0.00     0.069 A 
ENDROOT
BRANCH   9  13
HETATM   13  N3  UNL     1      -0.335  52.533 -19.212  1.00  0.00    -0.342 N 
HETATM   14  H10 UNL     1      -1.115  51.939 -19.481  1.00  0.00     0.167 HD
BRANCH  13  15
HETATM   15  C9  UNL     1       0.286  52.061 -18.032  1.00  0.00     0.035 A 
HETATM   16  C10 UNL     1      -0.228  51.001 -17.270  1.00  0.00     0.032 A 
HETATM   17  C11 UNL     1       0.441  50.537 -16.132  1.00  0.00     0.046 A 
HETATM   18  C12 UNL     1       1.651  51.112 -15.762  1.00  0.00     0.138 A 
HETATM   19  F1  UNL     1       2.277  50.653 -14.669  1.00  0.00    -0.204 F 
HETATM   20  C13 UNL     1       2.200  52.139 -16.523  1.00  0.00     0.074 A 
HETATM   21 CL1  UNL     1       3.708  52.848 -16.084  1.00  0.00    -0.081 Cl
HETATM   22  C14 UNL     1       1.529  52.602 -17.659  1.00  0.00     0.056 A 
ENDBRANCH  13  15
ENDBRANCH   9  13
BRANCH  12  23
HETATM   23  N4  UNL     1      -2.159  49.914 -23.390  1.00  0.00    -0.323 N 
HETATM   24  C18 UNL     1      -3.542  49.926 -23.344  1.00  0.00     0.255 C 
HETATM   25  O3  UNL     1      -4.252  50.903 -23.108  1.00  0.00    -0.271 OA
HETATM   26  H15 UNL     1      -1.698  49.031 -23.586  1.00  0.00     0.169 HD
BRANCH  24  27
HETATM   27  C19 UNL     1      -4.148  48.549 -23.677  1.00  0.00     0.311 C 
HETATM   28  C20 UNL     1      -4.435  48.417 -25.173  1.00  0.00     0.047 C 
HETATM   29  C21 UNL     1      -5.931  48.146 -25.257  1.00  0.00     0.033 C 
HETATM   30  C22 UNL     1      -6.259  47.565 -23.901  1.00  0.00     0.271 C 
HETATM   31  N5  UNL     1      -5.445  48.365 -22.982  1.00  0.00     0.097 N 
HETATM   32  H23 UNL     1      -5.865  49.299 -22.895  1.00  0.00     0.317 HD
ENDBRANCH  24  27
ENDBRANCH  12  23
BRANCH   1  33
HETATM   33  O2  UNL     1      -0.920  50.999 -25.444  1.00  0.00    -0.347 OA
BRANCH  33  34
HETATM   34  C3  UNL     1       0.130  50.665 -26.349  1.00  0.00     0.201 C 
BRANCH  34  35
HETATM   35  C2  UNL     1       0.192  51.622 -27.537  1.00  0.00     0.193 C 
BRANCH  35  36
HETATM   36  O1  UNL     1       1.555  51.775 -27.943  1.00  0.00    -0.394 OA
HETATM   37  C1  UNL     1       2.452  51.574 -26.852  1.00  0.00     0.201 C 
ENDBRANCH  35  36
ENDBRANCH  34  35
ENDBRANCH  33  34
ENDBRANCH   1  33
TORSDOF 8
ENDMDL
MODEL 4
REMARK minimizedAffinity -8.50654125
REMARK  8 active torsions:
REMARK  status: ('A' for Active; 'I' for Inactive)
REMARK    1  A    between atoms: O1_2  and  C2_3 
REMARK    2  A    between atoms: C2_3  and  C3_4 
REMARK    3  A    between atoms: C3_4  and  O2_5 
REMARK    4  A    between atoms: O2_5  and  C4_6 
REMARK    5  A    between atoms: C8_14  and  N3_15 
REMARK    6  A    between atoms: N3_15  and  C9_16 
REMARK    7  A    between atoms: C17_26  and  N4_27 
REMARK       I    between atoms: N4_27  and  C18_28 
REMARK    8  A    between atoms: C18_28  and  C19_30 
ROOT
HETATM    1  C4  UNL     1      -2.702  50.370 -26.275  1.00  0.00     0.097 A 
HETATM    2  C5  UNL     1      -1.467  50.364 -26.929  1.00  0.00     0.069 A 
HETATM    3  C6  UNL     1      -0.410  51.159 -26.505  1.00  0.00     0.049 A 
HETATM    4  N1  UNL     1       0.731  51.101 -27.192  1.00  0.00    -0.351 N 
ATOM      5  H1  UNL     1       0.838  50.488 -28.001  1.00  0.00     0.166 HD
HETATM    6  C7  UNL     1       1.728  51.885 -26.770  1.00  0.00     0.182 A 
HETATM    7  N2  UNL     1       1.692  52.709 -25.722  1.00  0.00    -0.338 N 
ATOM      8  H2  UNL     1       2.495  53.284 -25.468  1.00  0.00     0.168 HD
HETATM    9  C8  UNL     1       0.547  52.748 -25.015  1.00  0.00     0.119 A 
HETATM   10  C15 UNL     1      -0.580  51.984 -25.385  1.00  0.00     0.037 A 
HETATM   11  C16 UNL     1      -1.833  51.996 -24.719  1.00  0.00     0.050 A 
HETATM   12  C17 UNL     1      -2.883  51.188 -25.147  1.00  0.00     0.069 A 
ENDROOT
BRANCH   9  13
HETATM   13  N3  UNL     1       0.465  53.581 -23.864  1.00  0.00    -0.342 N 
HETATM   14  H10 UNL     1      -0.299  54.240 -23.986  1.00  0.00     0.167 HD
BRANCH  13  15
HETATM   15  C9  UNL     1       0.630  53.233 -22.503  1.00  0.00     0.035 A 
HETATM   16  C10 UNL     1       1.139  54.121 -21.544  1.00  0.00     0.032 A 
HETATM   17  C11 UNL     1       1.246  53.751 -20.198  1.00  0.00     0.046 A 
HETATM   18  C12 UNL     1       0.815  52.493 -19.794  1.00  0.00     0.138 A 
HETATM   19  F1  UNL     1       0.924  52.156 -18.501  1.00  0.00    -0.204 F 
HETATM   20  C13 UNL     1       0.271  51.608 -20.720  1.00  0.00     0.074 A 
HETATM   21 CL1  UNL     1      -0.283  50.052 -20.227  1.00  0.00    -0.081 Cl
HETATM   22  C14 UNL     1       0.166  51.980 -22.063  1.00  0.00     0.056 A 
ENDBRANCH  13  15
ENDBRANCH   9  13
BRANCH  12  23
HETATM   23  N4  UNL     1      -4.141  51.130 -24.509  1.00  0.00    -0.323 N 
HETATM   24  C18 UNL     1      -4.461  50.561 -23.289  1.00  0.00     0.255 C 
HETATM   25  O3  UNL     1      -3.671  50.039 -22.502  1.00  0.00    -0.271 OA
HETATM   26  H15 UNL     1      -4.897  51.518 -25.065  1.00  0.00     0.169 HD
BRANCH  24  27
HETATM   27  C19 UNL     1      -5.962  50.684 -22.963  1.00  0.00     0.311 C 
HETATM   28  C20 UNL     1      -6.295  50.019 -21.627  1.00  0.00     0.047 C 
HETATM   29  C21 UNL     1      -7.329  48.956 -21.972  1.00  0.00     0.033 C 
HETATM   30  C22 UNL     1      -7.932  49.459 -23.264  1.00  0.00     0.271 C 
HETATM   31  N5  UNL     1      -6.780  49.997 -23.991  1.00  0.00     0.097 N 
HETATM   32  H23 UNL     1      -6.213  49.213 -24.339  1.00  0.00     0.317 HD
ENDBRANCH  24  27
ENDBRANCH  12  23
BRANCH   1  33
HETATM   33  O2  UNL     1      -3.795  49.619 -26.637  1.00  0.00    -0.347 OA
BRANCH  33  34
HETATM   34  C3  UNL     1      -3.594  48.433 -27.404  1.00  0.00     0.201 C 
BRANCH  34  35
HETATM   35  C2  UNL     1      -4.776  48.137 -28.324  1.00  0.00     0.193 C 
BRANCH  35  36
HETATM   36  O1  UNL     1      -4.606  48.857 -29.548  1.00  0.00    -0.394 OA
HETATM   37  C1  UNL     1      -5.479  48.373 -30.567  1.00  0.00     0.201 C 
ENDBRANCH  35  36
ENDBRANCH  34  35
ENDBRANCH  33  34
ENDBRANCH   1  33
TORSDOF 8
ENDMDL
MODEL 5
REMARK minimizedAffinity -8.48775482
REMARK  8 active torsions:
REMARK  status: ('A' for Active; 'I' for Inactive)
REMARK    1  A    between atoms: O1_2  and  C2_3 
REMARK    2  A    between atoms: C2_3  and  C3_4 
REMARK    3  A    between atoms: C3_4  and  O2_5 
REMARK    4  A    between atoms: O2_5  and  C4_6 
REMARK    5  A    between atoms: C8_14  and  N3_15 
REMARK    6  A    between atoms: N3_15  and  C9_16 
REMARK    7  A    between atoms: C17_26  and  N4_27 
REMARK       I    between atoms: N4_27  and  C18_28 
REMARK    8  A    between atoms: C18_28  and  C19_30 
ROOT
HETATM    1  C4  UNL     1      -0.445  51.976 -24.206  1.00  0.00     0.097 A 
HETATM    2  C5  UNL     1       0.416  52.964 -23.723  1.00  0.00     0.069 A 
HETATM    3  C6  UNL     1       0.624  53.153 -22.363  1.00  0.00     0.049 A 
HETATM    4  N1  UNL     1       1.455  54.126 -21.986  1.00  0.00    -0.351 N 
ATOM      5  H1  UNL     1       1.935  54.714 -22.668  1.00  0.00     0.166 HD
HETATM    6  C7  UNL     1       1.627  54.294 -20.671  1.00  0.00     0.182 A 
HETATM    7  N2  UNL     1       1.056  53.576 -19.704  1.00  0.00    -0.338 N 
ATOM      8  H2  UNL     1       1.232  53.772 -18.719  1.00  0.00     0.168 HD
HETATM    9  C8  UNL     1       0.237  52.578 -20.087  1.00  0.00     0.119 A 
HETATM   10  C15 UNL     1      -0.040  52.326 -21.448  1.00  0.00     0.037 A 
HETATM   11  C16 UNL     1      -0.919  51.323 -21.933  1.00  0.00     0.050 A 
HETATM   12  C17 UNL     1      -1.112  51.136 -23.299  1.00  0.00     0.069 A 
ENDROOT
BRANCH   9  13
HETATM   13  N3  UNL     1      -0.369  51.753 -19.098  1.00  0.00    -0.342 N 
HETATM   14  H10 UNL     1      -0.896  51.017 -19.560  1.00  0.00     0.167 HD
BRANCH  13  15
HETATM   15  C9  UNL     1       0.163  51.308 -17.865  1.00  0.00     0.035 A 
HETATM   16  C10 UNL     1       1.032  52.084 -17.084  1.00  0.00     0.032 A 
HETATM   17  C11 UNL     1       1.502  51.623 -15.849  1.00  0.00     0.046 A 
HETATM   18  C12 UNL     1       1.080  50.389 -15.369  1.00  0.00     0.138 A 
HETATM   19  F1  UNL     1       1.540  49.965 -14.183  1.00  0.00    -0.204 F 
HETATM   20  C13 UNL     1       0.188  49.618 -16.107  1.00  0.00     0.074 A 
HETATM   21 CL1  UNL     1      -0.356  48.094 -15.514  1.00  0.00    -0.081 Cl
HETATM   22  C14 UNL     1      -0.278  50.080 -17.341  1.00  0.00     0.056 A 
ENDBRANCH  13  15
ENDBRANCH   9  13
BRANCH  12  23
HETATM   23  N4  UNL     1      -1.946  50.137 -23.845  1.00  0.00    -0.323 N 
HETATM   24  C18 UNL     1      -3.329  50.098 -23.884  1.00  0.00     0.255 C 
HETATM   25  O3  UNL     1      -4.091  50.979 -23.486  1.00  0.00    -0.271 OA
HETATM   26  H15 UNL     1      -1.439  49.332 -24.200  1.00  0.00     0.169 HD
BRANCH  24  27
HETATM   27  C19 UNL     1      -3.858  48.810 -24.544  1.00  0.00     0.311 C 
HETATM   28  C20 UNL     1      -3.059  48.463 -25.800  1.00  0.00     0.047 C 
HETATM   29  C21 UNL     1      -4.089  48.445 -26.922  1.00  0.00     0.033 C 
HETATM   30  C22 UNL     1      -5.390  48.184 -26.197  1.00  0.00     0.271 C 
HETATM   31  N5  UNL     1      -5.266  48.982 -24.975  1.00  0.00     0.097 N 
HETATM   32  H23 UNL     1      -5.379  49.975 -25.216  1.00  0.00     0.317 HD
ENDBRANCH  24  27
ENDBRANCH  12  23
BRANCH   1  33
HETATM   33  O2  UNL     1      -0.707  51.732 -25.534  1.00  0.00    -0.347 OA
BRANCH  33  34
HETATM   34  C3  UNL     1       0.307  51.131 -26.338  1.00  0.00     0.201 C 
BRANCH  34  35
HETATM   35  C2  UNL     1       1.036  52.155 -27.205  1.00  0.00     0.193 C 
BRANCH  35  36
HETATM   36  O1  UNL     1       0.180  52.548 -28.282  1.00  0.00    -0.394 OA
HETATM   37  C1  UNL     1      -0.418  53.820 -28.040  1.00  0.00     0.201 C 
ENDBRANCH  35  36
ENDBRANCH  34  35
ENDBRANCH  33  34
ENDBRANCH   1  33
TORSDOF 8
ENDMDL
MODEL 6
REMARK minimizedAffinity -8.37786865
REMARK  8 active torsions:
REMARK  status: ('A' for Active; 'I' for Inactive)
REMARK    1  A    between atoms: O1_2  and  C2_3 
REMARK    2  A    between atoms: C2_3  and  C3_4 
REMARK    3  A    between atoms: C3_4  and  O2_5 
REMARK    4  A    between atoms: O2_5  and  C4_6 
REMARK    5  A    between atoms: C8_14  and  N3_15 
REMARK    6  A    between atoms: N3_15  and  C9_16 
REMARK    7  A    between atoms: C17_26  and  N4_27 
REMARK       I    between atoms: N4_27  and  C18_28 
REMARK    8  A    between atoms: C18_28  and  C19_30 
ROOT
HETATM    1  C4  UNL     1      -3.227  50.939 -25.242  1.00  0.00     0.097 A 
HETATM    2  C5  UNL     1      -4.267  50.423 -24.464  1.00  0.00     0.069 A 
HETATM    3  C6  UNL     1      -4.041  49.893 -23.200  1.00  0.00     0.049 A 
HETATM    4  N1  UNL     1      -5.088  49.411 -22.528  1.00  0.00    -0.351 N 
ATOM      5  H1  UNL     1      -6.030  49.434 -22.917  1.00  0.00     0.166 HD
HETATM    6  C7  UNL     1      -4.841  48.896 -21.320  1.00  0.00     0.182 A 
HETATM    7  N2  UNL     1      -3.652  48.828 -20.720  1.00  0.00    -0.338 N 
ATOM      8  H2  UNL     1      -3.543  48.410 -19.797  1.00  0.00     0.168 HD
HETATM    9  C8  UNL     1      -2.601  49.337 -21.390  1.00  0.00     0.119 A 
HETATM   10  C15 UNL     1      -2.739  49.882 -22.685  1.00  0.00     0.037 A 
HETATM   11  C16 UNL     1      -1.679  50.402 -23.473  1.00  0.00     0.050 A 
HETATM   12  C17 UNL     1      -1.918  50.940 -24.735  1.00  0.00     0.069 A 
ENDROOT
BRANCH   9  13
HETATM   13  N3  UNL     1      -1.314  49.328 -20.783  1.00  0.00    -0.342 N 
HETATM   14  H10 UNL     1      -0.626  49.032 -21.470  1.00  0.00     0.167 HD
BRANCH  13  15
HETATM   15  C9  UNL     1      -0.759  50.248 -19.863  1.00  0.00     0.035 A 
HETATM   16  C10 UNL     1      -0.575  49.953 -18.504  1.00  0.00     0.032 A 
HETATM   17  C11 UNL     1       0.018  50.878 -17.637  1.00  0.00     0.046 A 
HETATM   18  C12 UNL     1       0.460  52.099 -18.130  1.00  0.00     0.138 A 
HETATM   19  F1  UNL     1       1.026  52.972 -17.283  1.00  0.00    -0.204 F 
HETATM   20  C13 UNL     1       0.323  52.400 -19.481  1.00  0.00     0.074 A 
HETATM   21 CL1  UNL     1       0.884  53.904 -20.108  1.00  0.00    -0.081 Cl
HETATM   22  C14 UNL     1      -0.270  51.475 -20.345  1.00  0.00     0.056 A 
ENDBRANCH  13  15
ENDBRANCH   9  13
BRANCH  12  23
HETATM   23  N4  UNL     1      -0.914  51.501 -25.553  1.00  0.00    -0.323 N 
HETATM   24  C18 UNL     1      -0.445  52.804 -25.566  1.00  0.00     0.255 C 
HETATM   25  O3  UNL     1      -0.794  53.709 -24.810  1.00  0.00    -0.271 OA
HETATM   26  H15 UNL     1      -0.545  50.856 -26.244  1.00  0.00     0.169 HD
BRANCH  24  27
HETATM   27  C19 UNL     1       0.642  53.020 -26.637  1.00  0.00     0.311 C 
HETATM   28  C20 UNL     1       0.178  52.522 -28.006  1.00  0.00     0.047 C 
HETATM   29  C21 UNL     1       1.202  51.467 -28.402  1.00  0.00     0.033 C 
HETATM   30  C22 UNL     1       2.423  51.845 -27.596  1.00  0.00     0.271 C 
HETATM   31  N5  UNL     1       1.867  52.254 -26.304  1.00  0.00     0.097 N 
HETATM   32  H23 UNL     1       1.557  51.414 -25.797  1.00  0.00     0.317 HD
ENDBRANCH  24  27
ENDBRANCH  12  23
BRANCH   1  33
HETATM   33  O2  UNL     1      -3.370  51.474 -26.501  1.00  0.00    -0.347 OA
BRANCH  33  34
HETATM   34  C3  UNL     1      -3.056  50.666 -27.634  1.00  0.00     0.201 C 
BRANCH  34  35
HETATM   35  C2  UNL     1      -3.745  49.305 -27.579  1.00  0.00     0.193 C 
BRANCH  35  36
HETATM   36  O1  UNL     1      -4.188  48.953 -28.893  1.00  0.00    -0.394 OA
HETATM   37  C1  UNL     1      -5.323  48.090 -28.850  1.00  0.00     0.201 C 
ENDBRANCH  35  36
ENDBRANCH  34  35
ENDBRANCH  33  34
ENDBRANCH   1  33
TORSDOF 8
ENDMDL
MODEL 7
REMARK minimizedAffinity -8.37562561
REMARK  8 active torsions:
REMARK  status: ('A' for Active; 'I' for Inactive)
REMARK    1  A    between atoms: O1_2  and  C2_3 
REMARK    2  A    between atoms: C2_3  and  C3_4 
REMARK    3  A    between atoms: C3_4  and  O2_5 
REMARK    4  A    between atoms: O2_5  and  C4_6 
REMARK    5  A    between atoms: C8_14  and  N3_15 
REMARK    6  A    between atoms: N3_15  and  C9_16 
REMARK    7  A    between atoms: C17_26  and  N4_27 
REMARK       I    between atoms: N4_27  and  C18_28 
REMARK    8  A    between atoms: C18_28  and  C19_30 
ROOT
HETATM    1  C4  UNL     1      -3.800  49.508 -24.133  1.00  0.00     0.097 A 
HETATM    2  C5  UNL     1      -4.309  48.973 -22.946  1.00  0.00     0.069 A 
HETATM    3  C6  UNL     1      -3.570  48.965 -21.771  1.00  0.00     0.049 A 
HETATM    4  N1  UNL     1      -4.127  48.426 -20.685  1.00  0.00    -0.351 N 
ATOM      5  H1  UNL     1      -5.070  48.037 -20.705  1.00  0.00     0.166 HD
HETATM    6  C7  UNL     1      -3.389  48.421 -19.570  1.00  0.00     0.182 A 
HETATM    7  N2  UNL     1      -2.157  48.912 -19.439  1.00  0.00    -0.338 N 
ATOM      8  H2  UNL     1      -1.654  48.862 -18.553  1.00  0.00     0.168 HD
HETATM    9  C8  UNL     1      -1.606  49.478 -20.529  1.00  0.00     0.119 A 
HETATM   10  C15 UNL     1      -2.282  49.516 -21.768  1.00  0.00     0.037 A 
HETATM   11  C16 UNL     1      -1.758  50.057 -22.971  1.00  0.00     0.050 A 
HETATM   12  C17 UNL     1      -2.512  50.068 -24.142  1.00  0.00     0.069 A 
ENDROOT
BRANCH   9  13
HETATM   13  N3  UNL     1      -0.308  50.054 -20.437  1.00  0.00    -0.342 N 
HETATM   14  H10 UNL     1       0.380  49.371 -20.745  1.00  0.00     0.167 HD
BRANCH  13  15
HETATM   15  C9  UNL     1       0.104  51.371 -20.747  1.00  0.00     0.035 A 
HETATM   16  C10 UNL     1       0.441  52.316 -19.766  1.00  0.00     0.032 A 
HETATM   17  C11 UNL     1       0.885  53.596 -20.116  1.00  0.00     0.046 A 
HETATM   18  C12 UNL     1       1.022  53.934 -21.457  1.00  0.00     0.138 A 
HETATM   19  F1  UNL     1       1.450  55.165 -21.773  1.00  0.00    -0.204 F 
HETATM   20  C13 UNL     1       0.730  53.002 -22.448  1.00  0.00     0.074 A 
HETATM   21 CL1  UNL     1       0.915  53.404 -24.114  1.00  0.00    -0.081 Cl
HETATM   22  C14 UNL     1       0.287  51.724 -22.095  1.00  0.00     0.056 A 
ENDBRANCH  13  15
ENDBRANCH   9  13
BRANCH  12  23
HETATM   23  N4  UNL     1      -2.062  50.620 -25.361  1.00  0.00    -0.323 N 
HETATM   24  C18 UNL     1      -2.040  51.949 -25.747  1.00  0.00     0.255 C 
HETATM   25  O3  UNL     1      -2.369  52.911 -25.054  1.00  0.00    -0.271 OA
HETATM   26  H15 UNL     1      -1.772  49.923 -26.040  1.00  0.00     0.169 HD
BRANCH  24  27
HETATM   27  C19 UNL     1      -1.498  52.131 -27.178  1.00  0.00     0.311 C 
HETATM   28  C20 UNL     1      -0.243  51.287 -27.406  1.00  0.00     0.047 C 
HETATM   29  C21 UNL     1       0.836  52.293 -27.783  1.00  0.00     0.033 C 
HETATM   30  C22 UNL     1       0.049  53.469 -28.314  1.00  0.00     0.271 C 
HETATM   31  N5  UNL     1      -1.105  53.541 -27.415  1.00  0.00     0.097 N 
HETATM   32  H23 UNL     1      -0.795  53.914 -26.508  1.00  0.00     0.317 HD
ENDBRANCH  24  27
ENDBRANCH  12  23
BRANCH   1  33
HETATM   33  O2  UNL     1      -4.466  49.547 -25.335  1.00  0.00    -0.347 OA
BRANCH  33  34
HETATM   34  C3  UNL     1      -4.551  48.357 -26.116  1.00  0.00     0.201 C 
BRANCH  34  35
HETATM   35  C2  UNL     1      -3.606  48.386 -27.315  1.00  0.00     0.193 C 
BRANCH  35  36
HETATM   36  O1  UNL     1      -4.373  48.564 -28.509  1.00  0.00    -0.394 OA
HETATM   37  C1  UNL     1      -5.600  47.839 -28.458  1.00  0.00     0.201 C 
ENDBRANCH  35  36
ENDBRANCH  34  35
ENDBRANCH  33  34
ENDBRANCH   1  33
TORSDOF 8
ENDMDL
MODEL 8
REMARK minimizedAffinity -8.10715866
REMARK  8 active torsions:
REMARK  status: ('A' for Active; 'I' for Inactive)
REMARK    1  A    between atoms: O1_2  and  C2_3 
REMARK    2  A    between atoms: C2_3  and  C3_4 
REMARK    3  A    between atoms: C3_4  and  O2_5 
REMARK    4  A    between atoms: O2_5  and  C4_6 
REMARK    5  A    between atoms: C8_14  and  N3_15 
REMARK    6  A    between atoms: N3_15  and  C9_16 
REMARK    7  A    between atoms: C17_26  and  N4_27 
REMARK       I    between atoms: N4_27  and  C18_28 
REMARK    8  A    between atoms: C18_28  and  C19_30 
ROOT
HETATM    1  C4  UNL     1      -0.163  51.796 -24.178  1.00  0.00     0.097 A 
HETATM    2  C5  UNL     1       0.623  52.753 -23.530  1.00  0.00     0.069 A 
HETATM    3  C6  UNL     1       0.567  52.936 -22.154  1.00  0.00     0.049 A 
HETATM    4  N1  UNL     1       1.342  53.878 -21.616  1.00  0.00    -0.351 N 
ATOM      5  H1  UNL     1       1.968  54.447 -22.188  1.00  0.00     0.166 HD
HETATM    6  C7  UNL     1       1.260  54.042 -20.292  1.00  0.00     0.182 A 
HETATM    7  N2  UNL     1       0.485  53.346 -19.460  1.00  0.00    -0.338 N 
ATOM      8  H2  UNL     1       0.472  53.537 -18.458  1.00  0.00     0.168 HD
HETATM    9  C8  UNL     1      -0.279  52.378 -20.001  1.00  0.00     0.119 A 
HETATM   10  C15 UNL     1      -0.293  52.135 -21.392  1.00  0.00     0.037 A 
HETATM   11  C16 UNL     1      -1.096  51.164 -22.045  1.00  0.00     0.050 A 
HETATM   12  C17 UNL     1      -1.024  50.982 -23.424  1.00  0.00     0.069 A 
ENDROOT
BRANCH   9  13
HETATM   13  N3  UNL     1      -1.096  51.578 -19.155  1.00  0.00    -0.342 N 
HETATM   14  H10 UNL     1      -1.216  52.053 -18.265  1.00  0.00     0.167 HD
BRANCH  13  15
HETATM   15  C9  UNL     1      -2.239  50.814 -19.488  1.00  0.00     0.035 A 
HETATM   16  C10 UNL     1      -3.465  51.393 -19.851  1.00  0.00     0.032 A 
HETATM   17  C11 UNL     1      -4.560  50.601 -20.215  1.00  0.00     0.046 A 
HETATM   18  C12 UNL     1      -4.428  49.218 -20.247  1.00  0.00     0.138 A 
HETATM   19  F1  UNL     1      -5.488  48.476 -20.599  1.00  0.00    -0.204 F 
HETATM   20  C13 UNL     1      -3.212  48.622 -19.929  1.00  0.00     0.074 A 
HETATM   21 CL1  UNL     1      -3.032  46.909 -19.983  1.00  0.00    -0.081 Cl
HETATM   22  C14 UNL     1      -2.120  49.416 -19.565  1.00  0.00     0.056 A 
ENDBRANCH  13  15
ENDBRANCH   9  13
BRANCH  12  23
HETATM   23  N4  UNL     1      -1.770  50.014 -24.129  1.00  0.00    -0.323 N 
HETATM   24  C18 UNL     1      -3.146  49.906 -24.245  1.00  0.00     0.255 C 
HETATM   25  O3  UNL     1      -3.976  50.689 -23.785  1.00  0.00    -0.271 OA
HETATM   26  H15 UNL     1      -1.200  49.287 -24.549  1.00  0.00     0.169 HD
BRANCH  24  27
HETATM   27  C19 UNL     1      -3.566  48.682 -25.081  1.00  0.00     0.311 C 
HETATM   28  C20 UNL     1      -2.713  48.555 -26.344  1.00  0.00     0.047 C 
HETATM   29  C21 UNL     1      -3.712  48.613 -27.492  1.00  0.00     0.033 C 
HETATM   30  C22 UNL     1      -5.008  48.173 -26.850  1.00  0.00     0.271 C 
HETATM   31  N5  UNL     1      -4.971  48.812 -25.533  1.00  0.00     0.097 N 
HETATM   32  H23 UNL     1      -5.149  49.818 -25.649  1.00  0.00     0.317 HD
ENDBRANCH  24  27
ENDBRANCH  12  23
BRANCH   1  33
HETATM   33  O2  UNL     1      -0.168  51.560 -25.533  1.00  0.00    -0.347 OA
BRANCH  33  34
HETATM   34  C3  UNL     1       0.367  52.551 -26.408  1.00  0.00     0.201 C 
BRANCH  34  35
HETATM   35  C2  UNL     1      -0.531  52.793 -27.619  1.00  0.00     0.193 C 
BRANCH  35  36
HETATM   36  O1  UNL     1      -1.822  53.212 -27.167  1.00  0.00    -0.394 OA
HETATM   37  C1  UNL     1      -2.764  52.143 -27.207  1.00  0.00     0.201 C 
ENDBRANCH  35  36
ENDBRANCH  34  35
ENDBRANCH  33  34
ENDBRANCH   1  33
TORSDOF 8
ENDMDL
MODEL 9
REMARK minimizedAffinity -8.09592342
REMARK  8 active torsions:
REMARK  status: ('A' for Active; 'I' for Inactive)
REMARK    1  A    between atoms: O1_2  and  C2_3 
REMARK    2  A    between atoms: C2_3  and  C3_4 
REMARK    3  A    between atoms: C3_4  and  O2_5 
REMARK    4  A    between atoms: O2_5  and  C4_6 
REMARK    5  A    between atoms: C8_14  and  N3_15 
REMARK    6  A    between atoms: N3_15  and  C9_16 
REMARK    7  A    between atoms: C17_26  and  N4_27 
REMARK       I    between atoms: N4_27  and  C18_28 
REMARK    8  A    between atoms: C18_28  and  C19_30 
ROOT
HETATM    1  C4  UNL     1      -3.078  51.291 -23.901  1.00  0.00     0.097 A 
HETATM    2  C5  UNL     1      -3.940  50.935 -22.860  1.00  0.00     0.069 A 
HETATM    3  C6  UNL     1      -3.537  50.973 -21.531  1.00  0.00     0.049 A 
HETATM    4  N1  UNL     1      -4.419  50.608 -20.599  1.00  0.00    -0.351 N 
ATOM      5  H1  UNL     1      -5.366  50.317 -20.844  1.00  0.00     0.166 HD
HETATM    6  C7  UNL     1      -4.002  50.642 -19.330  1.00  0.00     0.182 A 
HETATM    7  N2  UNL     1      -2.793  51.016 -18.908  1.00  0.00    -0.338 N 
ATOM      8  H2  UNL     1      -2.547  51.006 -17.919  1.00  0.00     0.168 HD
HETATM    9  C8  UNL     1      -1.912  51.408 -19.848  1.00  0.00     0.119 A 
HETATM   10  C15 UNL     1      -2.235  51.387 -21.222  1.00  0.00     0.037 A 
HETATM   11  C16 UNL     1      -1.354  51.745 -22.276  1.00  0.00     0.050 A 
HETATM   12  C17 UNL     1      -1.772  51.713 -23.604  1.00  0.00     0.069 A 
ENDROOT
BRANCH   9  13
HETATM   13  N3  UNL     1      -0.621  51.855 -19.452  1.00  0.00    -0.342 N 
HETATM   14  H10 UNL     1      -0.500  52.820 -19.747  1.00  0.00     0.167 HD
BRANCH  13  15
HETATM   15  C9  UNL     1       0.080  51.593 -18.252  1.00  0.00     0.035 A 
HETATM   16  C10 UNL     1      -0.215  50.505 -17.417  1.00  0.00     0.032 A 
HETATM   17  C11 UNL     1       0.532  50.258 -16.259  1.00  0.00     0.046 A 
HETATM   18  C12 UNL     1       1.604  51.083 -15.942  1.00  0.00     0.138 A 
HETATM   19  F1  UNL     1       2.308  50.830 -14.830  1.00  0.00    -0.204 F 
HETATM   20  C13 UNL     1       1.941  52.146 -16.775  1.00  0.00     0.074 A 
HETATM   21 CL1  UNL     1       3.279  53.165 -16.402  1.00  0.00    -0.081 Cl
HETATM   22  C14 UNL     1       1.192  52.391 -17.930  1.00  0.00     0.056 A 
ENDBRANCH  13  15
ENDBRANCH   9  13
BRANCH  12  23
HETATM   23  N4  UNL     1      -0.957  52.088 -24.694  1.00  0.00    -0.323 N 
HETATM   24  C18 UNL     1       0.172  52.889 -24.686  1.00  0.00     0.255 C 
HETATM   25  O3  UNL     1       0.705  53.383 -23.693  1.00  0.00    -0.271 OA
HETATM   26  H15 UNL     1      -1.297  51.755 -25.590  1.00  0.00     0.169 HD
BRANCH  24  27
HETATM   27  C19 UNL     1       0.759  53.081 -26.098  1.00  0.00     0.311 C 
HETATM   28  C20 UNL     1      -0.212  52.592 -27.173  1.00  0.00     0.047 C 
HETATM   29  C21 UNL     1       0.557  51.515 -27.927  1.00  0.00     0.033 C 
HETATM   30  C22 UNL     1       2.003  51.869 -27.664  1.00  0.00     0.271 C 
HETATM   31  N5  UNL     1       2.002  52.290 -26.262  1.00  0.00     0.097 N 
HETATM   32  H23 UNL     1       1.899  51.458 -25.666  1.00  0.00     0.317 HD
ENDBRANCH  24  27
ENDBRANCH  12  23
BRANCH   1  33
HETATM   33  O2  UNL     1      -3.400  51.274 -25.238  1.00  0.00    -0.347 OA
BRANCH  33  34
HETATM   34  C3  UNL     1      -3.636  50.020 -25.875  1.00  0.00     0.201 C 
BRANCH  34  35
HETATM   35  C2  UNL     1      -3.178  50.021 -27.332  1.00  0.00     0.193 C 
BRANCH  35  36
HETATM   36  O1  UNL     1      -3.290  48.694 -27.857  1.00  0.00    -0.394 OA
HETATM   37  C1  UNL     1      -4.652  48.325 -28.063  1.00  0.00     0.201 C 
ENDBRANCH  35  36
ENDBRANCH  34  35
ENDBRANCH  33  34
ENDBRANCH   1  33
TORSDOF 8
ENDMDL
