MODEL 1
REMARK minimizedAffinity -9.63401031
REMARK  7 active torsions:
REMARK  status: ('A' for Active; 'I' for Inactive)
REMARK    1  A    between atoms: N1_2  and  S1_3 
REMARK    2  A    between atoms: S1_3  and  C2_6 
REMARK    3  A    between atoms: C9_13  and  C10_14 
REMARK    4  A    between atoms: C13_18  and  C14_19 
REMARK    5  A    between atoms: C14_19  and  C15_20 
REMARK    6  A    between atoms: C15_20  and  C16_21 
REMARK    7  A    between atoms: C16_21  and  N3_22 
ROOT
HETATM    1  C10 UNL     1      -0.888   5.723  12.106  1.00  0.00     0.040 A 
HETATM    2  N2  UNL     1      -0.315   5.658  10.855  1.00  0.00    -0.359 N 
HETATM    3  C11 UNL     1       0.965   6.126  10.917  1.00  0.00     0.016 A 
HETATM    4  C12 UNL     1       1.228   6.507  12.216  1.00  0.00    -0.027 A 
HETATM    5  C13 UNL     1       0.056   6.242  12.985  1.00  0.00    -0.023 A 
HETATM    6  C22 UNL     1       2.551   7.059  12.633  1.00  0.00     0.041 C 
HETATM    7  C23 UNL     1       3.373   7.514  11.411  1.00  0.00     0.005 C 
HETATM    8  C24 UNL     1       3.327   6.486  10.266  1.00  0.00     0.006 C 
HETATM    9  C25 UNL     1       1.892   6.242   9.760  1.00  0.00     0.057 C 
HETATM   10  H9  UNL     1      -0.777   5.334  10.017  1.00  0.00     0.166 HD
ENDROOT
BRANCH   1  11
HETATM   11  C9  UNL     1      -2.209   5.240  12.237  1.00  0.00     0.048 C 
HETATM   12  C8  UNL     1      -2.603   4.010  11.875  1.00  0.00     0.047 A 
HETATM   13  C6  UNL     1      -3.983   3.516  11.992  1.00  0.00     0.008 A 
HETATM   14  C26 UNL     1      -1.781   2.873  11.308  1.00  0.00     0.257 A 
HETATM   15  C5  UNL     1      -3.969   2.198  11.523  1.00  0.00     0.046 A 
HETATM   16  C7  UNL     1      -5.160   4.086  12.445  1.00  0.00     0.040 A 
HETATM   17  C4  UNL     1      -5.100   1.404  11.485  1.00  0.00     0.032 A 
HETATM   18  N5  UNL     1      -2.689   1.837  11.125  1.00  0.00    -0.322 N 
HETATM   19  C3  UNL     1      -6.295   1.966  11.940  1.00  0.00     0.027 A 
HETATM   20  C2  UNL     1      -6.319   3.297  12.407  1.00  0.00     0.080 A 
HETATM   21  H35 UNL     1      -2.408   0.939  10.762  1.00  0.00     0.169 HD
HETATM   22  O3  UNL     1      -0.595   2.821  11.057  1.00  0.00    -0.267 OA
BRANCH  20  23
HETATM   23  S1  UNL     1      -7.840   3.990  13.009  1.00  0.00     0.258 S 
HETATM   24  O1  UNL     1      -7.899   5.386  12.640  1.00  0.00    -0.201 OA
HETATM   25  O2  UNL     1      -8.897   3.063  12.672  1.00  0.00    -0.201 OA
BRANCH  23  26
HETATM   26  N1  UNL     1      -7.634   3.892  14.672  1.00  0.00    -0.320 N 
HETATM   27  C1  UNL     1      -7.502   5.128  15.430  1.00  0.00     0.159 C 
HETATM   28  H4  UNL     1      -8.162   3.124  15.087  1.00  0.00     0.171 HD
ENDBRANCH  23  26
ENDBRANCH  20  23
ENDBRANCH   1  11
BRANCH   5  29
HETATM   29  C14 UNL     1      -0.103   6.476  14.458  1.00  0.00     0.043 C 
BRANCH  29  30
HETATM   30  C15 UNL     1      -0.224   7.963  14.795  1.00  0.00     0.035 C 
BRANCH  30  31
HETATM   31  C16 UNL     1      -1.287   8.714  13.978  1.00  0.00     0.273 C 
BRANCH  31  32
HETATM   32  N3  UNL     1      -2.681   8.430  14.343  1.00  0.00     0.091 N 
HETATM   33  C17 UNL     1      -3.581   8.584  13.190  1.00  0.00     0.302 C 
HETATM   34  C18 UNL     1      -5.051   8.193  13.503  1.00  0.00     0.302 C 
HETATM   35  N4  UNL     1      -5.476   8.412  14.898  1.00  0.00     0.087 N 
HETATM   36  C19 UNL     1      -6.913   8.634  14.998  1.00  0.00     0.310 C 
HETATM   37  C20 UNL     1      -4.703   9.497  15.509  1.00  0.00     0.302 C 
HETATM   38  C21 UNL     1      -3.174   9.219  15.488  1.00  0.00     0.302 C 
ENDBRANCH  31  32
ENDBRANCH  30  31
ENDBRANCH  29  30
ENDBRANCH   5  29
TORSDOF 7
ENDMDL
MODEL 2
REMARK minimizedAffinity -9.38975239
REMARK  7 active torsions:
REMARK  status: ('A' for Active; 'I' for Inactive)
REMARK    1  A    between atoms: N1_2  and  S1_3 
REMARK    2  A    between atoms: S1_3  and  C2_6 
REMARK    3  A    between atoms: C9_13  and  C10_14 
REMARK    4  A    between atoms: C13_18  and  C14_19 
REMARK    5  A    between atoms: C14_19  and  C15_20 
REMARK    6  A    between atoms: C15_20  and  C16_21 
REMARK    7  A    between atoms: C16_21  and  N3_22 
ROOT
HETATM    1  C10 UNL     1      -0.853   5.767  12.016  1.00  0.00     0.040 A 
HETATM    2  N2  UNL     1      -0.111   5.334  10.940  1.00  0.00    -0.359 N 
HETATM    3  C11 UNL     1       1.136   5.885  10.996  1.00  0.00     0.016 A 
HETATM    4  C12 UNL     1       1.207   6.689  12.113  1.00  0.00    -0.027 A 
HETATM    5  C13 UNL     1      -0.054   6.611  12.778  1.00  0.00    -0.023 A 
HETATM    6  C22 UNL     1       2.445   7.440  12.480  1.00  0.00     0.041 C 
HETATM    7  C23 UNL     1       3.417   7.522  11.286  1.00  0.00     0.005 C 
HETATM    8  C24 UNL     1       3.556   6.174  10.556  1.00  0.00     0.006 C 
HETATM    9  C25 UNL     1       2.211   5.677   9.990  1.00  0.00     0.057 C 
HETATM   10  H9  UNL     1      -0.444   4.721  10.209  1.00  0.00     0.166 HD
ENDROOT
BRANCH   1  11
HETATM   11  C9  UNL     1      -2.167   5.262  12.139  1.00  0.00     0.048 C 
HETATM   12  C8  UNL     1      -2.525   4.006  11.837  1.00  0.00     0.047 A 
HETATM   13  C6  UNL     1      -3.898   3.489  11.946  1.00  0.00     0.008 A 
HETATM   14  C26 UNL     1      -1.665   2.857  11.358  1.00  0.00     0.257 A 
HETATM   15  C5  UNL     1      -3.843   2.147  11.554  1.00  0.00     0.046 A 
HETATM   16  C7  UNL     1      -5.098   4.057  12.335  1.00  0.00     0.040 A 
HETATM   17  C4  UNL     1      -4.956   1.328  11.532  1.00  0.00     0.032 A 
HETATM   18  N5  UNL     1      -2.546   1.793  11.211  1.00  0.00    -0.322 N 
HETATM   19  C3  UNL     1      -6.175   1.888  11.922  1.00  0.00     0.027 A 
HETATM   20  C2  UNL     1      -6.239   3.241  12.312  1.00  0.00     0.080 A 
HETATM   21  H35 UNL     1      -2.236   0.882  10.907  1.00  0.00     0.169 HD
HETATM   22  O3  UNL     1      -0.471   2.818  11.142  1.00  0.00    -0.267 OA
BRANCH  20  23
HETATM   23  S1  UNL     1      -7.790   3.934  12.832  1.00  0.00     0.258 S 
HETATM   24  O1  UNL     1      -7.919   5.264  12.284  1.00  0.00    -0.201 OA
HETATM   25  O2  UNL     1      -8.802   2.921  12.631  1.00  0.00    -0.201 OA
BRANCH  23  26
HETATM   26  N1  UNL     1      -7.573   4.065  14.492  1.00  0.00    -0.320 N 
HETATM   27  C1  UNL     1      -7.541   5.395  15.085  1.00  0.00     0.159 C 
HETATM   28  H4  UNL     1      -8.037   3.317  15.007  1.00  0.00     0.171 HD
ENDBRANCH  23  26
ENDBRANCH  20  23
ENDBRANCH   1  11
BRANCH   5  29
HETATM   29  C14 UNL     1      -0.421   7.306  14.056  1.00  0.00     0.043 C 
BRANCH  29  30
HETATM   30  C15 UNL     1      -1.099   6.361  15.050  1.00  0.00     0.035 C 
BRANCH  30  31
HETATM   31  C16 UNL     1      -2.622   6.537  15.155  1.00  0.00     0.273 C 
BRANCH  31  32
HETATM   32  N3  UNL     1      -3.071   7.715  15.906  1.00  0.00     0.091 N 
HETATM   33  C17 UNL     1      -3.657   8.730  15.017  1.00  0.00     0.302 C 
HETATM   34  C18 UNL     1      -4.241   9.950  15.779  1.00  0.00     0.302 C 
HETATM   35  N4  UNL     1      -3.567  10.278  17.049  1.00  0.00     0.087 N 
HETATM   36  C19 UNL     1      -3.701  11.690  17.384  1.00  0.00     0.310 C 
HETATM   37  C20 UNL     1      -2.168   9.845  17.019  1.00  0.00     0.302 C 
HETATM   38  C21 UNL     1      -2.026   8.320  16.755  1.00  0.00     0.302 C 
ENDBRANCH  31  32
ENDBRANCH  30  31
ENDBRANCH  29  30
ENDBRANCH   5  29
TORSDOF 7
ENDMDL
MODEL 3
REMARK minimizedAffinity -9.27897358
REMARK  7 active torsions:
REMARK  status: ('A' for Active; 'I' for Inactive)
REMARK    1  A    between atoms: N1_2  and  S1_3 
REMARK    2  A    between atoms: S1_3  and  C2_6 
REMARK    3  A    between atoms: C9_13  and  C10_14 
REMARK    4  A    between atoms: C13_18  and  C14_19 
REMARK    5  A    between atoms: C14_19  and  C15_20 
REMARK    6  A    between atoms: C15_20  and  C16_21 
REMARK    7  A    between atoms: C16_21  and  N3_22 
ROOT
HETATM    1  C10 UNL     1      -3.290   4.302  11.931  1.00  0.00     0.040 A 
HETATM    2  N2  UNL     1      -3.580   3.011  11.549  1.00  0.00    -0.359 N 
HETATM    3  C11 UNL     1      -4.859   2.706  11.915  1.00  0.00     0.016 A 
HETATM    4  C12 UNL     1      -5.405   3.803  12.546  1.00  0.00    -0.027 A 
HETATM    5  C13 UNL     1      -4.416   4.832  12.550  1.00  0.00    -0.023 A 
HETATM    6  C22 UNL     1      -6.804   3.809  13.068  1.00  0.00     0.041 C 
HETATM    7  C23 UNL     1      -7.362   2.376  13.178  1.00  0.00     0.005 C 
HETATM    8  C24 UNL     1      -7.038   1.530  11.933  1.00  0.00     0.006 C 
HETATM    9  C25 UNL     1      -5.521   1.392  11.702  1.00  0.00     0.057 C 
HETATM   10  H9  UNL     1      -2.939   2.379  11.090  1.00  0.00     0.166 HD
ENDROOT
BRANCH   1  11
HETATM   11  C9  UNL     1      -2.011   4.802  11.595  1.00  0.00     0.048 C 
HETATM   12  C8  UNL     1      -1.136   5.296  12.483  1.00  0.00     0.047 A 
HETATM   13  C6  UNL     1       0.186   5.835  12.128  1.00  0.00     0.008 A 
HETATM   14  C26 UNL     1      -1.258   5.400  13.987  1.00  0.00     0.257 A 
HETATM   15  C5  UNL     1       0.783   6.231  13.330  1.00  0.00     0.046 A 
HETATM   16  C7  UNL     1       0.855   5.993  10.928  1.00  0.00     0.040 A 
HETATM   17  C4  UNL     1       2.046   6.788  13.390  1.00  0.00     0.032 A 
HETATM   18  N5  UNL     1      -0.065   5.979  14.400  1.00  0.00    -0.322 N 
HETATM   19  C3  UNL     1       2.735   6.952  12.186  1.00  0.00     0.027 A 
HETATM   20  C2  UNL     1       2.137   6.563  10.970  1.00  0.00     0.080 A 
HETATM   21  H35 UNL     1       0.133   6.159  15.372  1.00  0.00     0.169 HD
HETATM   22  O3  UNL     1      -2.167   5.065  14.718  1.00  0.00    -0.267 OA
BRANCH  20  23
HETATM   23  S1  UNL     1       3.034   6.752   9.448  1.00  0.00     0.258 S 
HETATM   24  O1  UNL     1       4.422   7.014   9.751  1.00  0.00    -0.201 OA
HETATM   25  O2  UNL     1       2.630   5.672   8.575  1.00  0.00    -0.201 OA
BRANCH  23  26
HETATM   26  N1  UNL     1       2.357   8.152   8.816  1.00  0.00    -0.320 N 
HETATM   27  C1  UNL     1       0.906   8.258   8.758  1.00  0.00     0.159 C 
HETATM   28  H4  UNL     1       2.893   8.986   9.052  1.00  0.00     0.171 HD
ENDBRANCH  23  26
ENDBRANCH  20  23
ENDBRANCH   1  11
BRANCH   5  29
HETATM   29  C14 UNL     1      -4.583   6.213  13.110  1.00  0.00     0.043 C 
BRANCH  29  30
HETATM   30  C15 UNL     1      -6.054   6.569  13.333  1.00  0.00     0.035 C 
BRANCH  30  31
HETATM   31  C16 UNL     1      -6.351   7.212  14.697  1.00  0.00     0.273 C 
BRANCH  31  32
HETATM   32  N3  UNL     1      -7.773   7.386  15.017  1.00  0.00     0.091 N 
HETATM   33  C17 UNL     1      -8.634   6.858  13.949  1.00  0.00     0.302 C 
HETATM   34  C18 UNL     1     -10.148   6.926  14.290  1.00  0.00     0.302 C 
HETATM   35  N4  UNL     1     -10.542   8.039  15.173  1.00  0.00     0.087 N 
HETATM   36  C19 UNL     1     -11.931   8.430  14.963  1.00  0.00     0.310 C 
HETATM   37  C20 UNL     1      -9.620   9.168  15.025  1.00  0.00     0.302 C 
HETATM   38  C21 UNL     1      -8.149   8.776  15.339  1.00  0.00     0.302 C 
ENDBRANCH  31  32
ENDBRANCH  30  31
ENDBRANCH  29  30
ENDBRANCH   5  29
TORSDOF 7
ENDMDL
MODEL 4
REMARK minimizedAffinity -9.22888088
REMARK  7 active torsions:
REMARK  status: ('A' for Active; 'I' for Inactive)
REMARK    1  A    between atoms: N1_2  and  S1_3 
REMARK    2  A    between atoms: S1_3  and  C2_6 
REMARK    3  A    between atoms: C9_13  and  C10_14 
REMARK    4  A    between atoms: C13_18  and  C14_19 
REMARK    5  A    between atoms: C14_19  and  C15_20 
REMARK    6  A    between atoms: C15_20  and  C16_21 
REMARK    7  A    between atoms: C16_21  and  N3_22 
ROOT
HETATM    1  C10 UNL     1      -0.873   5.707  12.211  1.00  0.00     0.040 A 
HETATM    2  N2  UNL     1      -0.267   5.634  10.976  1.00  0.00    -0.359 N 
HETATM    3  C11 UNL     1       1.017   6.084  11.073  1.00  0.00     0.016 A 
HETATM    4  C12 UNL     1       1.250   6.461  12.378  1.00  0.00    -0.027 A 
HETATM    5  C13 UNL     1       0.054   6.212  13.116  1.00  0.00    -0.023 A 
HETATM    6  C22 UNL     1       2.570   6.994  12.832  1.00  0.00     0.041 C 
HETATM    7  C23 UNL     1       3.431   7.437  11.633  1.00  0.00     0.005 C 
HETATM    8  C24 UNL     1       3.401   6.410  10.485  1.00  0.00     0.006 C 
HETATM    9  C25 UNL     1       1.976   6.187   9.942  1.00  0.00     0.057 C 
HETATM   10  H9  UNL     1      -0.711   5.318  10.126  1.00  0.00     0.166 HD
ENDROOT
BRANCH   1  11
HETATM   11  C9  UNL     1      -2.204   5.242  12.306  1.00  0.00     0.048 C 
HETATM   12  C8  UNL     1      -2.605   4.019  11.932  1.00  0.00     0.047 A 
HETATM   13  C6  UNL     1      -3.995   3.545  12.012  1.00  0.00     0.008 A 
HETATM   14  C26 UNL     1      -1.785   2.871  11.385  1.00  0.00     0.257 A 
HETATM   15  C5  UNL     1      -3.988   2.227  11.541  1.00  0.00     0.046 A 
HETATM   16  C7  UNL     1      -5.175   4.131  12.434  1.00  0.00     0.040 A 
HETATM   17  C4  UNL     1      -5.128   1.450  11.472  1.00  0.00     0.032 A 
HETATM   18  N5  UNL     1      -2.703   1.848  11.176  1.00  0.00    -0.322 N 
HETATM   19  C3  UNL     1      -6.327   2.029  11.896  1.00  0.00     0.027 A 
HETATM   20  C2  UNL     1      -6.344   3.358  12.365  1.00  0.00     0.080 A 
HETATM   21  H35 UNL     1      -2.425   0.947  10.819  1.00  0.00     0.169 HD
HETATM   22  O3  UNL     1      -0.594   2.803  11.166  1.00  0.00    -0.267 OA
BRANCH  20  23
HETATM   23  S1  UNL     1      -7.870   4.073  12.927  1.00  0.00     0.258 S 
HETATM   24  O1  UNL     1      -7.975   5.420  12.416  1.00  0.00    -0.201 OA
HETATM   25  O2  UNL     1      -8.909   3.089  12.714  1.00  0.00    -0.201 OA
BRANCH  23  26
HETATM   26  N1  UNL     1      -7.626   4.154  14.586  1.00  0.00    -0.320 N 
HETATM   27  C1  UNL     1      -7.687   5.457  15.234  1.00  0.00     0.159 C 
HETATM   28  H4  UNL     1      -8.016   3.351  15.078  1.00  0.00     0.171 HD
ENDBRANCH  23  26
ENDBRANCH  20  23
ENDBRANCH   1  11
BRANCH   5  29
HETATM   29  C14 UNL     1      -0.141   6.447  14.584  1.00  0.00     0.043 C 
BRANCH  29  30
HETATM   30  C15 UNL     1      -1.156   7.558  14.859  1.00  0.00     0.035 C 
BRANCH  30  31
HETATM   31  C16 UNL     1      -0.538   8.956  15.024  1.00  0.00     0.273 C 
BRANCH  31  32
HETATM   32  N3  UNL     1      -0.351   9.404  16.409  1.00  0.00     0.091 N 
HETATM   33  C17 UNL     1      -1.169  10.589  16.707  1.00  0.00     0.302 C 
HETATM   34  C18 UNL     1      -1.083  11.038  18.191  1.00  0.00     0.302 C 
HETATM   35  N4  UNL     1       0.200  10.749  18.860  1.00  0.00     0.087 N 
HETATM   36  C19 UNL     1       0.464  11.682  19.949  1.00  0.00     0.310 C 
HETATM   37  C20 UNL     1       1.293  10.710  17.886  1.00  0.00     0.302 C 
HETATM   38  C21 UNL     1       1.058   9.649  16.775  1.00  0.00     0.302 C 
ENDBRANCH  31  32
ENDBRANCH  30  31
ENDBRANCH  29  30
ENDBRANCH   5  29
TORSDOF 7
ENDMDL
MODEL 5
REMARK minimizedAffinity -9.09214211
REMARK  7 active torsions:
REMARK  status: ('A' for Active; 'I' for Inactive)
REMARK    1  A    between atoms: N1_2  and  S1_3 
REMARK    2  A    between atoms: S1_3  and  C2_6 
REMARK    3  A    between atoms: C9_13  and  C10_14 
REMARK    4  A    between atoms: C13_18  and  C14_19 
REMARK    5  A    between atoms: C14_19  and  C15_20 
REMARK    6  A    between atoms: C15_20  and  C16_21 
REMARK    7  A    between atoms: C16_21  and  N3_22 
ROOT
HETATM    1  C10 UNL     1      -1.425   7.101  13.725  1.00  0.00     0.040 A 
HETATM    2  N2  UNL     1      -0.696   6.750  14.839  1.00  0.00    -0.359 N 
HETATM    3  C11 UNL     1       0.401   7.555  14.936  1.00  0.00     0.016 A 
HETATM    4  C12 UNL     1       0.392   8.434  13.874  1.00  0.00    -0.027 A 
HETATM    5  C13 UNL     1      -0.777   8.161  13.102  1.00  0.00    -0.023 A 
HETATM    6  C22 UNL     1       1.455   9.466  13.683  1.00  0.00     0.041 C 
HETATM    7  C23 UNL     1       2.698   9.147  14.536  1.00  0.00     0.005 C 
HETATM    8  C24 UNL     1       2.325   8.722  15.969  1.00  0.00     0.006 C 
HETATM    9  C25 UNL     1       1.445   7.458  15.991  1.00  0.00     0.057 C 
HETATM   10  H9  UNL     1      -0.925   5.999  15.474  1.00  0.00     0.166 HD
ENDROOT
BRANCH   1  11
HETATM   11  C9  UNL     1      -2.624   6.391  13.488  1.00  0.00     0.048 C 
HETATM   12  C8  UNL     1      -2.688   5.194  12.887  1.00  0.00     0.047 A 
HETATM   13  C6  UNL     1      -3.939   4.467  12.623  1.00  0.00     0.008 A 
HETATM   14  C26 UNL     1      -1.562   4.322  12.377  1.00  0.00     0.257 A 
HETATM   15  C5  UNL     1      -3.572   3.270  12.000  1.00  0.00     0.046 A 
HETATM   16  C7  UNL     1      -5.271   4.750  12.869  1.00  0.00     0.040 A 
HETATM   17  C4  UNL     1      -4.494   2.319  11.603  1.00  0.00     0.032 A 
HETATM   18  N5  UNL     1      -2.193   3.197  11.858  1.00  0.00    -0.322 N 
HETATM   19  C3  UNL     1      -5.842   2.591  11.846  1.00  0.00     0.027 A 
HETATM   20  C2  UNL     1      -6.221   3.799  12.466  1.00  0.00     0.080 A 
HETATM   21  H35 UNL     1      -1.674   2.434  11.453  1.00  0.00     0.169 HD
HETATM   22  O3  UNL     1      -0.363   4.509  12.397  1.00  0.00    -0.267 OA
BRANCH  20  23
HETATM   23  S1  UNL     1      -7.937   4.120  12.794  1.00  0.00     0.258 S 
HETATM   24  O1  UNL     1      -8.382   5.204  11.948  1.00  0.00    -0.201 OA
HETATM   25  O2  UNL     1      -8.614   2.843  12.824  1.00  0.00    -0.201 OA
BRANCH  23  26
HETATM   26  N1  UNL     1      -7.892   4.671  14.379  1.00  0.00    -0.320 N 
HETATM   27  C1  UNL     1      -8.234   6.062  14.642  1.00  0.00     0.159 C 
HETATM   28  H4  UNL     1      -8.197   3.964  15.047  1.00  0.00     0.171 HD
ENDBRANCH  23  26
ENDBRANCH  20  23
ENDBRANCH   1  11
BRANCH   5  29
HETATM   29  C14 UNL     1      -1.208   8.894  11.866  1.00  0.00     0.043 C 
BRANCH  29  30
HETATM   30  C15 UNL     1      -0.249   8.663  10.696  1.00  0.00     0.035 C 
BRANCH  30  31
HETATM   31  C16 UNL     1       0.188   7.201  10.513  1.00  0.00     0.273 C 
BRANCH  31  32
HETATM   32  N3  UNL     1       1.569   6.901  10.908  1.00  0.00     0.091 N 
HETATM   33  C17 UNL     1       2.456   8.053  10.686  1.00  0.00     0.302 C 
HETATM   34  C18 UNL     1       3.907   7.818  11.186  1.00  0.00     0.302 C 
HETATM   35  N4  UNL     1       4.369   6.418  11.133  1.00  0.00     0.087 N 
HETATM   36  C19 UNL     1       5.818   6.331  11.001  1.00  0.00     0.310 C 
HETATM   37  C20 UNL     1       3.670   5.683  10.077  1.00  0.00     0.302 C 
HETATM   38  C21 UNL     1       2.128   5.694  10.268  1.00  0.00     0.302 C 
ENDBRANCH  31  32
ENDBRANCH  30  31
ENDBRANCH  29  30
ENDBRANCH   5  29
TORSDOF 7
ENDMDL
MODEL 6
REMARK minimizedAffinity -8.9035635
REMARK  7 active torsions:
REMARK  status: ('A' for Active; 'I' for Inactive)
REMARK    1  A    between atoms: N1_2  and  S1_3 
REMARK    2  A    between atoms: S1_3  and  C2_6 
REMARK    3  A    between atoms: C9_13  and  C10_14 
REMARK    4  A    between atoms: C13_18  and  C14_19 
REMARK    5  A    between atoms: C14_19  and  C15_20 
REMARK    6  A    between atoms: C15_20  and  C16_21 
REMARK    7  A    between atoms: C16_21  and  N3_22 
ROOT
HETATM    1  C10 UNL     1      -7.498   6.178  13.637  1.00  0.00     0.040 A 
HETATM    2  N2  UNL     1      -8.587   6.133  12.796  1.00  0.00    -0.359 N 
HETATM    3  C11 UNL     1      -9.623   6.821  13.357  1.00  0.00     0.016 A 
HETATM    4  C12 UNL     1      -9.209   7.314  14.576  1.00  0.00    -0.027 A 
HETATM    5  C13 UNL     1      -7.850   6.921  14.758  1.00  0.00    -0.023 A 
HETATM    6  C22 UNL     1     -10.103   8.129  15.452  1.00  0.00     0.041 C 
HETATM    7  C23 UNL     1     -11.578   7.983  15.029  1.00  0.00     0.005 C 
HETATM    8  C24 UNL     1     -11.756   8.071  13.502  1.00  0.00     0.006 C 
HETATM    9  C25 UNL     1     -10.978   6.967  12.761  1.00  0.00     0.057 C 
HETATM   10  H9  UNL     1      -8.623   5.646  11.912  1.00  0.00     0.166 HD
ENDROOT
BRANCH   1  11
HETATM   11  C9  UNL     1      -6.314   5.545  13.195  1.00  0.00     0.048 C 
HETATM   12  C8  UNL     1      -6.243   4.264  12.805  1.00  0.00     0.047 A 
HETATM   13  C6  UNL     1      -5.006   3.602  12.365  1.00  0.00     0.008 A 
HETATM   14  C26 UNL     1      -7.348   3.236  12.699  1.00  0.00     0.257 A 
HETATM   15  C5  UNL     1      -5.360   2.288  12.037  1.00  0.00     0.046 A 
HETATM   16  C7  UNL     1      -3.695   4.027  12.238  1.00  0.00     0.040 A 
HETATM   17  C4  UNL     1      -4.446   1.359  11.576  1.00  0.00     0.032 A 
HETATM   18  N5  UNL     1      -6.718   2.086  12.239  1.00  0.00    -0.322 N 
HETATM   19  C3  UNL     1      -3.119   1.775  11.442  1.00  0.00     0.027 A 
HETATM   20  C2  UNL     1      -2.753   3.095  11.777  1.00  0.00     0.080 A 
HETATM   21  H35 UNL     1      -7.226   1.232  12.065  1.00  0.00     0.169 HD
HETATM   22  O3  UNL     1      -8.532   3.340  12.941  1.00  0.00    -0.267 OA
BRANCH  20  23
HETATM   23  S1  UNL     1      -1.068   3.618  11.576  1.00  0.00     0.258 S 
HETATM   24  O1  UNL     1      -0.217   2.451  11.509  1.00  0.00    -0.201 OA
HETATM   25  O2  UNL     1      -1.054   4.636  10.549  1.00  0.00    -0.201 OA
BRANCH  23  26
HETATM   26  N1  UNL     1      -0.771   4.406  13.028  1.00  0.00    -0.320 N 
HETATM   27  C1  UNL     1       0.258   5.435  13.063  1.00  0.00     0.159 C 
HETATM   28  H4  UNL     1      -1.620   4.553  13.574  1.00  0.00     0.171 HD
ENDBRANCH  23  26
ENDBRANCH  20  23
ENDBRANCH   1  11
BRANCH   5  29
HETATM   29  C14 UNL     1      -6.984   7.260  15.935  1.00  0.00     0.043 C 
BRANCH  29  30
HETATM   30  C15 UNL     1      -5.874   8.246  15.567  1.00  0.00     0.035 C 
BRANCH  30  31
HETATM   31  C16 UNL     1      -4.528   7.588  15.227  1.00  0.00     0.273 C 
BRANCH  31  32
HETATM   32  N3  UNL     1      -3.361   8.135  15.931  1.00  0.00     0.091 N 
HETATM   33  C17 UNL     1      -3.580   9.534  16.328  1.00  0.00     0.302 C 
HETATM   34  C18 UNL     1      -2.414  10.124  17.167  1.00  0.00     0.302 C 
HETATM   35  N4  UNL     1      -1.082   9.565  16.869  1.00  0.00     0.087 N 
HETATM   36  C19 UNL     1      -0.017  10.512  17.175  1.00  0.00     0.310 C 
HETATM   37  C20 UNL     1      -1.019   9.087  15.486  1.00  0.00     0.302 C 
HETATM   38  C21 UNL     1      -2.095   8.007  15.184  1.00  0.00     0.302 C 
ENDBRANCH  31  32
ENDBRANCH  30  31
ENDBRANCH  29  30
ENDBRANCH   5  29
TORSDOF 7
ENDMDL
MODEL 7
REMARK minimizedAffinity -8.85743904
REMARK  7 active torsions:
REMARK  status: ('A' for Active; 'I' for Inactive)
REMARK    1  A    between atoms: N1_2  and  S1_3 
REMARK    2  A    between atoms: S1_3  and  C2_6 
REMARK    3  A    between atoms: C9_13  and  C10_14 
REMARK    4  A    between atoms: C13_18  and  C14_19 
REMARK    5  A    between atoms: C14_19  and  C15_20 
REMARK    6  A    between atoms: C15_20  and  C16_21 
REMARK    7  A    between atoms: C16_21  and  N3_22 
ROOT
HETATM    1  C10 UNL     1      -2.895   4.759  13.095  1.00  0.00     0.040 A 
HETATM    2  N2  UNL     1      -2.740   3.471  12.634  1.00  0.00    -0.359 N 
HETATM    3  C11 UNL     1      -3.959   2.962  12.290  1.00  0.00     0.016 A 
HETATM    4  C12 UNL     1      -4.917   3.923  12.534  1.00  0.00    -0.027 A 
HETATM    5  C13 UNL     1      -4.246   5.079  13.036  1.00  0.00    -0.023 A 
HETATM    6  C22 UNL     1      -6.366   3.694  12.257  1.00  0.00     0.041 C 
HETATM    7  C23 UNL     1      -6.667   2.192  12.081  1.00  0.00     0.005 C 
HETATM    8  C24 UNL     1      -5.622   1.491  11.193  1.00  0.00     0.006 C 
HETATM    9  C25 UNL     1      -4.201   1.586  11.781  1.00  0.00     0.057 C 
HETATM   10  H9  UNL     1      -1.865   2.971  12.580  1.00  0.00     0.166 HD
ENDROOT
BRANCH   1  11
HETATM   11  C9  UNL     1      -1.722   5.458  13.462  1.00  0.00     0.048 C 
HETATM   12  C8  UNL     1      -0.647   5.596  12.673  1.00  0.00     0.047 A 
HETATM   13  C6  UNL     1       0.580   6.306  13.066  1.00  0.00     0.008 A 
HETATM   14  C26 UNL     1      -0.433   5.110  11.257  1.00  0.00     0.257 A 
HETATM   15  C5  UNL     1       1.444   6.232  11.968  1.00  0.00     0.046 A 
HETATM   16  C7  UNL     1       0.969   6.963  14.220  1.00  0.00     0.040 A 
HETATM   17  C4  UNL     1       2.705   6.797  11.968  1.00  0.00     0.032 A 
HETATM   18  N5  UNL     1       0.849   5.532  10.927  1.00  0.00    -0.322 N 
HETATM   19  C3  UNL     1       3.111   7.464  13.126  1.00  0.00     0.027 A 
HETATM   20  C2  UNL     1       2.249   7.537  14.240  1.00  0.00     0.080 A 
HETATM   21  H35 UNL     1       1.254   5.350  10.022  1.00  0.00     0.169 HD
HETATM   22  O3  UNL     1      -1.180   4.492  10.526  1.00  0.00    -0.267 OA
BRANCH  20  23
HETATM   23  S1  UNL     1       2.766   8.412  15.696  1.00  0.00     0.258 S 
HETATM   24  O1  UNL     1       1.987   7.952  16.823  1.00  0.00    -0.201 OA
HETATM   25  O2  UNL     1       4.211   8.406  15.710  1.00  0.00    -0.201 OA
BRANCH  23  26
HETATM   26  N1  UNL     1       2.301   9.986  15.341  1.00  0.00    -0.320 N 
HETATM   27  C1  UNL     1       1.488  10.706  16.310  1.00  0.00     0.159 C 
HETATM   28  H4  UNL     1       3.021  10.501  14.835  1.00  0.00     0.171 HD
ENDBRANCH  23  26
ENDBRANCH  20  23
ENDBRANCH   1  11
BRANCH   5  29
HETATM   29  C14 UNL     1      -4.892   6.379  13.412  1.00  0.00     0.043 C 
BRANCH  29  30
HETATM   30  C15 UNL     1      -4.963   6.569  14.929  1.00  0.00     0.035 C 
BRANCH  30  31
HETATM   31  C16 UNL     1      -6.296   6.140  15.560  1.00  0.00     0.273 C 
BRANCH  31  32
HETATM   32  N3  UNL     1      -7.447   6.996  15.249  1.00  0.00     0.091 N 
HETATM   33  C17 UNL     1      -8.244   7.286  16.451  1.00  0.00     0.302 C 
HETATM   34  C18 UNL     1      -9.413   8.273  16.189  1.00  0.00     0.302 C 
HETATM   35  N4  UNL     1      -9.985   8.222  14.831  1.00  0.00     0.087 N 
HETATM   36  C19 UNL     1     -11.378   8.651  14.814  1.00  0.00     0.310 C 
HETATM   37  C20 UNL     1      -9.807   6.892  14.245  1.00  0.00     0.302 C 
HETATM   38  C21 UNL     1      -8.312   6.471  14.175  1.00  0.00     0.302 C 
ENDBRANCH  31  32
ENDBRANCH  30  31
ENDBRANCH  29  30
ENDBRANCH   5  29
TORSDOF 7
ENDMDL
MODEL 8
REMARK minimizedAffinity -8.84893703
REMARK  7 active torsions:
REMARK  status: ('A' for Active; 'I' for Inactive)
REMARK    1  A    between atoms: N1_2  and  S1_3 
REMARK    2  A    between atoms: S1_3  and  C2_6 
REMARK    3  A    between atoms: C9_13  and  C10_14 
REMARK    4  A    between atoms: C13_18  and  C14_19 
REMARK    5  A    between atoms: C14_19  and  C15_20 
REMARK    6  A    between atoms: C15_20  and  C16_21 
REMARK    7  A    between atoms: C16_21  and  N3_22 
ROOT
HETATM    1  C10 UNL     1      -3.015   4.480  11.789  1.00  0.00     0.040 A 
HETATM    2  N2  UNL     1      -3.282   3.193  11.380  1.00  0.00    -0.359 N 
HETATM    3  C11 UNL     1      -4.553   2.854  11.743  1.00  0.00     0.016 A 
HETATM    4  C12 UNL     1      -5.118   3.926  12.401  1.00  0.00    -0.027 A 
HETATM    5  C13 UNL     1      -4.149   4.974  12.424  1.00  0.00    -0.023 A 
HETATM    6  C22 UNL     1      -6.515   3.893  12.926  1.00  0.00     0.041 C 
HETATM    7  C23 UNL     1      -7.044   2.447  13.007  1.00  0.00     0.005 C 
HETATM    8  C24 UNL     1      -6.708   1.635  11.742  1.00  0.00     0.006 C 
HETATM    9  C25 UNL     1      -5.189   1.532  11.503  1.00  0.00     0.057 C 
HETATM   10  H9  UNL     1      -2.630   2.584  10.905  1.00  0.00     0.166 HD
ENDROOT
BRANCH   1  11
HETATM   11  C9  UNL     1      -1.748   5.013  11.461  1.00  0.00     0.048 C 
HETATM   12  C8  UNL     1      -0.845   5.425  12.362  1.00  0.00     0.047 A 
HETATM   13  C6  UNL     1       0.465   5.999  12.016  1.00  0.00     0.008 A 
HETATM   14  C26 UNL     1      -0.920   5.391  13.873  1.00  0.00     0.257 A 
HETATM   15  C5  UNL     1       1.100   6.284  13.230  1.00  0.00     0.046 A 
HETATM   16  C7  UNL     1       1.096   6.268  10.815  1.00  0.00     0.040 A 
HETATM   17  C4  UNL     1       2.364   6.837  13.302  1.00  0.00     0.032 A 
HETATM   18  N5  UNL     1       0.287   5.932  14.299  1.00  0.00    -0.322 N 
HETATM   19  C3  UNL     1       3.014   7.113  12.096  1.00  0.00     0.027 A 
HETATM   20  C2  UNL     1       2.378   6.836  10.869  1.00  0.00     0.080 A 
HETATM   21  H35 UNL     1       0.515   6.023  15.277  1.00  0.00     0.169 HD
HETATM   22  O3  UNL     1      -1.805   4.987  14.598  1.00  0.00    -0.267 OA
BRANCH  20  23
HETATM   23  S1  UNL     1       3.226   7.166   9.344  1.00  0.00     0.258 S 
HETATM   24  O1  UNL     1       4.192   8.219   9.561  1.00  0.00    -0.201 OA
HETATM   25  O2  UNL     1       3.599   5.890   8.775  1.00  0.00    -0.201 OA
BRANCH  23  26
HETATM   26  N1  UNL     1       1.991   7.772   8.382  1.00  0.00    -0.320 N 
HETATM   27  C1  UNL     1       1.928   7.358   6.988  1.00  0.00     0.159 C 
HETATM   28  H4  UNL     1       1.116   7.882   8.894  1.00  0.00     0.171 HD
ENDBRANCH  23  26
ENDBRANCH  20  23
ENDBRANCH   1  11
BRANCH   5  29
HETATM   29  C14 UNL     1      -4.342   6.339  13.015  1.00  0.00     0.043 C 
BRANCH  29  30
HETATM   30  C15 UNL     1      -5.773   6.555  13.510  1.00  0.00     0.035 C 
BRANCH  30  31
HETATM   31  C16 UNL     1      -5.886   6.857  15.012  1.00  0.00     0.273 C 
BRANCH  31  32
HETATM   32  N3  UNL     1      -4.986   7.901  15.516  1.00  0.00     0.091 N 
HETATM   33  C17 UNL     1      -4.934   9.054  14.605  1.00  0.00     0.302 C 
HETATM   34  C18 UNL     1      -4.076  10.229  15.147  1.00  0.00     0.302 C 
HETATM   35  N4  UNL     1      -2.953   9.835  16.019  1.00  0.00     0.087 N 
HETATM   36  C19 UNL     1      -1.872  10.811  15.983  1.00  0.00     0.310 C 
HETATM   37  C20 UNL     1      -2.492   8.484  15.688  1.00  0.00     0.302 C 
HETATM   38  C21 UNL     1      -3.622   7.424  15.816  1.00  0.00     0.302 C 
ENDBRANCH  31  32
ENDBRANCH  30  31
ENDBRANCH  29  30
ENDBRANCH   5  29
TORSDOF 7
ENDMDL
MODEL 9
REMARK minimizedAffinity -8.84832668
REMARK  7 active torsions:
REMARK  status: ('A' for Active; 'I' for Inactive)
REMARK    1  A    between atoms: N1_2  and  S1_3 
REMARK    2  A    between atoms: S1_3  and  C2_6 
REMARK    3  A    between atoms: C9_13  and  C10_14 
REMARK    4  A    between atoms: C13_18  and  C14_19 
REMARK    5  A    between atoms: C14_19  and  C15_20 
REMARK    6  A    between atoms: C15_20  and  C16_21 
REMARK    7  A    between atoms: C16_21  and  N3_22 
ROOT
HETATM    1  C10 UNL     1      -0.438   6.334  11.939  1.00  0.00     0.040 A 
HETATM    2  N2  UNL     1      -0.301   6.578  10.590  1.00  0.00    -0.359 N 
HETATM    3  C11 UNL     1       1.022   6.705  10.283  1.00  0.00     0.016 A 
HETATM    4  C12 UNL     1       1.755   6.550  11.440  1.00  0.00    -0.027 A 
HETATM    5  C13 UNL     1       0.833   6.299  12.501  1.00  0.00    -0.023 A 
HETATM    6  C22 UNL     1       3.247   6.622  11.456  1.00  0.00     0.041 C 
HETATM    7  C23 UNL     1       3.784   7.276  10.168  1.00  0.00     0.005 C 
HETATM    8  C24 UNL     1       3.080   6.741   8.907  1.00  0.00     0.006 C 
HETATM    9  C25 UNL     1       1.563   7.005   8.931  1.00  0.00     0.057 C 
HETATM   10  H9  UNL     1      -1.063   6.671   9.933  1.00  0.00     0.166 HD
ENDROOT
BRANCH   1  11
HETATM   11  C9  UNL     1      -1.748   6.136  12.430  1.00  0.00     0.048 C 
HETATM   12  C8  UNL     1      -2.523   5.087  12.114  1.00  0.00     0.047 A 
HETATM   13  C6  UNL     1      -3.894   4.895  12.610  1.00  0.00     0.008 A 
HETATM   14  C26 UNL     1      -2.204   3.894  11.241  1.00  0.00     0.257 A 
HETATM   15  C5  UNL     1      -4.342   3.688  12.062  1.00  0.00     0.046 A 
HETATM   16  C7  UNL     1      -4.716   5.635  13.441  1.00  0.00     0.040 A 
HETATM   17  C4  UNL     1      -5.600   3.174  12.312  1.00  0.00     0.032 A 
HETATM   18  N5  UNL     1      -3.357   3.118  11.267  1.00  0.00    -0.322 N 
HETATM   19  C3  UNL     1      -6.441   3.910  13.150  1.00  0.00     0.027 A 
HETATM   20  C2  UNL     1      -5.999   5.131  13.700  1.00  0.00     0.080 A 
HETATM   21  H35 UNL     1      -3.423   2.244  10.770  1.00  0.00     0.169 HD
HETATM   22  O3  UNL     1      -1.187   3.622  10.638  1.00  0.00    -0.267 OA
BRANCH  20  23
HETATM   23  S1  UNL     1      -7.068   6.044  14.786  1.00  0.00     0.258 S 
HETATM   24  O1  UNL     1      -6.824   5.626  16.147  1.00  0.00    -0.201 OA
HETATM   25  O2  UNL     1      -7.000   7.432  14.387  1.00  0.00    -0.201 OA
BRANCH  23  26
HETATM   26  N1  UNL     1      -8.585   5.492  14.327  1.00  0.00    -0.320 N 
HETATM   27  C1  UNL     1      -9.302   6.214  13.285  1.00  0.00     0.159 C 
HETATM   28  H4  UNL     1      -8.653   4.475  14.345  1.00  0.00     0.171 HD
ENDBRANCH  23  26
ENDBRANCH  20  23
ENDBRANCH   1  11
BRANCH   5  29
HETATM   29  C14 UNL     1       1.189   6.042  13.935  1.00  0.00     0.043 C 
BRANCH  29  30
HETATM   30  C15 UNL     1       1.378   7.340  14.723  1.00  0.00     0.035 C 
BRANCH  30  31
HETATM   31  C16 UNL     1       0.383   7.531  15.878  1.00  0.00     0.273 C 
BRANCH  31  32
HETATM   32  N3  UNL     1      -0.733   8.445  15.604  1.00  0.00     0.091 N 
HETATM   33  C17 UNL     1      -0.736   9.585  16.534  1.00  0.00     0.302 C 
HETATM   34  C18 UNL     1      -1.837  10.633  16.217  1.00  0.00     0.302 C 
HETATM   35  N4  UNL     1      -3.060  10.090  15.597  1.00  0.00     0.087 N 
HETATM   36  C19 UNL     1      -4.226  10.915  15.888  1.00  0.00     0.310 C 
HETATM   37  C20 UNL     1      -3.259   8.692  15.986  1.00  0.00     0.302 C 
HETATM   38  C21 UNL     1      -2.055   7.791  15.592  1.00  0.00     0.302 C 
ENDBRANCH  31  32
ENDBRANCH  30  31
ENDBRANCH  29  30
ENDBRANCH   5  29
TORSDOF 7
ENDMDL
