MODEL 1
REMARK minimizedAffinity -10.547513
REMARK  8 active torsions:
REMARK  status: ('A' for Active; 'I' for Inactive)
REMARK    1  A    between atoms: O1_2  and  C2_3 
REMARK    2  A    between atoms: C6_7  and  C7_8 
REMARK    3  A    between atoms: N1_10  and  C9_11 
REMARK    4  A    between atoms: C12_14  and  C13_15 
REMARK    5  A    between atoms: C13_15  and  C14_16 
REMARK    6  A    between atoms: C14_16  and  N2_17 
REMARK    7  A    between atoms: C17_20  and  O2_21 
REMARK    8  A    between atoms: C24_32  and  N5_33 
ROOT
HETATM    1  C7  UNL     1      -0.456  52.404 -23.643  1.00  0.00     0.007 A 
HETATM    2  C8  UNL     1      -1.219  51.336 -24.063  1.00  0.00     0.112 A 
HETATM    3  N1  UNL     1      -1.550  51.491 -25.402  1.00  0.00    -0.307 N 
HETATM    4  C22 UNL     1      -0.939  52.675 -25.836  1.00  0.00     0.127 A 
HETATM    5  N3  UNL     1      -0.980  53.200 -27.078  1.00  0.00    -0.337 N 
ATOM      6  H3  UNL     1      -1.480  52.767 -27.855  1.00  0.00     0.168 HD
HETATM    7  C23 UNL     1      -0.298  54.347 -27.186  1.00  0.00     0.183 A 
HETATM    8  N4  UNL     1       0.392  54.992 -26.234  1.00  0.00    -0.343 N 
ATOM      9  H4  UNL     1       0.887  55.859 -26.442  1.00  0.00     0.167 HD
HETATM   10  C24 UNL     1       0.413  54.463 -24.999  1.00  0.00     0.093 A 
HETATM   11  C25 UNL     1      -0.266  53.256 -24.760  1.00  0.00     0.059 A 
ENDROOT
BRANCH   3  12
HETATM   12  C9  UNL     1      -2.374  50.580 -26.154  1.00  0.00     0.040 A 
HETATM   13  C10 UNL     1      -2.785  50.902 -27.459  1.00  0.00     0.030 A 
HETATM   14  C11 UNL     1      -3.574  50.020 -28.207  1.00  0.00     0.009 A 
HETATM   15  C12 UNL     1      -3.973  48.793 -27.675  1.00  0.00    -0.056 A 
HETATM   16  C20 UNL     1      -3.581  48.470 -26.375  1.00  0.00     0.009 A 
HETATM   17  C21 UNL     1      -2.788  49.350 -25.625  1.00  0.00     0.030 A 
BRANCH  15  18
HETATM   18  C13 UNL     1      -4.828  47.847 -28.485  1.00  0.00     0.068 C 
BRANCH  18  19
HETATM   19  C14 UNL     1      -5.301  48.485 -29.800  1.00  0.00     0.277 C 
BRANCH  19  20
HETATM   20  N2  UNL     1      -6.270  47.665 -30.549  1.00  0.00     0.088 N 
HETATM   21  C15 UNL     1      -7.342  48.460 -31.166  1.00  0.00     0.275 C 
HETATM   22  C16 UNL     1      -8.025  47.711 -32.302  1.00  0.00     0.062 C 
HETATM   23  C17 UNL     1      -7.035  47.457 -33.437  1.00  0.00     0.121 C 
HETATM   24  C18 UNL     1      -5.616  47.205 -32.932  1.00  0.00     0.062 C 
HETATM   25  C19 UNL     1      -5.610  46.735 -31.477  1.00  0.00     0.275 C 
BRANCH  23  26
HETATM   26  O2  UNL     1      -7.501  46.351 -34.205  1.00  0.00    -0.395 OA
HETATM   27  H19 UNL     1      -6.901  46.245 -34.964  1.00  0.00     0.210 HD
ENDBRANCH  23  26
ENDBRANCH  19  20
ENDBRANCH  18  19
ENDBRANCH  15  18
ENDBRANCH   3  12
BRANCH   1  28
HETATM   28  C6  UNL     1      -0.006  52.531 -22.274  1.00  0.00    -0.021 A 
HETATM   29  C5  UNL     1       1.027  53.419 -21.961  1.00  0.00     0.012 A 
HETATM   30  C4  UNL     1       1.449  53.559 -20.639  1.00  0.00     0.004 A 
HETATM   31  C3  UNL     1       0.841  52.813 -19.626  1.00  0.00     0.037 A 
HETATM   32  C2  UNL     1      -0.188  51.917 -19.932  1.00  0.00     0.069 A 
HETATM   33  C26 UNL     1      -0.609  51.781 -21.259  1.00  0.00     0.049 A 
BRANCH  32  34
HETATM   34  O1  UNL     1      -0.861  51.132 -19.039  1.00  0.00    -0.356 OA
HETATM   35  C1  UNL     1      -2.124  51.609 -18.588  1.00  0.00     0.210 C 
ENDBRANCH  32  34
ENDBRANCH   1  28
BRANCH  10  36
HETATM   36  N5  UNL     1       1.144  55.148 -24.037  1.00  0.00    -0.288 NA
HETATM   37  H27 UNL     1       1.522  54.559 -23.307  1.00  0.00     0.125 HD
HETATM   38  H28 UNL     1       1.808  55.776 -24.482  1.00  0.00     0.125 HD
ENDBRANCH  10  36
TORSDOF 8
ENDMDL
MODEL 2
REMARK minimizedAffinity -10.5374508
REMARK  8 active torsions:
REMARK  status: ('A' for Active; 'I' for Inactive)
REMARK    1  A    between atoms: O1_2  and  C2_3 
REMARK    2  A    between atoms: C6_7  and  C7_8 
REMARK    3  A    between atoms: N1_10  and  C9_11 
REMARK    4  A    between atoms: C12_14  and  C13_15 
REMARK    5  A    between atoms: C13_15  and  C14_16 
REMARK    6  A    between atoms: C14_16  and  N2_17 
REMARK    7  A    between atoms: C17_20  and  O2_21 
REMARK    8  A    between atoms: C24_32  and  N5_33 
ROOT
HETATM    1  C7  UNL     1      -0.436  52.439 -23.579  1.00  0.00     0.007 A 
HETATM    2  C8  UNL     1      -1.195  51.365 -23.989  1.00  0.00     0.112 A 
HETATM    3  N1  UNL     1      -1.519  51.503 -25.332  1.00  0.00    -0.307 N 
HETATM    4  C22 UNL     1      -0.907  52.682 -25.778  1.00  0.00     0.127 A 
HETATM    5  N3  UNL     1      -0.942  53.191 -27.026  1.00  0.00    -0.337 N 
ATOM      6  H3  UNL     1      -1.438  52.748 -27.800  1.00  0.00     0.168 HD
HETATM    7  C23 UNL     1      -0.260  54.337 -27.145  1.00  0.00     0.183 A 
HETATM    8  N4  UNL     1       0.424  54.995 -26.198  1.00  0.00    -0.343 N 
ATOM      9  H4  UNL     1       0.919  55.860 -26.414  1.00  0.00     0.167 HD
HETATM   10  C24 UNL     1       0.439  54.481 -24.956  1.00  0.00     0.093 A 
HETATM   11  C25 UNL     1      -0.240  53.277 -24.705  1.00  0.00     0.059 A 
ENDROOT
BRANCH   3  12
HETATM   12  C9  UNL     1      -2.339  50.582 -26.077  1.00  0.00     0.040 A 
HETATM   13  C10 UNL     1      -2.772  50.903 -27.374  1.00  0.00     0.030 A 
HETATM   14  C11 UNL     1      -3.557  50.011 -28.116  1.00  0.00     0.009 A 
HETATM   15  C12 UNL     1      -3.929  48.775 -27.584  1.00  0.00    -0.056 A 
HETATM   16  C20 UNL     1      -3.514  48.453 -26.290  1.00  0.00     0.009 A 
HETATM   17  C21 UNL     1      -2.725  49.344 -25.547  1.00  0.00     0.030 A 
BRANCH  15  18
HETATM   18  C13 UNL     1      -4.779  47.819 -28.386  1.00  0.00     0.068 C 
BRANCH  18  19
HETATM   19  C14 UNL     1      -6.215  47.735 -27.844  1.00  0.00     0.277 C 
BRANCH  19  20
HETATM   20  N2  UNL     1      -7.226  47.428 -28.871  1.00  0.00     0.088 N 
HETATM   21  C15 UNL     1      -8.318  48.410 -28.916  1.00  0.00     0.275 C 
HETATM   22  C16 UNL     1      -9.062  48.375 -30.245  1.00  0.00     0.062 C 
HETATM   23  C17 UNL     1      -8.129  48.786 -31.382  1.00  0.00     0.121 C 
HETATM   24  C18 UNL     1      -6.690  48.328 -31.155  1.00  0.00     0.062 C 
HETATM   25  C19 UNL     1      -6.619  47.151 -30.182  1.00  0.00     0.275 C 
BRANCH  23  26
HETATM   26  O2  UNL     1      -8.641  48.256 -32.602  1.00  0.00    -0.395 OA
HETATM   27  H19 UNL     1      -8.079  48.585 -33.326  1.00  0.00     0.210 HD
ENDBRANCH  23  26
ENDBRANCH  19  20
ENDBRANCH  18  19
ENDBRANCH  15  18
ENDBRANCH   3  12
BRANCH   1  28
HETATM   28  C6  UNL     1       0.008  52.583 -22.209  1.00  0.00    -0.021 A 
HETATM   29  C5  UNL     1       1.083  53.424 -21.911  1.00  0.00     0.012 A 
HETATM   30  C4  UNL     1       1.499  53.582 -20.589  1.00  0.00     0.004 A 
HETATM   31  C3  UNL     1       0.842  52.901 -19.561  1.00  0.00     0.037 A 
HETATM   32  C2  UNL     1      -0.230  52.052 -19.852  1.00  0.00     0.069 A 
HETATM   33  C26 UNL     1      -0.644  51.898 -21.179  1.00  0.00     0.049 A 
BRANCH  32  34
HETATM   34  O1  UNL     1      -0.953  51.331 -18.944  1.00  0.00    -0.356 OA
HETATM   35  C1  UNL     1      -2.338  51.639 -18.836  1.00  0.00     0.210 C 
ENDBRANCH  32  34
ENDBRANCH   1  28
BRANCH  10  36
HETATM   36  N5  UNL     1       1.164  55.179 -23.999  1.00  0.00    -0.288 NA
HETATM   37  H27 UNL     1       1.539  54.600 -23.260  1.00  0.00     0.125 HD
HETATM   38  H28 UNL     1       1.830  55.802 -24.448  1.00  0.00     0.125 HD
ENDBRANCH  10  36
TORSDOF 8
ENDMDL
MODEL 3
REMARK minimizedAffinity -10.132514
REMARK  8 active torsions:
REMARK  status: ('A' for Active; 'I' for Inactive)
REMARK    1  A    between atoms: O1_2  and  C2_3 
REMARK    2  A    between atoms: C6_7  and  C7_8 
REMARK    3  A    between atoms: N1_10  and  C9_11 
REMARK    4  A    between atoms: C12_14  and  C13_15 
REMARK    5  A    between atoms: C13_15  and  C14_16 
REMARK    6  A    between atoms: C14_16  and  N2_17 
REMARK    7  A    between atoms: C17_20  and  O2_21 
REMARK    8  A    between atoms: C24_32  and  N5_33 
ROOT
HETATM    1  C7  UNL     1      -0.719  51.954 -23.766  1.00  0.00     0.007 A 
HETATM    2  C8  UNL     1      -1.560  50.932 -24.150  1.00  0.00     0.112 A 
HETATM    3  N1  UNL     1      -1.890  51.073 -25.490  1.00  0.00    -0.307 N 
HETATM    4  C22 UNL     1      -1.200  52.198 -25.963  1.00  0.00     0.127 A 
HETATM    5  N3  UNL     1      -1.215  52.689 -27.219  1.00  0.00    -0.337 N 
ATOM      6  H3  UNL     1      -1.752  52.271 -27.980  1.00  0.00     0.168 HD
HETATM    7  C23 UNL     1      -0.454  53.780 -27.364  1.00  0.00     0.183 A 
HETATM    8  N4  UNL     1       0.289  54.401 -26.436  1.00  0.00    -0.343 N 
ATOM      9  H4  UNL     1       0.843  55.224 -26.672  1.00  0.00     0.167 HD
HETATM   10  C24 UNL     1       0.283  53.906 -25.186  1.00  0.00     0.093 A 
HETATM   11  C25 UNL     1      -0.478  52.758 -24.908  1.00  0.00     0.059 A 
ENDROOT
BRANCH   3  12
HETATM   12  C9  UNL     1      -2.785  50.202 -26.211  1.00  0.00     0.040 A 
HETATM   13  C10 UNL     1      -2.984  50.371 -27.591  1.00  0.00     0.030 A 
HETATM   14  C11 UNL     1      -3.839  49.523 -28.307  1.00  0.00     0.009 A 
HETATM   15  C12 UNL     1      -4.515  48.484 -27.665  1.00  0.00    -0.056 A 
HETATM   16  C20 UNL     1      -4.333  48.318 -26.291  1.00  0.00     0.009 A 
HETATM   17  C21 UNL     1      -3.476  49.163 -25.573  1.00  0.00     0.030 A 
BRANCH  15  18
HETATM   18  C13 UNL     1      -5.440  47.576 -28.441  1.00  0.00     0.068 C 
BRANCH  18  19
HETATM   19  C14 UNL     1      -6.809  47.433 -27.758  1.00  0.00     0.277 C 
BRANCH  19  20
HETATM   20  N2  UNL     1      -7.875  48.239 -28.380  1.00  0.00     0.088 N 
HETATM   21  C15 UNL     1      -8.234  47.777 -29.728  1.00  0.00     0.275 C 
HETATM   22  C16 UNL     1      -9.613  48.268 -30.150  1.00  0.00     0.062 C 
HETATM   23  C17 UNL     1     -10.686  47.671 -29.242  1.00  0.00     0.121 C 
HETATM   24  C18 UNL     1     -10.206  47.497 -27.803  1.00  0.00     0.062 C 
HETATM   25  C19 UNL     1      -9.028  48.419 -27.485  1.00  0.00     0.275 C 
BRANCH  23  26
HETATM   26  O2  UNL     1     -11.838  48.509 -29.291  1.00  0.00    -0.395 OA
HETATM   27  H19 UNL     1     -12.537  48.081 -28.766  1.00  0.00     0.210 HD
ENDBRANCH  23  26
ENDBRANCH  19  20
ENDBRANCH  18  19
ENDBRANCH  15  18
ENDBRANCH   3  12
BRANCH   1  28
HETATM   28  C6  UNL     1      -0.248  52.086 -22.404  1.00  0.00    -0.021 A 
HETATM   29  C5  UNL     1       0.490  53.212 -22.030  1.00  0.00     0.012 A 
HETATM   30  C4  UNL     1       0.927  53.352 -20.712  1.00  0.00     0.004 A 
HETATM   31  C3  UNL     1       0.627  52.370 -19.766  1.00  0.00     0.037 A 
HETATM   32  C2  UNL     1      -0.105  51.237 -20.134  1.00  0.00     0.069 A 
HETATM   33  C26 UNL     1      -0.541  51.101 -21.456  1.00  0.00     0.049 A 
BRANCH  32  34
HETATM   34  O1  UNL     1      -0.462  50.208 -19.309  1.00  0.00    -0.356 OA
HETATM   35  C1  UNL     1      -0.172  50.364 -17.925  1.00  0.00     0.210 C 
ENDBRANCH  32  34
ENDBRANCH   1  28
BRANCH  10  36
HETATM   36  N5  UNL     1       1.070  54.564 -24.249  1.00  0.00    -0.288 NA
HETATM   37  H27 UNL     1       1.411  53.970 -23.506  1.00  0.00     0.125 HD
HETATM   38  H28 UNL     1       1.773  55.130 -24.716  1.00  0.00     0.125 HD
ENDBRANCH  10  36
TORSDOF 8
ENDMDL
MODEL 4
REMARK minimizedAffinity -9.78461647
REMARK  8 active torsions:
REMARK  status: ('A' for Active; 'I' for Inactive)
REMARK    1  A    between atoms: O1_2  and  C2_3 
REMARK    2  A    between atoms: C6_7  and  C7_8 
REMARK    3  A    between atoms: N1_10  and  C9_11 
REMARK    4  A    between atoms: C12_14  and  C13_15 
REMARK    5  A    between atoms: C13_15  and  C14_16 
REMARK    6  A    between atoms: C14_16  and  N2_17 
REMARK    7  A    between atoms: C17_20  and  O2_21 
REMARK    8  A    between atoms: C24_32  and  N5_33 
ROOT
HETATM    1  C7  UNL     1      -1.114  50.778 -22.475  1.00  0.00     0.007 A 
HETATM    2  C8  UNL     1      -1.787  50.669 -23.673  1.00  0.00     0.112 A 
HETATM    3  N1  UNL     1      -2.477  49.466 -23.716  1.00  0.00    -0.307 N 
HETATM    4  C22 UNL     1      -2.256  48.826 -22.489  1.00  0.00     0.127 A 
HETATM    5  N3  UNL     1      -2.756  47.637 -22.094  1.00  0.00    -0.337 N 
ATOM      6  H3  UNL     1      -3.371  47.065 -22.673  1.00  0.00     0.168 HD
HETATM    7  C23 UNL     1      -2.363  47.286 -20.863  1.00  0.00     0.183 A 
HETATM    8  N4  UNL     1      -1.567  47.964 -20.024  1.00  0.00    -0.343 N 
ATOM      9  H4  UNL     1      -1.347  47.598 -19.098  1.00  0.00     0.167 HD
HETATM   10  C24 UNL     1      -1.067  49.141 -20.438  1.00  0.00     0.093 A 
HETATM   11  C25 UNL     1      -1.410  49.619 -21.714  1.00  0.00     0.059 A 
ENDROOT
BRANCH   3  12
HETATM   12  C9  UNL     1      -3.254  49.007 -24.840  1.00  0.00     0.040 A 
HETATM   13  C10 UNL     1      -4.619  48.710 -24.687  1.00  0.00     0.030 A 
HETATM   14  C11 UNL     1      -5.391  48.277 -25.773  1.00  0.00     0.009 A 
HETATM   15  C12 UNL     1      -4.822  48.131 -27.039  1.00  0.00    -0.056 A 
HETATM   16  C20 UNL     1      -3.463  48.410 -27.197  1.00  0.00     0.009 A 
HETATM   17  C21 UNL     1      -2.690  48.847 -26.112  1.00  0.00     0.030 A 
BRANCH  15  18
HETATM   18  C13 UNL     1      -5.657  47.659 -28.206  1.00  0.00     0.068 C 
BRANCH  18  19
HETATM   19  C14 UNL     1      -5.264  48.363 -29.514  1.00  0.00     0.277 C 
BRANCH  19  20
HETATM   20  N2  UNL     1      -6.062  47.947 -30.681  1.00  0.00     0.088 N 
HETATM   21  C15 UNL     1      -5.277  47.883 -31.922  1.00  0.00     0.275 C 
HETATM   22  C16 UNL     1      -5.946  47.011 -32.976  1.00  0.00     0.062 C 
HETATM   23  C17 UNL     1      -6.019  45.563 -32.494  1.00  0.00     0.121 C 
HETATM   24  C18 UNL     1      -6.232  45.458 -30.986  1.00  0.00     0.062 C 
HETATM   25  C19 UNL     1      -6.849  46.734 -30.412  1.00  0.00     0.275 C 
BRANCH  23  26
HETATM   26  O2  UNL     1      -7.068  44.904 -33.199  1.00  0.00    -0.395 OA
HETATM   27  H19 UNL     1      -7.057  43.967 -32.936  1.00  0.00     0.210 HD
ENDBRANCH  23  26
ENDBRANCH  19  20
ENDBRANCH  18  19
ENDBRANCH  15  18
ENDBRANCH   3  12
BRANCH   1  28
HETATM   28  C6  UNL     1      -0.271  51.915 -22.173  1.00  0.00    -0.021 A 
HETATM   29  C5  UNL     1       0.140  52.145 -20.857  1.00  0.00     0.012 A 
HETATM   30  C4  UNL     1       0.971  53.227 -20.566  1.00  0.00     0.004 A 
HETATM   31  C3  UNL     1       1.394  54.081 -21.587  1.00  0.00     0.037 A 
HETATM   32  C2  UNL     1       0.981  53.861 -22.905  1.00  0.00     0.069 A 
HETATM   33  C26 UNL     1       0.149  52.774 -23.192  1.00  0.00     0.049 A 
BRANCH  32  34
HETATM   34  O1  UNL     1       1.321  54.619 -23.990  1.00  0.00    -0.356 OA
HETATM   35  C1  UNL     1       0.423  54.601 -25.093  1.00  0.00     0.210 C 
ENDBRANCH  32  34
ENDBRANCH   1  28
BRANCH  10  36
HETATM   36  N5  UNL     1      -0.254  49.825 -19.543  1.00  0.00    -0.288 NA
HETATM   37  H27 UNL     1      -0.269  50.830 -19.655  1.00  0.00     0.125 HD
HETATM   38  H28 UNL     1      -0.410  49.487 -18.598  1.00  0.00     0.125 HD
ENDBRANCH  10  36
TORSDOF 8
ENDMDL
MODEL 5
REMARK minimizedAffinity -9.69940567
REMARK  8 active torsions:
REMARK  status: ('A' for Active; 'I' for Inactive)
REMARK    1  A    between atoms: O1_2  and  C2_3 
REMARK    2  A    between atoms: C6_7  and  C7_8 
REMARK    3  A    between atoms: N1_10  and  C9_11 
REMARK    4  A    between atoms: C12_14  and  C13_15 
REMARK    5  A    between atoms: C13_15  and  C14_16 
REMARK    6  A    between atoms: C14_16  and  N2_17 
REMARK    7  A    between atoms: C17_20  and  O2_21 
REMARK    8  A    between atoms: C24_32  and  N5_33 
ROOT
HETATM    1  C7  UNL     1      -1.093  51.349 -24.049  1.00  0.00     0.007 A 
HETATM    2  C8  UNL     1      -2.034  50.416 -24.427  1.00  0.00     0.112 A 
HETATM    3  N1  UNL     1      -2.276  50.517 -25.790  1.00  0.00    -0.307 N 
HETATM    4  C22 UNL     1      -1.427  51.519 -26.279  1.00  0.00     0.127 A 
HETATM    5  N3  UNL     1      -1.316  51.934 -27.558  1.00  0.00    -0.337 N 
ATOM      6  H3  UNL     1      -1.861  51.540 -28.326  1.00  0.00     0.168 HD
HETATM    7  C23 UNL     1      -0.418  52.914 -27.716  1.00  0.00     0.183 A 
HETATM    8  N4  UNL     1       0.349  53.493 -26.780  1.00  0.00    -0.343 N 
ATOM      9  H4  UNL     1       1.012  54.227 -27.026  1.00  0.00     0.167 HD
HETATM   10  C24 UNL     1       0.217  53.077 -25.509  1.00  0.00     0.093 A 
HETATM   11  C25 UNL     1      -0.696  52.049 -25.215  1.00  0.00     0.059 A 
ENDROOT
BRANCH   3  12
HETATM   12  C9  UNL     1      -3.234  49.722 -26.514  1.00  0.00     0.040 A 
HETATM   13  C10 UNL     1      -3.344  49.836 -27.910  1.00  0.00     0.030 A 
HETATM   14  C11 UNL     1      -4.261  49.058 -28.629  1.00  0.00     0.009 A 
HETATM   15  C12 UNL     1      -5.090  48.145 -27.975  1.00  0.00    -0.056 A 
HETATM   16  C20 UNL     1      -4.996  48.035 -26.587  1.00  0.00     0.009 A 
HETATM   17  C21 UNL     1      -4.077  48.810 -25.865  1.00  0.00     0.030 A 
BRANCH  15  18
HETATM   18  C13 UNL     1      -6.080  47.312 -28.755  1.00  0.00     0.068 C 
BRANCH  18  19
HETATM   19  C14 UNL     1      -6.627  48.067 -29.977  1.00  0.00     0.277 C 
BRANCH  19  20
HETATM   20  N2  UNL     1      -6.434  47.358 -31.254  1.00  0.00     0.088 N 
HETATM   21  C15 UNL     1      -5.043  46.941 -31.477  1.00  0.00     0.275 C 
HETATM   22  C16 UNL     1      -4.940  45.823 -32.506  1.00  0.00     0.062 C 
HETATM   23  C17 UNL     1      -5.639  44.566 -31.992  1.00  0.00     0.121 C 
HETATM   24  C18 UNL     1      -6.868  44.885 -31.143  1.00  0.00     0.062 C 
HETATM   25  C19 UNL     1      -7.416  46.280 -31.445  1.00  0.00     0.275 C 
BRANCH  23  26
HETATM   26  O2  UNL     1      -5.994  43.756 -33.109  1.00  0.00    -0.395 OA
HETATM   27  H19 UNL     1      -6.372  42.928 -32.764  1.00  0.00     0.210 HD
ENDBRANCH  23  26
ENDBRANCH  19  20
ENDBRANCH  18  19
ENDBRANCH  15  18
ENDBRANCH   3  12
BRANCH   1  28
HETATM   28  C6  UNL     1      -0.679  51.503 -22.670  1.00  0.00    -0.021 A 
HETATM   29  C5  UNL     1      -0.821  50.437 -21.779  1.00  0.00     0.012 A 
HETATM   30  C4  UNL     1      -0.403  50.575 -20.455  1.00  0.00     0.004 A 
HETATM   31  C3  UNL     1       0.157  51.778 -20.019  1.00  0.00     0.037 A 
HETATM   32  C2  UNL     1       0.295  52.852 -20.903  1.00  0.00     0.069 A 
HETATM   33  C26 UNL     1      -0.124  52.708 -22.230  1.00  0.00     0.049 A 
BRANCH  32  34
HETATM   34  O1  UNL     1       0.823  54.076 -20.603  1.00  0.00    -0.356 OA
HETATM   35  C1  UNL     1       1.771  54.609 -21.521  1.00  0.00     0.210 C 
ENDBRANCH  32  34
ENDBRANCH   1  28
BRANCH  10  36
HETATM   36  N5  UNL     1       1.030  53.687 -24.563  1.00  0.00    -0.288 NA
HETATM   37  H27 UNL     1       1.257  53.101 -23.771  1.00  0.00     0.125 HD
HETATM   38  H28 UNL     1       1.822  54.135 -25.018  1.00  0.00     0.125 HD
ENDBRANCH  10  36
TORSDOF 8
ENDMDL
MODEL 6
REMARK minimizedAffinity -9.66931343
REMARK  8 active torsions:
REMARK  status: ('A' for Active; 'I' for Inactive)
REMARK    1  A    between atoms: O1_2  and  C2_3 
REMARK    2  A    between atoms: C6_7  and  C7_8 
REMARK    3  A    between atoms: N1_10  and  C9_11 
REMARK    4  A    between atoms: C12_14  and  C13_15 
REMARK    5  A    between atoms: C13_15  and  C14_16 
REMARK    6  A    between atoms: C14_16  and  N2_17 
REMARK    7  A    between atoms: C17_20  and  O2_21 
REMARK    8  A    between atoms: C24_32  and  N5_33 
ROOT
HETATM    1  C7  UNL     1      -1.278  50.642 -22.528  1.00  0.00     0.007 A 
HETATM    2  C8  UNL     1      -2.013  50.554 -23.690  1.00  0.00     0.112 A 
HETATM    3  N1  UNL     1      -2.723  49.362 -23.709  1.00  0.00    -0.307 N 
HETATM    4  C22 UNL     1      -2.448  48.707 -22.501  1.00  0.00     0.127 A 
HETATM    5  N3  UNL     1      -2.945  47.521 -22.092  1.00  0.00    -0.337 N 
ATOM      6  H3  UNL     1      -3.598  46.964 -22.644  1.00  0.00     0.168 HD
HETATM    7  C23 UNL     1      -2.494  47.152 -20.887  1.00  0.00     0.183 A 
HETATM    8  N4  UNL     1      -1.645  47.809 -20.083  1.00  0.00    -0.343 N 
ATOM      9  H4  UNL     1      -1.384  47.430 -19.174  1.00  0.00     0.167 HD
HETATM   10  C24 UNL     1      -1.150  48.983 -20.512  1.00  0.00     0.093 A 
HETATM   11  C25 UNL     1      -1.551  49.480 -21.764  1.00  0.00     0.059 A 
ENDROOT
BRANCH   3  12
HETATM   12  C9  UNL     1      -3.564  48.926 -24.795  1.00  0.00     0.040 A 
HETATM   13  C10 UNL     1      -3.046  48.815 -26.096  1.00  0.00     0.030 A 
HETATM   14  C11 UNL     1      -3.848  48.379 -27.158  1.00  0.00     0.009 A 
HETATM   15  C12 UNL     1      -5.186  48.039 -26.950  1.00  0.00    -0.056 A 
HETATM   16  C20 UNL     1      -5.712  48.159 -25.663  1.00  0.00     0.009 A 
HETATM   17  C21 UNL     1      -4.911  48.593 -24.597  1.00  0.00     0.030 A 
BRANCH  15  18
HETATM   18  C13 UNL     1      -6.048  47.573 -28.100  1.00  0.00     0.068 C 
BRANCH  18  19
HETATM   19  C14 UNL     1      -7.379  46.979 -27.614  1.00  0.00     0.277 C 
BRANCH  19  20
HETATM   20  N2  UNL     1      -8.568  47.707 -28.092  1.00  0.00     0.088 N 
HETATM   21  C15 UNL     1      -9.602  46.822 -28.646  1.00  0.00     0.275 C 
HETATM   22  C16 UNL     1     -10.971  47.490 -28.675  1.00  0.00     0.062 C 
HETATM   23  C17 UNL     1     -11.442  47.786 -27.253  1.00  0.00     0.121 C 
HETATM   24  C18 UNL     1     -10.292  48.153 -26.318  1.00  0.00     0.062 C 
HETATM   25  C19 UNL     1      -9.075  48.659 -27.091  1.00  0.00     0.275 C 
BRANCH  23  26
HETATM   26  O2  UNL     1     -12.405  48.835 -27.305  1.00  0.00    -0.395 OA
HETATM   27  H19 UNL     1     -12.750  48.964 -26.403  1.00  0.00     0.210 HD
ENDBRANCH  23  26
ENDBRANCH  19  20
ENDBRANCH  18  19
ENDBRANCH  15  18
ENDBRANCH   3  12
BRANCH   1  28
HETATM   28  C6  UNL     1      -0.402  51.763 -22.258  1.00  0.00    -0.021 A 
HETATM   29  C5  UNL     1       0.033  52.007 -20.954  1.00  0.00     0.012 A 
HETATM   30  C4  UNL     1       0.894  53.074 -20.695  1.00  0.00     0.004 A 
HETATM   31  C3  UNL     1       1.323  53.898 -21.738  1.00  0.00     0.037 A 
HETATM   32  C2  UNL     1       0.886  53.664 -23.045  1.00  0.00     0.069 A 
HETATM   33  C26 UNL     1       0.023  52.592 -23.300  1.00  0.00     0.049 A 
BRANCH  32  34
HETATM   34  O1  UNL     1       1.229  54.393 -24.149  1.00  0.00    -0.356 OA
HETATM   35  C1  UNL     1       0.322  54.364 -25.245  1.00  0.00     0.210 C 
ENDBRANCH  32  34
ENDBRANCH   1  28
BRANCH  10  36
HETATM   36  N5  UNL     1      -0.281  49.646 -19.654  1.00  0.00    -0.288 NA
HETATM   37  H27 UNL     1      -0.287  50.652 -19.755  1.00  0.00     0.125 HD
HETATM   38  H28 UNL     1      -0.393  49.300 -18.705  1.00  0.00     0.125 HD
ENDBRANCH  10  36
TORSDOF 8
ENDMDL
MODEL 7
REMARK minimizedAffinity -9.50773716
REMARK  8 active torsions:
REMARK  status: ('A' for Active; 'I' for Inactive)
REMARK    1  A    between atoms: O1_2  and  C2_3 
REMARK    2  A    between atoms: C6_7  and  C7_8 
REMARK    3  A    between atoms: N1_10  and  C9_11 
REMARK    4  A    between atoms: C12_14  and  C13_15 
REMARK    5  A    between atoms: C13_15  and  C14_16 
REMARK    6  A    between atoms: C14_16  and  N2_17 
REMARK    7  A    between atoms: C17_20  and  O2_21 
REMARK    8  A    between atoms: C24_32  and  N5_33 
ROOT
HETATM    1  C7  UNL     1      -0.616  51.661 -23.515  1.00  0.00     0.007 A 
HETATM    2  C8  UNL     1      -0.781  51.103 -22.266  1.00  0.00     0.112 A 
HETATM    3  N1  UNL     1      -0.068  51.834 -21.326  1.00  0.00    -0.307 N 
HETATM    4  C22 UNL     1       0.527  52.903 -22.010  1.00  0.00     0.127 A 
HETATM    5  N3  UNL     1       1.295  53.876 -21.479  1.00  0.00    -0.337 N 
ATOM      6  H3  UNL     1       1.527  53.932 -20.487  1.00  0.00     0.168 HD
HETATM    7  C23 UNL     1       1.723  54.762 -22.388  1.00  0.00     0.183 A 
HETATM    8  N4  UNL     1       1.473  54.781 -23.706  1.00  0.00    -0.343 N 
ATOM      9  H4  UNL     1       1.846  55.521 -24.299  1.00  0.00     0.167 HD
HETATM   10  C24 UNL     1       0.716  53.797 -24.220  1.00  0.00     0.093 A 
HETATM   11  C25 UNL     1       0.205  52.807 -23.364  1.00  0.00     0.059 A 
ENDROOT
BRANCH   3  12
HETATM   12  C9  UNL     1       0.017  51.507 -19.925  1.00  0.00     0.040 A 
HETATM   13  C10 UNL     1       0.580  52.417 -19.015  1.00  0.00     0.030 A 
HETATM   14  C11 UNL     1       0.655  52.119 -17.648  1.00  0.00     0.009 A 
HETATM   15  C12 UNL     1       0.170  50.908 -17.154  1.00  0.00    -0.056 A 
HETATM   16  C20 UNL     1      -0.378  49.991 -18.054  1.00  0.00     0.009 A 
HETATM   17  C21 UNL     1      -0.458  50.289 -19.422  1.00  0.00     0.030 A 
BRANCH  15  18
HETATM   18  C13 UNL     1       0.258  50.589 -15.680  1.00  0.00     0.068 C 
BRANCH  18  19
HETATM   19  C14 UNL     1       0.727  51.801 -14.859  1.00  0.00     0.277 C 
BRANCH  19  20
HETATM   20  N2  UNL     1       1.658  51.461 -13.769  1.00  0.00     0.088 N 
HETATM   21  C15 UNL     1       1.541  50.065 -13.325  1.00  0.00     0.275 C 
HETATM   22  C16 UNL     1       2.786  49.595 -12.584  1.00  0.00     0.062 C 
HETATM   23  C17 UNL     1       3.991  49.599 -13.522  1.00  0.00     0.121 C 
HETATM   24  C18 UNL     1       3.938  50.736 -14.541  1.00  0.00     0.062 C 
HETATM   25  C19 UNL     1       3.037  51.877 -14.067  1.00  0.00     0.275 C 
BRANCH  23  26
HETATM   26  O2  UNL     1       5.177  49.682 -12.736  1.00  0.00    -0.395 OA
HETATM   27  H19 UNL     1       5.937  49.611 -13.339  1.00  0.00     0.210 HD
ENDBRANCH  23  26
ENDBRANCH  19  20
ENDBRANCH  18  19
ENDBRANCH  15  18
ENDBRANCH   3  12
BRANCH   1  28
HETATM   28  C6  UNL     1      -1.211  51.078 -24.698  1.00  0.00    -0.021 A 
HETATM   29  C5  UNL     1      -0.792  51.493 -25.965  1.00  0.00     0.012 A 
HETATM   30  C4  UNL     1      -1.349  50.918 -27.107  1.00  0.00     0.004 A 
HETATM   31  C3  UNL     1      -2.324  49.925 -26.988  1.00  0.00     0.037 A 
HETATM   32  C2  UNL     1      -2.754  49.509 -25.724  1.00  0.00     0.069 A 
HETATM   33  C26 UNL     1      -2.192  50.089 -24.581  1.00  0.00     0.049 A 
BRANCH  32  34
HETATM   34  O1  UNL     1      -3.697  48.552 -25.471  1.00  0.00    -0.356 OA
HETATM   35  C1  UNL     1      -4.627  48.827 -24.430  1.00  0.00     0.210 C 
ENDBRANCH  32  34
ENDBRANCH   1  28
BRANCH  10  36
HETATM   36  N5  UNL     1       0.466  53.849 -25.585  1.00  0.00    -0.288 NA
HETATM   37  H27 UNL     1      -0.410  53.427 -25.862  1.00  0.00     0.125 HD
HETATM   38  H28 UNL     1       0.630  54.789 -25.937  1.00  0.00     0.125 HD
ENDBRANCH  10  36
TORSDOF 8
ENDMDL
MODEL 8
REMARK minimizedAffinity -9.43629456
REMARK  8 active torsions:
REMARK  status: ('A' for Active; 'I' for Inactive)
REMARK    1  A    between atoms: O1_2  and  C2_3 
REMARK    2  A    between atoms: C6_7  and  C7_8 
REMARK    3  A    between atoms: N1_10  and  C9_11 
REMARK    4  A    between atoms: C12_14  and  C13_15 
REMARK    5  A    between atoms: C13_15  and  C14_16 
REMARK    6  A    between atoms: C14_16  and  N2_17 
REMARK    7  A    between atoms: C17_20  and  O2_21 
REMARK    8  A    between atoms: C24_32  and  N5_33 
ROOT
HETATM    1  C7  UNL     1      -1.397  50.593 -23.567  1.00  0.00     0.007 A 
HETATM    2  C8  UNL     1      -2.475  49.794 -23.884  1.00  0.00     0.112 A 
HETATM    3  N1  UNL     1      -2.683  49.807 -25.256  1.00  0.00    -0.307 N 
HETATM    4  C22 UNL     1      -1.677  50.610 -25.811  1.00  0.00     0.127 A 
HETATM    5  N3  UNL     1      -1.487  50.882 -27.118  1.00  0.00    -0.337 N 
ATOM      6  H3  UNL     1      -2.081  50.513 -27.861  1.00  0.00     0.168 HD
HETATM    7  C23 UNL     1      -0.439  51.685 -27.340  1.00  0.00     0.183 A 
HETATM    8  N4  UNL     1       0.402  52.216 -26.440  1.00  0.00    -0.343 N 
ATOM      9  H4  UNL     1       1.179  52.807 -26.734  1.00  0.00     0.167 HD
HETATM   10  C24 UNL     1       0.191  51.945 -25.141  1.00  0.00     0.093 A 
HETATM   11  C25 UNL     1      -0.880  51.109 -24.780  1.00  0.00     0.059 A 
ENDROOT
BRANCH   3  12
HETATM   12  C9  UNL     1      -3.751  49.114 -25.930  1.00  0.00     0.040 A 
HETATM   13  C10 UNL     1      -4.900  48.718 -25.224  1.00  0.00     0.030 A 
HETATM   14  C11 UNL     1      -5.952  48.056 -25.870  1.00  0.00     0.009 A 
HETATM   15  C12 UNL     1      -5.888  47.775 -27.235  1.00  0.00    -0.056 A 
HETATM   16  C20 UNL     1      -4.744  48.153 -27.941  1.00  0.00     0.009 A 
HETATM   17  C21 UNL     1      -3.691  48.818 -27.298  1.00  0.00     0.030 A 
BRANCH  15  18
HETATM   18  C13 UNL     1      -7.024  47.057 -27.925  1.00  0.00     0.068 C 
BRANCH  18  19
HETATM   19  C14 UNL     1      -7.688  47.934 -28.998  1.00  0.00     0.277 C 
BRANCH  19  20
HETATM   20  N2  UNL     1      -7.931  47.239 -30.274  1.00  0.00     0.088 N 
HETATM   21  C15 UNL     1      -8.805  47.993 -31.184  1.00  0.00     0.275 C 
HETATM   22  C16 UNL     1      -8.656  47.534 -32.629  1.00  0.00     0.062 C 
HETATM   23  C17 UNL     1      -7.242  47.821 -33.130  1.00  0.00     0.121 C 
HETATM   24  C18 UNL     1      -6.189  47.668 -32.035  1.00  0.00     0.062 C 
HETATM   25  C19 UNL     1      -6.683  46.773 -30.898  1.00  0.00     0.275 C 
BRANCH  23  26
HETATM   26  O2  UNL     1      -6.964  46.949 -34.223  1.00  0.00    -0.395 OA
HETATM   27  H19 UNL     1      -6.090  47.191 -34.578  1.00  0.00     0.210 HD
ENDBRANCH  23  26
ENDBRANCH  19  20
ENDBRANCH  18  19
ENDBRANCH  15  18
ENDBRANCH   3  12
BRANCH   1  28
HETATM   28  C6  UNL     1      -0.978  50.803 -22.197  1.00  0.00    -0.021 A 
HETATM   29  C5  UNL     1      -0.942  49.727 -21.308  1.00  0.00     0.012 A 
HETATM   30  C4  UNL     1      -0.518  49.923 -19.993  1.00  0.00     0.004 A 
HETATM   31  C3  UNL     1      -0.128  51.194 -19.564  1.00  0.00     0.037 A 
HETATM   32  C2  UNL     1      -0.169  52.278 -20.447  1.00  0.00     0.069 A 
HETATM   33  C26 UNL     1      -0.594  52.076 -21.764  1.00  0.00     0.049 A 
BRANCH  32  34
HETATM   34  O1  UNL     1       0.182  53.566 -20.154  1.00  0.00    -0.356 OA
HETATM   35  C1  UNL     1       1.126  54.186 -21.018  1.00  0.00     0.210 C 
ENDBRANCH  32  34
ENDBRANCH   1  28
BRANCH  10  36
HETATM   36  N5  UNL     1       1.084  52.500 -24.234  1.00  0.00    -0.288 NA
HETATM   37  H27 UNL     1       1.204  51.960 -23.387  1.00  0.00     0.125 HD
HETATM   38  H28 UNL     1       1.943  52.770 -24.706  1.00  0.00     0.125 HD
ENDBRANCH  10  36
TORSDOF 8
ENDMDL
MODEL 9
REMARK minimizedAffinity -9.40987968
REMARK  8 active torsions:
REMARK  status: ('A' for Active; 'I' for Inactive)
REMARK    1  A    between atoms: O1_2  and  C2_3 
REMARK    2  A    between atoms: C6_7  and  C7_8 
REMARK    3  A    between atoms: N1_10  and  C9_11 
REMARK    4  A    between atoms: C12_14  and  C13_15 
REMARK    5  A    between atoms: C13_15  and  C14_16 
REMARK    6  A    between atoms: C14_16  and  N2_17 
REMARK    7  A    between atoms: C17_20  and  O2_21 
REMARK    8  A    between atoms: C24_32  and  N5_33 
ROOT
HETATM    1  C7  UNL     1      -1.026  51.336 -24.042  1.00  0.00     0.007 A 
HETATM    2  C8  UNL     1      -2.034  50.433 -24.302  1.00  0.00     0.112 A 
HETATM    3  N1  UNL     1      -2.313  50.417 -25.661  1.00  0.00    -0.307 N 
HETATM    4  C22 UNL     1      -1.422  51.311 -26.269  1.00  0.00     0.127 A 
HETATM    5  N3  UNL     1      -1.328  51.592 -27.585  1.00  0.00    -0.337 N 
ATOM      6  H3  UNL     1      -1.921  51.162 -28.295  1.00  0.00     0.168 HD
HETATM    7  C23 UNL     1      -0.377  52.493 -27.862  1.00  0.00     0.183 A 
HETATM    8  N4  UNL     1       0.453  53.109 -27.009  1.00  0.00    -0.343 N 
ATOM      9  H4  UNL     1       1.152  53.773 -27.343  1.00  0.00     0.167 HD
HETATM   10  C24 UNL     1       0.338  52.828 -25.700  1.00  0.00     0.093 A 
HETATM   11  C25 UNL     1      -0.625  51.893 -25.282  1.00  0.00     0.059 A 
ENDROOT
BRANCH   3  12
HETATM   12  C9  UNL     1      -3.342  49.618 -26.277  1.00  0.00     0.040 A 
HETATM   13  C10 UNL     1      -4.310  48.972 -25.489  1.00  0.00     0.030 A 
HETATM   14  C11 UNL     1      -5.324  48.204 -26.075  1.00  0.00     0.009 A 
HETATM   15  C12 UNL     1      -5.401  48.062 -27.462  1.00  0.00    -0.056 A 
HETATM   16  C20 UNL     1      -4.435  48.690 -28.252  1.00  0.00     0.009 A 
HETATM   17  C21 UNL     1      -3.421  49.461 -27.667  1.00  0.00     0.030 A 
BRANCH  15  18
HETATM   18  C13 UNL     1      -6.494  47.229 -28.088  1.00  0.00     0.068 C 
BRANCH  18  19
HETATM   19  C14 UNL     1      -7.839  47.414 -27.369  1.00  0.00     0.277 C 
BRANCH  19  20
HETATM   20  N2  UNL     1      -8.967  46.727 -28.023  1.00  0.00     0.088 N 
HETATM   21  C15 UNL     1     -10.276  47.275 -27.640  1.00  0.00     0.275 C 
HETATM   22  C16 UNL     1     -11.361  46.919 -28.648  1.00  0.00     0.062 C 
HETATM   23  C17 UNL     1     -11.056  47.563 -29.999  1.00  0.00     0.121 C 
HETATM   24  C18 UNL     1      -9.559  47.634 -30.291  1.00  0.00     0.062 C 
HETATM   25  C19 UNL     1      -8.775  46.605 -29.476  1.00  0.00     0.275 C 
BRANCH  23  26
HETATM   26  O2  UNL     1     -11.734  46.826 -31.014  1.00  0.00    -0.395 OA
HETATM   27  H19 UNL     1     -11.591  47.288 -31.859  1.00  0.00     0.210 HD
ENDBRANCH  23  26
ENDBRANCH  19  20
ENDBRANCH  18  19
ENDBRANCH  15  18
ENDBRANCH   3  12
BRANCH   1  28
HETATM   28  C6  UNL     1      -0.558  51.595 -22.697  1.00  0.00    -0.021 A 
HETATM   29  C5  UNL     1      -0.820  50.674 -21.680  1.00  0.00     0.012 A 
HETATM   30  C4  UNL     1      -0.353  50.912 -20.387  1.00  0.00     0.004 A 
HETATM   31  C3  UNL     1       0.378  52.069 -20.107  1.00  0.00     0.037 A 
HETATM   32  C2  UNL     1       0.638  52.999 -21.118  1.00  0.00     0.069 A 
HETATM   33  C26 UNL     1       0.168  52.756 -22.413  1.00  0.00     0.049 A 
BRANCH  32  34
HETATM   34  O1  UNL     1       1.336  54.165 -20.976  1.00  0.00    -0.356 OA
HETATM   35  C1  UNL     1       1.742  54.820 -22.172  1.00  0.00     0.210 C 
ENDBRANCH  32  34
ENDBRANCH   1  28
BRANCH  10  36
HETATM   36  N5  UNL     1       1.218  53.474 -24.841  1.00  0.00    -0.288 NA
HETATM   37  H27 UNL     1       1.434  52.954 -24.001  1.00  0.00     0.125 HD
HETATM   38  H28 UNL     1       2.020  53.824 -25.358  1.00  0.00     0.125 HD
ENDBRANCH  10  36
TORSDOF 8
ENDMDL
