MODEL 1
REMARK minimizedAffinity -9.47192287
REMARK  3 active torsions:
REMARK  status: ('A' for Active; 'I' for Inactive)
REMARK    1  A    between atoms: N2_11  and  C8_12 
REMARK    2  A    between atoms: C11_15  and  O2_16 
REMARK    3  A    between atoms: C14_19  and  C15_20 
ROOT
HETATM    1  C1  UNL     1      -0.106  53.648 -28.678  1.00  0.00     0.015 C 
HETATM    2  C2  UNL     1      -0.328  52.818 -27.401  1.00  0.00    -0.036 C 
HETATM    3  C3  UNL     1       0.395  51.466 -27.579  1.00  0.00     0.015 C 
HETATM    4  C4  UNL     1      -1.855  52.583 -27.216  1.00  0.00     0.093 C 
HETATM    5  C5  UNL     1      -2.238  51.943 -25.879  1.00  0.00     0.164 C 
HETATM    6  O1  UNL     1      -3.250  51.258 -25.773  1.00  0.00    -0.292 OA
HETATM    7  C6  UNL     1      -1.375  52.267 -24.759  1.00  0.00     0.063 A 
HETATM    8  C7  UNL     1      -0.207  53.025 -24.899  1.00  0.00     0.043 A 
HETATM    9  N1  UNL     1       0.459  53.153 -23.759  1.00  0.00    -0.296 N 
ATOM     10  H1  UNL     1       1.356  53.616 -23.613  1.00  0.00     0.187 HD
HETATM   11  N2  UNL     1      -0.319  52.529 -22.821  1.00  0.00    -0.255 N 
HETATM   12  C14 UNL     1      -1.419  51.893 -23.423  1.00  0.00     0.083 A 
HETATM   13  C21 UNL     1       0.269  53.595 -26.190  1.00  0.00     0.069 C 
ENDROOT
BRANCH  11  14
HETATM   14  C8  UNL     1       0.070  52.619 -21.446  1.00  0.00     0.057 A 
HETATM   15  C9  UNL     1      -0.481  51.806 -20.450  1.00  0.00     0.034 A 
HETATM   16  C10 UNL     1      -0.065  51.936 -19.120  1.00  0.00     0.039 A 
HETATM   17  C11 UNL     1       0.890  52.883 -18.778  1.00  0.00     0.065 A 
HETATM   18  C12 UNL     1       1.436  53.718 -19.745  1.00  0.00     0.039 A 
HETATM   19  C13 UNL     1       1.022  53.590 -21.075  1.00  0.00     0.034 A 
BRANCH  17  20
HETATM   20  O2  UNL     1       1.260  52.971 -17.471  1.00  0.00    -0.361 OA
HETATM   21  H11 UNL     1       1.931  53.669 -17.384  1.00  0.00     0.217 HD
ENDBRANCH  17  20
ENDBRANCH  11  14
BRANCH  12  22
HETATM   22  C15 UNL     1      -2.336  50.953 -22.784  1.00  0.00    -0.005 A 
HETATM   23  C16 UNL     1      -3.616  51.364 -22.392  1.00  0.00     0.015 A 
HETATM   24  C17 UNL     1      -4.498  50.459 -21.797  1.00  0.00     0.026 A 
HETATM   25  C18 UNL     1      -4.112  49.131 -21.595  1.00  0.00     0.055 A 
HETATM   26 CL1  UNL     1      -5.251  48.068 -20.849  1.00  0.00    -0.083 Cl
HETATM   27  C19 UNL     1      -2.839  48.710 -21.994  1.00  0.00     0.056 A 
HETATM   28 CL2  UNL     1      -2.292  47.084 -21.778  1.00  0.00    -0.083 Cl
HETATM   29  C20 UNL     1      -1.957  49.617 -22.591  1.00  0.00     0.039 A 
ENDBRANCH  12  22
TORSDOF 3
ENDMDL
MODEL 2
REMARK minimizedAffinity -9.2303896
REMARK  3 active torsions:
REMARK  status: ('A' for Active; 'I' for Inactive)
REMARK    1  A    between atoms: N2_11  and  C8_12 
REMARK    2  A    between atoms: C11_15  and  O2_16 
REMARK    3  A    between atoms: C14_19  and  C15_20 
ROOT
HETATM    1  C1  UNL     1      -0.129  53.366 -28.430  1.00  0.00     0.015 C 
HETATM    2  C2  UNL     1      -0.289  52.532 -27.146  1.00  0.00    -0.036 C 
HETATM    3  C3  UNL     1       0.596  51.275 -27.281  1.00  0.00     0.015 C 
HETATM    4  C4  UNL     1      -1.781  52.118 -27.002  1.00  0.00     0.093 C 
HETATM    5  C5  UNL     1      -2.125  51.454 -25.666  1.00  0.00     0.164 C 
HETATM    6  O1  UNL     1      -3.051  50.653 -25.577  1.00  0.00    -0.292 OA
HETATM    7  C6  UNL     1      -1.342  51.894 -24.527  1.00  0.00     0.063 A 
HETATM    8  C7  UNL     1      -0.269  52.785 -24.646  1.00  0.00     0.043 A 
HETATM    9  N1  UNL     1       0.341  53.007 -23.490  1.00  0.00    -0.296 N 
ATOM     10  H1  UNL     1       1.172  53.576 -23.326  1.00  0.00     0.187 HD
HETATM   11  N2  UNL     1      -0.385  52.306 -22.565  1.00  0.00    -0.255 N 
HETATM   12  C14 UNL     1      -1.381  51.535 -23.187  1.00  0.00     0.083 A 
HETATM   13  C21 UNL     1       0.174  53.391 -25.933  1.00  0.00     0.069 C 
ENDROOT
BRANCH  11  14
HETATM   14  C8  UNL     1      -0.051  52.461 -21.180  1.00  0.00     0.057 A 
HETATM   15  C9  UNL     1      -0.838  51.934 -20.150  1.00  0.00     0.034 A 
HETATM   16  C10 UNL     1      -0.466  52.114 -18.813  1.00  0.00     0.039 A 
HETATM   17  C11 UNL     1       0.682  52.829 -18.500  1.00  0.00     0.065 A 
HETATM   18  C12 UNL     1       1.468  53.381 -19.504  1.00  0.00     0.039 A 
HETATM   19  C13 UNL     1       1.098  53.202 -20.840  1.00  0.00     0.034 A 
BRANCH  17  20
HETATM   20  O2  UNL     1       1.000  52.978 -17.184  1.00  0.00    -0.361 OA
HETATM   21  H11 UNL     1       1.821  53.493 -17.119  1.00  0.00     0.217 HD
ENDBRANCH  17  20
ENDBRANCH  11  14
BRANCH  12  22
HETATM   22  C15 UNL     1      -2.198  50.499 -22.558  1.00  0.00    -0.005 A 
HETATM   23  C16 UNL     1      -1.691  49.206 -22.381  1.00  0.00     0.015 A 
HETATM   24  C17 UNL     1      -2.467  48.222 -21.762  1.00  0.00     0.026 A 
HETATM   25  C18 UNL     1      -3.753  48.524 -21.309  1.00  0.00     0.055 A 
HETATM   26 CL1  UNL     1      -4.659  47.258 -20.558  1.00  0.00    -0.083 Cl
HETATM   27  C19 UNL     1      -4.262  49.817 -21.472  1.00  0.00     0.056 A 
HETATM   28 CL2  UNL     1      -5.842  50.265 -20.934  1.00  0.00    -0.083 Cl
HETATM   29  C20 UNL     1      -3.484  50.801 -22.090  1.00  0.00     0.039 A 
ENDBRANCH  12  22
TORSDOF 3
ENDMDL
MODEL 3
REMARK minimizedAffinity -9.21884441
REMARK  3 active torsions:
REMARK  status: ('A' for Active; 'I' for Inactive)
REMARK    1  A    between atoms: N2_11  and  C8_12 
REMARK    2  A    between atoms: C11_15  and  O2_16 
REMARK    3  A    between atoms: C14_19  and  C15_20 
ROOT
HETATM    1  C1  UNL     1       0.222  50.779 -17.782  1.00  0.00     0.015 C 
HETATM    2  C2  UNL     1      -0.609  50.864 -19.075  1.00  0.00    -0.036 C 
HETATM    3  C3  UNL     1      -1.764  51.859 -18.834  1.00  0.00     0.015 C 
HETATM    4  C4  UNL     1      -1.182  49.454 -19.396  1.00  0.00     0.093 C 
HETATM    5  C5  UNL     1      -1.862  49.345 -20.762  1.00  0.00     0.164 C 
HETATM    6  O1  UNL     1      -2.758  48.530 -20.960  1.00  0.00    -0.292 OA
HETATM    7  C6  UNL     1      -1.327  50.205 -21.801  1.00  0.00     0.063 A 
HETATM    8  C7  UNL     1      -0.326  51.152 -21.555  1.00  0.00     0.043 A 
HETATM    9  N1  UNL     1      -0.025  51.868 -22.631  1.00  0.00    -0.296 N 
ATOM     10  H1  UNL     1       0.633  52.645 -22.696  1.00  0.00     0.187 HD
HETATM   11  N2  UNL     1      -0.790  51.337 -23.636  1.00  0.00    -0.255 N 
HETATM   12  C14 UNL     1      -1.672  50.364 -23.135  1.00  0.00     0.083 A 
HETATM   13  C21 UNL     1       0.309  51.371 -20.226  1.00  0.00     0.069 C 
ENDROOT
BRANCH  11  14
HETATM   14  C8  UNL     1      -0.584  51.814 -24.970  1.00  0.00     0.057 A 
HETATM   15  C9  UNL     1      -0.455  50.955 -26.068  1.00  0.00     0.034 A 
HETATM   16  C10 UNL     1      -0.254  51.474 -27.352  1.00  0.00     0.039 A 
HETATM   17  C11 UNL     1      -0.168  52.846 -27.543  1.00  0.00     0.065 A 
HETATM   18  C12 UNL     1      -0.271  53.718 -26.467  1.00  0.00     0.039 A 
HETATM   19  C13 UNL     1      -0.471  53.202 -25.183  1.00  0.00     0.034 A 
BRANCH  17  20
HETATM   20  O2  UNL     1       0.029  53.301 -28.812  1.00  0.00    -0.361 OA
HETATM   21  H11 UNL     1       0.065  54.272 -28.792  1.00  0.00     0.217 HD
ENDBRANCH  17  20
ENDBRANCH  11  14
BRANCH  12  22
HETATM   22  C15 UNL     1      -2.782  49.746 -23.856  1.00  0.00    -0.005 A 
HETATM   23  C16 UNL     1      -4.070  49.739 -23.305  1.00  0.00     0.015 A 
HETATM   24  C17 UNL     1      -5.134  49.164 -24.004  1.00  0.00     0.026 A 
HETATM   25  C18 UNL     1      -4.923  48.596 -25.263  1.00  0.00     0.055 A 
HETATM   26 CL1  UNL     1      -6.282  47.897 -26.069  1.00  0.00    -0.083 Cl
HETATM   27  C19 UNL     1      -3.641  48.609 -25.825  1.00  0.00     0.056 A 
HETATM   28 CL2  UNL     1      -3.304  47.930 -27.378  1.00  0.00    -0.083 Cl
HETATM   29  C20 UNL     1      -2.577  49.188 -25.125  1.00  0.00     0.039 A 
ENDBRANCH  12  22
TORSDOF 3
ENDMDL
MODEL 4
REMARK minimizedAffinity -9.12382603
REMARK  3 active torsions:
REMARK  status: ('A' for Active; 'I' for Inactive)
REMARK    1  A    between atoms: N2_11  and  C8_12 
REMARK    2  A    between atoms: C11_15  and  O2_16 
REMARK    3  A    between atoms: C14_19  and  C15_20 
ROOT
HETATM    1  C1  UNL     1      -0.063  53.493 -28.737  1.00  0.00     0.015 C 
HETATM    2  C2  UNL     1      -0.103  52.627 -27.466  1.00  0.00    -0.036 C 
HETATM    3  C3  UNL     1       0.995  51.549 -27.588  1.00  0.00     0.015 C 
HETATM    4  C4  UNL     1      -1.501  51.952 -27.364  1.00  0.00     0.093 C 
HETATM    5  C5  UNL     1      -1.754  51.220 -26.044  1.00  0.00     0.164 C 
HETATM    6  O1  UNL     1      -2.524  50.266 -25.986  1.00  0.00    -0.292 OA
HETATM    7  C6  UNL     1      -1.089  51.776 -24.880  1.00  0.00     0.063 A 
HETATM    8  C7  UNL     1      -0.189  52.846 -24.964  1.00  0.00     0.043 A 
HETATM    9  N1  UNL     1       0.344  53.157 -23.790  1.00  0.00    -0.296 N 
ATOM     10  H1  UNL     1       1.056  53.862 -23.599  1.00  0.00     0.187 HD
HETATM   11  N2  UNL     1      -0.268  52.326 -22.890  1.00  0.00    -0.255 N 
HETATM   12  C14 UNL     1      -1.096  51.398 -23.545  1.00  0.00     0.083 A 
HETATM   13  C21 UNL     1       0.170  53.538 -26.232  1.00  0.00     0.069 C 
ENDROOT
BRANCH  11  14
HETATM   14  C8  UNL     1      -0.001  52.519 -21.496  1.00  0.00     0.057 A 
HETATM   15  C9  UNL     1       1.260  52.887 -21.013  1.00  0.00     0.034 A 
HETATM   16  C10 UNL     1       1.467  53.061 -19.640  1.00  0.00     0.039 A 
HETATM   17  C11 UNL     1       0.425  52.857 -18.746  1.00  0.00     0.065 A 
HETATM   18  C12 UNL     1      -0.830  52.471 -19.200  1.00  0.00     0.039 A 
HETATM   19  C13 UNL     1      -1.039  52.296 -20.571  1.00  0.00     0.034 A 
BRANCH  17  20
HETATM   20  O2  UNL     1       0.678  53.039 -17.421  1.00  0.00    -0.361 OA
HETATM   21  H11 UNL     1      -0.138  52.866 -16.922  1.00  0.00     0.217 HD
ENDBRANCH  17  20
ENDBRANCH  11  14
BRANCH  12  22
HETATM   22  C15 UNL     1      -1.730  50.226 -22.947  1.00  0.00    -0.005 A 
HETATM   23  C16 UNL     1      -2.843  49.632 -23.556  1.00  0.00     0.015 A 
HETATM   24  C17 UNL     1      -3.437  48.500 -22.993  1.00  0.00     0.026 A 
HETATM   25  C18 UNL     1      -2.920  47.946 -21.819  1.00  0.00     0.055 A 
HETATM   26 CL1  UNL     1      -3.707  46.550 -21.175  1.00  0.00    -0.083 Cl
HETATM   27  C19 UNL     1      -1.801  48.526 -21.211  1.00  0.00     0.056 A 
HETATM   28 CL2  UNL     1      -1.104  47.896 -19.761  1.00  0.00    -0.083 Cl
HETATM   29  C20 UNL     1      -1.207  49.659 -21.777  1.00  0.00     0.039 A 
ENDBRANCH  12  22
TORSDOF 3
ENDMDL
MODEL 5
REMARK minimizedAffinity -9.0034399
REMARK  3 active torsions:
REMARK  status: ('A' for Active; 'I' for Inactive)
REMARK    1  A    between atoms: N2_11  and  C8_12 
REMARK    2  A    between atoms: C11_15  and  O2_16 
REMARK    3  A    between atoms: C14_19  and  C15_20 
ROOT
HETATM    1  C1  UNL     1      -6.816  47.257 -22.961  1.00  0.00     0.015 C 
HETATM    2  C2  UNL     1      -5.903  48.428 -23.367  1.00  0.00    -0.036 C 
HETATM    3  C3  UNL     1      -6.799  49.652 -23.655  1.00  0.00     0.015 C 
HETATM    4  C4  UNL     1      -5.120  48.030 -24.650  1.00  0.00     0.093 C 
HETATM    5  C5  UNL     1      -4.025  49.021 -25.054  1.00  0.00     0.164 C 
HETATM    6  O1  UNL     1      -3.681  49.141 -26.226  1.00  0.00    -0.292 OA
HETATM    7  C6  UNL     1      -3.389  49.733 -23.962  1.00  0.00     0.063 A 
HETATM    8  C7  UNL     1      -3.811  49.611 -22.633  1.00  0.00     0.043 A 
HETATM    9  N1  UNL     1      -3.128  50.392 -21.807  1.00  0.00    -0.296 N 
ATOM     10  H1  UNL     1      -3.277  50.516 -20.805  1.00  0.00     0.187 HD
HETATM   11  N2  UNL     1      -2.180  50.994 -22.589  1.00  0.00    -0.255 N 
HETATM   12  C14 UNL     1      -2.371  50.675 -23.945  1.00  0.00     0.083 A 
HETATM   13  C21 UNL     1      -4.931  48.735 -22.189  1.00  0.00     0.069 C 
ENDROOT
BRANCH  11  14
HETATM   14  C8  UNL     1      -1.185  51.803 -21.950  1.00  0.00     0.057 A 
HETATM   15  C9  UNL     1      -0.239  52.544 -22.668  1.00  0.00     0.034 A 
HETATM   16  C10 UNL     1       0.712  53.318 -21.993  1.00  0.00     0.039 A 
HETATM   17  C11 UNL     1       0.731  53.345 -20.606  1.00  0.00     0.065 A 
HETATM   18  C12 UNL     1      -0.183  52.600 -19.871  1.00  0.00     0.039 A 
HETATM   19  C13 UNL     1      -1.134  51.826 -20.543  1.00  0.00     0.034 A 
BRANCH  17  20
HETATM   20  O2  UNL     1       1.677  54.112 -19.997  1.00  0.00    -0.361 OA
HETATM   21  H11 UNL     1       1.567  54.036 -19.035  1.00  0.00     0.217 HD
ENDBRANCH  17  20
ENDBRANCH  11  14
BRANCH  12  22
HETATM   22  C15 UNL     1      -1.704  51.298 -25.086  1.00  0.00    -0.005 A 
HETATM   23  C16 UNL     1      -2.393  52.203 -25.904  1.00  0.00     0.015 A 
HETATM   24  C17 UNL     1      -1.748  52.812 -26.983  1.00  0.00     0.026 A 
HETATM   25  C18 UNL     1      -0.406  52.528 -27.251  1.00  0.00     0.055 A 
HETATM   26 CL1  UNL     1       0.326  53.312 -28.605  1.00  0.00    -0.083 Cl
HETATM   27  C19 UNL     1       0.292  51.634 -26.432  1.00  0.00     0.056 A 
HETATM   28 CL2  UNL     1       1.952  51.236 -26.700  1.00  0.00    -0.083 Cl
HETATM   29  C20 UNL     1      -0.355  51.026 -25.350  1.00  0.00     0.039 A 
ENDBRANCH  12  22
TORSDOF 3
ENDMDL
MODEL 6
REMARK minimizedAffinity -8.71446037
REMARK  3 active torsions:
REMARK  status: ('A' for Active; 'I' for Inactive)
REMARK    1  A    between atoms: N2_11  and  C8_12 
REMARK    2  A    between atoms: C11_15  and  O2_16 
REMARK    3  A    between atoms: C14_19  and  C15_20 
ROOT
HETATM    1  C1  UNL     1      -0.150  49.549 -14.169  1.00  0.00     0.015 C 
HETATM    2  C2  UNL     1      -0.711  49.924 -15.553  1.00  0.00    -0.036 C 
HETATM    3  C3  UNL     1      -2.000  50.744 -15.339  1.00  0.00     0.015 C 
HETATM    4  C4  UNL     1      -1.036  48.617 -16.331  1.00  0.00     0.093 C 
HETATM    5  C5  UNL     1      -1.413  48.833 -17.799  1.00  0.00     0.164 C 
HETATM    6  O1  UNL     1      -2.148  48.045 -18.386  1.00  0.00    -0.292 OA
HETATM    7  C6  UNL     1      -0.787  49.970 -18.446  1.00  0.00     0.063 A 
HETATM    8  C7  UNL     1       0.025  50.879 -17.758  1.00  0.00     0.043 A 
HETATM    9  N1  UNL     1       0.447  51.873 -18.528  1.00  0.00    -0.296 N 
ATOM     10  H1  UNL     1       1.007  52.679 -18.251  1.00  0.00     0.187 HD
HETATM   11  N2  UNL     1      -0.033  51.582 -19.777  1.00  0.00    -0.255 N 
HETATM   12  C14 UNL     1      -0.876  50.458 -19.743  1.00  0.00     0.083 A 
HETATM   13  C21 UNL     1       0.352  50.776 -16.308  1.00  0.00     0.069 C 
ENDROOT
BRANCH  11  14
HETATM   14  C8  UNL     1       0.377  52.409 -20.873  1.00  0.00     0.057 A 
HETATM   15  C9  UNL     1       0.141  52.065 -22.209  1.00  0.00     0.034 A 
HETATM   16  C10 UNL     1       0.564  52.910 -23.241  1.00  0.00     0.039 A 
HETATM   17  C11 UNL     1       1.231  54.090 -22.946  1.00  0.00     0.065 A 
HETATM   18  C12 UNL     1       1.496  54.444 -21.629  1.00  0.00     0.039 A 
HETATM   19  C13 UNL     1       1.075  53.601 -20.596  1.00  0.00     0.034 A 
BRANCH  17  20
HETATM   20  O2  UNL     1       1.623  54.877 -23.987  1.00  0.00    -0.361 OA
HETATM   21  H11 UNL     1       2.070  55.663 -23.631  1.00  0.00     0.217 HD
ENDBRANCH  17  20
ENDBRANCH  11  14
BRANCH  12  22
HETATM   22  C15 UNL     1      -1.738  49.985 -20.823  1.00  0.00    -0.005 A 
HETATM   23  C16 UNL     1      -1.395  48.843 -21.558  1.00  0.00     0.015 A 
HETATM   24  C17 UNL     1      -2.231  48.382 -22.578  1.00  0.00     0.026 A 
HETATM   25  C18 UNL     1      -3.422  49.053 -22.868  1.00  0.00     0.055 A 
HETATM   26 CL1  UNL     1      -4.404  48.431 -24.145  1.00  0.00    -0.083 Cl
HETATM   27  C19 UNL     1      -3.778  50.188 -22.130  1.00  0.00     0.056 A 
HETATM   28 CL2  UNL     1      -5.235  51.067 -22.429  1.00  0.00    -0.083 Cl
HETATM   29  C20 UNL     1      -2.940  50.647 -21.108  1.00  0.00     0.039 A 
ENDBRANCH  12  22
TORSDOF 3
ENDMDL
MODEL 7
REMARK minimizedAffinity -8.57850075
REMARK  3 active torsions:
REMARK  status: ('A' for Active; 'I' for Inactive)
REMARK    1  A    between atoms: N2_11  and  C8_12 
REMARK    2  A    between atoms: C11_15  and  O2_16 
REMARK    3  A    between atoms: C14_19  and  C15_20 
ROOT
HETATM    1  C1  UNL     1      -7.615  48.723 -23.571  1.00  0.00     0.015 C 
HETATM    2  C2  UNL     1      -6.143  48.911 -23.159  1.00  0.00    -0.036 C 
HETATM    3  C3  UNL     1      -5.570  47.525 -22.791  1.00  0.00     0.015 C 
HETATM    4  C4  UNL     1      -6.085  49.854 -21.924  1.00  0.00     0.093 C 
HETATM    5  C5  UNL     1      -4.673  50.291 -21.529  1.00  0.00     0.164 C 
HETATM    6  O1  UNL     1      -4.402  50.585 -20.369  1.00  0.00    -0.292 OA
HETATM    7  C6  UNL     1      -3.723  50.404 -22.620  1.00  0.00     0.063 A 
HETATM    8  C7  UNL     1      -4.035  50.037 -23.935  1.00  0.00     0.043 A 
HETATM    9  N1  UNL     1      -3.004  50.167 -24.759  1.00  0.00    -0.296 N 
ATOM     10  H1  UNL     1      -2.966  49.922 -25.749  1.00  0.00     0.187 HD
HETATM   11  N2  UNL     1      -2.003  50.703 -23.995  1.00  0.00    -0.255 N 
HETATM   12  C14 UNL     1      -2.387  50.779 -22.645  1.00  0.00     0.083 A 
HETATM   13  C21 UNL     1      -5.362  49.515 -24.364  1.00  0.00     0.069 C 
ENDROOT
BRANCH  11  14
HETATM   14  C8  UNL     1      -0.787  51.094 -24.644  1.00  0.00     0.057 A 
HETATM   15  C9  UNL     1       0.077  52.058 -24.111  1.00  0.00     0.034 A 
HETATM   16  C10 UNL     1       1.252  52.404 -24.787  1.00  0.00     0.039 A 
HETATM   17  C11 UNL     1       1.562  51.802 -25.999  1.00  0.00     0.065 A 
HETATM   18  C12 UNL     1       0.710  50.858 -26.558  1.00  0.00     0.039 A 
HETATM   19  C13 UNL     1      -0.465  50.511 -25.885  1.00  0.00     0.034 A 
BRANCH  17  20
HETATM   20  O2  UNL     1       2.717  52.174 -26.618  1.00  0.00    -0.361 OA
HETATM   21  H11 UNL     1       2.802  51.672 -27.445  1.00  0.00     0.217 HD
ENDBRANCH  17  20
ENDBRANCH  11  14
BRANCH  12  22
HETATM   22  C15 UNL     1      -1.519  51.083 -21.510  1.00  0.00    -0.005 A 
HETATM   23  C16 UNL     1      -1.152  50.078 -20.607  1.00  0.00     0.015 A 
HETATM   24  C17 UNL     1      -0.306  50.367 -19.533  1.00  0.00     0.026 A 
HETATM   25  C18 UNL     1       0.187  51.662 -19.356  1.00  0.00     0.055 A 
HETATM   26 CL1  UNL     1       1.223  51.950 -18.004  1.00  0.00    -0.083 Cl
HETATM   27  C19 UNL     1      -0.166  52.670 -20.260  1.00  0.00     0.056 A 
HETATM   28 CL2  UNL     1       0.406  54.293 -20.107  1.00  0.00    -0.083 Cl
HETATM   29  C20 UNL     1      -1.012  52.378 -21.336  1.00  0.00     0.039 A 
ENDBRANCH  12  22
TORSDOF 3
ENDMDL
MODEL 8
REMARK minimizedAffinity -8.47127724
REMARK  3 active torsions:
REMARK  status: ('A' for Active; 'I' for Inactive)
REMARK    1  A    between atoms: N2_11  and  C8_12 
REMARK    2  A    between atoms: C11_15  and  O2_16 
REMARK    3  A    between atoms: C14_19  and  C15_20 
ROOT
HETATM    1  C1  UNL     1      -6.402  46.358 -19.749  1.00  0.00     0.015 C 
HETATM    2  C2  UNL     1      -5.791  47.582 -20.456  1.00  0.00    -0.036 C 
HETATM    3  C3  UNL     1      -6.868  48.687 -20.511  1.00  0.00     0.015 C 
HETATM    4  C4  UNL     1      -5.376  47.173 -21.897  1.00  0.00     0.093 C 
HETATM    5  C5  UNL     1      -4.571  48.235 -22.649  1.00  0.00     0.164 C 
HETATM    6  O1  UNL     1      -4.602  48.304 -23.874  1.00  0.00    -0.292 OA
HETATM    7  C6  UNL     1      -3.731  49.084 -21.826  1.00  0.00     0.063 A 
HETATM    8  C7  UNL     1      -3.728  49.017 -20.427  1.00  0.00     0.043 A 
HETATM    9  N1  UNL     1      -2.929  49.920 -19.874  1.00  0.00    -0.296 N 
ATOM     10  H1  UNL     1      -2.792  50.101 -18.880  1.00  0.00     0.187 HD
HETATM   11  N2  UNL     1      -2.328  50.555 -20.928  1.00  0.00    -0.255 N 
HETATM   12  C14 UNL     1      -2.869  50.122 -22.150  1.00  0.00     0.083 A 
HETATM   13  C21 UNL     1      -4.560  48.069 -19.635  1.00  0.00     0.069 C 
ENDROOT
BRANCH  11  14
HETATM   14  C8  UNL     1      -1.291  51.503 -20.647  1.00  0.00     0.057 A 
HETATM   15  C9  UNL     1      -1.082  52.038 -19.372  1.00  0.00     0.034 A 
HETATM   16  C10 UNL     1      -0.054  52.962 -19.153  1.00  0.00     0.039 A 
HETATM   17  C11 UNL     1       0.758  53.363 -20.205  1.00  0.00     0.065 A 
HETATM   18  C12 UNL     1       0.556  52.863 -21.485  1.00  0.00     0.039 A 
HETATM   19  C13 UNL     1      -0.470  51.940 -21.706  1.00  0.00     0.034 A 
BRANCH  17  20
HETATM   20  O2  UNL     1       1.743  54.265 -19.940  1.00  0.00    -0.361 OA
HETATM   21  H11 UNL     1       2.227  54.448 -20.763  1.00  0.00     0.217 HD
ENDBRANCH  17  20
ENDBRANCH  11  14
BRANCH  12  22
HETATM   22  C15 UNL     1      -2.642  50.724 -23.462  1.00  0.00    -0.005 A 
HETATM   23  C16 UNL     1      -3.529  51.684 -23.966  1.00  0.00     0.015 A 
HETATM   24  C17 UNL     1      -3.301  52.272 -25.212  1.00  0.00     0.026 A 
HETATM   25  C18 UNL     1      -2.179  51.912 -25.964  1.00  0.00     0.055 A 
HETATM   26 CL1  UNL     1      -1.962  52.675 -27.499  1.00  0.00    -0.083 Cl
HETATM   27  C19 UNL     1      -1.283  50.962 -25.463  1.00  0.00     0.056 A 
HETATM   28 CL2  UNL     1       0.126  50.469 -26.334  1.00  0.00    -0.083 Cl
HETATM   29  C20 UNL     1      -1.512  50.375 -24.214  1.00  0.00     0.039 A 
ENDBRANCH  12  22
TORSDOF 3
ENDMDL
MODEL 9
REMARK minimizedAffinity -8.46137333
REMARK  3 active torsions:
REMARK  status: ('A' for Active; 'I' for Inactive)
REMARK    1  A    between atoms: N2_11  and  C8_12 
REMARK    2  A    between atoms: C11_15  and  O2_16 
REMARK    3  A    between atoms: C14_19  and  C15_20 
ROOT
HETATM    1  C1  UNL     1       1.676  52.723 -17.706  1.00  0.00     0.015 C 
HETATM    2  C2  UNL     1       0.646  52.740 -18.851  1.00  0.00    -0.036 C 
HETATM    3  C3  UNL     1      -0.126  54.075 -18.778  1.00  0.00     0.015 C 
HETATM    4  C4  UNL     1      -0.334  51.548 -18.659  1.00  0.00     0.093 C 
HETATM    5  C5  UNL     1      -1.289  51.321 -19.833  1.00  0.00     0.164 C 
HETATM    6  O1  UNL     1      -2.391  50.807 -19.663  1.00  0.00    -0.292 OA
HETATM    7  C6  UNL     1      -0.773  51.681 -21.140  1.00  0.00     0.063 A 
HETATM    8  C7  UNL     1       0.472  52.296 -21.318  1.00  0.00     0.043 A 
HETATM    9  N1  UNL     1       0.720  52.589 -22.587  1.00  0.00    -0.296 N 
ATOM     10  H1  UNL     1       1.533  53.077 -22.964  1.00  0.00     0.187 HD
HETATM   11  N2  UNL     1      -0.350  52.092 -23.283  1.00  0.00    -0.255 N 
HETATM   12  C14 UNL     1      -1.335  51.603 -22.407  1.00  0.00     0.083 A 
HETATM   13  C21 UNL     1       1.406  52.629 -20.206  1.00  0.00     0.069 C 
ENDROOT
BRANCH  11  14
HETATM   14  C8  UNL     1      -0.308  52.131 -24.714  1.00  0.00     0.057 A 
HETATM   15  C9  UNL     1      -0.181  53.324 -25.434  1.00  0.00     0.034 A 
HETATM   16  C10 UNL     1      -0.146  53.305 -26.832  1.00  0.00     0.039 A 
HETATM   17  C11 UNL     1      -0.249  52.102 -27.516  1.00  0.00     0.065 A 
HETATM   18  C12 UNL     1      -0.398  50.906 -26.825  1.00  0.00     0.039 A 
HETATM   19  C13 UNL     1      -0.434  50.922 -25.427  1.00  0.00     0.034 A 
BRANCH  17  20
HETATM   20  O2  UNL     1      -0.211  52.137 -28.877  1.00  0.00    -0.361 OA
HETATM   21  H11 UNL     1      -0.291  51.230 -29.214  1.00  0.00     0.217 HD
ENDBRANCH  17  20
ENDBRANCH  11  14
BRANCH  12  22
HETATM   22  C15 UNL     1      -2.694  51.206 -22.764  1.00  0.00    -0.005 A 
HETATM   23  C16 UNL     1      -3.633  52.166 -23.162  1.00  0.00     0.015 A 
HETATM   24  C17 UNL     1      -4.928  51.782 -23.521  1.00  0.00     0.026 A 
HETATM   25  C18 UNL     1      -5.294  50.433 -23.492  1.00  0.00     0.055 A 
HETATM   26 CL1  UNL     1      -6.912  50.030 -23.943  1.00  0.00    -0.083 Cl
HETATM   27  C19 UNL     1      -4.358  49.467 -23.106  1.00  0.00     0.056 A 
HETATM   28 CL2  UNL     1      -4.738  47.782 -23.049  1.00  0.00    -0.083 Cl
HETATM   29  C20 UNL     1      -3.062  49.853 -22.749  1.00  0.00     0.039 A 
ENDBRANCH  12  22
TORSDOF 3
ENDMDL
