MODEL 1
REMARK minimizedAffinity -8.36948109
REMARK CNNscore 0.364691794
REMARK CNNaffinity 6.46306086
REMARK  7 active torsions:
REMARK  status: ('A' for Active; 'I' for Inactive)
REMARK    1  A    between atoms: O1_2  and  C2_3 
REMARK    2  A    between atoms: C2_3  and  C3_4 
REMARK       I    between atoms: C3_4  and  N1_6 
REMARK    3  A    between atoms: C7_10  and  C8_11 
REMARK    4  A    between atoms: C13_18  and  C14_19 
REMARK       I    between atoms: C14_19  and  N3_21 
REMARK    5  A    between atoms: N3_21  and  C15_22 
REMARK    6  A    between atoms: C17_24  and  C18_25 
REMARK    7  A    between atoms: C24_37  and  N5_38 
ROOT
HETATM    1  C8  UNL     1      -6.887  49.523 -10.388  1.00  0.00     0.094 A 
HETATM    2  N2  UNL     1      -6.284  50.670 -10.124  1.00  0.00    -0.342 N 
ATOM      3  H2  UNL     1      -6.690  51.487  -9.669  1.00  0.00     0.167 HD
HETATM    4  C9  UNL     1      -4.998  50.533 -10.590  1.00  0.00     0.077 A 
HETATM    5  C10 UNL     1      -4.015  51.579 -10.446  1.00  0.00     0.032 A 
HETATM    6  C11 UNL     1      -4.159  52.769 -11.170  1.00  0.00     0.018 A 
HETATM    7  C12 UNL     1      -3.218  53.795 -11.031  1.00  0.00     0.018 A 
HETATM    8  C13 UNL     1      -2.140  53.651 -10.144  1.00  0.00     0.035 A 
HETATM    9  C21 UNL     1      -1.996  52.456  -9.426  1.00  0.00     0.060 A 
HETATM   10  C22 UNL     1      -2.932  51.436  -9.577  1.00  0.00     0.130 A 
HETATM   11  F4  UNL     1      -2.779  50.314  -8.856  1.00  0.00    -0.205 F 
HETATM   12  C23 UNL     1      -4.827  49.313 -11.203  1.00  0.00     0.106 A 
HETATM   13  C24 UNL     1      -3.753  48.635 -11.890  1.00  0.00     0.107 A 
HETATM   14  N6  UNL     1      -3.928  47.412 -12.336  1.00  0.00    -0.354 N 
ATOM     15  H6  UNL     1      -3.176  46.928 -12.828  1.00  0.00     0.166 HD
HETATM   16  C25 UNL     1      -5.143  46.791 -12.131  1.00  0.00     0.107 A 
HETATM   17  C26 UNL     1      -6.185  47.370 -11.516  1.00  0.00     0.116 A 
HETATM   18  N7  UNL     1      -6.030  48.662 -11.047  1.00  0.00    -0.305 N 
ENDROOT
BRANCH   1  19
HETATM   19  C7  UNL     1      -8.293  49.158  -9.991  1.00  0.00     0.072 C 
HETATM   20  C6  UNL     1      -8.464  49.115  -8.454  1.00  0.00     0.015 C 
HETATM   21  C5  UNL     1      -8.511  47.683  -7.923  1.00  0.00     0.021 C 
HETATM   22  C4  UNL     1      -9.670  46.915  -8.560  1.00  0.00     0.126 C 
HETATM   23  N1  UNL     1      -9.811  47.186  -9.991  1.00  0.00    -0.350 N 
HETATM   24  C3  UNL     1     -10.907  46.791 -10.756  1.00  0.00     0.243 C 
HETATM   25  C27 UNL     1      -8.670  47.816 -10.650  1.00  0.00     0.138 C 
HETATM   26  O2  UNL     1     -11.001  47.081 -11.950  1.00  0.00    -0.271 OA
BRANCH  24  27
HETATM   27  C2  UNL     1     -12.000  45.972 -10.031  1.00  0.00     0.269 C 
BRANCH  27  28
HETATM   28  O1  UNL     1     -13.113  46.684  -9.511  1.00  0.00    -0.387 OA
HETATM   29  C1  UNL     1     -14.131  46.899 -10.479  1.00  0.00     0.202 C 
ENDBRANCH  27  28
ENDBRANCH  24  27
ENDBRANCH   1  19
BRANCH  13  30
HETATM   30  N5  UNL     1      -2.533  49.195 -12.143  1.00  0.00    -0.287 NA
HETATM   31  H20 UNL     1      -2.013  48.659 -12.829  1.00  0.00     0.125 HD
HETATM   32  H21 UNL     1      -2.526  50.191 -12.319  1.00  0.00     0.125 HD
ENDBRANCH  13  30
BRANCH   8  33
HETATM   33  C14 UNL     1      -1.116  54.720  -9.936  1.00  0.00     0.257 C 
HETATM   34  O3  UNL     1      -1.503  55.869  -9.744  1.00  0.00    -0.267 OA
HETATM   35  N3  UNL     1       0.195  54.320 -10.025  1.00  0.00    -0.309 N 
HETATM   36  H15 UNL     1       0.428  53.384 -10.328  1.00  0.00     0.170 HD
BRANCH  35  37
HETATM   37  C15 UNL     1       1.347  55.089  -9.853  1.00  0.00     0.108 A 
HETATM   38  C16 UNL     1       1.692  55.738  -8.676  1.00  0.00     0.064 A 
HETATM   39  C17 UNL     1       2.884  56.476  -8.628  1.00  0.00     0.052 A 
HETATM   40  C19 UNL     1       3.679  56.537  -9.774  1.00  0.00     0.033 A 
HETATM   41  C20 UNL     1       3.257  55.859 -10.904  1.00  0.00     0.090 A 
HETATM   42  N4  UNL     1       2.118  55.138 -10.961  1.00  0.00    -0.352 N 
ATOM     43  H4  UNL     1       1.848  54.645 -11.812  1.00  0.00     0.166 HD
BRANCH  39  44
HETATM   44  C18 UNL     1       3.285  57.226  -7.386  1.00  0.00     0.417 C 
HETATM   45  F1  UNL     1       4.528  57.772  -7.498  1.00  0.00    -0.166 F 
HETATM   46  F2  UNL     1       3.328  56.422  -6.286  1.00  0.00    -0.166 F 
HETATM   47  F3  UNL     1       2.449  58.251  -7.066  1.00  0.00    -0.166 F 
ENDBRANCH  39  44
ENDBRANCH  35  37
ENDBRANCH   8  33
TORSDOF 7
ENDMDL
MODEL 2
REMARK minimizedAffinity -9.86577511
REMARK CNNscore 0.192670614
REMARK CNNaffinity 7.24989462
REMARK  7 active torsions:
REMARK  status: ('A' for Active; 'I' for Inactive)
REMARK    1  A    between atoms: O1_2  and  C2_3 
REMARK    2  A    between atoms: C2_3  and  C3_4 
REMARK       I    between atoms: C3_4  and  N1_6 
REMARK    3  A    between atoms: C7_10  and  C8_11 
REMARK    4  A    between atoms: C13_18  and  C14_19 
REMARK       I    between atoms: C14_19  and  N3_21 
REMARK    5  A    between atoms: N3_21  and  C15_22 
REMARK    6  A    between atoms: C17_24  and  C18_25 
REMARK    7  A    between atoms: C24_37  and  N5_38 
ROOT
HETATM    1  C8  UNL     1      -1.027  51.308 -23.208  1.00  0.00     0.094 A 
HETATM    2  N2  UNL     1      -1.598  50.803 -22.127  1.00  0.00    -0.342 N 
ATOM      3  H2  UNL     1      -2.273  50.040 -22.088  1.00  0.00     0.167 HD
HETATM    4  C9  UNL     1      -1.093  51.519 -21.067  1.00  0.00     0.077 A 
HETATM    5  C10 UNL     1      -1.460  51.229 -19.703  1.00  0.00     0.032 A 
HETATM    6  C11 UNL     1      -2.765  51.488 -19.267  1.00  0.00     0.018 A 
HETATM    7  C12 UNL     1      -3.136  51.201 -17.948  1.00  0.00     0.018 A 
HETATM    8  C13 UNL     1      -2.211  50.626 -17.062  1.00  0.00     0.035 A 
HETATM    9  C21 UNL     1      -0.905  50.374 -17.502  1.00  0.00     0.060 A 
HETATM   10  C22 UNL     1      -0.542  50.671 -18.812  1.00  0.00     0.130 A 
HETATM   11  F4  UNL     1       0.711  50.395 -19.209  1.00  0.00    -0.205 F 
HETATM   12  C23 UNL     1      -0.251  52.515 -21.506  1.00  0.00     0.106 A 
HETATM   13  C24 UNL     1       0.518  53.572 -20.893  1.00  0.00     0.107 A 
HETATM   14  N6  UNL     1       1.272  54.350 -21.635  1.00  0.00    -0.354 N 
ATOM     15  H6  UNL     1       1.815  55.103 -21.211  1.00  0.00     0.166 HD
HETATM   16  C25 UNL     1       1.321  54.135 -22.998  1.00  0.00     0.107 A 
HETATM   17  C26 UNL     1       0.618  53.184 -23.631  1.00  0.00     0.116 A 
HETATM   18  N7  UNL     1      -0.192  52.358 -22.873  1.00  0.00    -0.305 N 
ENDROOT
BRANCH   1  19
HETATM   19  C7  UNL     1      -1.199  50.797 -24.614  1.00  0.00     0.072 C 
HETATM   20  C6  UNL     1      -0.732  51.832 -25.664  1.00  0.00     0.015 C 
HETATM   21  C5  UNL     1      -1.910  52.529 -26.343  1.00  0.00     0.021 C 
HETATM   22  C4  UNL     1      -2.808  51.505 -27.039  1.00  0.00     0.126 C 
HETATM   23  N1  UNL     1      -3.015  50.297 -26.240  1.00  0.00    -0.350 N 
HETATM   24  C3  UNL     1      -3.604  49.131 -26.726  1.00  0.00     0.243 C 
HETATM   25  C27 UNL     1      -2.670  50.386 -24.824  1.00  0.00     0.138 C 
HETATM   26  O2  UNL     1      -3.717  48.123 -26.026  1.00  0.00    -0.271 OA
BRANCH  24  27
HETATM   27  C2  UNL     1      -4.107  49.166 -28.187  1.00  0.00     0.269 C 
BRANCH  27  28
HETATM   28  O1  UNL     1      -4.447  47.926 -28.791  1.00  0.00    -0.387 OA
HETATM   29  C1  UNL     1      -5.845  47.671 -28.779  1.00  0.00     0.202 C 
ENDBRANCH  27  28
ENDBRANCH  24  27
ENDBRANCH   1  19
BRANCH  13  30
HETATM   30  N5  UNL     1       0.504  53.852 -19.556  1.00  0.00    -0.287 NA
HETATM   31  H20 UNL     1       0.915  54.759 -19.362  1.00  0.00     0.125 HD
HETATM   32  H21 UNL     1      -0.371  53.693 -19.075  1.00  0.00     0.125 HD
ENDBRANCH  13  30
BRANCH   8  33
HETATM   33  C14 UNL     1      -2.555  50.275 -15.650  1.00  0.00     0.257 C 
HETATM   34  O3  UNL     1      -2.600  49.089 -15.338  1.00  0.00    -0.267 OA
HETATM   35  N3  UNL     1      -2.841  51.335 -14.823  1.00  0.00    -0.309 N 
HETATM   36  H15 UNL     1      -2.921  52.270 -15.195  1.00  0.00     0.170 HD
BRANCH  35  37
HETATM   37  C15 UNL     1      -3.167  51.308 -13.466  1.00  0.00     0.108 A 
HETATM   38  C16 UNL     1      -3.065  52.395 -12.610  1.00  0.00     0.064 A 
HETATM   39  C17 UNL     1      -3.432  52.241 -11.265  1.00  0.00     0.052 A 
HETATM   40  C19 UNL     1      -3.880  50.991 -10.833  1.00  0.00     0.033 A 
HETATM   41  C20 UNL     1      -3.948  49.962 -11.756  1.00  0.00     0.090 A 
HETATM   42  N4  UNL     1      -3.608  50.100 -13.055  1.00  0.00    -0.352 N 
ATOM     43  H4  UNL     1      -3.683  49.317 -13.705  1.00  0.00     0.166 HD
BRANCH  39  44
HETATM   44  C18 UNL     1      -3.308  53.380 -10.289  1.00  0.00     0.417 C 
HETATM   45  F1  UNL     1      -4.493  54.025 -10.103  1.00  0.00    -0.166 F 
HETATM   46  F2  UNL     1      -2.428  54.332 -10.712  1.00  0.00    -0.166 F 
HETATM   47  F3  UNL     1      -2.884  53.004  -9.053  1.00  0.00    -0.166 F 
ENDBRANCH  39  44
ENDBRANCH  35  37
ENDBRANCH   8  33
TORSDOF 7
ENDMDL
MODEL 3
REMARK minimizedAffinity -9.70549393
REMARK CNNscore 0.107384793
REMARK CNNaffinity 7.0145874
REMARK  7 active torsions:
REMARK  status: ('A' for Active; 'I' for Inactive)
REMARK    1  A    between atoms: O1_2  and  C2_3 
REMARK    2  A    between atoms: C2_3  and  C3_4 
REMARK       I    between atoms: C3_4  and  N1_6 
REMARK    3  A    between atoms: C7_10  and  C8_11 
REMARK    4  A    between atoms: C13_18  and  C14_19 
REMARK       I    between atoms: C14_19  and  N3_21 
REMARK    5  A    between atoms: N3_21  and  C15_22 
REMARK    6  A    between atoms: C17_24  and  C18_25 
REMARK    7  A    between atoms: C24_37  and  N5_38 
ROOT
HETATM    1  C8  UNL     1      -0.034  51.234 -21.523  1.00  0.00     0.094 A 
HETATM    2  N2  UNL     1      -0.765  50.570 -22.401  1.00  0.00    -0.342 N 
ATOM      3  H2  UNL     1      -1.217  49.666 -22.267  1.00  0.00     0.167 HD
HETATM    4  C9  UNL     1      -0.792  51.350 -23.533  1.00  0.00     0.077 A 
HETATM    5  C10 UNL     1      -1.532  50.968 -24.711  1.00  0.00     0.032 A 
HETATM    6  C11 UNL     1      -1.109  49.869 -25.468  1.00  0.00     0.018 A 
HETATM    7  C12 UNL     1      -1.826  49.482 -26.606  1.00  0.00     0.018 A 
HETATM    8  C13 UNL     1      -2.988  50.174 -26.980  1.00  0.00     0.035 A 
HETATM    9  C21 UNL     1      -3.405  51.277 -26.222  1.00  0.00     0.060 A 
HETATM   10  C22 UNL     1      -2.681  51.661 -25.096  1.00  0.00     0.130 A 
HETATM   11  F4  UNL     1      -3.120  52.707 -24.378  1.00  0.00    -0.205 F 
HETATM   12  C23 UNL     1      -0.017  52.475 -23.370  1.00  0.00     0.106 A 
HETATM   13  C24 UNL     1       0.362  53.605 -24.186  1.00  0.00     0.107 A 
HETATM   14  N6  UNL     1       1.116  54.555 -23.682  1.00  0.00    -0.354 N 
ATOM     15  H6  UNL     1       1.393  55.354 -24.253  1.00  0.00     0.166 HD
HETATM   16  C25 UNL     1       1.529  54.458 -22.368  1.00  0.00     0.107 A 
HETATM   17  C26 UNL     1       1.227  53.428 -21.563  1.00  0.00     0.116 A 
HETATM   18  N7  UNL     1       0.443  52.409 -22.073  1.00  0.00    -0.305 N 
ENDROOT
BRANCH   1  19
HETATM   19  C7  UNL     1       0.217  50.821 -20.096  1.00  0.00     0.072 C 
HETATM   20  C6  UNL     1      -0.851  49.823 -19.590  1.00  0.00     0.015 C 
HETATM   21  C5  UNL     1      -1.861  50.490 -18.658  1.00  0.00     0.021 C 
HETATM   22  C4  UNL     1      -1.151  51.095 -17.446  1.00  0.00     0.126 C 
HETATM   23  N1  UNL     1       0.098  51.770 -17.799  1.00  0.00    -0.350 N 
HETATM   24  C3  UNL     1       1.038  52.209 -16.869  1.00  0.00     0.243 C 
HETATM   25  C27 UNL     1       0.292  52.082 -19.212  1.00  0.00     0.138 C 
HETATM   26  O2  UNL     1       2.097  52.734 -17.217  1.00  0.00    -0.271 OA
BRANCH  24  27
HETATM   27  C2  UNL     1       0.686  52.004 -15.378  1.00  0.00     0.269 C 
BRANCH  27  28
HETATM   28  O1  UNL     1       1.059  50.770 -14.781  1.00  0.00    -0.387 OA
HETATM   29  C1  UNL     1       0.110  50.310 -13.829  1.00  0.00     0.202 C 
ENDBRANCH  27  28
ENDBRANCH  24  27
ENDBRANCH   1  19
BRANCH  13  30
HETATM   30  N5  UNL     1       0.004  53.758 -25.495  1.00  0.00    -0.287 NA
HETATM   31  H20 UNL     1       0.554  54.479 -25.949  1.00  0.00     0.125 HD
HETATM   32  H21 UNL     1      -0.075  52.908 -26.039  1.00  0.00     0.125 HD
ENDBRANCH  13  30
BRANCH   8  33
HETATM   33  C14 UNL     1      -3.808  49.793 -28.171  1.00  0.00     0.257 C 
HETATM   34  O3  UNL     1      -3.661  50.432 -29.209  1.00  0.00    -0.267 OA
HETATM   35  N3  UNL     1      -4.705  48.770 -27.979  1.00  0.00    -0.309 N 
HETATM   36  H15 UNL     1      -4.864  48.393 -27.055  1.00  0.00     0.170 HD
BRANCH  35  37
HETATM   37  C15 UNL     1      -5.573  48.196 -28.909  1.00  0.00     0.108 A 
HETATM   38  C16 UNL     1      -5.169  47.438 -29.999  1.00  0.00     0.064 A 
HETATM   39  C17 UNL     1      -6.142  46.908 -30.859  1.00  0.00     0.052 A 
HETATM   40  C19 UNL     1      -7.487  47.170 -30.589  1.00  0.00     0.033 A 
HETATM   41  C20 UNL     1      -7.798  47.937 -29.479  1.00  0.00     0.090 A 
HETATM   42  N4  UNL     1      -6.872  48.444 -28.639  1.00  0.00    -0.352 N 
ATOM     43  H4  UNL     1      -7.145  48.996 -27.826  1.00  0.00     0.166 HD
BRANCH  39  44
HETATM   44  C18 UNL     1      -5.755  46.108 -32.074  1.00  0.00     0.417 C 
HETATM   45  F1  UNL     1      -6.805  45.929 -32.923  1.00  0.00    -0.166 F 
HETATM   46  F2  UNL     1      -5.316  44.858 -31.754  1.00  0.00    -0.166 F 
HETATM   47  F3  UNL     1      -4.763  46.674 -32.813  1.00  0.00    -0.166 F 
ENDBRANCH  39  44
ENDBRANCH  35  37
ENDBRANCH   8  33
TORSDOF 7
ENDMDL
MODEL 4
REMARK minimizedAffinity -8.52419281
REMARK CNNscore 0.0995373428
REMARK CNNaffinity 6.0280509
REMARK  7 active torsions:
REMARK  status: ('A' for Active; 'I' for Inactive)
REMARK    1  A    between atoms: O1_2  and  C2_3 
REMARK    2  A    between atoms: C2_3  and  C3_4 
REMARK       I    between atoms: C3_4  and  N1_6 
REMARK    3  A    between atoms: C7_10  and  C8_11 
REMARK    4  A    between atoms: C13_18  and  C14_19 
REMARK       I    between atoms: C14_19  and  N3_21 
REMARK    5  A    between atoms: N3_21  and  C15_22 
REMARK    6  A    between atoms: C17_24  and  C18_25 
REMARK    7  A    between atoms: C24_37  and  N5_38 
ROOT
HETATM    1  C8  UNL     1      -6.302  48.954  -9.992  1.00  0.00     0.094 A 
HETATM    2  N2  UNL     1      -5.707  50.089  -9.669  1.00  0.00    -0.342 N 
ATOM      3  H2  UNL     1      -5.973  50.732  -8.923  1.00  0.00     0.167 HD
HETATM    4  C9  UNL     1      -4.656  50.225 -10.544  1.00  0.00     0.077 A 
HETATM    5  C10 UNL     1      -3.742  51.339 -10.478  1.00  0.00     0.032 A 
HETATM    6  C11 UNL     1      -4.191  52.624 -10.806  1.00  0.00     0.018 A 
HETATM    7  C12 UNL     1      -3.317  53.714 -10.736  1.00  0.00     0.018 A 
HETATM    8  C13 UNL     1      -1.992  53.532 -10.309  1.00  0.00     0.035 A 
HETATM    9  C21 UNL     1      -1.545  52.243  -9.987  1.00  0.00     0.060 A 
HETATM   10  C22 UNL     1      -2.419  51.163 -10.069  1.00  0.00     0.130 A 
HETATM   11  F4  UNL     1      -1.966  49.945  -9.730  1.00  0.00    -0.205 F 
HETATM   12  C23 UNL     1      -4.642  49.193 -11.455  1.00  0.00     0.106 A 
HETATM   13  C24 UNL     1      -3.837  48.823 -12.595  1.00  0.00     0.107 A 
HETATM   14  N6  UNL     1      -4.089  47.708 -13.242  1.00  0.00    -0.354 N 
ATOM     15  H6  UNL     1      -3.529  47.441 -14.052  1.00  0.00     0.166 HD
HETATM   16  C25 UNL     1      -5.123  46.902 -12.811  1.00  0.00     0.107 A 
HETATM   17  C26 UNL     1      -5.918  47.196 -11.771  1.00  0.00     0.116 A 
HETATM   18  N7  UNL     1      -5.680  48.370 -11.080  1.00  0.00    -0.305 N 
ENDROOT
BRANCH   1  19
HETATM   19  C7  UNL     1      -7.461  48.330  -9.261  1.00  0.00     0.072 C 
HETATM   20  C6  UNL     1      -8.306  47.424 -10.189  1.00  0.00     0.015 C 
HETATM   21  C5  UNL     1      -9.616  48.093 -10.602  1.00  0.00     0.021 C 
HETATM   22  C4  UNL     1     -10.453  48.436  -9.369  1.00  0.00     0.126 C 
HETATM   23  N1  UNL     1      -9.650  48.980  -8.273  1.00  0.00    -0.350 N 
HETATM   24  C3  UNL     1     -10.124  49.167  -6.975  1.00  0.00     0.243 C 
HETATM   25  C27 UNL     1      -8.309  49.444  -8.616  1.00  0.00     0.138 C 
HETATM   26  O2  UNL     1      -9.397  49.588  -6.075  1.00  0.00    -0.271 OA
BRANCH  24  27
HETATM   27  C2  UNL     1     -11.609  48.819  -6.723  1.00  0.00     0.269 C 
BRANCH  27  28
HETATM   28  O1  UNL     1     -12.568  49.841  -6.951  1.00  0.00    -0.387 OA
HETATM   29  C1  UNL     1     -13.771  49.642  -6.220  1.00  0.00     0.202 C 
ENDBRANCH  27  28
ENDBRANCH  24  27
ENDBRANCH   1  19
BRANCH  13  30
HETATM   30  N5  UNL     1      -2.812  49.580 -13.086  1.00  0.00    -0.287 NA
HETATM   31  H20 UNL     1      -2.533  49.273 -14.012  1.00  0.00     0.125 HD
HETATM   32  H21 UNL     1      -2.919  50.583 -13.009  1.00  0.00     0.125 HD
ENDBRANCH  13  30
BRANCH   8  33
HETATM   33  C14 UNL     1      -1.018  54.660 -10.191  1.00  0.00     0.257 C 
HETATM   34  O3  UNL     1      -1.441  55.808 -10.293  1.00  0.00    -0.267 OA
HETATM   35  N3  UNL     1       0.297  54.301 -10.021  1.00  0.00    -0.309 N 
HETATM   36  H15 UNL     1       0.579  53.334 -10.091  1.00  0.00     0.170 HD
BRANCH  35  37
HETATM   37  C15 UNL     1       1.406  55.134  -9.859  1.00  0.00     0.108 A 
HETATM   38  C16 UNL     1       1.758  55.754  -8.669  1.00  0.00     0.064 A 
HETATM   39  C17 UNL     1       2.904  56.562  -8.635  1.00  0.00     0.052 A 
HETATM   40  C19 UNL     1       3.646  56.720  -9.806  1.00  0.00     0.033 A 
HETATM   41  C20 UNL     1       3.220  56.065 -10.949  1.00  0.00     0.090 A 
HETATM   42  N4  UNL     1       2.126  55.276 -10.993  1.00  0.00    -0.352 N 
ATOM     43  H4  UNL     1       1.853  54.803 -11.854  1.00  0.00     0.166 HD
BRANCH  39  44
HETATM   44  C18 UNL     1       3.309  57.285  -7.377  1.00  0.00     0.417 C 
HETATM   45  F1  UNL     1       4.631  57.613  -7.381  1.00  0.00    -0.166 F 
HETATM   46  F2  UNL     1       3.115  56.528  -6.260  1.00  0.00    -0.166 F 
HETATM   47  F3  UNL     1       2.631  58.444  -7.164  1.00  0.00    -0.166 F 
ENDBRANCH  39  44
ENDBRANCH  35  37
ENDBRANCH   8  33
TORSDOF 7
ENDMDL
MODEL 5
REMARK minimizedAffinity -9.46774006
REMARK CNNscore 0.0974210501
REMARK CNNaffinity 7.26254654
REMARK  7 active torsions:
REMARK  status: ('A' for Active; 'I' for Inactive)
REMARK    1  A    between atoms: O1_2  and  C2_3 
REMARK    2  A    between atoms: C2_3  and  C3_4 
REMARK       I    between atoms: C3_4  and  N1_6 
REMARK    3  A    between atoms: C7_10  and  C8_11 
REMARK    4  A    between atoms: C13_18  and  C14_19 
REMARK       I    between atoms: C14_19  and  N3_21 
REMARK    5  A    between atoms: N3_21  and  C15_22 
REMARK    6  A    between atoms: C17_24  and  C18_25 
REMARK    7  A    between atoms: C24_37  and  N5_38 
ROOT
HETATM    1  C8  UNL     1      -3.005  50.974 -23.575  1.00  0.00     0.094 A 
HETATM    2  N2  UNL     1      -3.160  50.680 -22.296  1.00  0.00    -0.342 N 
ATOM      3  H2  UNL     1      -3.964  50.226 -21.862  1.00  0.00     0.167 HD
HETATM    4  C9  UNL     1      -2.015  51.113 -21.670  1.00  0.00     0.077 A 
HETATM    5  C10 UNL     1      -1.799  50.931 -20.255  1.00  0.00     0.032 A 
HETATM    6  C11 UNL     1      -2.579  51.645 -19.338  1.00  0.00     0.018 A 
HETATM    7  C12 UNL     1      -2.386  51.469 -17.963  1.00  0.00     0.018 A 
HETATM    8  C13 UNL     1      -1.429  50.555 -17.495  1.00  0.00     0.035 A 
HETATM    9  C21 UNL     1      -0.646  49.847 -18.417  1.00  0.00     0.060 A 
HETATM   10  C22 UNL     1      -0.838  50.035 -19.783  1.00  0.00     0.130 A 
HETATM   11  F4  UNL     1      -0.088  49.324 -20.640  1.00  0.00    -0.205 F 
HETATM   12  C23 UNL     1      -1.175  51.736 -22.564  1.00  0.00     0.106 A 
HETATM   13  C24 UNL     1       0.105  52.402 -22.499  1.00  0.00     0.107 A 
HETATM   14  N6  UNL     1       0.659  52.867 -23.595  1.00  0.00    -0.354 N 
ATOM     15  H6  UNL     1       1.561  53.344 -23.557  1.00  0.00     0.166 HD
HETATM   16  C25 UNL     1       0.006  52.702 -24.799  1.00  0.00     0.107 A 
HETATM   17  C26 UNL     1      -1.191  52.108 -24.926  1.00  0.00     0.116 A 
HETATM   18  N7  UNL     1      -1.801  51.620 -23.785  1.00  0.00    -0.305 N 
ENDROOT
BRANCH   1  19
HETATM   19  C7  UNL     1      -3.963  50.619 -24.682  1.00  0.00     0.072 C 
HETATM   20  C6  UNL     1      -5.263  49.981 -24.135  1.00  0.00     0.015 C 
HETATM   21  C5  UNL     1      -5.291  48.468 -24.348  1.00  0.00     0.021 C 
HETATM   22  C4  UNL     1      -5.179  48.136 -25.836  1.00  0.00     0.126 C 
HETATM   23  N1  UNL     1      -4.196  48.970 -26.530  1.00  0.00    -0.350 N 
HETATM   24  C3  UNL     1      -4.058  49.024 -27.916  1.00  0.00     0.243 C 
HETATM   25  C27 UNL     1      -3.249  49.697 -25.690  1.00  0.00     0.138 C 
HETATM   26  O2  UNL     1      -3.245  49.775 -28.457  1.00  0.00    -0.271 OA
BRANCH  24  27
HETATM   27  C2  UNL     1      -4.977  48.093 -28.741  1.00  0.00     0.269 C 
BRANCH  27  28
HETATM   28  O1  UNL     1      -4.564  47.770 -30.061  1.00  0.00    -0.387 OA
HETATM   29  C1  UNL     1      -5.585  47.131 -30.817  1.00  0.00     0.202 C 
ENDBRANCH  27  28
ENDBRANCH  24  27
ENDBRANCH   1  19
BRANCH  13  30
HETATM   30  N5  UNL     1       0.798  52.616 -21.342  1.00  0.00    -0.287 NA
HETATM   31  H20 UNL     1       1.540  53.294 -21.473  1.00  0.00     0.125 HD
HETATM   32  H21 UNL     1       0.243  52.780 -20.511  1.00  0.00     0.125 HD
ENDBRANCH  13  30
BRANCH   8  33
HETATM   33  C14 UNL     1      -1.193  50.306 -16.039  1.00  0.00     0.257 C 
HETATM   34  O3  UNL     1      -0.370  49.454 -15.719  1.00  0.00    -0.267 OA
HETATM   35  N3  UNL     1      -1.969  51.038 -15.173  1.00  0.00    -0.309 N 
HETATM   36  H15 UNL     1      -2.724  51.613 -15.520  1.00  0.00     0.170 HD
BRANCH  35  37
HETATM   37  C15 UNL     1      -1.949  51.030 -13.777  1.00  0.00     0.108 A 
HETATM   38  C16 UNL     1      -2.911  51.623 -12.972  1.00  0.00     0.064 A 
HETATM   39  C17 UNL     1      -2.780  51.539 -11.579  1.00  0.00     0.052 A 
HETATM   40  C19 UNL     1      -1.677  50.865 -11.050  1.00  0.00     0.033 A 
HETATM   41  C20 UNL     1      -0.766  50.304 -11.928  1.00  0.00     0.090 A 
HETATM   42  N4  UNL     1      -0.885  50.369 -13.271  1.00  0.00    -0.352 N 
ATOM     43  H4  UNL     1      -0.196  49.934 -13.883  1.00  0.00     0.166 HD
BRANCH  39  44
HETATM   44  C18 UNL     1      -3.778  52.195 -10.662  1.00  0.00     0.417 C 
HETATM   45  F1  UNL     1      -4.908  51.448 -10.520  1.00  0.00    -0.166 F 
HETATM   46  F2  UNL     1      -4.189  53.408 -11.127  1.00  0.00    -0.166 F 
HETATM   47  F3  UNL     1      -3.310  52.416  -9.405  1.00  0.00    -0.166 F 
ENDBRANCH  39  44
ENDBRANCH  35  37
ENDBRANCH   8  33
TORSDOF 7
ENDMDL
MODEL 6
REMARK minimizedAffinity -8.37582016
REMARK CNNscore 0.0819476619
REMARK CNNaffinity 6.29743433
REMARK  7 active torsions:
REMARK  status: ('A' for Active; 'I' for Inactive)
REMARK    1  A    between atoms: O1_2  and  C2_3 
REMARK    2  A    between atoms: C2_3  and  C3_4 
REMARK       I    between atoms: C3_4  and  N1_6 
REMARK    3  A    between atoms: C7_10  and  C8_11 
REMARK    4  A    between atoms: C13_18  and  C14_19 
REMARK       I    between atoms: C14_19  and  N3_21 
REMARK    5  A    between atoms: N3_21  and  C15_22 
REMARK    6  A    between atoms: C17_24  and  C18_25 
REMARK    7  A    between atoms: C24_37  and  N5_38 
ROOT
HETATM    1  C8  UNL     1       3.071  53.295 -10.864  1.00  0.00     0.094 A 
HETATM    2  N2  UNL     1       2.276  53.277 -11.921  1.00  0.00    -0.342 N 
ATOM      3  H2  UNL     1       1.668  54.028 -12.246  1.00  0.00     0.167 HD
HETATM    4  C9  UNL     1       2.439  52.037 -12.492  1.00  0.00     0.077 A 
HETATM    5  C10 UNL     1       1.753  51.654 -13.702  1.00  0.00     0.032 A 
HETATM    6  C11 UNL     1       0.365  51.471 -13.682  1.00  0.00     0.018 A 
HETATM    7  C12 UNL     1      -0.313  51.110 -14.852  1.00  0.00     0.018 A 
HETATM    8  C13 UNL     1       0.389  50.956 -16.058  1.00  0.00     0.035 A 
HETATM    9  C21 UNL     1       1.779  51.134 -16.071  1.00  0.00     0.060 A 
HETATM   10  C22 UNL     1       2.447  51.484 -14.901  1.00  0.00     0.130 A 
HETATM   11  F4  UNL     1       3.776  51.671 -14.953  1.00  0.00    -0.205 F 
HETATM   12  C23 UNL     1       3.296  51.263 -11.743  1.00  0.00     0.106 A 
HETATM   13  C24 UNL     1       3.806  49.913 -11.810  1.00  0.00     0.107 A 
HETATM   14  N6  UNL     1       4.671  49.493 -10.915  1.00  0.00    -0.354 N 
ATOM     15  H6  UNL     1       5.033  48.540 -10.952  1.00  0.00     0.166 HD
HETATM   16  C25 UNL     1       5.085  50.361  -9.924  1.00  0.00     0.107 A 
HETATM   17  C26 UNL     1       4.636  51.619  -9.796  1.00  0.00     0.116 A 
HETATM   18  N7  UNL     1       3.717  52.081 -10.719  1.00  0.00    -0.305 N 
ENDROOT
BRANCH   1  19
HETATM   19  C7  UNL     1       3.303  54.476  -9.959  1.00  0.00     0.072 C 
HETATM   20  C6  UNL     1       4.539  55.299 -10.393  1.00  0.00     0.015 C 
HETATM   21  C5  UNL     1       5.742  55.045  -9.486  1.00  0.00     0.021 C 
HETATM   22  C4  UNL     1       5.405  55.405  -8.038  1.00  0.00     0.126 C 
HETATM   23  N1  UNL     1       4.067  54.966  -7.642  1.00  0.00    -0.350 N 
HETATM   24  C3  UNL     1       3.435  55.356  -6.462  1.00  0.00     0.243 C 
HETATM   25  C27 UNL     1       3.423  53.980  -8.505  1.00  0.00     0.138 C 
HETATM   26  O2  UNL     1       2.288  54.995  -6.193  1.00  0.00    -0.271 OA
BRANCH  24  27
HETATM   27  C2  UNL     1       4.245  56.264  -5.509  1.00  0.00     0.269 C 
BRANCH  27  28
HETATM   28  O1  UNL     1       4.560  57.572  -5.963  1.00  0.00    -0.387 OA
HETATM   29  C1  UNL     1       5.786  58.059  -5.433  1.00  0.00     0.202 C 
ENDBRANCH  27  28
ENDBRANCH  24  27
ENDBRANCH   1  19
BRANCH  13  30
HETATM   30  N5  UNL     1       3.428  48.998 -12.751  1.00  0.00    -0.287 NA
HETATM   31  H20 UNL     1       3.711  48.060 -12.491  1.00  0.00     0.125 HD
HETATM   32  H21 UNL     1       2.471  49.057 -13.073  1.00  0.00     0.125 HD
ENDBRANCH  13  30
BRANCH   8  33
HETATM   33  C14 UNL     1      -0.283  50.594 -17.343  1.00  0.00     0.257 C 
HETATM   34  O3  UNL     1      -0.623  49.428 -17.516  1.00  0.00    -0.267 OA
HETATM   35  N3  UNL     1      -0.420  51.614 -18.255  1.00  0.00    -0.309 N 
HETATM   36  H15 UNL     1       0.016  52.511 -18.092  1.00  0.00     0.170 HD
BRANCH  35  37
HETATM   37  C15 UNL     1      -1.022  51.572 -19.513  1.00  0.00     0.108 A 
HETATM   38  C16 UNL     1      -0.357  51.786 -20.712  1.00  0.00     0.064 A 
HETATM   39  C17 UNL     1      -1.076  51.709 -21.914  1.00  0.00     0.052 A 
HETATM   40  C19 UNL     1      -2.442  51.426 -21.859  1.00  0.00     0.033 A 
HETATM   41  C20 UNL     1      -3.024  51.228 -20.619  1.00  0.00     0.090 A 
HETATM   42  N4  UNL     1      -2.342  51.289 -19.456  1.00  0.00    -0.352 N 
ATOM     43  H4  UNL     1      -2.807  51.126 -18.563  1.00  0.00     0.166 HD
BRANCH  39  44
HETATM   44  C18 UNL     1      -0.408  51.967 -23.238  1.00  0.00     0.417 C 
HETATM   45  F1  UNL     1      -0.950  53.037 -23.884  1.00  0.00    -0.166 F 
HETATM   46  F2  UNL     1      -0.530  50.913 -24.095  1.00  0.00    -0.166 F 
HETATM   47  F3  UNL     1       0.926  52.218 -23.144  1.00  0.00    -0.166 F 
ENDBRANCH  39  44
ENDBRANCH  35  37
ENDBRANCH   8  33
TORSDOF 7
ENDMDL
MODEL 7
REMARK minimizedAffinity -9.08593082
REMARK CNNscore 0.0729080066
REMARK CNNaffinity 5.72245169
REMARK  7 active torsions:
REMARK  status: ('A' for Active; 'I' for Inactive)
REMARK    1  A    between atoms: O1_2  and  C2_3 
REMARK    2  A    between atoms: C2_3  and  C3_4 
REMARK       I    between atoms: C3_4  and  N1_6 
REMARK    3  A    between atoms: C7_10  and  C8_11 
REMARK    4  A    between atoms: C13_18  and  C14_19 
REMARK       I    between atoms: C14_19  and  N3_21 
REMARK    5  A    between atoms: N3_21  and  C15_22 
REMARK    6  A    between atoms: C17_24  and  C18_25 
REMARK    7  A    between atoms: C24_37  and  N5_38 
ROOT
HETATM    1  C8  UNL     1      -4.481  50.396 -21.669  1.00  0.00     0.094 A 
HETATM    2  N2  UNL     1      -5.732  50.425 -21.240  1.00  0.00    -0.342 N 
ATOM      3  H2  UNL     1      -6.354  51.233 -21.211  1.00  0.00     0.167 HD
HETATM    4  C9  UNL     1      -6.021  49.142 -20.840  1.00  0.00     0.077 A 
HETATM    5  C10 UNL     1      -7.321  48.769 -20.339  1.00  0.00     0.032 A 
HETATM    6  C11 UNL     1      -7.753  49.261 -19.102  1.00  0.00     0.018 A 
HETATM    7  C12 UNL     1      -9.017  48.915 -18.610  1.00  0.00     0.018 A 
HETATM    8  C13 UNL     1      -9.871  48.096 -19.367  1.00  0.00     0.035 A 
HETATM    9  C21 UNL     1      -9.431  47.603 -20.603  1.00  0.00     0.060 A 
HETATM   10  C22 UNL     1      -8.169  47.944 -21.080  1.00  0.00     0.130 A 
HETATM   11  F4  UNL     1      -7.788  47.474 -22.278  1.00  0.00    -0.205 F 
HETATM   12  C23 UNL     1      -4.916  48.330 -20.966  1.00  0.00     0.106 A 
HETATM   13  C24 UNL     1      -4.602  46.949 -20.683  1.00  0.00     0.107 A 
HETATM   14  N6  UNL     1      -3.412  46.474 -20.973  1.00  0.00    -0.354 N 
ATOM     15  H6  UNL     1      -3.180  45.501 -20.771  1.00  0.00     0.166 HD
HETATM   16  C25 UNL     1      -2.480  47.309 -21.555  1.00  0.00     0.107 A 
HETATM   17  C26 UNL     1      -2.702  48.604 -21.827  1.00  0.00     0.116 A 
HETATM   18  N7  UNL     1      -3.944  49.132 -21.522  1.00  0.00    -0.305 N 
ENDROOT
BRANCH   1  19
HETATM   19  C7  UNL     1      -3.737  51.551 -22.288  1.00  0.00     0.072 C 
HETATM   20  C6  UNL     1      -4.597  52.292 -23.339  1.00  0.00     0.015 C 
HETATM   21  C5  UNL     1      -4.175  51.948 -24.767  1.00  0.00     0.021 C 
HETATM   22  C4  UNL     1      -2.708  52.317 -24.994  1.00  0.00     0.126 C 
HETATM   23  N1  UNL     1      -1.854  51.968 -23.859  1.00  0.00    -0.350 N 
HETATM   24  C3  UNL     1      -0.533  52.390 -23.717  1.00  0.00     0.243 C 
HETATM   25  C27 UNL     1      -2.414  51.035 -22.885  1.00  0.00     0.138 C 
HETATM   26  O2  UNL     1       0.134  52.106 -22.720  1.00  0.00    -0.271 OA
BRANCH  24  27
HETATM   27  C2  UNL     1       0.054  53.231 -24.873  1.00  0.00     0.269 C 
BRANCH  27  28
HETATM   28  O1  UNL     1       1.355  52.893 -25.333  1.00  0.00    -0.387 OA
HETATM   29  C1  UNL     1       1.355  51.780 -26.217  1.00  0.00     0.202 C 
ENDBRANCH  27  28
ENDBRANCH  24  27
ENDBRANCH   1  19
BRANCH  13  30
HETATM   30  N5  UNL     1      -5.468  46.073 -20.094  1.00  0.00    -0.287 NA
HETATM   31  H20 UNL     1      -4.991  45.239 -19.771  1.00  0.00     0.125 HD
HETATM   32  H21 UNL     1      -6.105  46.464 -19.412  1.00  0.00     0.125 HD
ENDBRANCH  13  30
BRANCH   8  33
HETATM   33  C14 UNL     1     -11.240  47.712 -18.906  1.00  0.00     0.257 C 
HETATM   34  O3  UNL     1     -11.348  47.088 -17.855  1.00  0.00    -0.267 OA
HETATM   35  N3  UNL     1     -12.273  48.059 -19.743  1.00  0.00    -0.309 N 
HETATM   36  H15 UNL     1     -12.086  48.444 -20.658  1.00  0.00     0.170 HD
BRANCH  35  37
HETATM   37  C15 UNL     1     -13.641  47.852 -19.559  1.00  0.00     0.108 A 
HETATM   38  C16 UNL     1     -14.477  47.244 -20.485  1.00  0.00     0.064 A 
HETATM   39  C17 UNL     1     -15.836  47.087 -20.176  1.00  0.00     0.052 A 
HETATM   40  C19 UNL     1     -16.302  47.558 -18.947  1.00  0.00     0.033 A 
HETATM   41  C20 UNL     1     -15.397  48.153 -18.085  1.00  0.00     0.090 A 
HETATM   42  N4  UNL     1     -14.085  48.301 -18.365  1.00  0.00    -0.352 N 
ATOM     43  H4  UNL     1     -13.450  48.736 -17.697  1.00  0.00     0.166 HD
BRANCH  39  44
HETATM   44  C18 UNL     1     -16.791  46.465 -21.161  1.00  0.00     0.417 C 
HETATM   45  F1  UNL     1     -18.085  46.797 -20.896  1.00  0.00    -0.166 F 
HETATM   46  F2  UNL     1     -16.743  45.103 -21.140  1.00  0.00    -0.166 F 
HETATM   47  F3  UNL     1     -16.564  46.826 -22.452  1.00  0.00    -0.166 F 
ENDBRANCH  39  44
ENDBRANCH  35  37
ENDBRANCH   8  33
TORSDOF 7
ENDMDL
MODEL 8
REMARK minimizedAffinity -8.14593887
REMARK CNNscore 0.0727137849
REMARK CNNaffinity 6.82582712
REMARK  7 active torsions:
REMARK  status: ('A' for Active; 'I' for Inactive)
REMARK    1  A    between atoms: O1_2  and  C2_3 
REMARK    2  A    between atoms: C2_3  and  C3_4 
REMARK       I    between atoms: C3_4  and  N1_6 
REMARK    3  A    between atoms: C7_10  and  C8_11 
REMARK    4  A    between atoms: C13_18  and  C14_19 
REMARK       I    between atoms: C14_19  and  N3_21 
REMARK    5  A    between atoms: N3_21  and  C15_22 
REMARK    6  A    between atoms: C17_24  and  C18_25 
REMARK    7  A    between atoms: C24_37  and  N5_38 
ROOT
HETATM    1  C8  UNL     1       0.177  48.343 -14.127  1.00  0.00     0.094 A 
HETATM    2  N2  UNL     1       0.614  48.892 -15.247  1.00  0.00    -0.342 N 
ATOM      3  H2  UNL     1       1.517  48.741 -15.695  1.00  0.00     0.167 HD
HETATM    4  C9  UNL     1      -0.402  49.709 -15.685  1.00  0.00     0.077 A 
HETATM    5  C10 UNL     1      -0.307  50.459 -16.913  1.00  0.00     0.032 A 
HETATM    6  C11 UNL     1       0.600  51.521 -17.008  1.00  0.00     0.018 A 
HETATM    7  C12 UNL     1       0.709  52.249 -18.198  1.00  0.00     0.018 A 
HETATM    8  C13 UNL     1      -0.070  51.902 -19.314  1.00  0.00     0.035 A 
HETATM    9  C21 UNL     1      -0.980  50.842 -19.212  1.00  0.00     0.060 A 
HETATM   10  C22 UNL     1      -1.088  50.128 -18.021  1.00  0.00     0.130 A 
HETATM   11  F4  UNL     1      -1.953  49.102 -17.965  1.00  0.00    -0.205 F 
HETATM   12  C23 UNL     1      -1.448  49.710 -14.791  1.00  0.00     0.106 A 
HETATM   13  C24 UNL     1      -2.726  50.375 -14.686  1.00  0.00     0.107 A 
HETATM   14  N6  UNL     1      -3.525  50.105 -13.679  1.00  0.00    -0.354 N 
ATOM     15  H6  UNL     1      -4.428  50.574 -13.594  1.00  0.00     0.166 HD
HETATM   16  C25 UNL     1      -3.127  49.178 -12.736  1.00  0.00     0.107 A 
HETATM   17  C26 UNL     1      -1.948  48.540 -12.767  1.00  0.00     0.116 A 
HETATM   18  N7  UNL     1      -1.083  48.814 -13.811  1.00  0.00    -0.305 N 
ENDROOT
BRANCH   1  19
HETATM   19  C7  UNL     1       0.905  47.304 -13.315  1.00  0.00     0.072 C 
HETATM   20  C6  UNL     1       2.438  47.511 -13.356  1.00  0.00     0.015 C 
HETATM   21  C5  UNL     1       3.126  46.504 -14.277  1.00  0.00     0.021 C 
HETATM   22  C4  UNL     1       2.844  45.075 -13.811  1.00  0.00     0.126 C 
HETATM   23  N1  UNL     1       1.454  44.878 -13.395  1.00  0.00    -0.350 N 
HETATM   24  C3  UNL     1       0.992  43.744 -12.729  1.00  0.00     0.243 C 
HETATM   25  C27 UNL     1       0.500  45.902 -13.811  1.00  0.00     0.138 C 
HETATM   26  O2  UNL     1      -0.179  43.644 -12.361  1.00  0.00    -0.271 OA
BRANCH  24  27
HETATM   27  C2  UNL     1       2.022  42.620 -12.477  1.00  0.00     0.269 C 
BRANCH  27  28
HETATM   28  O1  UNL     1       1.919  41.448 -13.273  1.00  0.00    -0.387 OA
HETATM   29  C1  UNL     1       2.928  41.370 -14.271  1.00  0.00     0.202 C 
ENDBRANCH  27  28
ENDBRANCH  24  27
ENDBRANCH   1  19
BRANCH  13  30
HETATM   30  N5  UNL     1      -3.176  51.313 -15.571  1.00  0.00    -0.287 NA
HETATM   31  H20 UNL     1      -3.971  51.821 -15.201  1.00  0.00     0.125 HD
HETATM   32  H21 UNL     1      -2.472  51.910 -15.986  1.00  0.00     0.125 HD
ENDBRANCH  13  30
BRANCH   8  33
HETATM   33  C14 UNL     1       0.019  52.626 -20.618  1.00  0.00     0.257 C 
HETATM   34  O3  UNL     1       0.458  53.773 -20.621  1.00  0.00    -0.267 OA
HETATM   35  N3  UNL     1      -0.452  51.945 -21.715  1.00  0.00    -0.309 N 
HETATM   36  H15 UNL     1      -0.929  51.061 -21.605  1.00  0.00     0.170 HD
BRANCH  35  37
HETATM   37  C15 UNL     1      -0.472  52.361 -23.047  1.00  0.00     0.108 A 
HETATM   38  C16 UNL     1      -1.484  52.066 -23.949  1.00  0.00     0.064 A 
HETATM   39  C17 UNL     1      -1.390  52.550 -25.262  1.00  0.00     0.052 A 
HETATM   40  C19 UNL     1      -0.273  53.308 -25.617  1.00  0.00     0.033 A 
HETATM   41  C20 UNL     1       0.689  53.553 -24.652  1.00  0.00     0.090 A 
HETATM   42  N4  UNL     1       0.606  53.101 -23.383  1.00  0.00    -0.352 N 
ATOM     43  H4  UNL     1       1.333  53.313 -22.700  1.00  0.00     0.166 HD
BRANCH  39  44
HETATM   44  C18 UNL     1      -2.445  52.229 -26.288  1.00  0.00     0.417 C 
HETATM   45  F1  UNL     1      -3.700  52.487 -25.827  1.00  0.00    -0.166 F 
HETATM   46  F2  UNL     1      -2.440  50.912 -26.641  1.00  0.00    -0.166 F 
HETATM   47  F3  UNL     1      -2.316  52.927 -27.448  1.00  0.00    -0.166 F 
ENDBRANCH  39  44
ENDBRANCH  35  37
ENDBRANCH   8  33
TORSDOF 7
ENDMDL
MODEL 9
REMARK minimizedAffinity -8.43699646
REMARK CNNscore 0.0671693683
REMARK CNNaffinity 6.34132242
REMARK  7 active torsions:
REMARK  status: ('A' for Active; 'I' for Inactive)
REMARK    1  A    between atoms: O1_2  and  C2_3 
REMARK    2  A    between atoms: C2_3  and  C3_4 
REMARK       I    between atoms: C3_4  and  N1_6 
REMARK    3  A    between atoms: C7_10  and  C8_11 
REMARK    4  A    between atoms: C13_18  and  C14_19 
REMARK       I    between atoms: C14_19  and  N3_21 
REMARK    5  A    between atoms: N3_21  and  C15_22 
REMARK    6  A    between atoms: C17_24  and  C18_25 
REMARK    7  A    between atoms: C24_37  and  N5_38 
ROOT
HETATM    1  C8  UNL     1       1.739  53.802 -11.070  1.00  0.00     0.094 A 
HETATM    2  N2  UNL     1       1.061  53.546 -12.176  1.00  0.00    -0.342 N 
ATOM      3  H2  UNL     1       0.324  54.116 -12.591  1.00  0.00     0.167 HD
HETATM    4  C9  UNL     1       1.554  52.355 -12.651  1.00  0.00     0.077 A 
HETATM    5  C10 UNL     1       1.079  51.763 -13.878  1.00  0.00     0.032 A 
HETATM    6  C11 UNL     1      -0.225  51.258 -13.943  1.00  0.00     0.018 A 
HETATM    7  C12 UNL     1      -0.701  50.692 -15.131  1.00  0.00     0.018 A 
HETATM    8  C13 UNL     1       0.115  50.651 -16.273  1.00  0.00     0.035 A 
HETATM    9  C21 UNL     1       1.422  51.152 -16.200  1.00  0.00     0.060 A 
HETATM   10  C22 UNL     1       1.891  51.706 -15.012  1.00  0.00     0.130 A 
HETATM   11  F4  UNL     1       3.139  52.199 -14.983  1.00  0.00    -0.205 F 
HETATM   12  C23 UNL     1       2.501  51.841 -11.795  1.00  0.00     0.106 A 
HETATM   13  C24 UNL     1       3.315  50.649 -11.737  1.00  0.00     0.107 A 
HETATM   14  N6  UNL     1       4.176  50.489 -10.758  1.00  0.00    -0.354 N 
ATOM     15  H6  UNL     1       4.751  49.648 -10.707  1.00  0.00     0.166 HD
HETATM   16  C25 UNL     1       4.293  51.476  -9.800  1.00  0.00     0.107 A 
HETATM   17  C26 UNL     1       3.556  52.597  -9.786  1.00  0.00     0.116 A 
HETATM   18  N7  UNL     1       2.634  52.784 -10.800  1.00  0.00    -0.305 N 
ENDROOT
BRANCH   1  19
HETATM   19  C7  UNL     1       1.615  55.046 -10.230  1.00  0.00     0.072 C 
HETATM   20  C6  UNL     1       2.849  55.967 -10.379  1.00  0.00     0.015 C 
HETATM   21  C5  UNL     1       3.774  55.883  -9.165  1.00  0.00     0.021 C 
HETATM   22  C4  UNL     1       3.023  56.282  -7.893  1.00  0.00     0.126 C 
HETATM   23  N1  UNL     1       1.668  55.732  -7.839  1.00  0.00    -0.350 N 
HETATM   24  C3  UNL     1       0.706  56.117  -6.907  1.00  0.00     0.243 C 
HETATM   25  C27 UNL     1       1.370  54.641  -8.763  1.00  0.00     0.138 C 
HETATM   26  O2  UNL     1      -0.437  55.657  -6.928  1.00  0.00    -0.271 OA
BRANCH  24  27
HETATM   27  C2  UNL     1       1.145  57.151  -5.844  1.00  0.00     0.269 C 
BRANCH  27  28
HETATM   28  O1  UNL     1       0.672  56.965  -4.518  1.00  0.00    -0.387 OA
HETATM   29  C1  UNL     1       1.325  55.898  -3.844  1.00  0.00     0.202 C 
ENDBRANCH  27  28
ENDBRANCH  24  27
ENDBRANCH   1  19
BRANCH  13  30
HETATM   30  N5  UNL     1       3.240  49.627 -12.640  1.00  0.00    -0.287 NA
HETATM   31  H20 UNL     1       3.710  48.796 -12.300  1.00  0.00     0.125 HD
HETATM   32  H21 UNL     1       2.325  49.442 -13.032  1.00  0.00     0.125 HD
ENDBRANCH  13  30
BRANCH   8  33
HETATM   33  C14 UNL     1      -0.345  50.080 -17.575  1.00  0.00     0.257 C 
HETATM   34  O3  UNL     1      -0.758  48.924 -17.592  1.00  0.00    -0.267 OA
HETATM   35  N3  UNL     1      -0.218  50.903 -18.668  1.00  0.00    -0.309 N 
HETATM   36  H15 UNL     1       0.265  51.787 -18.592  1.00  0.00     0.170 HD
BRANCH  35  37
HETATM   37  C15 UNL     1      -0.585  50.646 -19.991  1.00  0.00     0.108 A 
HETATM   38  C16 UNL     1      -1.282  49.523 -20.410  1.00  0.00     0.064 A 
HETATM   39  C17 UNL     1      -1.598  49.385 -21.770  1.00  0.00     0.052 A 
HETATM   40  C19 UNL     1      -1.190  50.384 -22.656  1.00  0.00     0.033 A 
HETATM   41  C20 UNL     1      -0.497  51.469 -22.149  1.00  0.00     0.090 A 
HETATM   42  N4  UNL     1      -0.196  51.619 -20.842  1.00  0.00    -0.352 N 
ATOM     43  H4  UNL     1       0.308  52.441 -20.509  1.00  0.00     0.166 HD
BRANCH  39  44
HETATM   44  C18 UNL     1      -2.323  48.168 -22.281  1.00  0.00     0.417 C 
HETATM   45  F1  UNL     1      -1.575  47.037 -22.154  1.00  0.00    -0.166 F 
HETATM   46  F2  UNL     1      -2.631  48.266 -23.605  1.00  0.00    -0.166 F 
HETATM   47  F3  UNL     1      -3.498  47.918 -21.643  1.00  0.00    -0.166 F 
ENDBRANCH  39  44
ENDBRANCH  35  37
ENDBRANCH   8  33
TORSDOF 7
ENDMDL
