MODEL 1
REMARK minimizedAffinity -10.8134384
REMARK CNNscore 0.238876998
REMARK CNNaffinity 7.2111659
REMARK  5 active torsions:
REMARK  status: ('A' for Active; 'I' for Inactive)
REMARK    1  A    between atoms: N1_1  and  C1_2 
REMARK    2  A    between atoms: C4_8  and  C5_9 
REMARK    3  A    between atoms: C16_25  and  C17_26 
REMARK       I    between atoms: C17_26  and  N6_28 
REMARK    4  A    between atoms: N6_28  and  C18_29 
REMARK    5  A    between atoms: C20_31  and  C21_32 
ROOT
HETATM    1  C1  UNL     1       0.792  53.564 -20.952  1.00  0.00     0.107 A 
HETATM    2  N2  UNL     1       1.495  54.332 -21.750  1.00  0.00    -0.354 N 
ATOM      3  H2  UNL     1       2.130  55.033 -21.367  1.00  0.00     0.166 HD
HETATM    4  C2  UNL     1       1.365  54.178 -23.113  1.00  0.00     0.107 A 
HETATM    5  C3  UNL     1       0.546  53.287 -23.691  1.00  0.00     0.116 A 
HETATM    6  N3  UNL     1      -0.203  52.456 -22.877  1.00  0.00    -0.305 N 
HETATM    7  C4  UNL     1      -1.127  51.459 -23.140  1.00  0.00     0.094 A 
HETATM    8  N5  UNL     1      -1.551  50.914 -22.013  1.00  0.00    -0.343 N 
ATOM      9  H5  UNL     1      -2.224  50.153 -21.916  1.00  0.00     0.167 HD
HETATM   10  C12 UNL     1      -0.906  51.576 -21.001  1.00  0.00     0.074 A 
HETATM   11  C13 UNL     1      -1.116  51.248 -19.611  1.00  0.00    -0.007 A 
HETATM   12  C14 UNL     1      -0.143  50.542 -18.894  1.00  0.00     0.015 A 
HETATM   13  C15 UNL     1      -0.350  50.229 -17.548  1.00  0.00     0.018 A 
HETATM   14  C16 UNL     1      -1.538  50.618 -16.914  1.00  0.00     0.032 A 
HETATM   15  C24 UNL     1      -2.526  51.294 -17.642  1.00  0.00     0.018 A 
HETATM   16  C25 UNL     1      -2.313  51.609 -18.986  1.00  0.00     0.015 A 
HETATM   17  C26 UNL     1      -0.080  52.553 -21.506  1.00  0.00     0.106 A 
ENDROOT
BRANCH   7  18
HETATM   18  C5  UNL     1      -1.607  51.031 -24.499  1.00  0.00     0.072 C 
HETATM   19  C6  UNL     1      -1.116  51.955 -25.638  1.00  0.00     0.016 C 
HETATM   20  C7  UNL     1      -2.231  52.459 -26.566  1.00  0.00     0.028 C 
HETATM   21  C8  UNL     1      -3.228  51.373 -26.962  1.00  0.00     0.114 C 
HETATM   22  C9  UNL     1      -2.778  50.437 -28.063  1.00  0.00     0.206 C 
HETATM   23  N4  UNL     1      -3.523  50.464 -25.896  1.00  0.00    -0.320 N 
HETATM   24  O1  UNL     1      -3.401  49.188 -27.736  1.00  0.00    -0.302 OA
HETATM   25  C10 UNL     1      -3.604  49.177 -26.383  1.00  0.00     0.363 C 
HETATM   26  O2  UNL     1      -3.785  48.162 -25.731  1.00  0.00    -0.238 OA
HETATM   27  C11 UNL     1      -3.120  50.765 -24.537  1.00  0.00     0.141 C 
ENDBRANCH   7  18
BRANCH   1  28
HETATM   28  N1  UNL     1       0.951  53.793 -19.616  1.00  0.00    -0.287 NA
HETATM   29  H1  UNL     1       0.825  53.007 -18.996  1.00  0.00     0.125 HD
HETATM   30  H2  UNL     1       1.773  54.352 -19.418  1.00  0.00     0.125 HD
ENDBRANCH   1  28
BRANCH  14  31
HETATM   31  C17 UNL     1      -1.802  50.303 -15.480  1.00  0.00     0.257 C 
HETATM   32  O3  UNL     1      -1.340  49.272 -15.011  1.00  0.00    -0.267 OA
HETATM   33  N6  UNL     1      -2.595  51.215 -14.826  1.00  0.00    -0.309 N 
HETATM   34  H17 UNL     1      -3.027  51.970 -15.339  1.00  0.00     0.170 HD
BRANCH  33  35
HETATM   35  C18 UNL     1      -3.012  51.195 -13.496  1.00  0.00     0.108 A 
HETATM   36  C19 UNL     1      -2.929  52.275 -12.631  1.00  0.00     0.064 A 
HETATM   37  C20 UNL     1      -3.378  52.129 -11.311  1.00  0.00     0.052 A 
HETATM   38  C22 UNL     1      -3.914  50.899 -10.919  1.00  0.00     0.033 A 
HETATM   39  C23 UNL     1      -3.960  49.878 -11.848  1.00  0.00     0.090 A 
HETATM   40  N7  UNL     1      -3.525  50.002 -13.121  1.00  0.00    -0.352 N 
ATOM     41  H7  UNL     1      -3.580  49.223 -13.776  1.00  0.00     0.166 HD
BRANCH  37  42
HETATM   42  C21 UNL     1      -3.321  53.282 -10.346  1.00  0.00     0.417 C 
HETATM   43  F1  UNL     1      -2.463  54.261 -10.749  1.00  0.00    -0.166 F 
HETATM   44  F2  UNL     1      -2.894  52.899  -9.112  1.00  0.00    -0.166 F 
HETATM   45  F3  UNL     1      -4.521  53.894 -10.158  1.00  0.00    -0.166 F 
ENDBRANCH  37  42
ENDBRANCH  33  35
ENDBRANCH  14  31
TORSDOF 5
ENDMDL
MODEL 2
REMARK minimizedAffinity -10.9750061
REMARK CNNscore 0.1924043
REMARK CNNaffinity 7.2374444
REMARK  5 active torsions:
REMARK  status: ('A' for Active; 'I' for Inactive)
REMARK    1  A    between atoms: N1_1  and  C1_2 
REMARK    2  A    between atoms: C4_8  and  C5_9 
REMARK    3  A    between atoms: C16_25  and  C17_26 
REMARK       I    between atoms: C17_26  and  N6_28 
REMARK    4  A    between atoms: N6_28  and  C18_29 
REMARK    5  A    between atoms: C20_31  and  C21_32 
ROOT
HETATM    1  C1  UNL     1       0.682  53.666 -23.861  1.00  0.00     0.107 A 
HETATM    2  N2  UNL     1       1.558  54.545 -23.434  1.00  0.00    -0.354 N 
ATOM      3  H2  UNL     1       2.064  55.134 -24.095  1.00  0.00     0.166 HD
HETATM    4  C2  UNL     1       1.784  54.659 -22.079  1.00  0.00     0.107 A 
HETATM    5  C3  UNL     1       1.166  53.914 -21.151  1.00  0.00     0.116 A 
HETATM    6  N3  UNL     1       0.230  52.984 -21.569  1.00  0.00    -0.305 N 
HETATM    7  C4  UNL     1      -0.562  52.072 -20.892  1.00  0.00     0.094 A 
HETATM    8  N5  UNL     1      -1.339  51.419 -21.739  1.00  0.00    -0.343 N 
ATOM      9  H5  UNL     1      -2.025  50.699 -21.509  1.00  0.00     0.167 HD
HETATM   10  C12 UNL     1      -1.038  51.901 -22.986  1.00  0.00     0.074 A 
HETATM   11  C13 UNL     1      -1.698  51.421 -24.177  1.00  0.00    -0.007 A 
HETATM   12  C14 UNL     1      -2.664  52.207 -24.816  1.00  0.00     0.015 A 
HETATM   13  C15 UNL     1      -3.299  51.738 -25.970  1.00  0.00     0.018 A 
HETATM   14  C16 UNL     1      -2.972  50.476 -26.486  1.00  0.00     0.032 A 
HETATM   15  C24 UNL     1      -2.030  49.678 -25.825  1.00  0.00     0.018 A 
HETATM   16  C25 UNL     1      -1.394  50.151 -24.674  1.00  0.00     0.015 A 
HETATM   17  C26 UNL     1      -0.052  52.858 -22.914  1.00  0.00     0.106 A 
ENDROOT
BRANCH   7  18
HETATM   18  C5  UNL     1      -0.564  51.828 -19.409  1.00  0.00     0.072 C 
HETATM   19  C6  UNL     1       0.274  52.862 -18.619  1.00  0.00     0.016 C 
HETATM   20  C7  UNL     1       1.294  52.240 -17.655  1.00  0.00     0.028 C 
HETATM   21  C8  UNL     1       0.735  51.071 -16.849  1.00  0.00     0.114 C 
HETATM   22  C9  UNL     1      -0.120  51.443 -15.656  1.00  0.00     0.206 C 
HETATM   23  N4  UNL     1      -0.152  50.239 -17.606  1.00  0.00    -0.320 N 
HETATM   24  O1  UNL     1      -1.080  50.383 -15.570  1.00  0.00    -0.302 OA
HETATM   25  C10 UNL     1      -1.223  49.861 -16.827  1.00  0.00     0.363 C 
HETATM   26  O2  UNL     1      -2.185  49.200 -17.183  1.00  0.00    -0.238 OA
HETATM   27  C11 UNL     1      -0.237  50.371 -19.047  1.00  0.00     0.141 C 
ENDBRANCH   7  18
BRANCH   1  28
HETATM   28  N1  UNL     1       0.532  53.588 -25.215  1.00  0.00    -0.287 NA
HETATM   29  H1  UNL     1      -0.372  53.308 -25.564  1.00  0.00     0.125 HD
HETATM   30  H2  UNL     1       0.932  54.388 -25.692  1.00  0.00     0.125 HD
ENDBRANCH   1  28
BRANCH  14  31
HETATM   31  C17 UNL     1      -3.626  49.936 -27.712  1.00  0.00     0.257 C 
HETATM   32  O3  UNL     1      -3.354  50.441 -28.794  1.00  0.00    -0.267 OA
HETATM   33  N6  UNL     1      -4.523  48.920 -27.487  1.00  0.00    -0.309 N 
HETATM   34  H17 UNL     1      -4.766  48.660 -26.543  1.00  0.00     0.170 HD
BRANCH  33  35
HETATM   35  C18 UNL     1      -5.283  48.220 -28.424  1.00  0.00     0.108 A 
HETATM   36  C19 UNL     1      -4.794  47.736 -29.628  1.00  0.00     0.064 A 
HETATM   37  C20 UNL     1      -5.660  47.051 -30.490  1.00  0.00     0.052 A 
HETATM   38  C22 UNL     1      -6.987  46.861 -30.095  1.00  0.00     0.033 A 
HETATM   39  C23 UNL     1      -7.387  47.375 -28.876  1.00  0.00     0.090 A 
HETATM   40  N7  UNL     1      -6.566  48.044 -28.038  1.00  0.00    -0.352 N 
ATOM     41  H7  UNL     1      -6.902  48.404 -27.146  1.00  0.00     0.166 HD
BRANCH  37  42
HETATM   42  C21 UNL     1      -5.165  46.495 -31.798  1.00  0.00     0.417 C 
HETATM   43  F1  UNL     1      -5.987  45.531 -32.303  1.00  0.00    -0.166 F 
HETATM   44  F2  UNL     1      -3.941  45.912 -31.678  1.00  0.00    -0.166 F 
HETATM   45  F3  UNL     1      -5.044  47.430 -32.777  1.00  0.00    -0.166 F 
ENDBRANCH  37  42
ENDBRANCH  33  35
ENDBRANCH  14  31
TORSDOF 5
ENDMDL
MODEL 3
REMARK minimizedAffinity -11.2210722
REMARK CNNscore 0.157777071
REMARK CNNaffinity 7.14486456
REMARK  5 active torsions:
REMARK  status: ('A' for Active; 'I' for Inactive)
REMARK    1  A    between atoms: N1_1  and  C1_2 
REMARK    2  A    between atoms: C4_8  and  C5_9 
REMARK    3  A    between atoms: C16_25  and  C17_26 
REMARK       I    between atoms: C17_26  and  N6_28 
REMARK    4  A    between atoms: N6_28  and  C18_29 
REMARK    5  A    between atoms: C20_31  and  C21_32 
ROOT
HETATM    1  C1  UNL     1       0.593  53.839 -24.184  1.00  0.00     0.107 A 
HETATM    2  N2  UNL     1       1.387  54.795 -23.764  1.00  0.00    -0.354 N 
ATOM      3  H2  UNL     1       1.706  55.522 -24.405  1.00  0.00     0.166 HD
HETATM    4  C2  UNL     1       1.784  54.804 -22.444  1.00  0.00     0.107 A 
HETATM    5  C3  UNL     1       1.416  53.880 -21.546  1.00  0.00     0.116 A 
HETATM    6  N3  UNL     1       0.572  52.863 -21.955  1.00  0.00    -0.305 N 
HETATM    7  C4  UNL     1       0.021  51.773 -21.302  1.00  0.00     0.094 A 
HETATM    8  N5  UNL     1      -0.767  51.096 -22.119  1.00  0.00    -0.343 N 
ATOM      9  H5  UNL     1      -1.304  50.257 -21.896  1.00  0.00     0.167 HD
HETATM   10  C12 UNL     1      -0.717  51.745 -23.325  1.00  0.00     0.074 A 
HETATM   11  C13 UNL     1      -1.464  51.292 -24.475  1.00  0.00    -0.007 A 
HETATM   12  C14 UNL     1      -2.613  51.977 -24.888  1.00  0.00     0.015 A 
HETATM   13  C15 UNL     1      -3.331  51.536 -26.003  1.00  0.00     0.018 A 
HETATM   14  C16 UNL     1      -2.904  50.401 -26.706  1.00  0.00     0.032 A 
HETATM   15  C24 UNL     1      -1.775  49.697 -26.270  1.00  0.00     0.018 A 
HETATM   16  C25 UNL     1      -1.056  50.143 -25.158  1.00  0.00     0.015 A 
HETATM   17  C26 UNL     1       0.124  52.832 -23.260  1.00  0.00     0.106 A 
ENDROOT
BRANCH   7  18
HETATM   18  C5  UNL     1       0.264  51.380 -19.871  1.00  0.00     0.072 C 
HETATM   19  C6  UNL     1      -0.489  50.092 -19.457  1.00  0.00     0.016 C 
HETATM   20  C7  UNL     1      -1.319  50.234 -18.173  1.00  0.00     0.028 C 
HETATM   21  C8  UNL     1      -0.589  50.976 -17.056  1.00  0.00     0.114 C 
HETATM   22  C9  UNL     1       0.422  50.163 -16.277  1.00  0.00     0.206 C 
HETATM   23  N4  UNL     1       0.207  52.067 -17.533  1.00  0.00    -0.320 N 
HETATM   24  O1  UNL     1       1.431  51.113 -15.914  1.00  0.00    -0.302 OA
HETATM   25  C10 UNL     1       1.402  52.113 -16.849  1.00  0.00     0.363 C 
HETATM   26  O2  UNL     1       2.326  52.884 -17.048  1.00  0.00    -0.238 OA
HETATM   27  C11 UNL     1       0.062  52.547 -18.893  1.00  0.00     0.141 C 
ENDBRANCH   7  18
BRANCH   1  28
HETATM   28  N1  UNL     1       0.266  53.878 -25.508  1.00  0.00    -0.287 NA
HETATM   29  H1  UNL     1      -0.629  53.496 -25.773  1.00  0.00     0.125 HD
HETATM   30  H2  UNL     1       0.477  54.775 -25.929  1.00  0.00     0.125 HD
ENDBRANCH   1  28
BRANCH  14  31
HETATM   31  C17 UNL     1      -3.642  49.894 -27.899  1.00  0.00     0.257 C 
HETATM   32  O3  UNL     1      -3.403  50.390 -28.992  1.00  0.00    -0.267 OA
HETATM   33  N6  UNL     1      -4.570  48.917 -27.630  1.00  0.00    -0.309 N 
HETATM   34  H17 UNL     1      -4.777  48.664 -26.675  1.00  0.00     0.170 HD
BRANCH  33  35
HETATM   35  C18 UNL     1      -5.406  48.254 -28.528  1.00  0.00     0.108 A 
HETATM   36  C19 UNL     1      -4.964  47.546 -29.636  1.00  0.00     0.064 A 
HETATM   37  C20 UNL     1      -5.905  46.925 -30.469  1.00  0.00     0.052 A 
HETATM   38  C22 UNL     1      -7.259  47.025 -30.140  1.00  0.00     0.033 A 
HETATM   39  C23 UNL     1      -7.609  47.748 -29.015  1.00  0.00     0.090 A 
HETATM   40  N7  UNL     1      -6.714  48.358 -28.208  1.00  0.00    -0.352 N 
ATOM     41  H7  UNL     1      -7.016  48.879 -27.385  1.00  0.00     0.166 HD
BRANCH  37  42
HETATM   42  C21 UNL     1      -5.466  46.133 -31.670  1.00  0.00     0.417 C 
HETATM   43  F1  UNL     1      -5.785  46.744 -32.847  1.00  0.00    -0.166 F 
HETATM   44  F2  UNL     1      -6.052  44.906 -31.719  1.00  0.00    -0.166 F 
HETATM   45  F3  UNL     1      -4.125  45.914 -31.718  1.00  0.00    -0.166 F 
ENDBRANCH  37  42
ENDBRANCH  33  35
ENDBRANCH  14  31
TORSDOF 5
ENDMDL
MODEL 4
REMARK minimizedAffinity -10.6211996
REMARK CNNscore 0.148191586
REMARK CNNaffinity 7.39951706
REMARK  5 active torsions:
REMARK  status: ('A' for Active; 'I' for Inactive)
REMARK    1  A    between atoms: N1_1  and  C1_2 
REMARK    2  A    between atoms: C4_8  and  C5_9 
REMARK    3  A    between atoms: C16_25  and  C17_26 
REMARK       I    between atoms: C17_26  and  N6_28 
REMARK    4  A    between atoms: N6_28  and  C18_29 
REMARK    5  A    between atoms: C20_31  and  C21_32 
ROOT
HETATM    1  C1  UNL     1      -0.051  52.699 -23.270  1.00  0.00     0.107 A 
HETATM    2  N2  UNL     1       0.903  53.600 -23.223  1.00  0.00    -0.354 N 
ATOM      3  H2  UNL     1       1.256  54.025 -24.080  1.00  0.00     0.166 HD
HETATM    4  C2  UNL     1       1.420  53.963 -21.997  1.00  0.00     0.107 A 
HETATM    5  C3  UNL     1       1.014  53.443 -20.830  1.00  0.00     0.116 A 
HETATM    6  N3  UNL     1       0.004  52.497 -20.845  1.00  0.00    -0.305 N 
HETATM    7  C4  UNL     1      -0.626  51.773 -19.847  1.00  0.00     0.094 A 
HETATM    8  N5  UNL     1      -1.573  51.007 -20.361  1.00  0.00    -0.343 N 
ATOM      9  H5  UNL     1      -2.196  50.380 -19.852  1.00  0.00     0.167 HD
HETATM   10  C12 UNL     1      -1.548  51.224 -21.714  1.00  0.00     0.074 A 
HETATM   11  C13 UNL     1      -2.455  50.556 -22.617  1.00  0.00    -0.007 A 
HETATM   12  C14 UNL     1      -3.533  51.249 -23.180  1.00  0.00     0.015 A 
HETATM   13  C15 UNL     1      -4.407  50.598 -24.055  1.00  0.00     0.018 A 
HETATM   14  C16 UNL     1      -4.208  49.246 -24.366  1.00  0.00     0.032 A 
HETATM   15  C24 UNL     1      -3.149  48.545 -23.775  1.00  0.00     0.018 A 
HETATM   16  C25 UNL     1      -2.275  49.199 -22.904  1.00  0.00     0.015 A 
HETATM   17  C26 UNL     1      -0.565  52.126 -22.046  1.00  0.00     0.106 A 
ENDROOT
BRANCH   7  18
HETATM   18  C5  UNL     1      -0.306  51.820 -18.379  1.00  0.00     0.072 C 
HETATM   19  C6  UNL     1       0.828  52.816 -18.034  1.00  0.00     0.016 C 
HETATM   20  C7  UNL     1       1.957  52.215 -17.185  1.00  0.00     0.028 C 
HETATM   21  C8  UNL     1       1.455  51.342 -16.037  1.00  0.00     0.114 C 
HETATM   22  C9  UNL     1       0.969  52.084 -14.810  1.00  0.00     0.206 C 
HETATM   23  N4  UNL     1       0.310  50.557 -16.387  1.00  0.00    -0.320 N 
HETATM   24  O1  UNL     1      -0.076  51.252 -14.290  1.00  0.00    -0.302 OA
HETATM   25  C10 UNL     1      -0.585  50.535 -15.339  1.00  0.00     0.363 C 
HETATM   26  O2  UNL     1      -1.683  50.004 -15.330  1.00  0.00    -0.238 OA
HETATM   27  C11 UNL     1      -0.099  50.425 -17.771  1.00  0.00     0.141 C 
ENDBRANCH   7  18
BRANCH   1  28
HETATM   28  N1  UNL     1      -0.493  52.369 -24.517  1.00  0.00    -0.287 NA
HETATM   29  H1  UNL     1      -1.453  52.071 -24.602  1.00  0.00     0.125 HD
HETATM   30  H2  UNL     1      -0.202  53.040 -25.218  1.00  0.00     0.125 HD
ENDBRANCH   1  28
BRANCH  14  31
HETATM   31  C17 UNL     1      -5.117  48.511 -25.293  1.00  0.00     0.257 C 
HETATM   32  O3  UNL     1      -5.998  47.808 -24.816  1.00  0.00    -0.267 OA
HETATM   33  N6  UNL     1      -4.836  48.676 -26.628  1.00  0.00    -0.309 N 
HETATM   34  H17 UNL     1      -4.009  49.180 -26.912  1.00  0.00     0.170 HD
BRANCH  33  35
HETATM   35  C18 UNL     1      -5.501  48.124 -27.722  1.00  0.00     0.108 A 
HETATM   36  C19 UNL     1      -4.948  47.979 -28.985  1.00  0.00     0.064 A 
HETATM   37  C20 UNL     1      -5.722  47.413 -30.008  1.00  0.00     0.052 A 
HETATM   38  C22 UNL     1      -7.021  46.994 -29.710  1.00  0.00     0.033 A 
HETATM   39  C23 UNL     1      -7.490  47.175 -28.423  1.00  0.00     0.090 A 
HETATM   40  N7  UNL     1      -6.759  47.726 -27.430  1.00  0.00    -0.352 N 
ATOM     41  H7  UNL     1      -7.142  47.838 -26.492  1.00  0.00     0.166 HD
BRANCH  37  42
HETATM   42  C21 UNL     1      -5.153  47.221 -31.387  1.00  0.00     0.417 C 
HETATM   43  F1  UNL     1      -4.630  48.371 -31.903  1.00  0.00    -0.166 F 
HETATM   44  F2  UNL     1      -6.096  46.810 -32.279  1.00  0.00    -0.166 F 
HETATM   45  F3  UNL     1      -4.154  46.301 -31.442  1.00  0.00    -0.166 F 
ENDBRANCH  37  42
ENDBRANCH  33  35
ENDBRANCH  14  31
TORSDOF 5
ENDMDL
MODEL 5
REMARK minimizedAffinity -9.78978062
REMARK CNNscore 0.129551947
REMARK CNNaffinity 7.03268433
REMARK  5 active torsions:
REMARK  status: ('A' for Active; 'I' for Inactive)
REMARK    1  A    between atoms: N1_1  and  C1_2 
REMARK    2  A    between atoms: C4_8  and  C5_9 
REMARK    3  A    between atoms: C16_25  and  C17_26 
REMARK       I    between atoms: C17_26  and  N6_28 
REMARK    4  A    between atoms: N6_28  and  C18_29 
REMARK    5  A    between atoms: C20_31  and  C21_32 
ROOT
HETATM    1  C1  UNL     1       0.672  53.339 -20.773  1.00  0.00     0.107 A 
HETATM    2  N2  UNL     1       1.352  54.098 -21.600  1.00  0.00    -0.354 N 
ATOM      3  H2  UNL     1       2.033  54.769 -21.245  1.00  0.00     0.166 HD
HETATM    4  C2  UNL     1       1.131  53.976 -22.955  1.00  0.00     0.107 A 
HETATM    5  C3  UNL     1       0.247  53.125 -23.495  1.00  0.00     0.116 A 
HETATM    6  N3  UNL     1      -0.479  52.305 -22.651  1.00  0.00    -0.305 N 
HETATM    7  C4  UNL     1      -1.453  51.346 -22.873  1.00  0.00     0.094 A 
HETATM    8  N5  UNL     1      -1.827  50.794 -21.732  1.00  0.00    -0.343 N 
ATOM      9  H5  UNL     1      -2.519  50.056 -21.607  1.00  0.00     0.167 HD
HETATM   10  C12 UNL     1      -1.097  51.413 -20.751  1.00  0.00     0.074 A 
HETATM   11  C13 UNL     1      -1.232  51.066 -19.356  1.00  0.00    -0.007 A 
HETATM   12  C14 UNL     1      -0.242  50.311 -18.714  1.00  0.00     0.015 A 
HETATM   13  C15 UNL     1      -0.377  49.980 -17.363  1.00  0.00     0.018 A 
HETATM   14  C16 UNL     1      -1.508  50.397 -16.649  1.00  0.00     0.032 A 
HETATM   15  C24 UNL     1      -2.514  51.122 -17.302  1.00  0.00     0.018 A 
HETATM   16  C25 UNL     1      -2.374  51.456 -18.651  1.00  0.00     0.015 A 
HETATM   17  C26 UNL     1      -0.269  52.371 -21.289  1.00  0.00     0.106 A 
ENDROOT
BRANCH   7  18
HETATM   18  C5  UNL     1      -2.032  50.961 -24.207  1.00  0.00     0.072 C 
HETATM   19  C6  UNL     1      -3.189  49.939 -24.097  1.00  0.00     0.016 C 
HETATM   20  C7  UNL     1      -3.027  48.706 -24.998  1.00  0.00     0.028 C 
HETATM   21  C8  UNL     1      -2.558  49.043 -26.411  1.00  0.00     0.114 C 
HETATM   22  C9  UNL     1      -3.625  49.553 -27.354  1.00  0.00     0.206 C 
HETATM   23  N4  UNL     1      -1.594  50.102 -26.446  1.00  0.00    -0.320 N 
HETATM   24  O1  UNL     1      -2.928  50.465 -28.212  1.00  0.00    -0.302 OA
HETATM   25  C10 UNL     1      -1.849  50.935 -27.514  1.00  0.00     0.363 C 
HETATM   26  O2  UNL     1      -1.251  51.960 -27.795  1.00  0.00    -0.238 OA
HETATM   27  C11 UNL     1      -0.957  50.560 -25.228  1.00  0.00     0.141 C 
ENDBRANCH   7  18
BRANCH   1  28
HETATM   28  N1  UNL     1       0.921  53.536 -19.446  1.00  0.00    -0.287 NA
HETATM   29  H1  UNL     1       0.806  52.743 -18.833  1.00  0.00     0.125 HD
HETATM   30  H2  UNL     1       1.773  54.063 -19.289  1.00  0.00     0.125 HD
ENDBRANCH   1  28
BRANCH  14  31
HETATM   31  C17 UNL     1      -1.694  50.064 -15.208  1.00  0.00     0.257 C 
HETATM   32  O3  UNL     1      -1.324  48.969 -14.806  1.00  0.00    -0.267 OA
HETATM   33  N6  UNL     1      -2.318  51.038 -14.466  1.00  0.00    -0.309 N 
HETATM   34  H17 UNL     1      -2.695  51.856 -14.921  1.00  0.00     0.170 HD
BRANCH  33  35
HETATM   35  C18 UNL     1      -2.628  51.019 -13.107  1.00  0.00     0.108 A 
HETATM   36  C19 UNL     1      -3.644  50.261 -12.544  1.00  0.00     0.064 A 
HETATM   37  C20 UNL     1      -3.861  50.331 -11.161  1.00  0.00     0.052 A 
HETATM   38  C22 UNL     1      -3.029  51.151 -10.393  1.00  0.00     0.033 A 
HETATM   39  C23 UNL     1      -2.040  51.868 -11.038  1.00  0.00     0.090 A 
HETATM   40  N7  UNL     1      -1.824  51.817 -12.370  1.00  0.00    -0.352 N 
ATOM     41  H7  UNL     1      -1.079  52.361 -12.805  1.00  0.00     0.166 HD
BRANCH  37  42
HETATM   42  C21 UNL     1      -4.941  49.512 -10.509  1.00  0.00     0.417 C 
HETATM   43  F1  UNL     1      -5.733  50.251  -9.680  1.00  0.00    -0.166 F 
HETATM   44  F2  UNL     1      -4.433  48.511  -9.740  1.00  0.00    -0.166 F 
HETATM   45  F3  UNL     1      -5.785  48.918 -11.395  1.00  0.00    -0.166 F 
ENDBRANCH  37  42
ENDBRANCH  33  35
ENDBRANCH  14  31
TORSDOF 5
ENDMDL
MODEL 6
REMARK minimizedAffinity -9.49287891
REMARK CNNscore 0.0981816128
REMARK CNNaffinity 7.07375193
REMARK  5 active torsions:
REMARK  status: ('A' for Active; 'I' for Inactive)
REMARK    1  A    between atoms: N1_1  and  C1_2 
REMARK    2  A    between atoms: C4_8  and  C5_9 
REMARK    3  A    between atoms: C16_25  and  C17_26 
REMARK       I    between atoms: C17_26  and  N6_28 
REMARK    4  A    between atoms: N6_28  and  C18_29 
REMARK    5  A    between atoms: C20_31  and  C21_32 
ROOT
HETATM    1  C1  UNL     1      -1.344  48.448 -18.559  1.00  0.00     0.107 A 
HETATM    2  N2  UNL     1      -1.825  47.521 -19.354  1.00  0.00    -0.354 N 
ATOM      3  H2  UNL     1      -2.073  46.602 -18.986  1.00  0.00     0.166 HD
HETATM    4  C2  UNL     1      -1.989  47.806 -20.692  1.00  0.00     0.107 A 
HETATM    5  C3  UNL     1      -1.677  48.984 -21.250  1.00  0.00     0.116 A 
HETATM    6  N3  UNL     1      -1.176  49.986 -20.438  1.00  0.00    -0.305 N 
HETATM    7  C4  UNL     1      -0.756  51.282 -20.687  1.00  0.00     0.094 A 
HETATM    8  N5  UNL     1      -0.390  51.872 -19.562  1.00  0.00    -0.343 N 
ATOM      9  H5  UNL     1      -0.049  52.828 -19.455  1.00  0.00     0.167 HD
HETATM   10  C12 UNL     1      -0.559  50.943 -18.569  1.00  0.00     0.074 A 
HETATM   11  C13 UNL     1      -0.263  51.231 -17.186  1.00  0.00    -0.007 A 
HETATM   12  C14 UNL     1      -1.299  51.447 -16.270  1.00  0.00     0.015 A 
HETATM   13  C15 UNL     1      -1.007  51.725 -14.931  1.00  0.00     0.018 A 
HETATM   14  C16 UNL     1       0.326  51.793 -14.506  1.00  0.00     0.032 A 
HETATM   15  C24 UNL     1       1.362  51.611 -15.431  1.00  0.00     0.018 A 
HETATM   16  C25 UNL     1       1.067  51.330 -16.767  1.00  0.00     0.015 A 
HETATM   17  C26 UNL     1      -1.024  49.755 -19.086  1.00  0.00     0.106 A 
ENDROOT
BRANCH   7  18
HETATM   18  C5  UNL     1      -0.704  51.956 -22.030  1.00  0.00     0.072 C 
HETATM   19  C6  UNL     1      -1.741  51.396 -23.033  1.00  0.00     0.016 C 
HETATM   20  C7  UNL     1      -1.149  50.990 -24.390  1.00  0.00     0.028 C 
HETATM   21  C8  UNL     1      -0.154  52.006 -24.947  1.00  0.00     0.114 C 
HETATM   22  C9  UNL     1      -0.759  53.224 -25.610  1.00  0.00     0.206 C 
HETATM   23  N4  UNL     1       0.674  52.593 -23.937  1.00  0.00    -0.320 N 
HETATM   24  O1  UNL     1       0.179  54.273 -25.338  1.00  0.00    -0.302 OA
HETATM   25  C10 UNL     1       0.841  53.938 -24.188  1.00  0.00     0.363 C 
HETATM   26  O2  UNL     1       1.442  54.739 -23.492  1.00  0.00    -0.238 OA
HETATM   27  C11 UNL     1       0.720  52.032 -22.602  1.00  0.00     0.141 C 
ENDBRANCH   7  18
BRANCH   1  28
HETATM   28  N1  UNL     1      -1.182  48.085 -17.254  1.00  0.00    -0.287 NA
HETATM   29  H1  UNL     1      -1.263  48.813 -16.560  1.00  0.00     0.125 HD
HETATM   30  H2  UNL     1      -1.685  47.235 -17.027  1.00  0.00     0.125 HD
ENDBRANCH   1  28
BRANCH  14  31
HETATM   31  C17 UNL     1       0.684  52.089 -13.088  1.00  0.00     0.257 C 
HETATM   32  O3  UNL     1       1.367  51.280 -12.474  1.00  0.00    -0.267 OA
HETATM   33  N6  UNL     1       0.159  53.258 -12.593  1.00  0.00    -0.309 N 
HETATM   34  H17 UNL     1      -0.495  53.793 -13.146  1.00  0.00     0.170 HD
BRANCH  33  35
HETATM   35  C18 UNL     1       0.315  53.799 -11.317  1.00  0.00     0.108 A 
HETATM   36  C19 UNL     1       1.411  54.544 -10.909  1.00  0.00     0.064 A 
HETATM   37  C20 UNL     1       1.453  55.030  -9.595  1.00  0.00     0.052 A 
HETATM   38  C22 UNL     1       0.376  54.763  -8.746  1.00  0.00     0.033 A 
HETATM   39  C23 UNL     1      -0.677  54.015  -9.239  1.00  0.00     0.090 A 
HETATM   40  N7  UNL     1      -0.728  53.533 -10.500  1.00  0.00    -0.352 N 
ATOM     41  H7  UNL     1      -1.526  52.987 -10.824  1.00  0.00     0.166 HD
BRANCH  37  42
HETATM   42  C21 UNL     1       2.616  55.857  -9.118  1.00  0.00     0.417 C 
HETATM   43  F1  UNL     1       2.269  56.726  -8.125  1.00  0.00    -0.166 F 
HETATM   44  F2  UNL     1       3.145  56.621 -10.111  1.00  0.00    -0.166 F 
HETATM   45  F3  UNL     1       3.643  55.118  -8.621  1.00  0.00    -0.166 F 
ENDBRANCH  37  42
ENDBRANCH  33  35
ENDBRANCH  14  31
TORSDOF 5
ENDMDL
MODEL 7
REMARK minimizedAffinity -10.5871973
REMARK CNNscore 0.0935411081
REMARK CNNaffinity 6.84103918
REMARK  5 active torsions:
REMARK  status: ('A' for Active; 'I' for Inactive)
REMARK    1  A    between atoms: N1_1  and  C1_2 
REMARK    2  A    between atoms: C4_8  and  C5_9 
REMARK    3  A    between atoms: C16_25  and  C17_26 
REMARK       I    between atoms: C17_26  and  N6_28 
REMARK    4  A    between atoms: N6_28  and  C18_29 
REMARK    5  A    between atoms: C20_31  and  C21_32 
ROOT
HETATM    1  C1  UNL     1      -2.731  50.816 -16.262  1.00  0.00     0.107 A 
HETATM    2  N2  UNL     1      -3.559  50.608 -15.265  1.00  0.00    -0.354 N 
ATOM      3  H2  UNL     1      -4.566  50.678 -15.406  1.00  0.00     0.166 HD
HETATM    4  C2  UNL     1      -3.046  50.294 -14.025  1.00  0.00     0.107 A 
HETATM    5  C3  UNL     1      -1.736  50.194 -13.760  1.00  0.00     0.116 A 
HETATM    6  N3  UNL     1      -0.837  50.399 -14.792  1.00  0.00    -0.305 N 
HETATM    7  C4  UNL     1       0.546  50.381 -14.857  1.00  0.00     0.094 A 
HETATM    8  N5  UNL     1       0.952  50.603 -16.095  1.00  0.00    -0.343 N 
ATOM      9  H5  UNL     1       1.917  50.633 -16.427  1.00  0.00     0.167 HD
HETATM   10  C12 UNL     1      -0.182  50.783 -16.844  1.00  0.00     0.074 A 
HETATM   11  C13 UNL     1      -0.134  51.046 -18.262  1.00  0.00    -0.007 A 
HETATM   12  C14 UNL     1      -0.467  50.043 -19.181  1.00  0.00     0.015 A 
HETATM   13  C15 UNL     1      -0.421  50.304 -20.553  1.00  0.00     0.018 A 
HETATM   14  C16 UNL     1      -0.034  51.569 -21.013  1.00  0.00     0.032 A 
HETATM   15  C24 UNL     1       0.334  52.561 -20.093  1.00  0.00     0.018 A 
HETATM   16  C25 UNL     1       0.282  52.299 -18.722  1.00  0.00     0.015 A 
HETATM   17  C26 UNL     1      -1.306  50.685 -16.058  1.00  0.00     0.106 A 
ENDROOT
BRANCH   7  18
HETATM   18  C5  UNL     1       1.486  50.150 -13.706  1.00  0.00     0.072 C 
HETATM   19  C6  UNL     1       0.776  50.145 -12.331  1.00  0.00     0.016 C 
HETATM   20  C7  UNL     1       1.413  51.078 -11.291  1.00  0.00     0.028 C 
HETATM   21  C8  UNL     1       2.938  51.004 -11.262  1.00  0.00     0.114 C 
HETATM   22  C9  UNL     1       3.526  49.824 -10.519  1.00  0.00     0.206 C 
HETATM   23  N4  UNL     1       3.519  50.860 -12.563  1.00  0.00    -0.320 N 
HETATM   24  O1  UNL     1       4.737  49.532 -11.228  1.00  0.00    -0.302 OA
HETATM   25  C10 UNL     1       4.571  49.971 -12.514  1.00  0.00     0.363 C 
HETATM   26  O2  UNL     1       5.242  49.584 -13.456  1.00  0.00    -0.238 OA
HETATM   27  C11 UNL     1       2.719  51.064 -13.754  1.00  0.00     0.141 C 
ENDBRANCH   7  18
BRANCH   1  28
HETATM   28  N1  UNL     1      -3.308  51.151 -17.452  1.00  0.00    -0.287 NA
HETATM   29  H1  UNL     1      -2.819  50.884 -18.293  1.00  0.00     0.125 HD
HETATM   30  H2  UNL     1      -4.302  50.951 -17.467  1.00  0.00     0.125 HD
ENDBRANCH   1  28
BRANCH  14  31
HETATM   31  C17 UNL     1       0.032  51.890 -22.468  1.00  0.00     0.257 C 
HETATM   32  O3  UNL     1       0.697  52.853 -22.827  1.00  0.00    -0.267 OA
HETATM   33  N6  UNL     1      -0.716  51.067 -23.274  1.00  0.00    -0.309 N 
HETATM   34  H17 UNL     1      -1.328  50.376 -22.864  1.00  0.00     0.170 HD
BRANCH  33  35
HETATM   35  C18 UNL     1      -0.854  51.114 -24.661  1.00  0.00     0.108 A 
HETATM   36  C19 UNL     1       0.126  51.564 -25.532  1.00  0.00     0.064 A 
HETATM   37  C20 UNL     1      -0.135  51.568 -26.909  1.00  0.00     0.052 A 
HETATM   38  C22 UNL     1      -1.372  51.098 -27.358  1.00  0.00     0.033 A 
HETATM   39  C23 UNL     1      -2.289  50.666 -26.418  1.00  0.00     0.090 A 
HETATM   40  N7  UNL     1      -2.054  50.663 -25.088  1.00  0.00    -0.352 N 
ATOM     41  H7  UNL     1      -2.758  50.333 -24.429  1.00  0.00     0.166 HD
BRANCH  37  42
HETATM   42  C21 UNL     1       0.908  52.031 -27.890  1.00  0.00     0.417 C 
HETATM   43  F1  UNL     1       0.556  53.186 -28.524  1.00  0.00    -0.166 F 
HETATM   44  F2  UNL     1       1.128  51.119 -28.876  1.00  0.00    -0.166 F 
HETATM   45  F3  UNL     1       2.120  52.273 -27.322  1.00  0.00    -0.166 F 
ENDBRANCH  37  42
ENDBRANCH  33  35
ENDBRANCH  14  31
TORSDOF 5
ENDMDL
MODEL 8
REMARK minimizedAffinity -9.48209572
REMARK CNNscore 0.0899260491
REMARK CNNaffinity 5.27233505
REMARK  5 active torsions:
REMARK  status: ('A' for Active; 'I' for Inactive)
REMARK    1  A    between atoms: N1_1  and  C1_2 
REMARK    2  A    between atoms: C4_8  and  C5_9 
REMARK    3  A    between atoms: C16_25  and  C17_26 
REMARK       I    between atoms: C17_26  and  N6_28 
REMARK    4  A    between atoms: N6_28  and  C18_29 
REMARK    5  A    between atoms: C20_31  and  C21_32 
ROOT
HETATM    1  C1  UNL     1      -7.814  47.802 -25.883  1.00  0.00     0.107 A 
HETATM    2  N2  UNL     1      -6.575  47.984 -25.490  1.00  0.00    -0.354 N 
ATOM      3  H2  UNL     1      -6.354  48.071 -24.498  1.00  0.00     0.166 HD
HETATM    4  C2  UNL     1      -5.576  48.055 -26.438  1.00  0.00     0.107 A 
HETATM    5  C3  UNL     1      -5.789  47.960 -27.758  1.00  0.00     0.116 A 
HETATM    6  N3  UNL     1      -7.084  47.759 -28.204  1.00  0.00    -0.305 N 
HETATM    7  C4  UNL     1      -7.638  47.629 -29.466  1.00  0.00     0.094 A 
HETATM    8  N5  UNL     1      -8.938  47.410 -29.378  1.00  0.00    -0.343 N 
ATOM      9  H5  UNL     1      -9.589  47.268 -30.151  1.00  0.00     0.167 HD
HETATM   10  C12 UNL     1      -9.238  47.413 -28.041  1.00  0.00     0.074 A 
HETATM   11  C13 UNL     1     -10.579  47.198 -27.552  1.00  0.00    -0.007 A 
HETATM   12  C14 UNL     1     -10.933  45.976 -26.967  1.00  0.00     0.015 A 
HETATM   13  C15 UNL     1     -12.232  45.774 -26.493  1.00  0.00     0.018 A 
HETATM   14  C16 UNL     1     -13.186  46.794 -26.609  1.00  0.00     0.032 A 
HETATM   15  C24 UNL     1     -12.840  48.003 -27.227  1.00  0.00     0.018 A 
HETATM   16  C25 UNL     1     -11.539  48.204 -27.695  1.00  0.00     0.015 A 
HETATM   17  C26 UNL     1      -8.111  47.650 -27.288  1.00  0.00     0.106 A 
ENDROOT
BRANCH   7  18
HETATM   18  C5  UNL     1      -6.901  47.722 -30.773  1.00  0.00     0.072 C 
HETATM   19  C6  UNL     1      -7.691  48.481 -31.866  1.00  0.00     0.016 C 
HETATM   20  C7  UNL     1      -7.810  47.723 -33.197  1.00  0.00     0.028 C 
HETATM   21  C8  UNL     1      -6.506  47.067 -33.642  1.00  0.00     0.114 C 
HETATM   22  C9  UNL     1      -5.495  47.987 -34.292  1.00  0.00     0.206 C 
HETATM   23  N4  UNL     1      -5.754  46.515 -32.555  1.00  0.00    -0.320 N 
HETATM   24  O1  UNL     1      -4.227  47.437 -33.914  1.00  0.00    -0.302 OA
HETATM   25  C10 UNL     1      -4.411  46.763 -32.736  1.00  0.00     0.363 C 
HETATM   26  O2  UNL     1      -3.508  46.478 -31.968  1.00  0.00    -0.238 OA
HETATM   27  C11 UNL     1      -6.355  46.365 -31.244  1.00  0.00     0.141 C 
ENDBRANCH   7  18
BRANCH   1  28
HETATM   28  N1  UNL     1      -8.751  47.770 -24.892  1.00  0.00    -0.287 NA
HETATM   29  H1  UNL     1      -9.576  47.213 -25.055  1.00  0.00     0.125 HD
HETATM   30  H2  UNL     1      -8.337  47.642 -23.975  1.00  0.00     0.125 HD
ENDBRANCH   1  28
BRANCH  14  31
HETATM   31  C17 UNL     1     -14.584  46.620 -26.121  1.00  0.00     0.257 C 
HETATM   32  O3  UNL     1     -14.912  47.162 -25.073  1.00  0.00    -0.267 OA
HETATM   33  N6  UNL     1     -15.373  45.811 -26.903  1.00  0.00    -0.309 N 
HETATM   34  H17 UNL     1     -14.969  45.312 -27.682  1.00  0.00     0.170 HD
BRANCH  33  35
HETATM   35  C18 UNL     1     -16.709  45.464 -26.709  1.00  0.00     0.108 A 
HETATM   36  C19 UNL     1     -17.496  45.924 -25.664  1.00  0.00     0.064 A 
HETATM   37  C20 UNL     1     -18.828  45.497 -25.574  1.00  0.00     0.052 A 
HETATM   38  C22 UNL     1     -19.323  44.634 -26.555  1.00  0.00     0.033 A 
HETATM   39  C23 UNL     1     -18.468  44.228 -27.563  1.00  0.00     0.090 A 
HETATM   40  N7  UNL     1     -17.181  44.626 -27.658  1.00  0.00    -0.352 N 
ATOM     41  H7  UNL     1     -16.584  44.304 -28.421  1.00  0.00     0.166 HD
BRANCH  37  42
HETATM   42  C21 UNL     1     -19.720  45.987 -24.466  1.00  0.00     0.417 C 
HETATM   43  F1  UNL     1     -20.974  46.300 -24.902  1.00  0.00    -0.166 F 
HETATM   44  F2  UNL     1     -19.239  47.117 -23.880  1.00  0.00    -0.166 F 
HETATM   45  F3  UNL     1     -19.890  45.084 -23.463  1.00  0.00    -0.166 F 
ENDBRANCH  37  42
ENDBRANCH  33  35
ENDBRANCH  14  31
TORSDOF 5
ENDMDL
MODEL 9
REMARK minimizedAffinity -9.19128704
REMARK CNNscore 0.0801978782
REMARK CNNaffinity 5.86030245
REMARK  5 active torsions:
REMARK  status: ('A' for Active; 'I' for Inactive)
REMARK    1  A    between atoms: N1_1  and  C1_2 
REMARK    2  A    between atoms: C4_8  and  C5_9 
REMARK    3  A    between atoms: C16_25  and  C17_26 
REMARK       I    between atoms: C17_26  and  N6_28 
REMARK    4  A    between atoms: N6_28  and  C18_29 
REMARK    5  A    between atoms: C20_31  and  C21_32 
ROOT
HETATM    1  C1  UNL     1      -9.721  48.078 -27.727  1.00  0.00     0.107 A 
HETATM    2  N2  UNL     1     -10.955  48.102 -28.172  1.00  0.00    -0.354 N 
ATOM      3  H2  UNL     1     -11.354  48.962 -28.549  1.00  0.00     0.166 HD
HETATM    4  C2  UNL     1     -11.707  46.947 -28.121  1.00  0.00     0.107 A 
HETATM    5  C3  UNL     1     -11.257  45.782 -27.632  1.00  0.00     0.116 A 
HETATM    6  N3  UNL     1      -9.956  45.723 -27.163  1.00  0.00    -0.305 N 
HETATM    7  C4  UNL     1      -9.201  44.707 -26.601  1.00  0.00     0.094 A 
HETATM    8  N5  UNL     1      -7.976  45.131 -26.346  1.00  0.00    -0.343 N 
ATOM      9  H5  UNL     1      -7.212  44.589 -25.941  1.00  0.00     0.167 HD
HETATM   10  C12 UNL     1      -7.936  46.445 -26.733  1.00  0.00     0.074 A 
HETATM   11  C13 UNL     1      -6.744  47.249 -26.610  1.00  0.00    -0.007 A 
HETATM   12  C14 UNL     1      -5.982  47.566 -27.741  1.00  0.00     0.015 A 
HETATM   13  C15 UNL     1      -4.829  48.347 -27.615  1.00  0.00     0.018 A 
HETATM   14  C16 UNL     1      -4.430  48.808 -26.354  1.00  0.00     0.032 A 
HETATM   15  C24 UNL     1      -5.174  48.460 -25.219  1.00  0.00     0.018 A 
HETATM   16  C25 UNL     1      -6.328  47.684 -25.348  1.00  0.00     0.015 A 
HETATM   17  C26 UNL     1      -9.158  46.846 -27.224  1.00  0.00     0.106 A 
ENDROOT
BRANCH   7  18
HETATM   18  C5  UNL     1      -9.673  43.311 -26.303  1.00  0.00     0.072 C 
HETATM   19  C6  UNL     1     -11.147  43.067 -26.705  1.00  0.00     0.016 C 
HETATM   20  C7  UNL     1     -12.013  42.465 -25.589  1.00  0.00     0.028 C 
HETATM   21  C8  UNL     1     -11.326  41.333 -24.830  1.00  0.00     0.114 C 
HETATM   22  C9  UNL     1     -11.329  39.984 -25.517  1.00  0.00     0.206 C 
HETATM   23  N4  UNL     1      -9.927  41.562 -24.624  1.00  0.00    -0.320 N 
HETATM   24  O1  UNL     1     -10.098  39.378 -25.102  1.00  0.00    -0.302 OA
HETATM   25  C10 UNL     1      -9.226  40.390 -24.806  1.00  0.00     0.363 C 
HETATM   26  O2  UNL     1      -8.015  40.252 -24.760  1.00  0.00    -0.238 OA
HETATM   27  C11 UNL     1      -9.350  42.869 -24.868  1.00  0.00     0.141 C 
ENDBRANCH   7  18
BRANCH   1  28
HETATM   28  N1  UNL     1      -9.048  49.264 -27.782  1.00  0.00    -0.287 NA
HETATM   29  H1  UNL     1      -8.047  49.221 -27.895  1.00  0.00     0.125 HD
HETATM   30  H2  UNL     1      -9.507  49.938 -28.385  1.00  0.00     0.125 HD
ENDBRANCH   1  28
BRANCH  14  31
HETATM   31  C17 UNL     1      -3.206  49.640 -26.174  1.00  0.00     0.257 C 
HETATM   32  O3  UNL     1      -2.419  49.736 -27.106  1.00  0.00    -0.267 OA
HETATM   33  N6  UNL     1      -3.067  50.199 -24.926  1.00  0.00    -0.309 N 
HETATM   34  H17 UNL     1      -3.712  49.957 -24.188  1.00  0.00     0.170 HD
BRANCH  33  35
HETATM   35  C18 UNL     1      -2.040  51.019 -24.460  1.00  0.00     0.108 A 
HETATM   36  C19 UNL     1      -1.436  50.891 -23.218  1.00  0.00     0.064 A 
HETATM   37  C20 UNL     1      -0.414  51.782 -22.861  1.00  0.00     0.052 A 
HETATM   38  C22 UNL     1      -0.026  52.759 -23.782  1.00  0.00     0.033 A 
HETATM   39  C23 UNL     1      -0.682  52.812 -24.997  1.00  0.00     0.090 A 
HETATM   40  N7  UNL     1      -1.672  51.965 -25.352  1.00  0.00    -0.352 N 
ATOM     41  H7  UNL     1      -2.128  52.037 -26.261  1.00  0.00     0.166 HD
BRANCH  37  42
HETATM   42  C21 UNL     1       0.279  51.666 -21.531  1.00  0.00     0.417 C 
HETATM   43  F1  UNL     1      -0.244  52.505 -20.592  1.00  0.00    -0.166 F 
HETATM   44  F2  UNL     1       1.601  51.977 -21.612  1.00  0.00    -0.166 F 
HETATM   45  F3  UNL     1       0.216  50.420 -20.991  1.00  0.00    -0.166 F 
ENDBRANCH  37  42
ENDBRANCH  33  35
ENDBRANCH  14  31
TORSDOF 5
ENDMDL
