MODEL 1
REMARK minimizedAffinity -8.76069736
REMARK  8 active torsions:
REMARK  status: ('A' for Active; 'I' for Inactive)
REMARK    1  A    between atoms: O1_2  and  C2_3 
REMARK    2  A    between atoms: C5_6  and  N1_7 
REMARK    3  A    between atoms: N1_7  and  C6_8 
REMARK    4  A    between atoms: C16_26  and  O4_27 
REMARK    5  A    between atoms: O4_27  and  C17_28 
REMARK    6  A    between atoms: C17_28  and  C18_29 
REMARK    7  A    between atoms: C18_29  and  C19_30 
REMARK    8  A    between atoms: C19_30  and  N4_31 
ROOT
HETATM    1  C2  UNL     1      -0.599  50.192 -19.565  1.00  0.00     0.102 A 
HETATM    2  C3  UNL     1      -0.308  50.661 -20.847  1.00  0.00     0.057 A 
HETATM    3  C4  UNL     1       0.245  51.953 -21.046  1.00  0.00     0.038 A 
HETATM    4  C5  UNL     1       0.569  52.516 -22.298  1.00  0.00     0.119 A 
HETATM    5  N2  UNL     1       1.129  53.734 -22.409  1.00  0.00    -0.338 N 
ATOM      6  H2  UNL     1       1.377  54.126 -23.316  1.00  0.00     0.168 HD
HETATM    7  C13 UNL     1       1.343  54.404 -21.274  1.00  0.00     0.182 A 
HETATM    8  N3  UNL     1       1.058  53.976 -20.041  1.00  0.00    -0.351 N 
ATOM      9  H3  UNL     1       1.244  54.551 -19.220  1.00  0.00     0.166 HD
HETATM   10  C14 UNL     1       0.517  52.760 -19.935  1.00  0.00     0.050 A 
HETATM   11  C15 UNL     1       0.218  52.282 -18.666  1.00  0.00     0.070 A 
HETATM   12  C16 UNL     1      -0.342  51.017 -18.460  1.00  0.00     0.104 A 
ENDROOT
BRANCH   4  13
HETATM   13  N1  UNL     1       0.288  51.775 -23.477  1.00  0.00    -0.339 N 
HETATM   14  H5  UNL     1       0.570  50.805 -23.343  1.00  0.00     0.167 HD
BRANCH  13  15
HETATM   15  C6  UNL     1      -0.854  51.840 -24.298  1.00  0.00     0.070 A 
HETATM   16  C7  UNL     1      -2.121  51.381 -23.912  1.00  0.00     0.032 A 
HETATM   17  C8  UNL     1      -3.245  51.535 -24.748  1.00  0.00     0.005 A 
HETATM   18  C9  UNL     1      -3.132  52.176 -25.983  1.00  0.00     0.040 A 
HETATM   19  C10 UNL     1      -1.889  52.652 -26.339  1.00  0.00     0.114 A 
HETATM   20  C11 UNL     1      -0.791  52.497 -25.520  1.00  0.00     0.138 A 
HETATM   21  O3  UNL     1      -1.596  53.314 -27.488  1.00  0.00    -0.256 OA
HETATM   22  O2  UNL     1       0.337  53.049 -26.057  1.00  0.00    -0.253 OA
HETATM   23  C12 UNL     1      -0.199  53.558 -27.286  1.00  0.00     0.498 A 
HETATM   24  F1  UNL     1       0.491  53.006 -28.314  1.00  0.00    -0.147 F 
HETATM   25  F2  UNL     1       0.016  54.896 -27.323  1.00  0.00    -0.147 F 
ENDBRANCH  13  15
ENDBRANCH   4  13
BRANCH   1  26
HETATM   26  O1  UNL     1      -1.137  48.960 -19.292  1.00  0.00    -0.353 OA
HETATM   27  C1  UNL     1      -1.221  48.020 -20.354  1.00  0.00     0.210 C 
ENDBRANCH   1  26
BRANCH  12  28
HETATM   28  O4  UNL     1      -0.649  50.487 -17.233  1.00  0.00    -0.348 OA
BRANCH  28  29
HETATM   29  C17 UNL     1      -1.957  50.674 -16.687  1.00  0.00     0.177 C 
BRANCH  29  30
HETATM   30  C18 UNL     1      -1.897  50.690 -15.160  1.00  0.00     0.057 C 
BRANCH  30  31
HETATM   31  C19 UNL     1      -3.110  51.373 -14.523  1.00  0.00     0.274 C 
BRANCH  31  32
HETATM   32  N4  UNL     1      -2.825  52.048 -13.250  1.00  0.00     0.092 N 
HETATM   33  C20 UNL     1      -3.873  53.034 -12.897  1.00  0.00     0.298 C 
HETATM   34  C21 UNL     1      -3.930  53.300 -11.383  1.00  0.00     0.198 C 
HETATM   35  O5  UNL     1      -4.293  52.133 -10.633  1.00  0.00    -0.388 OA
HETATM   36  C22 UNL     1      -3.877  50.912 -11.257  1.00  0.00     0.198 C 
HETATM   37  C23 UNL     1      -2.636  51.078 -12.145  1.00  0.00     0.298 C 
ENDBRANCH  31  32
ENDBRANCH  30  31
ENDBRANCH  29  30
ENDBRANCH  28  29
ENDBRANCH  12  28
TORSDOF 8
ENDMDL
MODEL 2
REMARK minimizedAffinity -8.69662189
REMARK  8 active torsions:
REMARK  status: ('A' for Active; 'I' for Inactive)
REMARK    1  A    between atoms: O1_2  and  C2_3 
REMARK    2  A    between atoms: C5_6  and  N1_7 
REMARK    3  A    between atoms: N1_7  and  C6_8 
REMARK    4  A    between atoms: C16_26  and  O4_27 
REMARK    5  A    between atoms: O4_27  and  C17_28 
REMARK    6  A    between atoms: C17_28  and  C18_29 
REMARK    7  A    between atoms: C18_29  and  C19_30 
REMARK    8  A    between atoms: C19_30  and  N4_31 
ROOT
HETATM    1  C2  UNL     1      -1.383  50.218 -20.732  1.00  0.00     0.102 A 
HETATM    2  C3  UNL     1      -0.775  51.079 -19.817  1.00  0.00     0.057 A 
HETATM    3  C4  UNL     1       0.047  52.151 -20.254  1.00  0.00     0.038 A 
HETATM    4  C5  UNL     1       0.705  53.069 -19.409  1.00  0.00     0.119 A 
HETATM    5  N2  UNL     1       1.437  54.087 -19.896  1.00  0.00    -0.338 N 
ATOM      6  H2  UNL     1       1.894  54.757 -19.280  1.00  0.00     0.168 HD
HETATM    7  C13 UNL     1       1.536  54.176 -21.224  1.00  0.00     0.182 A 
HETATM    8  N3  UNL     1       0.973  53.353 -22.114  1.00  0.00    -0.351 N 
ATOM      9  H3  UNL     1       1.101  53.483 -23.117  1.00  0.00     0.166 HD
HETATM   10  C14 UNL     1       0.234  52.354 -21.626  1.00  0.00     0.050 A 
HETATM   11  C15 UNL     1      -0.373  51.486 -22.525  1.00  0.00     0.070 A 
HETATM   12  C16 UNL     1      -1.172  50.418 -22.104  1.00  0.00     0.104 A 
ENDROOT
BRANCH   4  13
HETATM   13  N1  UNL     1       0.595  52.907 -18.003  1.00  0.00    -0.339 N 
HETATM   14  H5  UNL     1      -0.294  52.461 -17.781  1.00  0.00     0.167 HD
BRANCH  13  15
HETATM   15  C6  UNL     1       1.586  52.496 -17.091  1.00  0.00     0.070 A 
HETATM   16  C7  UNL     1       2.905  52.970 -17.107  1.00  0.00     0.032 A 
HETATM   17  C8  UNL     1       3.838  52.577 -16.126  1.00  0.00     0.005 A 
HETATM   18  C9  UNL     1       3.466  51.718 -15.091  1.00  0.00     0.040 A 
HETATM   19  C10 UNL     1       2.159  51.285 -15.066  1.00  0.00     0.114 A 
HETATM   20  C11 UNL     1       1.249  51.668 -16.029  1.00  0.00     0.138 A 
HETATM   21  O3  UNL     1       1.616  50.465 -14.129  1.00  0.00    -0.256 OA
HETATM   22  O2  UNL     1       0.011  51.134 -15.812  1.00  0.00    -0.253 OA
HETATM   23  C12 UNL     1       0.270  50.390 -14.613  1.00  0.00     0.498 A 
HETATM   24  F1  UNL     1      -0.037  49.090 -14.842  1.00  0.00    -0.147 F 
HETATM   25  F2  UNL     1      -0.564  50.841 -13.644  1.00  0.00    -0.147 F 
ENDBRANCH  13  15
ENDBRANCH   4  13
BRANCH   1  26
HETATM   26  O1  UNL     1      -2.185  49.159 -20.388  1.00  0.00    -0.353 OA
HETATM   27  C1  UNL     1      -1.608  48.103 -19.634  1.00  0.00     0.210 C 
ENDBRANCH   1  26
BRANCH  12  28
HETATM   28  O4  UNL     1      -1.805  49.536 -22.943  1.00  0.00    -0.348 OA
BRANCH  28  29
HETATM   29  C17 UNL     1      -2.877  49.991 -23.771  1.00  0.00     0.177 C 
BRANCH  29  30
HETATM   30  C18 UNL     1      -2.356  50.969 -24.823  1.00  0.00     0.057 C 
BRANCH  30  31
HETATM   31  C19 UNL     1      -1.875  50.273 -26.098  1.00  0.00     0.274 C 
BRANCH  31  32
HETATM   32  N4  UNL     1      -0.995  51.094 -26.940  1.00  0.00     0.092 N 
HETATM   33  C20 UNL     1      -1.302  52.539 -26.822  1.00  0.00     0.298 C 
HETATM   34  C21 UNL     1      -0.094  53.417 -27.183  1.00  0.00     0.198 C 
HETATM   35  O5  UNL     1       1.012  53.230 -26.288  1.00  0.00    -0.388 OA
HETATM   36  C22 UNL     1       1.068  51.909 -25.735  1.00  0.00     0.198 C 
HETATM   37  C23 UNL     1       0.436  50.845 -26.644  1.00  0.00     0.298 C 
ENDBRANCH  31  32
ENDBRANCH  30  31
ENDBRANCH  29  30
ENDBRANCH  28  29
ENDBRANCH  12  28
TORSDOF 8
ENDMDL
MODEL 3
REMARK minimizedAffinity -8.59250259
REMARK  8 active torsions:
REMARK  status: ('A' for Active; 'I' for Inactive)
REMARK    1  A    between atoms: O1_2  and  C2_3 
REMARK    2  A    between atoms: C5_6  and  N1_7 
REMARK    3  A    between atoms: N1_7  and  C6_8 
REMARK    4  A    between atoms: C16_26  and  O4_27 
REMARK    5  A    between atoms: O4_27  and  C17_28 
REMARK    6  A    between atoms: C17_28  and  C18_29 
REMARK    7  A    between atoms: C18_29  and  C19_30 
REMARK    8  A    between atoms: C19_30  and  N4_31 
ROOT
HETATM    1  C2  UNL     1      -4.989  48.133 -28.574  1.00  0.00     0.102 A 
HETATM    2  C3  UNL     1      -3.976  48.609 -27.738  1.00  0.00     0.057 A 
HETATM    3  C4  UNL     1      -4.142  48.636 -26.329  1.00  0.00     0.038 A 
HETATM    4  C5  UNL     1      -3.182  49.100 -25.405  1.00  0.00     0.119 A 
HETATM    5  N2  UNL     1      -3.393  49.058 -24.077  1.00  0.00    -0.338 N 
ATOM      6  H2  UNL     1      -2.687  49.378 -23.415  1.00  0.00     0.168 HD
HETATM    7  C13 UNL     1      -4.569  48.578 -23.669  1.00  0.00     0.182 A 
HETATM    8  N3  UNL     1      -5.554  48.132 -24.454  1.00  0.00    -0.351 N 
ATOM      9  H3  UNL     1      -6.432  47.786 -24.066  1.00  0.00     0.166 HD
HETATM   10  C14 UNL     1      -5.334  48.160 -25.770  1.00  0.00     0.050 A 
HETATM   11  C15 UNL     1      -6.335  47.694 -26.613  1.00  0.00     0.070 A 
HETATM   12  C16 UNL     1      -6.188  47.678 -28.005  1.00  0.00     0.104 A 
ENDROOT
BRANCH   4  13
HETATM   13  N1  UNL     1      -1.961  49.633 -25.895  1.00  0.00    -0.339 N 
HETATM   14  H5  UNL     1      -2.002  49.696 -26.911  1.00  0.00     0.167 HD
BRANCH  13  15
HETATM   15  C6  UNL     1      -1.199  50.695 -25.372  1.00  0.00     0.070 A 
HETATM   16  C7  UNL     1      -1.126  51.004 -24.006  1.00  0.00     0.032 A 
HETATM   17  C8  UNL     1      -0.291  52.036 -23.531  1.00  0.00     0.005 A 
HETATM   18  C9  UNL     1       0.508  52.769 -24.409  1.00  0.00     0.040 A 
HETATM   19  C10 UNL     1       0.452  52.436 -25.745  1.00  0.00     0.114 A 
HETATM   20  C11 UNL     1      -0.367  51.428 -26.207  1.00  0.00     0.138 A 
HETATM   21  O3  UNL     1       1.169  53.025 -26.736  1.00  0.00    -0.256 OA
HETATM   22  O2  UNL     1      -0.263  51.256 -27.559  1.00  0.00    -0.253 OA
HETATM   23  C12 UNL     1       0.710  52.266 -27.861  1.00  0.00     0.498 A 
HETATM   24  F1  UNL     1       0.174  53.117 -28.769  1.00  0.00    -0.147 F 
HETATM   25  F2  UNL     1       1.778  51.668 -28.444  1.00  0.00    -0.147 F 
ENDBRANCH  13  15
ENDBRANCH   4  13
BRANCH   1  26
HETATM   26  O1  UNL     1      -4.906  48.079 -29.942  1.00  0.00    -0.353 OA
HETATM   27  C1  UNL     1      -6.005  47.528 -30.654  1.00  0.00     0.210 C 
ENDBRANCH   1  26
BRANCH  12  28
HETATM   28  O4  UNL     1      -7.134  47.221 -28.886  1.00  0.00    -0.348 OA
BRANCH  28  29
HETATM   29  C17 UNL     1      -8.112  46.275 -28.449  1.00  0.00     0.177 C 
BRANCH  29  30
HETATM   30  C18 UNL     1      -9.495  46.660 -28.972  1.00  0.00     0.057 C 
BRANCH  30  31
HETATM   31  C19 UNL     1     -10.491  45.498 -28.936  1.00  0.00     0.274 C 
BRANCH  31  32
HETATM   32  N4  UNL     1     -11.698  45.761 -28.141  1.00  0.00     0.092 N 
HETATM   33  C20 UNL     1     -11.371  46.278 -26.790  1.00  0.00     0.298 C 
HETATM   34  C21 UNL     1     -12.529  47.091 -26.188  1.00  0.00     0.198 C 
HETATM   35  O5  UNL     1     -12.824  48.274 -26.944  1.00  0.00    -0.388 OA
HETATM   36  C22 UNL     1     -12.531  48.135 -28.340  1.00  0.00     0.198 C 
HETATM   37  C23 UNL     1     -12.624  46.685 -28.837  1.00  0.00     0.298 C 
ENDBRANCH  31  32
ENDBRANCH  30  31
ENDBRANCH  29  30
ENDBRANCH  28  29
ENDBRANCH  12  28
TORSDOF 8
ENDMDL
MODEL 4
REMARK minimizedAffinity -8.57851696
REMARK  8 active torsions:
REMARK  status: ('A' for Active; 'I' for Inactive)
REMARK    1  A    between atoms: O1_2  and  C2_3 
REMARK    2  A    between atoms: C5_6  and  N1_7 
REMARK    3  A    between atoms: N1_7  and  C6_8 
REMARK    4  A    between atoms: C16_26  and  O4_27 
REMARK    5  A    between atoms: O4_27  and  C17_28 
REMARK    6  A    between atoms: C17_28  and  C18_29 
REMARK    7  A    between atoms: C18_29  and  C19_30 
REMARK    8  A    between atoms: C19_30  and  N4_31 
ROOT
HETATM    1  C2  UNL     1      -0.445  50.460 -18.800  1.00  0.00     0.102 A 
HETATM    2  C3  UNL     1      -0.401  50.748 -20.165  1.00  0.00     0.057 A 
HETATM    3  C4  UNL     1       0.187  51.949 -20.642  1.00  0.00     0.038 A 
HETATM    4  C5  UNL     1       0.275  52.329 -21.998  1.00  0.00     0.119 A 
HETATM    5  N2  UNL     1       0.884  53.465 -22.381  1.00  0.00    -0.338 N 
ATOM      6  H2  UNL     1       0.960  53.725 -23.363  1.00  0.00     0.168 HD
HETATM    7  C13 UNL     1       1.382  54.237 -21.412  1.00  0.00     0.182 A 
HETATM    8  N3  UNL     1       1.337  53.985 -20.101  1.00  0.00    -0.351 N 
ATOM      9  H3  UNL     1       1.735  54.630 -19.419  1.00  0.00     0.166 HD
HETATM   10  C14 UNL     1       0.746  52.848 -19.727  1.00  0.00     0.050 A 
HETATM   11  C15 UNL     1       0.691  52.551 -18.371  1.00  0.00     0.070 A 
HETATM   12  C16 UNL     1       0.100  51.378 -17.889  1.00  0.00     0.104 A 
ENDROOT
BRANCH   4  13
HETATM   13  N1  UNL     1      -0.303  51.487 -22.985  1.00  0.00    -0.339 N 
HETATM   14  H5  UNL     1      -1.266  51.277 -22.730  1.00  0.00     0.167 HD
BRANCH  13  15
HETATM   15  C6  UNL     1      -0.177  51.571 -24.385  1.00  0.00     0.070 A 
HETATM   16  C7  UNL     1       0.890  52.203 -25.037  1.00  0.00     0.032 A 
HETATM   17  C8  UNL     1       1.001  52.195 -26.442  1.00  0.00     0.005 A 
HETATM   18  C9  UNL     1       0.057  51.534 -27.228  1.00  0.00     0.040 A 
HETATM   19  C10 UNL     1      -0.971  50.888 -26.576  1.00  0.00     0.114 A 
HETATM   20  C11 UNL     1      -1.078  50.900 -25.201  1.00  0.00     0.138 A 
HETATM   21  O3  UNL     1      -1.965  50.181 -27.174  1.00  0.00    -0.256 OA
HETATM   22  O2  UNL     1      -2.161  50.193 -24.762  1.00  0.00    -0.253 OA
HETATM   23  C12 UNL     1      -2.693  49.751 -26.018  1.00  0.00     0.498 A 
HETATM   24  F1  UNL     1      -3.970  50.193 -26.120  1.00  0.00    -0.147 F 
HETATM   25  F2  UNL     1      -2.731  48.396 -26.011  1.00  0.00    -0.147 F 
ENDBRANCH  13  15
ENDBRANCH   4  13
BRANCH   1  26
HETATM   26  O1  UNL     1      -0.999  49.326 -18.262  1.00  0.00    -0.353 OA
HETATM   27  C1  UNL     1      -1.505  48.344 -19.155  1.00  0.00     0.210 C 
ENDBRANCH   1  26
BRANCH  12  28
HETATM   28  O4  UNL     1       0.025  51.026 -16.566  1.00  0.00    -0.348 OA
BRANCH  28  29
HETATM   29  C17 UNL     1       1.125  51.302 -15.696  1.00  0.00     0.177 C 
BRANCH  29  30
HETATM   30  C18 UNL     1       0.637  52.014 -14.434  1.00  0.00     0.057 C 
BRANCH  30  31
HETATM   31  C19 UNL     1      -0.660  51.419 -13.879  1.00  0.00     0.274 C 
BRANCH  31  32
HETATM   32  N4  UNL     1      -1.431  52.337 -13.030  1.00  0.00     0.092 N 
HETATM   33  C20 UNL     1      -2.892  52.136 -13.177  1.00  0.00     0.298 C 
HETATM   34  C21 UNL     1      -3.668  52.616 -11.941  1.00  0.00     0.198 C 
HETATM   35  O5  UNL     1      -3.340  51.871 -10.760  1.00  0.00    -0.388 OA
HETATM   36  C22 UNL     1      -1.997  51.371 -10.767  1.00  0.00     0.198 C 
HETATM   37  C23 UNL     1      -1.037  52.228 -11.605  1.00  0.00     0.298 C 
ENDBRANCH  31  32
ENDBRANCH  30  31
ENDBRANCH  29  30
ENDBRANCH  28  29
ENDBRANCH  12  28
TORSDOF 8
ENDMDL
MODEL 5
REMARK minimizedAffinity -8.57560921
REMARK  8 active torsions:
REMARK  status: ('A' for Active; 'I' for Inactive)
REMARK    1  A    between atoms: O1_2  and  C2_3 
REMARK    2  A    between atoms: C5_6  and  N1_7 
REMARK    3  A    between atoms: N1_7  and  C6_8 
REMARK    4  A    between atoms: C16_26  and  O4_27 
REMARK    5  A    between atoms: O4_27  and  C17_28 
REMARK    6  A    between atoms: C17_28  and  C18_29 
REMARK    7  A    between atoms: C18_29  and  C19_30 
REMARK    8  A    between atoms: C19_30  and  N4_31 
ROOT
HETATM    1  C2  UNL     1      -4.916  48.154 -28.362  1.00  0.00     0.102 A 
HETATM    2  C3  UNL     1      -3.900  48.623 -27.527  1.00  0.00     0.057 A 
HETATM    3  C4  UNL     1      -4.069  48.660 -26.118  1.00  0.00     0.038 A 
HETATM    4  C5  UNL     1      -3.105  49.119 -25.195  1.00  0.00     0.119 A 
HETATM    5  N2  UNL     1      -3.319  49.087 -23.867  1.00  0.00    -0.338 N 
ATOM      6  H2  UNL     1      -2.611  49.402 -23.205  1.00  0.00     0.168 HD
HETATM    7  C13 UNL     1      -4.502  48.623 -23.459  1.00  0.00     0.182 A 
HETATM    8  N3  UNL     1      -5.490  48.183 -24.243  1.00  0.00    -0.351 N 
ATOM      9  H3  UNL     1      -6.372  47.850 -23.855  1.00  0.00     0.166 HD
HETATM   10  C14 UNL     1      -5.267  48.202 -25.560  1.00  0.00     0.050 A 
HETATM   11  C15 UNL     1      -6.271  47.743 -26.402  1.00  0.00     0.070 A 
HETATM   12  C16 UNL     1      -6.121  47.717 -27.793  1.00  0.00     0.104 A 
ENDROOT
BRANCH   4  13
HETATM   13  N1  UNL     1      -1.876  49.635 -25.685  1.00  0.00    -0.339 N 
HETATM   14  H5  UNL     1      -1.884  49.618 -26.703  1.00  0.00     0.167 HD
BRANCH  13  15
HETATM   15  C6  UNL     1      -1.150  50.749 -25.221  1.00  0.00     0.070 A 
HETATM   16  C7  UNL     1      -1.098  51.141 -23.877  1.00  0.00     0.032 A 
HETATM   17  C8  UNL     1      -0.298  52.224 -23.459  1.00  0.00     0.005 A 
HETATM   18  C9  UNL     1       0.488  52.925 -24.374  1.00  0.00     0.040 A 
HETATM   19  C10 UNL     1       0.454  52.510 -25.688  1.00  0.00     0.114 A 
HETATM   20  C11 UNL     1      -0.332  51.453 -26.094  1.00  0.00     0.138 A 
HETATM   21  O3  UNL     1       1.163  53.059 -26.708  1.00  0.00    -0.256 OA
HETATM   22  O2  UNL     1      -0.210  51.203 -27.432  1.00  0.00    -0.253 OA
HETATM   23  C12 UNL     1       0.736  52.220 -27.787  1.00  0.00     0.498 A 
HETATM   24  F1  UNL     1       0.184  52.999 -28.750  1.00  0.00    -0.147 F 
HETATM   25  F2  UNL     1       1.825  51.619 -28.325  1.00  0.00    -0.147 F 
ENDBRANCH  13  15
ENDBRANCH   4  13
BRANCH   1  26
HETATM   26  O1  UNL     1      -4.830  48.092 -29.730  1.00  0.00    -0.353 OA
HETATM   27  C1  UNL     1      -4.950  49.304 -30.460  1.00  0.00     0.210 C 
ENDBRANCH   1  26
BRANCH  12  28
HETATM   28  O4  UNL     1      -7.071  47.266 -28.674  1.00  0.00    -0.348 OA
BRANCH  28  29
HETATM   29  C17 UNL     1      -7.358  45.868 -28.752  1.00  0.00     0.177 C 
BRANCH  29  30
HETATM   30  C18 UNL     1      -6.913  45.310 -30.104  1.00  0.00     0.057 C 
BRANCH  30  31
HETATM   31  C19 UNL     1      -7.575  46.019 -31.288  1.00  0.00     0.274 C 
BRANCH  31  32
HETATM   32  N4  UNL     1      -6.772  46.020 -32.518  1.00  0.00     0.092 N 
HETATM   33  C20 UNL     1      -6.403  47.392 -32.940  1.00  0.00     0.298 C 
HETATM   34  C21 UNL     1      -5.138  47.407 -33.812  1.00  0.00     0.198 C 
HETATM   35  O5  UNL     1      -3.977  46.943 -33.108  1.00  0.00    -0.388 OA
HETATM   36  C22 UNL     1      -4.285  45.983 -32.090  1.00  0.00     0.198 C 
HETATM   37  C23 UNL     1      -5.560  45.179 -32.383  1.00  0.00     0.298 C 
ENDBRANCH  31  32
ENDBRANCH  30  31
ENDBRANCH  29  30
ENDBRANCH  28  29
ENDBRANCH  12  28
TORSDOF 8
ENDMDL
MODEL 6
REMARK minimizedAffinity -8.56366539
REMARK  8 active torsions:
REMARK  status: ('A' for Active; 'I' for Inactive)
REMARK    1  A    between atoms: O1_2  and  C2_3 
REMARK    2  A    between atoms: C5_6  and  N1_7 
REMARK    3  A    between atoms: N1_7  and  C6_8 
REMARK    4  A    between atoms: C16_26  and  O4_27 
REMARK    5  A    between atoms: O4_27  and  C17_28 
REMARK    6  A    between atoms: C17_28  and  C18_29 
REMARK    7  A    between atoms: C18_29  and  C19_30 
REMARK    8  A    between atoms: C19_30  and  N4_31 
ROOT
HETATM    1  C2  UNL     1      -0.476  50.314 -19.277  1.00  0.00     0.102 A 
HETATM    2  C3  UNL     1      -0.245  50.723 -20.592  1.00  0.00     0.057 A 
HETATM    3  C4  UNL     1       0.306  52.000 -20.876  1.00  0.00     0.038 A 
HETATM    4  C5  UNL     1       0.572  52.503 -22.166  1.00  0.00     0.119 A 
HETATM    5  N2  UNL     1       1.134  53.710 -22.359  1.00  0.00    -0.338 N 
ATOM      6  H2  UNL     1       1.341  54.059 -23.294  1.00  0.00     0.168 HD
HETATM    7  C13 UNL     1       1.408  54.428 -21.268  1.00  0.00     0.182 A 
HETATM    8  N3  UNL     1       1.181  54.059 -20.004  1.00  0.00    -0.351 N 
ATOM      9  H3  UNL     1       1.411  54.668 -19.219  1.00  0.00     0.166 HD
HETATM   10  C14 UNL     1       0.638  52.853 -19.817  1.00  0.00     0.050 A 
HETATM   11  C15 UNL     1       0.398  52.436 -18.514  1.00  0.00     0.070 A 
HETATM   12  C16 UNL     1      -0.160  51.186 -18.224  1.00  0.00     0.104 A 
ENDROOT
BRANCH   4  13
HETATM   13  N1  UNL     1       0.229  51.712 -23.295  1.00  0.00    -0.339 N 
HETATM   14  H5  UNL     1       0.449  50.736 -23.105  1.00  0.00     0.167 HD
BRANCH  13  15
HETATM   15  C6  UNL     1      -0.917  51.803 -24.109  1.00  0.00     0.070 A 
HETATM   16  C7  UNL     1      -2.199  51.417 -23.698  1.00  0.00     0.032 A 
HETATM   17  C8  UNL     1      -3.322  51.596 -24.530  1.00  0.00     0.005 A 
HETATM   18  C9  UNL     1      -3.191  52.188 -25.787  1.00  0.00     0.040 A 
HETATM   19  C10 UNL     1      -1.931  52.594 -26.169  1.00  0.00     0.114 A 
HETATM   20  C11 UNL     1      -0.834  52.414 -25.353  1.00  0.00     0.138 A 
HETATM   21  O3  UNL     1      -1.619  53.202 -27.342  1.00  0.00    -0.256 OA
HETATM   22  O2  UNL     1       0.313  52.895 -25.918  1.00  0.00    -0.253 OA
HETATM   23  C12 UNL     1      -0.210  53.387 -27.159  1.00  0.00     0.498 A 
HETATM   24  F1  UNL     1       0.444  52.768 -28.173  1.00  0.00    -0.147 F 
HETATM   25  F2  UNL     1       0.067  54.711 -27.244  1.00  0.00    -0.147 F 
ENDBRANCH  13  15
ENDBRANCH   4  13
BRANCH   1  26
HETATM   26  O1  UNL     1      -1.008  49.100 -18.923  1.00  0.00    -0.353 OA
HETATM   27  C1  UNL     1      -1.301  48.174 -19.959  1.00  0.00     0.210 C 
ENDBRANCH   1  26
BRANCH  12  28
HETATM   28  O4  UNL     1      -0.410  50.714 -16.961  1.00  0.00    -0.348 OA
BRANCH  28  29
HETATM   29  C17 UNL     1       0.306  51.255 -15.848  1.00  0.00     0.177 C 
BRANCH  29  30
HETATM   30  C18 UNL     1       1.145  50.168 -15.178  1.00  0.00     0.057 C 
BRANCH  30  31
HETATM   31  C19 UNL     1       1.110  50.246 -13.649  1.00  0.00     0.274 C 
BRANCH  31  32
HETATM   32  N4  UNL     1       2.326  50.807 -13.045  1.00  0.00     0.092 N 
HETATM   33  C20 UNL     1       2.746  50.053 -11.840  1.00  0.00     0.298 C 
HETATM   34  C21 UNL     1       4.247  50.214 -11.552  1.00  0.00     0.198 C 
HETATM   35  O5  UNL     1       5.069  49.674 -12.596  1.00  0.00    -0.388 OA
HETATM   36  C22 UNL     1       4.450  49.734 -13.886  1.00  0.00     0.198 C 
HETATM   37  C23 UNL     1       3.439  50.882 -14.020  1.00  0.00     0.298 C 
ENDBRANCH  31  32
ENDBRANCH  30  31
ENDBRANCH  29  30
ENDBRANCH  28  29
ENDBRANCH  12  28
TORSDOF 8
ENDMDL
MODEL 7
REMARK minimizedAffinity -8.50318718
REMARK  8 active torsions:
REMARK  status: ('A' for Active; 'I' for Inactive)
REMARK    1  A    between atoms: O1_2  and  C2_3 
REMARK    2  A    between atoms: C5_6  and  N1_7 
REMARK    3  A    between atoms: N1_7  and  C6_8 
REMARK    4  A    between atoms: C16_26  and  O4_27 
REMARK    5  A    between atoms: O4_27  and  C17_28 
REMARK    6  A    between atoms: C17_28  and  C18_29 
REMARK    7  A    between atoms: C18_29  and  C19_30 
REMARK    8  A    between atoms: C19_30  and  N4_31 
ROOT
HETATM    1  C2  UNL     1      -3.929  48.870 -24.758  1.00  0.00     0.102 A 
HETATM    2  C3  UNL     1      -2.935  49.587 -24.089  1.00  0.00     0.057 A 
HETATM    3  C4  UNL     1      -1.900  50.245 -24.804  1.00  0.00     0.038 A 
HETATM    4  C5  UNL     1      -0.853  50.988 -24.220  1.00  0.00     0.119 A 
HETATM    5  N2  UNL     1       0.072  51.620 -24.963  1.00  0.00    -0.338 N 
ATOM      6  H2  UNL     1       0.815  52.171 -24.535  1.00  0.00     0.168 HD
HETATM    7  C13 UNL     1      -0.029  51.492 -26.288  1.00  0.00     0.182 A 
HETATM    8  N3  UNL     1      -0.965  50.800 -26.944  1.00  0.00    -0.351 N 
ATOM      9  H3  UNL     1      -0.971  50.742 -27.962  1.00  0.00     0.166 HD
HETATM   10  C14 UNL     1      -1.890  50.187 -26.202  1.00  0.00     0.050 A 
HETATM   11  C15 UNL     1      -2.883  49.466 -26.854  1.00  0.00     0.070 A 
HETATM   12  C16 UNL     1      -3.898  48.800 -26.159  1.00  0.00     0.104 A 
ENDROOT
BRANCH   4  13
HETATM   13  N1  UNL     1      -0.772  51.063 -22.804  1.00  0.00    -0.339 N 
HETATM   14  H5  UNL     1      -0.687  50.124 -22.419  1.00  0.00     0.167 HD
BRANCH  13  15
HETATM   15  C6  UNL     1      -0.046  51.979 -22.018  1.00  0.00     0.070 A 
HETATM   16  C7  UNL     1       0.622  53.095 -22.539  1.00  0.00     0.032 A 
HETATM   17  C8  UNL     1       1.275  54.019 -21.697  1.00  0.00     0.005 A 
HETATM   18  C9  UNL     1       1.254  53.859 -20.311  1.00  0.00     0.040 A 
HETATM   19  C10 UNL     1       0.566  52.776 -19.808  1.00  0.00     0.114 A 
HETATM   20  C11 UNL     1      -0.068  51.873 -20.634  1.00  0.00     0.138 A 
HETATM   21  O3  UNL     1       0.424  52.473 -18.492  1.00  0.00    -0.256 OA
HETATM   22  O2  UNL     1      -0.696  50.883 -19.932  1.00  0.00    -0.253 OA
HETATM   23  C12 UNL     1      -0.375  51.288 -18.595  1.00  0.00     0.498 A 
HETATM   24  F1  UNL     1       0.280  50.269 -17.985  1.00  0.00    -0.147 F 
HETATM   25  F2  UNL     1      -1.533  51.489 -17.920  1.00  0.00    -0.147 F 
ENDBRANCH  13  15
ENDBRANCH   4  13
BRANCH   1  26
HETATM   26  O1  UNL     1      -4.957  48.204 -24.139  1.00  0.00    -0.353 OA
HETATM   27  C1  UNL     1      -6.014  48.977 -23.588  1.00  0.00     0.210 C 
ENDBRANCH   1  26
BRANCH  12  28
HETATM   28  O4  UNL     1      -4.909  48.083 -26.746  1.00  0.00    -0.348 OA
BRANCH  28  29
HETATM   29  C17 UNL     1      -5.071  48.119 -28.165  1.00  0.00     0.177 C 
BRANCH  29  30
HETATM   30  C18 UNL     1      -6.276  47.277 -28.583  1.00  0.00     0.057 C 
BRANCH  30  31
HETATM   31  C19 UNL     1      -7.177  47.988 -29.596  1.00  0.00     0.274 C 
BRANCH  31  32
HETATM   32  N4  UNL     1      -7.333  47.275 -30.871  1.00  0.00     0.092 N 
HETATM   33  C20 UNL     1      -7.726  48.185 -31.972  1.00  0.00     0.298 C 
HETATM   34  C21 UNL     1      -7.328  47.631 -33.350  1.00  0.00     0.198 C 
HETATM   35  O5  UNL     1      -5.908  47.505 -33.504  1.00  0.00    -0.388 OA
HETATM   36  C22 UNL     1      -5.230  47.249 -32.267  1.00  0.00     0.198 C 
HETATM   37  C23 UNL     1      -6.107  46.526 -31.235  1.00  0.00     0.298 C 
ENDBRANCH  31  32
ENDBRANCH  30  31
ENDBRANCH  29  30
ENDBRANCH  28  29
ENDBRANCH  12  28
TORSDOF 8
ENDMDL
MODEL 8
REMARK minimizedAffinity -8.45669174
REMARK  8 active torsions:
REMARK  status: ('A' for Active; 'I' for Inactive)
REMARK    1  A    between atoms: O1_2  and  C2_3 
REMARK    2  A    between atoms: C5_6  and  N1_7 
REMARK    3  A    between atoms: N1_7  and  C6_8 
REMARK    4  A    between atoms: C16_26  and  O4_27 
REMARK    5  A    between atoms: O4_27  and  C17_28 
REMARK    6  A    between atoms: C17_28  and  C18_29 
REMARK    7  A    between atoms: C18_29  and  C19_30 
REMARK    8  A    between atoms: C19_30  and  N4_31 
ROOT
HETATM    1  C2  UNL     1      -2.558  49.454 -26.178  1.00  0.00     0.102 A 
HETATM    2  C3  UNL     1      -3.445  49.136 -27.208  1.00  0.00     0.057 A 
HETATM    3  C4  UNL     1      -4.705  48.543 -26.933  1.00  0.00     0.038 A 
HETATM    4  C5  UNL     1      -5.664  48.183 -27.903  1.00  0.00     0.119 A 
HETATM    5  N2  UNL     1      -6.857  47.662 -27.567  1.00  0.00    -0.338 N 
ATOM      6  H2  UNL     1      -7.552  47.421 -28.272  1.00  0.00     0.168 HD
HETATM    7  C13 UNL     1      -7.086  47.474 -26.265  1.00  0.00     0.182 A 
HETATM    8  N3  UNL     1      -6.245  47.759 -25.267  1.00  0.00    -0.351 N 
ATOM      9  H3  UNL     1      -6.490  47.579 -24.294  1.00  0.00     0.166 HD
HETATM   10  C14 UNL     1      -5.068  48.292 -25.606  1.00  0.00     0.050 A 
HETATM   11  C15 UNL     1      -4.175  48.609 -24.590  1.00  0.00     0.070 A 
HETATM   12  C16 UNL     1      -2.924  49.178 -24.851  1.00  0.00     0.104 A 
ENDROOT
BRANCH   4  13
HETATM   13  N1  UNL     1      -5.355  48.372 -29.277  1.00  0.00    -0.339 N 
HETATM   14  H5  UNL     1      -4.433  47.986 -29.473  1.00  0.00     0.167 HD
BRANCH  13  15
HETATM   15  C6  UNL     1      -6.199  48.210 -30.392  1.00  0.00     0.070 A 
HETATM   16  C7  UNL     1      -7.545  48.599 -30.415  1.00  0.00     0.032 A 
HETATM   17  C8  UNL     1      -8.325  48.476 -31.583  1.00  0.00     0.005 A 
HETATM   18  C9  UNL     1      -7.768  47.983 -32.764  1.00  0.00     0.040 A 
HETATM   19  C10 UNL     1      -6.436  47.634 -32.739  1.00  0.00     0.114 A 
HETATM   20  C11 UNL     1      -5.676  47.752 -31.594  1.00  0.00     0.138 A 
HETATM   21  O3  UNL     1      -5.724  47.155 -33.793  1.00  0.00    -0.256 OA
HETATM   22  O2  UNL     1      -4.382  47.361 -31.790  1.00  0.00    -0.253 OA
HETATM   23  C12 UNL     1      -4.441  46.998 -33.176  1.00  0.00     0.498 A 
HETATM   24  F1  UNL     1      -4.058  45.704 -33.296  1.00  0.00    -0.147 F 
HETATM   25  F2  UNL     1      -3.541  47.753 -33.853  1.00  0.00    -0.147 F 
ENDBRANCH  13  15
ENDBRANCH   4  13
BRANCH   1  26
HETATM   26  O1  UNL     1      -1.324  50.023 -26.363  1.00  0.00    -0.353 OA
HETATM   27  C1  UNL     1      -1.223  51.121 -27.258  1.00  0.00     0.210 C 
ENDBRANCH   1  26
BRANCH  12  28
HETATM   28  O4  UNL     1      -2.005  49.522 -23.893  1.00  0.00    -0.348 OA
BRANCH  28  29
HETATM   29  C17 UNL     1      -2.447  49.851 -22.574  1.00  0.00     0.177 C 
BRANCH  29  30
HETATM   30  C18 UNL     1      -1.287  49.741 -21.584  1.00  0.00     0.057 C 
BRANCH  30  31
HETATM   31  C19 UNL     1      -1.184  50.951 -20.651  1.00  0.00     0.274 C 
BRANCH  31  32
HETATM   32  N4  UNL     1       0.156  51.548 -20.583  1.00  0.00     0.092 N 
HETATM   33  C20 UNL     1       0.433  52.429 -21.743  1.00  0.00     0.298 C 
HETATM   34  C21 UNL     1       1.505  53.483 -21.425  1.00  0.00     0.198 C 
HETATM   35  O5  UNL     1       1.095  54.394 -20.396  1.00  0.00    -0.388 OA
HETATM   36  C22 UNL     1       0.190  53.806 -19.453  1.00  0.00     0.198 C 
HETATM   37  C23 UNL     1       0.364  52.286 -19.315  1.00  0.00     0.298 C 
ENDBRANCH  31  32
ENDBRANCH  30  31
ENDBRANCH  29  30
ENDBRANCH  28  29
ENDBRANCH  12  28
TORSDOF 8
ENDMDL
MODEL 9
REMARK minimizedAffinity -8.37062454
REMARK  8 active torsions:
REMARK  status: ('A' for Active; 'I' for Inactive)
REMARK    1  A    between atoms: O1_2  and  C2_3 
REMARK    2  A    between atoms: C5_6  and  N1_7 
REMARK    3  A    between atoms: N1_7  and  C6_8 
REMARK    4  A    between atoms: C16_26  and  O4_27 
REMARK    5  A    between atoms: O4_27  and  C17_28 
REMARK    6  A    between atoms: C17_28  and  C18_29 
REMARK    7  A    between atoms: C18_29  and  C19_30 
REMARK    8  A    between atoms: C19_30  and  N4_31 
ROOT
HETATM    1  C2  UNL     1      -5.155  48.291 -28.869  1.00  0.00     0.102 A 
HETATM    2  C3  UNL     1      -4.139  48.675 -27.992  1.00  0.00     0.057 A 
HETATM    3  C4  UNL     1      -4.320  48.603 -26.586  1.00  0.00     0.038 A 
HETATM    4  C5  UNL     1      -3.358  48.970 -25.622  1.00  0.00     0.119 A 
HETATM    5  N2  UNL     1      -3.583  48.836 -24.303  1.00  0.00    -0.338 N 
ATOM      6  H2  UNL     1      -2.876  49.086 -23.612  1.00  0.00     0.168 HD
HETATM    7  C13 UNL     1      -4.777  48.361 -23.941  1.00  0.00     0.182 A 
HETATM    8  N3  UNL     1      -5.765  48.002 -24.766  1.00  0.00    -0.351 N 
ATOM      9  H3  UNL     1      -6.656  47.653 -24.412  1.00  0.00     0.166 HD
HETATM   10  C14 UNL     1      -5.531  48.121 -26.075  1.00  0.00     0.050 A 
HETATM   11  C15 UNL     1      -6.535  47.747 -26.959  1.00  0.00     0.070 A 
HETATM   12  C16 UNL     1      -6.373  47.829 -28.346  1.00  0.00     0.104 A 
ENDROOT
BRANCH   4  13
HETATM   13  N1  UNL     1      -2.117  49.503 -26.061  1.00  0.00    -0.339 N 
HETATM   14  H5  UNL     1      -2.126  49.594 -27.075  1.00  0.00     0.167 HD
BRANCH  13  15
HETATM   15  C6  UNL     1      -1.361  50.544 -25.486  1.00  0.00     0.070 A 
HETATM   16  C7  UNL     1      -1.327  50.815 -24.111  1.00  0.00     0.032 A 
HETATM   17  C8  UNL     1      -0.498  51.826 -23.583  1.00  0.00     0.005 A 
HETATM   18  C9  UNL     1       0.335  52.573 -24.417  1.00  0.00     0.040 A 
HETATM   19  C10 UNL     1       0.318  52.276 -25.762  1.00  0.00     0.114 A 
HETATM   20  C11 UNL     1      -0.497  51.289 -26.276  1.00  0.00     0.138 A 
HETATM   21  O3  UNL     1       1.071  52.883 -26.715  1.00  0.00    -0.256 OA
HETATM   22  O2  UNL     1      -0.352  51.152 -27.627  1.00  0.00    -0.253 OA
HETATM   23  C12 UNL     1       0.639  52.159 -27.873  1.00  0.00     0.498 A 
HETATM   24  F1  UNL     1       0.139  53.039 -28.774  1.00  0.00    -0.147 F 
HETATM   25  F2  UNL     1       1.718  51.565 -28.438  1.00  0.00    -0.147 F 
ENDBRANCH  13  15
ENDBRANCH   4  13
BRANCH   1  26
HETATM   26  O1  UNL     1      -5.059  48.336 -30.237  1.00  0.00    -0.353 OA
HETATM   27  C1  UNL     1      -4.808  47.120 -30.927  1.00  0.00     0.210 C 
ENDBRANCH   1  26
BRANCH  12  28
HETATM   28  O4  UNL     1      -7.321  47.466 -29.267  1.00  0.00    -0.348 OA
BRANCH  28  29
HETATM   29  C17 UNL     1      -8.445  48.318 -29.501  1.00  0.00     0.177 C 
BRANCH  29  30
HETATM   30  C18 UNL     1      -9.127  47.946 -30.818  1.00  0.00     0.057 C 
BRANCH  30  31
HETATM   31  C19 UNL     1      -8.297  48.324 -32.047  1.00  0.00     0.274 C 
BRANCH  31  32
HETATM   32  N4  UNL     1      -7.701  47.180 -32.749  1.00  0.00     0.092 N 
HETATM   33  C20 UNL     1      -8.397  45.910 -32.433  1.00  0.00     0.298 C 
HETATM   34  C21 UNL     1      -8.213  44.860 -33.540  1.00  0.00     0.198 C 
HETATM   35  O5  UNL     1      -8.794  45.265 -34.787  1.00  0.00    -0.388 OA
HETATM   36  C22 UNL     1      -8.796  46.687 -34.969  1.00  0.00     0.198 C 
HETATM   37  C23 UNL     1      -7.662  47.395 -34.214  1.00  0.00     0.298 C 
ENDBRANCH  31  32
ENDBRANCH  30  31
ENDBRANCH  29  30
ENDBRANCH  28  29
ENDBRANCH  12  28
TORSDOF 8
ENDMDL
