MODEL 1
REMARK minimizedAffinity -8.82240105
REMARK CNNscore 0.706202567
REMARK CNNaffinity 7.73560476
REMARK  13 active torsions:
REMARK  status: ('A' for Active; 'I' for Inactive)
REMARK    1  A    between atoms: N1_2  and  C3_4 
REMARK    2  A    between atoms: C3_4  and  C4_5 
REMARK    3  A    between atoms: C4_5  and  C5_6 
REMARK    4  A    between atoms: C5_6  and  N2_7 
REMARK    5  A    between atoms: C7_10  and  C8_11 
REMARK    6  A    between atoms: C17_24  and  N4_25 
REMARK    7  A    between atoms: N4_25  and  C18_26 
REMARK    8  A    between atoms: C21_29  and  P1_30 
REMARK    9  A    between atoms: P1_30  and  O3_32 
REMARK   10  A    between atoms: P1_30  and  C22_33 
REMARK   11  A    between atoms: C22_33  and  P2_34 
REMARK   12  A    between atoms: P2_34  and  O5_36 
REMARK   13  A    between atoms: P2_34  and  O6_37 
ROOT
HETATM    1  N2  UNL     1      -0.872  51.132 -21.979  1.00  0.00    -0.298 N 
HETATM    2  C6  UNL     1      -0.952  51.020 -23.360  1.00  0.00     0.260 A 
HETATM    3  O1  UNL     1      -1.602  50.149 -23.937  1.00  0.00    -0.267 OA
HETATM    4  C7  UNL     1      -0.192  52.028 -24.174  1.00  0.00     0.047 A 
HETATM    5  C14 UNL     1       0.526  52.991 -23.575  1.00  0.00     0.034 A 
HETATM    6  C15 UNL     1       0.592  53.038 -22.127  1.00  0.00     0.026 A 
HETATM    7  C16 UNL     1       1.323  53.978 -21.441  1.00  0.00     0.121 A 
HETATM    8  N3  UNL     1       1.416  54.014 -20.100  1.00  0.00    -0.201 N 
ATOM      9  H3  UNL     1       1.963  54.732 -19.626  1.00  0.00     0.183 HD
HETATM   10  C17 UNL     1       0.763  53.070 -19.411  1.00  0.00     0.684 A 
HETATM   11  N5  UNL     1       0.019  52.116 -19.994  1.00  0.00    -0.175 N 
ATOM     12  H5  UNL     1      -0.463  51.412 -19.436  1.00  0.00     0.186 HD
HETATM   13  C25 UNL     1      -0.071  52.116 -21.342  1.00  0.00     0.137 A 
ENDROOT
BRANCH  10  14
HETATM   14  N4  UNL     1       0.858  52.986 -18.025  1.00  0.00    -0.192 N 
HETATM   15  H18 UNL     1       0.970  53.909 -17.634  1.00  0.00     0.184 HD
BRANCH  14  16
HETATM   16  C18 UNL     1       0.851  51.913 -17.129  1.00  0.00     0.049 A 
HETATM   17  C19 UNL     1       0.185  50.734 -17.494  1.00  0.00     0.031 A 
HETATM   18  C20 UNL     1       0.193  49.608 -16.666  1.00  0.00     0.019 A 
HETATM   19  C21 UNL     1       0.869  49.625 -15.441  1.00  0.00     0.023 A 
HETATM   20  C23 UNL     1       1.530  50.796 -15.067  1.00  0.00     0.019 A 
HETATM   21  C24 UNL     1       1.532  51.916 -15.909  1.00  0.00     0.031 A 
BRANCH  19  22
HETATM   22  P1  UNL     1       0.861  48.191 -14.422  1.00  0.00     0.142 P 
HETATM   23  O2  UNL     1       1.588  46.985 -14.951  1.00  0.00    -0.670 OA
BRANCH  22  24
HETATM   24  O3  UNL     1      -0.710  47.794 -14.313  1.00  0.00    -0.345 OA
HETATM   25  H21 UNL     1      -1.039  47.406 -15.149  1.00  0.00     0.218 HD
ENDBRANCH  22  24
BRANCH  22  26
HETATM   26  C22 UNL     1       1.269  48.534 -12.714  1.00  0.00     0.223 C 
BRANCH  26  27
HETATM   27  P2  UNL     1       2.951  48.831 -12.243  1.00  0.00     0.245 P 
HETATM   28  O4  UNL     1       3.271  50.107 -11.540  1.00  0.00    -0.653 OA
BRANCH  27  29
HETATM   29  O5  UNL     1       3.380  47.566 -11.352  1.00  0.00    -0.329 OA
HETATM   30  H24 UNL     1       4.215  47.710 -10.870  1.00  0.00     0.220 HD
ENDBRANCH  27  29
BRANCH  27  31
HETATM   31  O6  UNL     1       3.858  48.599 -13.538  1.00  0.00    -0.329 OA
HETATM   32  H25 UNL     1       4.781  48.896 -13.433  1.00  0.00     0.220 HD
ENDBRANCH  27  31
ENDBRANCH  26  27
ENDBRANCH  22  26
ENDBRANCH  19  22
ENDBRANCH  14  16
ENDBRANCH  10  14
BRANCH   1  33
HETATM   33  C5  UNL     1      -1.616  50.186 -21.145  1.00  0.00     0.135 C 
BRANCH  33  34
HETATM   34  C4  UNL     1      -0.817  48.908 -20.878  1.00  0.00     0.050 C 
BRANCH  34  35
HETATM   35  C3  UNL     1      -1.533  47.648 -21.385  1.00  0.00     0.273 C 
BRANCH  35  36
HETATM   36  N1  UNL     1      -2.492  47.064 -20.437  1.00  0.00     0.080 N 
HETATM   37  C1  UNL     1      -2.286  47.553 -19.072  1.00  0.00     0.309 C 
HETATM   38  C2  UNL     1      -3.865  47.345 -20.862  1.00  0.00     0.309 C 
ENDBRANCH  35  36
ENDBRANCH  34  35
ENDBRANCH  33  34
ENDBRANCH   1  33
BRANCH   4  39
HETATM   39  C8  UNL     1      -0.219  51.955 -25.647  1.00  0.00     0.023 A 
HETATM   40  C9  UNL     1      -1.395  52.253 -26.360  1.00  0.00     0.046 A 
HETATM   41 CL1  UNL     1      -2.861  52.712 -25.558  1.00  0.00    -0.083 Cl
HETATM   42  C10 UNL     1      -1.427  52.173 -27.756  1.00  0.00     0.025 A 
HETATM   43  C11 UNL     1      -0.287  51.796 -28.462  1.00  0.00     0.003 A 
HETATM   44  C12 UNL     1       0.887  51.499 -27.774  1.00  0.00     0.025 A 
HETATM   45  C13 UNL     1       0.924  51.580 -26.378  1.00  0.00     0.046 A 
HETATM   46 CL2  UNL     1       2.420  51.182 -25.598  1.00  0.00    -0.083 Cl
ENDBRANCH   4  39
TORSDOF 13
ENDMDL
MODEL 2
REMARK minimizedAffinity -8.58303165
REMARK CNNscore 0.554997146
REMARK CNNaffinity 7.34183741
REMARK  13 active torsions:
REMARK  status: ('A' for Active; 'I' for Inactive)
REMARK    1  A    between atoms: N1_2  and  C3_4 
REMARK    2  A    between atoms: C3_4  and  C4_5 
REMARK    3  A    between atoms: C4_5  and  C5_6 
REMARK    4  A    between atoms: C5_6  and  N2_7 
REMARK    5  A    between atoms: C7_10  and  C8_11 
REMARK    6  A    between atoms: C17_24  and  N4_25 
REMARK    7  A    between atoms: N4_25  and  C18_26 
REMARK    8  A    between atoms: C21_29  and  P1_30 
REMARK    9  A    between atoms: P1_30  and  O3_32 
REMARK   10  A    between atoms: P1_30  and  C22_33 
REMARK   11  A    between atoms: C22_33  and  P2_34 
REMARK   12  A    between atoms: P2_34  and  O5_36 
REMARK   13  A    between atoms: P2_34  and  O6_37 
ROOT
HETATM    1  N2  UNL     1      -2.426  51.466 -20.589  1.00  0.00    -0.298 N 
HETATM    2  C6  UNL     1      -2.951  50.937 -21.761  1.00  0.00     0.260 A 
HETATM    3  O1  UNL     1      -4.099  50.504 -21.858  1.00  0.00    -0.267 OA
HETATM    4  C7  UNL     1      -2.049  50.899 -22.960  1.00  0.00     0.047 A 
HETATM    5  C14 UNL     1      -0.791  51.364 -22.887  1.00  0.00     0.034 A 
HETATM    6  C15 UNL     1      -0.293  51.879 -21.626  1.00  0.00     0.026 A 
HETATM    7  C16 UNL     1       0.988  52.352 -21.466  1.00  0.00     0.121 A 
HETATM    8  N3  UNL     1       1.472  52.804 -20.295  1.00  0.00    -0.201 N 
ATOM      9  H3  UNL     1       2.426  53.153 -20.216  1.00  0.00     0.183 HD
HETATM   10  C17 UNL     1       0.651  52.778 -19.237  1.00  0.00     0.684 A 
HETATM   11  N5  UNL     1      -0.616  52.341 -19.301  1.00  0.00    -0.175 N 
ATOM     12  H5  UNL     1      -1.211  52.334 -18.472  1.00  0.00     0.186 HD
HETATM   13  C25 UNL     1      -1.080  51.909 -20.493  1.00  0.00     0.137 A 
ENDROOT
BRANCH  10  14
HETATM   14  N4  UNL     1       1.086  53.160 -17.971  1.00  0.00    -0.192 N 
HETATM   15  H18 UNL     1       0.902  54.141 -17.830  1.00  0.00     0.184 HD
BRANCH  14  16
HETATM   16  C18 UNL     1       1.718  52.474 -16.929  1.00  0.00     0.049 A 
HETATM   17  C19 UNL     1       1.075  51.363 -16.366  1.00  0.00     0.031 A 
HETATM   18  C20 UNL     1       1.682  50.603 -15.363  1.00  0.00     0.019 A 
HETATM   19  C21 UNL     1       2.956  50.932 -14.888  1.00  0.00     0.023 A 
HETATM   20  C23 UNL     1       3.602  52.040 -15.439  1.00  0.00     0.019 A 
HETATM   21  C24 UNL     1       2.995  52.789 -16.456  1.00  0.00     0.031 A 
BRANCH  19  22
HETATM   22  P1  UNL     1       3.694  49.954 -13.624  1.00  0.00     0.142 P 
HETATM   23  O2  UNL     1       5.045  49.367 -13.929  1.00  0.00    -0.670 OA
BRANCH  22  24
HETATM   24  O3  UNL     1       2.664  48.713 -13.434  1.00  0.00    -0.345 OA
HETATM   25  H21 UNL     1       2.718  48.086 -14.183  1.00  0.00     0.218 HD
ENDBRANCH  22  24
BRANCH  22  26
HETATM   26  C22 UNL     1       3.637  50.725 -12.009  1.00  0.00     0.223 C 
BRANCH  26  27
HETATM   27  P2  UNL     1       4.570  50.046 -10.666  1.00  0.00     0.245 P 
HETATM   28  O4  UNL     1       4.433  50.680  -9.323  1.00  0.00    -0.653 OA
BRANCH  27  29
HETATM   29  O5  UNL     1       4.172  48.491 -10.606  1.00  0.00    -0.329 OA
HETATM   30  H24 UNL     1       4.467  48.058  -9.784  1.00  0.00     0.220 HD
ENDBRANCH  27  29
BRANCH  27  31
HETATM   31  O6  UNL     1       6.092  49.942 -11.144  1.00  0.00    -0.329 OA
HETATM   32  H25 UNL     1       6.719  49.735 -10.426  1.00  0.00     0.220 HD
ENDBRANCH  27  31
ENDBRANCH  26  27
ENDBRANCH  22  26
ENDBRANCH  19  22
ENDBRANCH  14  16
ENDBRANCH  10  14
BRANCH   1  33
HETATM   33  C5  UNL     1      -3.277  51.545 -19.401  1.00  0.00     0.135 C 
BRANCH  33  34
HETATM   34  C4  UNL     1      -2.724  50.710 -18.244  1.00  0.00     0.050 C 
BRANCH  34  35
HETATM   35  C3  UNL     1      -3.622  49.515 -17.897  1.00  0.00     0.273 C 
BRANCH  35  36
HETATM   36  N1  UNL     1      -3.213  48.243 -18.507  1.00  0.00     0.080 N 
HETATM   37  C1  UNL     1      -4.051  47.886 -19.654  1.00  0.00     0.309 C 
HETATM   38  C2  UNL     1      -1.808  48.302 -18.919  1.00  0.00     0.309 C 
ENDBRANCH  35  36
ENDBRANCH  34  35
ENDBRANCH  33  34
ENDBRANCH   1  33
BRANCH   4  39
HETATM   39  C8  UNL     1      -2.538  50.333 -24.232  1.00  0.00     0.023 A 
HETATM   40  C9  UNL     1      -2.786  48.954 -24.355  1.00  0.00     0.046 A 
HETATM   41 CL1  UNL     1      -2.533  47.856 -23.039  1.00  0.00    -0.083 Cl
HETATM   42  C10 UNL     1      -3.238  48.411 -25.563  1.00  0.00     0.025 A 
HETATM   43  C11 UNL     1      -3.449  49.236 -26.665  1.00  0.00     0.003 A 
HETATM   44  C12 UNL     1      -3.209  50.605 -26.562  1.00  0.00     0.025 A 
HETATM   45  C13 UNL     1      -2.759  51.151 -25.355  1.00  0.00     0.046 A 
HETATM   46 CL2  UNL     1      -2.474  52.860 -25.314  1.00  0.00    -0.083 Cl
ENDBRANCH   4  39
TORSDOF 13
ENDMDL
MODEL 3
REMARK minimizedAffinity -8.93787766
REMARK CNNscore 0.492781281
REMARK CNNaffinity 7.74220037
REMARK  13 active torsions:
REMARK  status: ('A' for Active; 'I' for Inactive)
REMARK    1  A    between atoms: N1_2  and  C3_4 
REMARK    2  A    between atoms: C3_4  and  C4_5 
REMARK    3  A    between atoms: C4_5  and  C5_6 
REMARK    4  A    between atoms: C5_6  and  N2_7 
REMARK    5  A    between atoms: C7_10  and  C8_11 
REMARK    6  A    between atoms: C17_24  and  N4_25 
REMARK    7  A    between atoms: N4_25  and  C18_26 
REMARK    8  A    between atoms: C21_29  and  P1_30 
REMARK    9  A    between atoms: P1_30  and  O3_32 
REMARK   10  A    between atoms: P1_30  and  C22_33 
REMARK   11  A    between atoms: C22_33  and  P2_34 
REMARK   12  A    between atoms: P2_34  and  O5_36 
REMARK   13  A    between atoms: P2_34  and  O6_37 
ROOT
HETATM    1  N2  UNL     1      -0.817  51.107 -21.936  1.00  0.00    -0.298 N 
HETATM    2  C6  UNL     1      -0.929  51.013 -23.316  1.00  0.00     0.260 A 
HETATM    3  O1  UNL     1      -1.587  50.144 -23.888  1.00  0.00    -0.267 OA
HETATM    4  C7  UNL     1      -0.195  52.036 -24.135  1.00  0.00     0.047 A 
HETATM    5  C14 UNL     1       0.531  52.996 -23.541  1.00  0.00     0.034 A 
HETATM    6  C15 UNL     1       0.631  53.024 -22.094  1.00  0.00     0.026 A 
HETATM    7  C16 UNL     1       1.373  53.961 -21.414  1.00  0.00     0.121 A 
HETATM    8  N3  UNL     1       1.498  53.980 -20.075  1.00  0.00    -0.201 N 
ATOM      9  H3  UNL     1       2.052  54.695 -19.605  1.00  0.00     0.183 HD
HETATM   10  C17 UNL     1       0.868  53.022 -19.383  1.00  0.00     0.684 A 
HETATM   11  N5  UNL     1       0.117  52.072 -19.961  1.00  0.00    -0.175 N 
ATOM     12  H5  UNL     1      -0.348  51.357 -19.400  1.00  0.00     0.186 HD
HETATM   13  C25 UNL     1      -0.006  52.088 -21.305  1.00  0.00     0.137 A 
ENDROOT
BRANCH  10  14
HETATM   14  N4  UNL     1       0.997  52.921 -18.001  1.00  0.00    -0.192 N 
HETATM   15  H18 UNL     1       1.330  53.795 -17.625  1.00  0.00     0.184 HD
BRANCH  14  16
HETATM   16  C18 UNL     1       0.784  51.878 -17.094  1.00  0.00     0.049 A 
HETATM   17  C19 UNL     1       0.150  50.712 -17.545  1.00  0.00     0.031 A 
HETATM   18  C20 UNL     1      -0.038  49.614 -16.701  1.00  0.00     0.019 A 
HETATM   19  C21 UNL     1       0.403  49.648 -15.373  1.00  0.00     0.023 A 
HETATM   20  C23 UNL     1       1.030  50.807 -14.914  1.00  0.00     0.019 A 
HETATM   21  C24 UNL     1       1.230  51.899 -15.770  1.00  0.00     0.031 A 
BRANCH  19  22
HETATM   22  P1  UNL     1       0.152  48.249 -14.336  1.00  0.00     0.142 P 
HETATM   23  O2  UNL     1       1.329  47.802 -13.513  1.00  0.00    -0.670 OA
BRANCH  22  24
HETATM   24  O3  UNL     1      -0.192  47.047 -15.372  1.00  0.00    -0.345 OA
HETATM   25  H21 UNL     1       0.606  46.754 -15.858  1.00  0.00     0.218 HD
ENDBRANCH  22  24
BRANCH  22  26
HETATM   26  C22 UNL     1      -1.355  48.342 -13.374  1.00  0.00     0.223 C 
BRANCH  26  27
HETATM   27  P2  UNL     1      -2.596  49.539 -13.779  1.00  0.00     0.245 P 
HETATM   28  O4  UNL     1      -2.221  50.982 -13.744  1.00  0.00    -0.653 OA
BRANCH  27  29
HETATM   29  O5  UNL     1      -3.136  49.126 -15.234  1.00  0.00    -0.329 OA
HETATM   30  H24 UNL     1      -3.677  49.823 -15.647  1.00  0.00     0.220 HD
ENDBRANCH  27  29
BRANCH  27  31
HETATM   31  O6  UNL     1      -3.881  49.216 -12.885  1.00  0.00    -0.329 OA
HETATM   32  H25 UNL     1      -4.564  49.912 -12.908  1.00  0.00     0.220 HD
ENDBRANCH  27  31
ENDBRANCH  26  27
ENDBRANCH  22  26
ENDBRANCH  19  22
ENDBRANCH  14  16
ENDBRANCH  10  14
BRANCH   1  33
HETATM   33  C5  UNL     1      -1.534  50.145 -21.097  1.00  0.00     0.135 C 
BRANCH  33  34
HETATM   34  C4  UNL     1      -0.725  48.865 -20.874  1.00  0.00     0.050 C 
BRANCH  34  35
HETATM   35  C3  UNL     1      -1.513  47.599 -21.237  1.00  0.00     0.273 C 
BRANCH  35  36
HETATM   36  N1  UNL     1      -2.747  47.402 -20.463  1.00  0.00     0.080 N 
HETATM   37  C1  UNL     1      -3.453  46.180 -20.852  1.00  0.00     0.309 C 
HETATM   38  C2  UNL     1      -2.450  47.367 -19.029  1.00  0.00     0.309 C 
ENDBRANCH  35  36
ENDBRANCH  34  35
ENDBRANCH  33  34
ENDBRANCH   1  33
BRANCH   4  39
HETATM   39  C8  UNL     1      -0.257  51.983 -25.608  1.00  0.00     0.023 A 
HETATM   40  C9  UNL     1      -1.453  52.281 -26.288  1.00  0.00     0.046 A 
HETATM   41 CL1  UNL     1      -2.901  52.720 -25.444  1.00  0.00    -0.083 Cl
HETATM   42  C10 UNL     1      -1.518  52.218 -27.683  1.00  0.00     0.025 A 
HETATM   43  C11 UNL     1      -0.393  51.859 -28.422  1.00  0.00     0.003 A 
HETATM   44  C12 UNL     1       0.799  51.561 -27.766  1.00  0.00     0.025 A 
HETATM   45  C13 UNL     1       0.870  51.624 -26.371  1.00  0.00     0.046 A 
HETATM   46 CL2  UNL     1       2.386  51.227 -25.633  1.00  0.00    -0.083 Cl
ENDBRANCH   4  39
TORSDOF 13
ENDMDL
MODEL 4
REMARK minimizedAffinity -8.97968197
REMARK CNNscore 0.45642665
REMARK CNNaffinity 7.54723978
REMARK  13 active torsions:
REMARK  status: ('A' for Active; 'I' for Inactive)
REMARK    1  A    between atoms: N1_2  and  C3_4 
REMARK    2  A    between atoms: C3_4  and  C4_5 
REMARK    3  A    between atoms: C4_5  and  C5_6 
REMARK    4  A    between atoms: C5_6  and  N2_7 
REMARK    5  A    between atoms: C7_10  and  C8_11 
REMARK    6  A    between atoms: C17_24  and  N4_25 
REMARK    7  A    between atoms: N4_25  and  C18_26 
REMARK    8  A    between atoms: C21_29  and  P1_30 
REMARK    9  A    between atoms: P1_30  and  O3_32 
REMARK   10  A    between atoms: P1_30  and  C22_33 
REMARK   11  A    between atoms: C22_33  and  P2_34 
REMARK   12  A    between atoms: P2_34  and  O5_36 
REMARK   13  A    between atoms: P2_34  and  O6_37 
ROOT
HETATM    1  N2  UNL     1      -0.856  51.077 -21.840  1.00  0.00    -0.298 N 
HETATM    2  C6  UNL     1      -0.977  50.980 -23.220  1.00  0.00     0.260 A 
HETATM    3  O1  UNL     1      -1.639  50.111 -23.786  1.00  0.00    -0.267 OA
HETATM    4  C7  UNL     1      -0.247  52.001 -24.045  1.00  0.00     0.047 A 
HETATM    5  C14 UNL     1       0.484  52.962 -23.458  1.00  0.00     0.034 A 
HETATM    6  C15 UNL     1       0.592  52.993 -22.012  1.00  0.00     0.026 A 
HETATM    7  C16 UNL     1       1.339  53.930 -21.338  1.00  0.00     0.121 A 
HETATM    8  N3  UNL     1       1.472  53.952 -20.000  1.00  0.00    -0.201 N 
ATOM      9  H3  UNL     1       2.030  54.668 -19.535  1.00  0.00     0.183 HD
HETATM   10  C17 UNL     1       0.845  52.996 -19.302  1.00  0.00     0.684 A 
HETATM   11  N5  UNL     1       0.090  52.046 -19.873  1.00  0.00    -0.175 N 
ATOM     12  H5  UNL     1      -0.372  51.332 -19.308  1.00  0.00     0.186 HD
HETATM   13  C25 UNL     1      -0.041  52.059 -21.217  1.00  0.00     0.137 A 
ENDROOT
BRANCH  10  14
HETATM   14  N4  UNL     1       0.983  52.898 -17.920  1.00  0.00    -0.192 N 
HETATM   15  H18 UNL     1       1.182  53.807 -17.532  1.00  0.00     0.184 HD
BRANCH  14  16
HETATM   16  C18 UNL     1       0.922  51.825 -17.027  1.00  0.00     0.049 A 
HETATM   17  C19 UNL     1       1.574  51.940 -15.791  1.00  0.00     0.031 A 
HETATM   18  C20 UNL     1       1.500  50.925 -14.833  1.00  0.00     0.019 A 
HETATM   19  C21 UNL     1       0.769  49.757 -15.082  1.00  0.00     0.023 A 
HETATM   20  C23 UNL     1       0.122  49.632 -16.312  1.00  0.00     0.019 A 
HETATM   21  C24 UNL     1       0.186  50.660 -17.262  1.00  0.00     0.031 A 
BRANCH  19  22
HETATM   22  P1  UNL     1       0.695  48.498 -13.855  1.00  0.00     0.142 P 
HETATM   23  O2  UNL     1      -0.309  48.692 -12.751  1.00  0.00    -0.670 OA
BRANCH  22  24
HETATM   24  O3  UNL     1       2.168  48.524 -13.173  1.00  0.00    -0.345 OA
HETATM   25  H21 UNL     1       2.282  49.310 -12.599  1.00  0.00     0.218 HD
ENDBRANCH  22  24
BRANCH  22  26
HETATM   26  C22 UNL     1       0.640  46.845 -14.540  1.00  0.00     0.223 C 
BRANCH  26  27
HETATM   27  P2  UNL     1       2.012  45.747 -14.324  1.00  0.00     0.245 P 
HETATM   28  O4  UNL     1       2.275  45.209 -12.958  1.00  0.00    -0.653 OA
BRANCH  27  29
HETATM   29  O5  UNL     1       1.779  44.553 -15.372  1.00  0.00    -0.329 OA
HETATM   30  H24 UNL     1       2.360  43.788 -15.208  1.00  0.00     0.220 HD
ENDBRANCH  27  29
BRANCH  27  31
HETATM   31  O6  UNL     1       3.295  46.453 -14.963  1.00  0.00    -0.329 OA
HETATM   32  H25 UNL     1       4.138  46.008 -14.753  1.00  0.00     0.220 HD
ENDBRANCH  27  31
ENDBRANCH  26  27
ENDBRANCH  22  26
ENDBRANCH  19  22
ENDBRANCH  14  16
ENDBRANCH  10  14
BRANCH   1  33
HETATM   33  C5  UNL     1      -1.570  50.119 -20.995  1.00  0.00     0.135 C 
BRANCH  33  34
HETATM   34  C4  UNL     1      -0.783  48.818 -20.816  1.00  0.00     0.050 C 
BRANCH  34  35
HETATM   35  C3  UNL     1      -1.506  47.604 -21.413  1.00  0.00     0.273 C 
BRANCH  35  36
HETATM   36  N1  UNL     1      -2.512  46.994 -20.532  1.00  0.00     0.080 N 
HETATM   37  C1  UNL     1      -2.373  47.439 -19.144  1.00  0.00     0.309 C 
HETATM   38  C2  UNL     1      -3.862  47.293 -21.015  1.00  0.00     0.309 C 
ENDBRANCH  35  36
ENDBRANCH  34  35
ENDBRANCH  33  34
ENDBRANCH   1  33
BRANCH   4  39
HETATM   39  C8  UNL     1      -0.318  51.944 -25.518  1.00  0.00     0.023 A 
HETATM   40  C9  UNL     1      -1.520  52.232 -26.191  1.00  0.00     0.046 A 
HETATM   41 CL1  UNL     1      -2.967  52.660 -25.339  1.00  0.00    -0.083 Cl
HETATM   42  C10 UNL     1      -1.594  52.166 -27.586  1.00  0.00     0.025 A 
HETATM   43  C11 UNL     1      -0.471  51.814 -28.330  1.00  0.00     0.003 A 
HETATM   44  C12 UNL     1       0.728  51.528 -27.682  1.00  0.00     0.025 A 
HETATM   45  C13 UNL     1       0.807  51.594 -26.287  1.00  0.00     0.046 A 
HETATM   46 CL2  UNL     1       2.331  51.210 -25.558  1.00  0.00    -0.083 Cl
ENDBRANCH   4  39
TORSDOF 13
ENDMDL
MODEL 5
REMARK minimizedAffinity -8.85731506
REMARK CNNscore 0.430492997
REMARK CNNaffinity 7.65971327
REMARK  13 active torsions:
REMARK  status: ('A' for Active; 'I' for Inactive)
REMARK    1  A    between atoms: N1_2  and  C3_4 
REMARK    2  A    between atoms: C3_4  and  C4_5 
REMARK    3  A    between atoms: C4_5  and  C5_6 
REMARK    4  A    between atoms: C5_6  and  N2_7 
REMARK    5  A    between atoms: C7_10  and  C8_11 
REMARK    6  A    between atoms: C17_24  and  N4_25 
REMARK    7  A    between atoms: N4_25  and  C18_26 
REMARK    8  A    between atoms: C21_29  and  P1_30 
REMARK    9  A    between atoms: P1_30  and  O3_32 
REMARK   10  A    between atoms: P1_30  and  C22_33 
REMARK   11  A    between atoms: C22_33  and  P2_34 
REMARK   12  A    between atoms: P2_34  and  O5_36 
REMARK   13  A    between atoms: P2_34  and  O6_37 
ROOT
HETATM    1  N2  UNL     1      -0.897  51.053 -21.834  1.00  0.00    -0.298 N 
HETATM    2  C6  UNL     1      -1.026  50.956 -23.213  1.00  0.00     0.260 A 
HETATM    3  O1  UNL     1      -1.702  50.096 -23.775  1.00  0.00    -0.267 OA
HETATM    4  C7  UNL     1      -0.286  51.966 -24.043  1.00  0.00     0.047 A 
HETATM    5  C14 UNL     1       0.461  52.918 -23.460  1.00  0.00     0.034 A 
HETATM    6  C15 UNL     1       0.576  52.949 -22.014  1.00  0.00     0.026 A 
HETATM    7  C16 UNL     1       1.338  53.876 -21.345  1.00  0.00     0.121 A 
HETATM    8  N3  UNL     1       1.478  53.898 -20.008  1.00  0.00    -0.201 N 
ATOM      9  H3  UNL     1       2.047  54.607 -19.546  1.00  0.00     0.183 HD
HETATM   10  C17 UNL     1       0.841  52.952 -19.305  1.00  0.00     0.684 A 
HETATM   11  N5  UNL     1       0.071  52.010 -19.872  1.00  0.00    -0.175 N 
ATOM     12  H5  UNL     1      -0.398  51.304 -19.304  1.00  0.00     0.186 HD
HETATM   13  C25 UNL     1      -0.066  52.024 -21.215  1.00  0.00     0.137 A 
ENDROOT
BRANCH  10  14
HETATM   14  N4  UNL     1       0.984  52.853 -17.925  1.00  0.00    -0.192 N 
HETATM   15  H18 UNL     1       1.319  53.728 -17.553  1.00  0.00     0.184 HD
BRANCH  14  16
HETATM   16  C18 UNL     1       0.781  51.811 -17.014  1.00  0.00     0.049 A 
HETATM   17  C19 UNL     1       0.248  50.602 -17.482  1.00  0.00     0.031 A 
HETATM   18  C20 UNL     1       0.077  49.506 -16.632  1.00  0.00     0.019 A 
HETATM   19  C21 UNL     1       0.435  49.585 -15.281  1.00  0.00     0.023 A 
HETATM   20  C23 UNL     1       0.961  50.787 -14.806  1.00  0.00     0.019 A 
HETATM   21  C24 UNL     1       1.145  51.877 -15.666  1.00  0.00     0.031 A 
BRANCH  19  22
HETATM   22  P1  UNL     1       0.208  48.187 -14.237  1.00  0.00     0.142 P 
HETATM   23  O2  UNL     1       1.082  48.111 -13.014  1.00  0.00    -0.670 OA
BRANCH  22  24
HETATM   24  O3  UNL     1       0.594  46.923 -15.181  1.00  0.00    -0.345 OA
HETATM   25  H21 UNL     1       1.561  46.868 -15.326  1.00  0.00     0.218 HD
ENDBRANCH  22  24
BRANCH  22  26
HETATM   26  C22 UNL     1      -1.510  47.852 -13.865  1.00  0.00     0.223 C 
BRANCH  26  27
HETATM   27  P2  UNL     1      -2.650  49.190 -13.646  1.00  0.00     0.245 P 
HETATM   28  O4  UNL     1      -2.171  50.415 -12.942  1.00  0.00    -0.653 OA
BRANCH  27  29
HETATM   29  O5  UNL     1      -3.181  49.551 -15.118  1.00  0.00    -0.329 OA
HETATM   30  H24 UNL     1      -3.659  50.399 -15.150  1.00  0.00     0.220 HD
ENDBRANCH  27  29
BRANCH  27  31
HETATM   31  O6  UNL     1      -3.978  48.586 -12.994  1.00  0.00    -0.329 OA
HETATM   32  H25 UNL     1      -4.607  49.262 -12.680  1.00  0.00     0.220 HD
ENDBRANCH  27  31
ENDBRANCH  26  27
ENDBRANCH  22  26
ENDBRANCH  19  22
ENDBRANCH  14  16
ENDBRANCH  10  14
BRANCH   1  33
HETATM   33  C5  UNL     1      -1.619  50.104 -20.985  1.00  0.00     0.135 C 
BRANCH  33  34
HETATM   34  C4  UNL     1      -0.950  48.728 -20.966  1.00  0.00     0.050 C 
BRANCH  34  35
HETATM   35  C3  UNL     1      -1.906  47.601 -21.378  1.00  0.00     0.273 C 
BRANCH  35  36
HETATM   36  N1  UNL     1      -2.643  46.985 -20.266  1.00  0.00     0.080 N 
HETATM   37  C1  UNL     1      -3.494  47.949 -19.566  1.00  0.00     0.309 C 
HETATM   38  C2  UNL     1      -3.455  45.866 -20.750  1.00  0.00     0.309 C 
ENDBRANCH  35  36
ENDBRANCH  34  35
ENDBRANCH  33  34
ENDBRANCH   1  33
BRANCH   4  39
HETATM   39  C8  UNL     1      -0.364  51.909 -25.515  1.00  0.00     0.023 A 
HETATM   40  C9  UNL     1       0.767  51.573 -26.282  1.00  0.00     0.046 A 
HETATM   41 CL1  UNL     1       2.296  51.214 -25.550  1.00  0.00    -0.083 Cl
HETATM   42  C10 UNL     1       0.700  51.530 -27.678  1.00  0.00     0.025 A 
HETATM   43  C11 UNL     1      -0.496  51.821 -28.330  1.00  0.00     0.003 A 
HETATM   44  C12 UNL     1      -1.627  52.155 -27.588  1.00  0.00     0.025 A 
HETATM   45  C13 UNL     1      -1.564  52.197 -26.191  1.00  0.00     0.046 A 
HETATM   46 CL2  UNL     1      -3.011  52.633 -25.344  1.00  0.00    -0.083 Cl
ENDBRANCH   4  39
TORSDOF 13
ENDMDL
MODEL 6
REMARK minimizedAffinity -8.86627388
REMARK CNNscore 0.429668635
REMARK CNNaffinity 7.58522367
REMARK  13 active torsions:
REMARK  status: ('A' for Active; 'I' for Inactive)
REMARK    1  A    between atoms: N1_2  and  C3_4 
REMARK    2  A    between atoms: C3_4  and  C4_5 
REMARK    3  A    between atoms: C4_5  and  C5_6 
REMARK    4  A    between atoms: C5_6  and  N2_7 
REMARK    5  A    between atoms: C7_10  and  C8_11 
REMARK    6  A    between atoms: C17_24  and  N4_25 
REMARK    7  A    between atoms: N4_25  and  C18_26 
REMARK    8  A    between atoms: C21_29  and  P1_30 
REMARK    9  A    between atoms: P1_30  and  O3_32 
REMARK   10  A    between atoms: P1_30  and  C22_33 
REMARK   11  A    between atoms: C22_33  and  P2_34 
REMARK   12  A    between atoms: P2_34  and  O5_36 
REMARK   13  A    between atoms: P2_34  and  O6_37 
ROOT
HETATM    1  N2  UNL     1      -0.766  50.978 -21.652  1.00  0.00    -0.298 N 
HETATM    2  C6  UNL     1      -0.984  50.875 -23.019  1.00  0.00     0.260 A 
HETATM    3  O1  UNL     1      -1.629  49.966 -23.539  1.00  0.00    -0.267 OA
HETATM    4  C7  UNL     1      -0.386  51.943 -23.890  1.00  0.00     0.047 A 
HETATM    5  C14 UNL     1       0.323  52.948 -23.353  1.00  0.00     0.034 A 
HETATM    6  C15 UNL     1       0.539  52.984 -21.919  1.00  0.00     0.026 A 
HETATM    7  C16 UNL     1       1.272  53.966 -21.297  1.00  0.00     0.121 A 
HETATM    8  N3  UNL     1       1.505  53.994 -19.973  1.00  0.00    -0.201 N 
ATOM      9  H3  UNL     1       2.048  54.744 -19.546  1.00  0.00     0.183 HD
HETATM   10  C17 UNL     1       0.995  52.998 -19.236  1.00  0.00     0.684 A 
HETATM   11  N5  UNL     1       0.262  52.001 -19.755  1.00  0.00    -0.175 N 
ATOM     12  H5  UNL     1      -0.108  51.259 -19.161  1.00  0.00     0.186 HD
HETATM   13  C25 UNL     1       0.029  52.009 -21.085  1.00  0.00     0.137 A 
ENDROOT
BRANCH  10  14
HETATM   14  N4  UNL     1       1.243  52.907 -17.869  1.00  0.00    -0.192 N 
HETATM   15  H18 UNL     1       1.558  53.799 -17.519  1.00  0.00     0.184 HD
BRANCH  14  16
HETATM   16  C18 UNL     1       1.163  51.856 -16.951  1.00  0.00     0.049 A 
HETATM   17  C19 UNL     1       1.887  51.951 -15.754  1.00  0.00     0.031 A 
HETATM   18  C20 UNL     1       1.801  50.960 -14.772  1.00  0.00     0.019 A 
HETATM   19  C21 UNL     1       0.985  49.838 -14.956  1.00  0.00     0.023 A 
HETATM   20  C23 UNL     1       0.265  49.733 -16.147  1.00  0.00     0.019 A 
HETATM   21  C24 UNL     1       0.343  50.737 -17.121  1.00  0.00     0.031 A 
BRANCH  19  22
HETATM   22  P1  UNL     1       0.898  48.609 -13.700  1.00  0.00     0.142 P 
HETATM   23  O2  UNL     1      -0.053  48.874 -12.564  1.00  0.00    -0.670 OA
BRANCH  22  24
HETATM   24  O3  UNL     1       2.396  48.577 -13.075  1.00  0.00    -0.345 OA
HETATM   25  H21 UNL     1       2.569  49.367 -12.523  1.00  0.00     0.218 HD
ENDBRANCH  22  24
BRANCH  22  26
HETATM   26  C22 UNL     1       0.737  46.947 -14.347  1.00  0.00     0.223 C 
BRANCH  26  27
HETATM   27  P2  UNL     1       2.109  45.828 -14.275  1.00  0.00     0.245 P 
HETATM   28  O4  UNL     1       2.474  45.247 -12.950  1.00  0.00    -0.653 OA
BRANCH  27  29
HETATM   29  O5  UNL     1       1.776  44.669 -15.334  1.00  0.00    -0.329 OA
HETATM   30  H24 UNL     1       2.358  43.893 -15.240  1.00  0.00     0.220 HD
ENDBRANCH  27  29
BRANCH  27  31
HETATM   31  O6  UNL     1       3.345  46.540 -14.995  1.00  0.00    -0.329 OA
HETATM   32  H25 UNL     1       4.196  46.080 -14.867  1.00  0.00     0.220 HD
ENDBRANCH  27  31
ENDBRANCH  26  27
ENDBRANCH  22  26
ENDBRANCH  19  22
ENDBRANCH  14  16
ENDBRANCH  10  14
BRANCH   1  33
HETATM   33  C5  UNL     1      -1.349  49.973 -20.762  1.00  0.00     0.135 C 
BRANCH  33  34
HETATM   34  C4  UNL     1      -2.570  50.511 -20.013  1.00  0.00     0.050 C 
BRANCH  34  35
HETATM   35  C3  UNL     1      -3.862  49.770 -20.383  1.00  0.00     0.273 C 
BRANCH  35  36
HETATM   36  N1  UNL     1      -4.961  50.638 -20.829  1.00  0.00     0.080 N 
HETATM   37  C1  UNL     1      -4.914  50.890 -22.271  1.00  0.00     0.309 C 
HETATM   38  C2  UNL     1      -6.254  50.050 -20.471  1.00  0.00     0.309 C 
ENDBRANCH  35  36
ENDBRANCH  34  35
ENDBRANCH  33  34
ENDBRANCH   1  33
BRANCH   4  39
HETATM   39  C8  UNL     1      -0.565  51.885 -25.353  1.00  0.00     0.023 A 
HETATM   40  C9  UNL     1      -1.817  52.156 -25.936  1.00  0.00     0.046 A 
HETATM   41 CL1  UNL     1      -3.202  52.566 -24.980  1.00  0.00    -0.083 Cl
HETATM   42  C10 UNL     1      -1.992  52.089 -27.322  1.00  0.00     0.025 A 
HETATM   43  C11 UNL     1      -0.922  51.751 -28.147  1.00  0.00     0.003 A 
HETATM   44  C12 UNL     1       0.325  51.481 -27.589  1.00  0.00     0.025 A 
HETATM   45  C13 UNL     1       0.505  51.548 -26.203  1.00  0.00     0.046 A 
HETATM   46 CL2  UNL     1       2.084  51.186 -25.589  1.00  0.00    -0.083 Cl
ENDBRANCH   4  39
TORSDOF 13
ENDMDL
MODEL 7
REMARK minimizedAffinity -8.10191727
REMARK CNNscore 0.319337994
REMARK CNNaffinity 7.27503538
REMARK  13 active torsions:
REMARK  status: ('A' for Active; 'I' for Inactive)
REMARK    1  A    between atoms: N1_2  and  C3_4 
REMARK    2  A    between atoms: C3_4  and  C4_5 
REMARK    3  A    between atoms: C4_5  and  C5_6 
REMARK    4  A    between atoms: C5_6  and  N2_7 
REMARK    5  A    between atoms: C7_10  and  C8_11 
REMARK    6  A    between atoms: C17_24  and  N4_25 
REMARK    7  A    between atoms: N4_25  and  C18_26 
REMARK    8  A    between atoms: C21_29  and  P1_30 
REMARK    9  A    between atoms: P1_30  and  O3_32 
REMARK   10  A    between atoms: P1_30  and  C22_33 
REMARK   11  A    between atoms: C22_33  and  P2_34 
REMARK   12  A    between atoms: P2_34  and  O5_36 
REMARK   13  A    between atoms: P2_34  and  O6_37 
ROOT
HETATM    1  N2  UNL     1      -1.656  50.959 -20.776  1.00  0.00    -0.298 N 
HETATM    2  C6  UNL     1      -2.032  50.597 -22.062  1.00  0.00     0.260 A 
HETATM    3  O1  UNL     1      -2.934  49.797 -22.308  1.00  0.00    -0.267 OA
HETATM    4  C7  UNL     1      -1.279  51.226 -23.199  1.00  0.00     0.047 A 
HETATM    5  C14 UNL     1      -0.289  52.102 -22.965  1.00  0.00     0.034 A 
HETATM    6  C15 UNL     1       0.075  52.419 -21.597  1.00  0.00     0.026 A 
HETATM    7  C16 UNL     1       1.090  53.288 -21.275  1.00  0.00     0.121 A 
HETATM    8  N3  UNL     1       1.457  53.567 -20.011  1.00  0.00    -0.201 N 
ATOM      9  H3  UNL     1       2.211  54.223 -19.811  1.00  0.00     0.183 HD
HETATM   10  C17 UNL     1       0.793  52.949 -19.025  1.00  0.00     0.684 A 
HETATM   11  N5  UNL     1      -0.215  52.091 -19.244  1.00  0.00    -0.175 N 
ATOM     12  H5  UNL     1      -0.697  51.638 -18.467  1.00  0.00     0.186 HD
HETATM   13  C25 UNL     1      -0.574  51.844 -20.522  1.00  0.00     0.137 A 
ENDROOT
BRANCH  10  14
HETATM   14  N4  UNL     1       1.149  53.122 -17.691  1.00  0.00    -0.192 N 
HETATM   15  H18 UNL     1       1.034  54.090 -17.430  1.00  0.00     0.184 HD
BRANCH  14  16
HETATM   16  C18 UNL     1       1.634  52.252 -16.709  1.00  0.00     0.049 A 
HETATM   17  C19 UNL     1       2.933  52.447 -16.219  1.00  0.00     0.031 A 
HETATM   18  C20 UNL     1       3.451  51.648 -15.196  1.00  0.00     0.019 A 
HETATM   19  C21 UNL     1       2.684  50.623 -14.630  1.00  0.00     0.023 A 
HETATM   20  C23 UNL     1       1.392  50.418 -15.117  1.00  0.00     0.019 A 
HETATM   21  C24 UNL     1       0.872  51.234 -16.131  1.00  0.00     0.031 A 
BRANCH  19  22
HETATM   22  P1  UNL     1       3.364  49.634 -13.344  1.00  0.00     0.142 P 
HETATM   23  O2  UNL     1       3.155  50.123 -11.937  1.00  0.00    -0.670 OA
BRANCH  22  24
HETATM   24  O3  UNL     1       4.963  49.663 -13.628  1.00  0.00    -0.345 OA
HETATM   25  H21 UNL     1       5.351  50.531 -13.395  1.00  0.00     0.218 HD
ENDBRANCH  22  24
BRANCH  22  26
HETATM   26  C22 UNL     1       2.995  47.892 -13.520  1.00  0.00     0.223 C 
BRANCH  26  27
HETATM   27  P2  UNL     1       2.588  46.920 -12.096  1.00  0.00     0.245 P 
HETATM   28  O4  UNL     1       1.160  46.866 -11.665  1.00  0.00    -0.653 OA
BRANCH  27  29
HETATM   29  O5  UNL     1       3.146  45.447 -12.403  1.00  0.00    -0.329 OA
HETATM   30  H24 UNL     1       2.806  44.777 -11.783  1.00  0.00     0.220 HD
ENDBRANCH  27  29
BRANCH  27  31
HETATM   31  O6  UNL     1       3.569  47.366 -10.916  1.00  0.00    -0.329 OA
HETATM   32  H25 UNL     1       3.322  47.013 -10.041  1.00  0.00     0.220 HD
ENDBRANCH  27  31
ENDBRANCH  26  27
ENDBRANCH  22  26
ENDBRANCH  19  22
ENDBRANCH  14  16
ENDBRANCH  10  14
BRANCH   1  33
HETATM   33  C5  UNL     1      -2.377  50.389 -19.638  1.00  0.00     0.135 C 
BRANCH  33  34
HETATM   34  C4  UNL     1      -3.606  51.221 -19.263  1.00  0.00     0.050 C 
BRANCH  34  35
HETATM   35  C3  UNL     1      -4.618  51.327 -20.412  1.00  0.00     0.273 C 
BRANCH  35  36
HETATM   36  N1  UNL     1      -5.781  50.436 -20.289  1.00  0.00     0.080 N 
HETATM   37  C1  UNL     1      -6.248  49.955 -21.591  1.00  0.00     0.309 C 
HETATM   38  C2  UNL     1      -5.461  49.296 -19.425  1.00  0.00     0.309 C 
ENDBRANCH  35  36
ENDBRANCH  34  35
ENDBRANCH  33  34
ENDBRANCH   1  33
BRANCH   4  39
HETATM   39  C8  UNL     1      -1.615  50.871 -24.591  1.00  0.00     0.023 A 
HETATM   40  C9  UNL     1      -1.511  51.824 -25.621  1.00  0.00     0.046 A 
HETATM   41 CL1  UNL     1      -0.991  53.449 -25.316  1.00  0.00    -0.083 Cl
HETATM   42  C10 UNL     1      -1.841  51.494 -26.939  1.00  0.00     0.025 A 
HETATM   43  C11 UNL     1      -2.280  50.209 -27.251  1.00  0.00     0.003 A 
HETATM   44  C12 UNL     1      -2.388  49.252 -26.245  1.00  0.00     0.025 A 
HETATM   45  C13 UNL     1      -2.057  49.577 -24.925  1.00  0.00     0.046 A 
HETATM   46 CL2  UNL     1      -2.231  48.333 -23.732  1.00  0.00    -0.083 Cl
ENDBRANCH   4  39
TORSDOF 13
ENDMDL
MODEL 8
REMARK minimizedAffinity -8.0684948
REMARK CNNscore 0.254203975
REMARK CNNaffinity 7.17037821
REMARK  13 active torsions:
REMARK  status: ('A' for Active; 'I' for Inactive)
REMARK    1  A    between atoms: N1_2  and  C3_4 
REMARK    2  A    between atoms: C3_4  and  C4_5 
REMARK    3  A    between atoms: C4_5  and  C5_6 
REMARK    4  A    between atoms: C5_6  and  N2_7 
REMARK    5  A    between atoms: C7_10  and  C8_11 
REMARK    6  A    between atoms: C17_24  and  N4_25 
REMARK    7  A    between atoms: N4_25  and  C18_26 
REMARK    8  A    between atoms: C21_29  and  P1_30 
REMARK    9  A    between atoms: P1_30  and  O3_32 
REMARK   10  A    between atoms: P1_30  and  C22_33 
REMARK   11  A    between atoms: C22_33  and  P2_34 
REMARK   12  A    between atoms: P2_34  and  O5_36 
REMARK   13  A    between atoms: P2_34  and  O6_37 
ROOT
HETATM    1  N2  UNL     1      -1.844  51.997 -22.382  1.00  0.00    -0.298 N 
HETATM    2  C6  UNL     1      -1.713  52.096 -23.761  1.00  0.00     0.260 A 
HETATM    3  O1  UNL     1      -2.615  51.824 -24.552  1.00  0.00    -0.267 OA
HETATM    4  C7  UNL     1      -0.386  52.559 -24.291  1.00  0.00     0.047 A 
HETATM    5  C14 UNL     1       0.619  52.863 -23.454  1.00  0.00     0.034 A 
HETATM    6  C15 UNL     1       0.427  52.713 -22.025  1.00  0.00     0.026 A 
HETATM    7  C16 UNL     1       1.413  52.982 -21.106  1.00  0.00     0.121 A 
HETATM    8  N3  UNL     1       1.258  52.818 -19.780  1.00  0.00    -0.201 N 
ATOM      9  H3  UNL     1       2.011  53.035 -19.128  1.00  0.00     0.183 HD
HETATM   10  C17 UNL     1       0.077  52.358 -19.349  1.00  0.00     0.684 A 
HETATM   11  N5  UNL     1      -0.945  52.074 -20.171  1.00  0.00    -0.175 N 
ATOM     12  H5  UNL     1      -1.831  51.724 -19.806  1.00  0.00     0.186 HD
HETATM   13  C25 UNL     1      -0.767  52.266 -21.496  1.00  0.00     0.137 A 
ENDROOT
BRANCH  10  14
HETATM   14  N4  UNL     1      -0.151  52.091 -18.002  1.00  0.00    -0.192 N 
HETATM   15  H18 UNL     1      -1.067  52.422 -17.739  1.00  0.00     0.184 HD
BRANCH  14  16
HETATM   16  C18 UNL     1       0.625  51.502 -16.999  1.00  0.00     0.049 A 
HETATM   17  C19 UNL     1       1.748  52.193 -16.523  1.00  0.00     0.031 A 
HETATM   18  C20 UNL     1       2.528  51.683 -15.482  1.00  0.00     0.019 A 
HETATM   19  C21 UNL     1       2.209  50.460 -14.881  1.00  0.00     0.023 A 
HETATM   20  C23 UNL     1       1.096  49.762 -15.353  1.00  0.00     0.019 A 
HETATM   21  C24 UNL     1       0.308  50.287 -16.386  1.00  0.00     0.031 A 
BRANCH  19  22
HETATM   22  P1  UNL     1       3.211  49.845 -13.571  1.00  0.00     0.142 P 
HETATM   23  O2  UNL     1       4.683  50.146 -13.652  1.00  0.00    -0.670 OA
BRANCH  22  24
HETATM   24  O3  UNL     1       3.045  48.233 -13.672  1.00  0.00    -0.345 OA
HETATM   25  H21 UNL     1       3.533  47.871 -14.439  1.00  0.00     0.218 HD
ENDBRANCH  22  24
BRANCH  22  26
HETATM   26  C22 UNL     1       2.536  50.181 -11.948  1.00  0.00     0.223 C 
BRANCH  26  27
HETATM   27  P2  UNL     1       2.915  51.702 -11.124  1.00  0.00     0.245 P 
HETATM   28  O4  UNL     1       4.191  51.788 -10.356  1.00  0.00    -0.653 OA
BRANCH  27  29
HETATM   29  O5  UNL     1       2.856  52.835 -12.260  1.00  0.00    -0.329 OA
HETATM   30  H24 UNL     1       3.243  53.681 -11.969  1.00  0.00     0.220 HD
ENDBRANCH  27  29
BRANCH  27  31
HETATM   31  O6  UNL     1       1.641  52.100 -10.245  1.00  0.00    -0.329 OA
HETATM   32  H25 UNL     1       1.803  52.833  -9.622  1.00  0.00     0.220 HD
ENDBRANCH  27  31
ENDBRANCH  26  27
ENDBRANCH  22  26
ENDBRANCH  19  22
ENDBRANCH  14  16
ENDBRANCH  10  14
BRANCH   1  33
HETATM   33  C5  UNL     1      -3.127  51.573 -21.820  1.00  0.00     0.135 C 
BRANCH  33  34
HETATM   34  C4  UNL     1      -3.163  50.067 -21.550  1.00  0.00     0.050 C 
BRANCH  34  35
HETATM   35  C3  UNL     1      -4.495  49.426 -21.961  1.00  0.00     0.273 C 
BRANCH  35  36
HETATM   36  N1  UNL     1      -5.029  49.893 -23.248  1.00  0.00     0.080 N 
HETATM   37  C1  UNL     1      -4.816  48.919 -24.321  1.00  0.00     0.309 C 
HETATM   38  C2  UNL     1      -6.458  50.194 -23.128  1.00  0.00     0.309 C 
ENDBRANCH  35  36
ENDBRANCH  34  35
ENDBRANCH  33  34
ENDBRANCH   1  33
BRANCH   4  39
HETATM   39  C8  UNL     1      -0.173  52.669 -25.747  1.00  0.00     0.023 A 
HETATM   40  C9  UNL     1       0.037  53.923 -26.350  1.00  0.00     0.046 A 
HETATM   41 CL1  UNL     1       0.054  55.391 -25.429  1.00  0.00    -0.083 Cl
HETATM   42  C10 UNL     1       0.227  54.032 -27.731  1.00  0.00     0.025 A 
HETATM   43  C11 UNL     1       0.211  52.892 -28.532  1.00  0.00     0.003 A 
HETATM   44  C12 UNL     1       0.005  51.642 -27.953  1.00  0.00     0.025 A 
HETATM   45  C13 UNL     1      -0.183  51.529 -26.572  1.00  0.00     0.046 A 
HETATM   46 CL2  UNL     1      -0.444  49.939 -25.933  1.00  0.00    -0.083 Cl
ENDBRANCH   4  39
TORSDOF 13
ENDMDL
MODEL 9
REMARK minimizedAffinity -8.36435318
REMARK CNNscore 0.209394678
REMARK CNNaffinity 6.97052383
REMARK  13 active torsions:
REMARK  status: ('A' for Active; 'I' for Inactive)
REMARK    1  A    between atoms: N1_2  and  C3_4 
REMARK    2  A    between atoms: C3_4  and  C4_5 
REMARK    3  A    between atoms: C4_5  and  C5_6 
REMARK    4  A    between atoms: C5_6  and  N2_7 
REMARK    5  A    between atoms: C7_10  and  C8_11 
REMARK    6  A    between atoms: C17_24  and  N4_25 
REMARK    7  A    between atoms: N4_25  and  C18_26 
REMARK    8  A    between atoms: C21_29  and  P1_30 
REMARK    9  A    between atoms: P1_30  and  O3_32 
REMARK   10  A    between atoms: P1_30  and  C22_33 
REMARK   11  A    between atoms: C22_33  and  P2_34 
REMARK   12  A    between atoms: P2_34  and  O5_36 
REMARK   13  A    between atoms: P2_34  and  O6_37 
ROOT
HETATM    1  N2  UNL     1      -1.132  51.856 -22.246  1.00  0.00    -0.298 N 
HETATM    2  C6  UNL     1      -0.594  52.201 -21.013  1.00  0.00     0.260 A 
HETATM    3  O1  UNL     1      -0.057  53.284 -20.784  1.00  0.00    -0.267 OA
HETATM    4  C7  UNL     1      -0.680  51.177 -19.918  1.00  0.00     0.047 A 
HETATM    5  C14 UNL     1      -1.259  49.986 -20.136  1.00  0.00     0.034 A 
HETATM    6  C15 UNL     1      -1.778  49.676 -21.454  1.00  0.00     0.026 A 
HETATM    7  C16 UNL     1      -2.364  48.471 -21.762  1.00  0.00     0.121 A 
HETATM    8  N3  UNL     1      -2.822  48.160 -22.988  1.00  0.00    -0.201 N 
ATOM      9  H3  UNL     1      -3.258  47.257 -23.177  1.00  0.00     0.183 HD
HETATM   10  C17 UNL     1      -2.684  49.080 -23.951  1.00  0.00     0.684 A 
HETATM   11  N5  UNL     1      -2.132  50.285 -23.741  1.00  0.00    -0.175 N 
ATOM     12  H5  UNL     1      -2.042  50.961 -24.501  1.00  0.00     0.186 HD
HETATM   13  C25 UNL     1      -1.697  50.577 -22.496  1.00  0.00     0.137 A 
ENDROOT
BRANCH  10  14
HETATM   14  N4  UNL     1      -3.065  48.820 -25.264  1.00  0.00    -0.192 N 
HETATM   15  H18 UNL     1      -2.281  48.963 -25.881  1.00  0.00     0.184 HD
BRANCH  14  16
HETATM   16  C18 UNL     1      -4.276  48.441 -25.852  1.00  0.00     0.049 A 
HETATM   17  C19 UNL     1      -4.329  48.288 -27.245  1.00  0.00     0.031 A 
HETATM   18  C20 UNL     1      -5.494  47.855 -27.884  1.00  0.00     0.019 A 
HETATM   19  C21 UNL     1      -6.647  47.560 -27.149  1.00  0.00     0.023 A 
HETATM   20  C23 UNL     1      -6.605  47.715 -25.762  1.00  0.00     0.019 A 
HETATM   21  C24 UNL     1      -5.429  48.135 -25.125  1.00  0.00     0.031 A 
BRANCH  19  22
HETATM   22  P1  UNL     1      -8.097  47.016 -27.983  1.00  0.00     0.142 P 
HETATM   23  O2  UNL     1      -8.470  45.568 -27.812  1.00  0.00    -0.670 OA
BRANCH  22  24
HETATM   24  O3  UNL     1      -7.755  47.239 -29.555  1.00  0.00    -0.345 OA
HETATM   25  H21 UNL     1      -7.115  46.573 -29.879  1.00  0.00     0.218 HD
ENDBRANCH  22  24
BRANCH  22  26
HETATM   26  C22 UNL     1      -9.497  48.108 -27.756  1.00  0.00     0.223 C 
BRANCH  26  27
HETATM   27  P2  UNL     1     -10.770  47.694 -26.597  1.00  0.00     0.245 P 
HETATM   28  O4  UNL     1     -11.407  46.349 -26.701  1.00  0.00    -0.653 OA
BRANCH  27  29
HETATM   29  O5  UNL     1     -10.118  47.905 -25.145  1.00  0.00    -0.329 OA
HETATM   30  H24 UNL     1     -10.654  47.517 -24.430  1.00  0.00     0.220 HD
ENDBRANCH  27  29
BRANCH  27  31
HETATM   31  O6  UNL     1     -11.838  48.883 -26.614  1.00  0.00    -0.329 OA
HETATM   32  H25 UNL     1     -12.663  48.680 -26.136  1.00  0.00     0.220 HD
ENDBRANCH  27  31
ENDBRANCH  26  27
ENDBRANCH  22  26
ENDBRANCH  19  22
ENDBRANCH  14  16
ENDBRANCH  10  14
BRANCH   1  33
HETATM   33  C5  UNL     1      -1.092  52.831 -23.337  1.00  0.00     0.135 C 
BRANCH  33  34
HETATM   34  C4  UNL     1      -0.807  52.168 -24.687  1.00  0.00     0.050 C 
BRANCH  34  35
HETATM   35  C3  UNL     1       0.630  52.405 -25.169  1.00  0.00     0.273 C 
BRANCH  35  36
HETATM   36  N1  UNL     1       0.917  51.892 -26.516  1.00  0.00     0.080 N 
HETATM   37  C1  UNL     1       0.284  52.700 -27.561  1.00  0.00     0.309 C 
HETATM   38  C2  UNL     1       2.364  51.836 -26.743  1.00  0.00     0.309 C 
ENDBRANCH  35  36
ENDBRANCH  34  35
ENDBRANCH  33  34
ENDBRANCH   1  33
BRANCH   4  39
HETATM   39  C8  UNL     1      -0.111  51.472 -18.588  1.00  0.00     0.023 A 
HETATM   40  C9  UNL     1       1.065  52.234 -18.464  1.00  0.00     0.046 A 
HETATM   41 CL1  UNL     1       1.904  52.858 -19.846  1.00  0.00    -0.083 Cl
HETATM   42  C10 UNL     1       1.614  52.504 -17.206  1.00  0.00     0.025 A 
HETATM   43  C11 UNL     1       0.998  52.021 -16.055  1.00  0.00     0.003 A 
HETATM   44  C12 UNL     1      -0.168  51.266 -16.158  1.00  0.00     0.025 A 
HETATM   45  C13 UNL     1      -0.721  50.994 -17.414  1.00  0.00     0.046 A 
HETATM   46 CL2  UNL     1      -2.166  50.039 -17.456  1.00  0.00    -0.083 Cl
ENDBRANCH   4  39
TORSDOF 13
ENDMDL
