MODEL 1
REMARK minimizedAffinity -8.8319397
REMARK  8 active torsions:
REMARK  status: ('A' for Active; 'I' for Inactive)
REMARK    1  A    between atoms: C2_2  and  S1_3 
REMARK    2  A    between atoms: S1_3  and  C3_6 
REMARK    3  A    between atoms: C3_6  and  C4_7 
REMARK    4  A    between atoms: C11_14  and  C12_15 
REMARK    5  A    between atoms: C15_19  and  C16_20 
REMARK    6  A    between atoms: C16_20  and  C17_21 
REMARK    7  A    between atoms: C17_21  and  C18_22 
REMARK    8  A    between atoms: C18_22  and  N2_23 
ROOT
HETATM    1  C4  UNL     1       2.432   7.087  12.155  1.00  0.00    -0.043 A 
HETATM    2  C5  UNL     1       2.794   7.476  13.465  1.00  0.00     0.010 A 
HETATM    3  C6  UNL     1       1.954   7.229  14.551  1.00  0.00     0.031 A 
HETATM    4  C7  UNL     1       0.760   6.586  14.298  1.00  0.00     0.046 A 
HETATM    5  C8  UNL     1       0.378   6.178  13.020  1.00  0.00     0.007 A 
HETATM    6  C9  UNL     1       1.207   6.427  11.936  1.00  0.00     0.022 A 
HETATM    7  C10 UNL     1      -0.941   5.527  13.164  1.00  0.00     0.047 A 
HETATM    8  C11 UNL     1      -1.601   4.983  12.129  1.00  0.00     0.048 C 
HETATM    9  C25 UNL     1      -1.292   5.620  14.631  1.00  0.00     0.257 A 
HETATM   10  O3  UNL     1      -2.299   5.238  15.197  1.00  0.00    -0.267 OA
HETATM   11  N3  UNL     1      -0.217   6.256  15.229  1.00  0.00    -0.322 N 
HETATM   12  H33 UNL     1      -0.182   6.453  16.216  1.00  0.00     0.169 HD
ENDROOT
BRANCH   8  13
HETATM   13  C12 UNL     1      -2.863   4.324  12.097  1.00  0.00     0.040 A 
HETATM   14  N1  UNL     1      -2.995   3.004  11.725  1.00  0.00    -0.359 N 
HETATM   15  C13 UNL     1      -4.303   2.625  11.809  1.00  0.00     0.016 A 
HETATM   16  H12 UNL     1      -2.238   2.395  11.429  1.00  0.00     0.166 HD
HETATM   17  C14 UNL     1      -5.044   3.702  12.237  1.00  0.00    -0.027 A 
HETATM   18  C24 UNL     1      -4.815   1.261  11.511  1.00  0.00     0.057 C 
HETATM   19  C15 UNL     1      -4.143   4.792  12.407  1.00  0.00    -0.023 A 
HETATM   20  C21 UNL     1      -6.523   3.628  12.424  1.00  0.00     0.041 C 
HETATM   21  C22 UNL     1      -7.004   2.165  12.477  1.00  0.00     0.005 C 
HETATM   22  C23 UNL     1      -6.350   1.298  11.384  1.00  0.00     0.006 C 
BRANCH  19  23
HETATM   23  C16 UNL     1      -4.520   6.177  12.839  1.00  0.00     0.043 C 
BRANCH  23  24
HETATM   24  C17 UNL     1      -5.310   6.182  14.151  1.00  0.00     0.035 C 
BRANCH  24  25
HETATM   25  C18 UNL     1      -6.673   6.858  13.959  1.00  0.00     0.271 C 
BRANCH  25  26
HETATM   26  N2  UNL     1      -6.894   7.993  14.872  1.00  0.00     0.080 N 
HETATM   27  C19 UNL     1      -5.619   8.417  15.460  1.00  0.00     0.309 C 
HETATM   28  C20 UNL     1      -7.847   7.674  15.936  1.00  0.00     0.309 C 
ENDBRANCH  25  26
ENDBRANCH  24  25
ENDBRANCH  23  24
ENDBRANCH  19  23
ENDBRANCH   8  13
BRANCH   1  29
HETATM   29  C3  UNL     1       3.357   7.378  10.998  1.00  0.00     0.178 C 
BRANCH  29  30
HETATM   30  S1  UNL     1       2.867   6.403   9.577  1.00  0.00     0.148 S 
HETATM   31  O1  UNL     1       1.504   5.945   9.788  1.00  0.00    -0.228 OA
HETATM   32  O2  UNL     1       3.927   5.464   9.258  1.00  0.00    -0.228 OA
BRANCH  30  33
HETATM   33  C2  UNL     1       2.792   7.600   8.255  1.00  0.00     0.136 C 
HETATM   34  C1  UNL     1       2.012   7.124   7.046  1.00  0.00     0.021 C 
ENDBRANCH  30  33
ENDBRANCH  29  30
ENDBRANCH   1  29
TORSDOF 8
ENDMDL
MODEL 2
REMARK minimizedAffinity -8.7005434
REMARK  8 active torsions:
REMARK  status: ('A' for Active; 'I' for Inactive)
REMARK    1  A    between atoms: C2_2  and  S1_3 
REMARK    2  A    between atoms: S1_3  and  C3_6 
REMARK    3  A    between atoms: C3_6  and  C4_7 
REMARK    4  A    between atoms: C11_14  and  C12_15 
REMARK    5  A    between atoms: C15_19  and  C16_20 
REMARK    6  A    between atoms: C16_20  and  C17_21 
REMARK    7  A    between atoms: C17_21  and  C18_22 
REMARK    8  A    between atoms: C18_22  and  N2_23 
ROOT
HETATM    1  C4  UNL     1      -7.001   3.413  12.474  1.00  0.00    -0.043 A 
HETATM    2  C5  UNL     1      -7.101   2.057  12.085  1.00  0.00     0.010 A 
HETATM    3  C6  UNL     1      -5.974   1.332  11.693  1.00  0.00     0.031 A 
HETATM    4  C7  UNL     1      -4.760   1.986  11.707  1.00  0.00     0.046 A 
HETATM    5  C8  UNL     1      -4.625   3.319  12.098  1.00  0.00     0.007 A 
HETATM    6  C9  UNL     1      -5.743   4.046  12.482  1.00  0.00     0.022 A 
HETATM    7  C10 UNL     1      -3.188   3.645  11.987  1.00  0.00     0.047 A 
HETATM    8  C11 UNL     1      -2.687   4.847  12.315  1.00  0.00     0.048 C 
HETATM    9  C25 UNL     1      -2.516   2.392  11.475  1.00  0.00     0.257 A 
HETATM   10  O3  UNL     1      -1.342   2.213  11.211  1.00  0.00    -0.267 OA
HETATM   11  N3  UNL     1      -3.529   1.455  11.348  1.00  0.00    -0.322 N 
HETATM   12  H33 UNL     1      -3.363   0.517  11.021  1.00  0.00     0.169 HD
ENDROOT
BRANCH   8  13
HETATM   13  C12 UNL     1      -1.344   5.318  12.272  1.00  0.00     0.040 A 
HETATM   14  N1  UNL     1      -0.606   5.332  11.109  1.00  0.00    -0.359 N 
HETATM   15  C13 UNL     1       0.632   5.856  11.349  1.00  0.00     0.016 A 
HETATM   16  H12 UNL     1      -0.924   5.003  10.203  1.00  0.00     0.166 HD
HETATM   17  C14 UNL     1       0.715   6.188  12.681  1.00  0.00    -0.027 A 
HETATM   18  C24 UNL     1       1.688   6.052  10.321  1.00  0.00     0.057 C 
HETATM   19  C15 UNL     1      -0.528   5.836  13.282  1.00  0.00    -0.023 A 
HETATM   20  C21 UNL     1       1.948   6.778  13.280  1.00  0.00     0.041 C 
HETATM   21  C22 UNL     1       2.892   7.318  12.187  1.00  0.00     0.005 C 
HETATM   22  C23 UNL     1       3.036   6.337  11.008  1.00  0.00     0.006 C 
BRANCH  19  23
HETATM   23  C16 UNL     1      -0.874   5.999  14.731  1.00  0.00     0.043 C 
BRANCH  23  24
HETATM   24  C17 UNL     1      -2.370   6.239  14.949  1.00  0.00     0.035 C 
BRANCH  24  25
HETATM   25  C18 UNL     1      -2.675   7.741  15.003  1.00  0.00     0.271 C 
BRANCH  25  26
HETATM   26  N2  UNL     1      -3.796   8.139  14.134  1.00  0.00     0.080 N 
HETATM   27  C19 UNL     1      -3.288   8.557  12.824  1.00  0.00     0.309 C 
HETATM   28  C20 UNL     1      -4.599   9.214  14.719  1.00  0.00     0.309 C 
ENDBRANCH  25  26
ENDBRANCH  24  25
ENDBRANCH  23  24
ENDBRANCH  19  23
ENDBRANCH   8  13
BRANCH   1  29
HETATM   29  C3  UNL     1      -8.240   4.174  12.881  1.00  0.00     0.178 C 
BRANCH  29  30
HETATM   30  S1  UNL     1      -7.767   5.660  13.765  1.00  0.00     0.148 S 
HETATM   31  O1  UNL     1      -8.937   6.514  13.877  1.00  0.00    -0.228 OA
HETATM   32  O2  UNL     1      -6.526   6.167  13.209  1.00  0.00    -0.228 OA
BRANCH  30  33
HETATM   33  C2  UNL     1      -7.418   5.072  15.414  1.00  0.00     0.136 C 
HETATM   34  C1  UNL     1      -6.970   6.162  16.366  1.00  0.00     0.021 C 
ENDBRANCH  30  33
ENDBRANCH  29  30
ENDBRANCH   1  29
TORSDOF 8
ENDMDL
MODEL 3
REMARK minimizedAffinity -8.54640865
REMARK  8 active torsions:
REMARK  status: ('A' for Active; 'I' for Inactive)
REMARK    1  A    between atoms: C2_2  and  S1_3 
REMARK    2  A    between atoms: S1_3  and  C3_6 
REMARK    3  A    between atoms: C3_6  and  C4_7 
REMARK    4  A    between atoms: C11_14  and  C12_15 
REMARK    5  A    between atoms: C15_19  and  C16_20 
REMARK    6  A    between atoms: C16_20  and  C17_21 
REMARK    7  A    between atoms: C17_21  and  C18_22 
REMARK    8  A    between atoms: C18_22  and  N2_23 
ROOT
HETATM    1  C4  UNL     1      -6.258   3.844  12.724  1.00  0.00    -0.043 A 
HETATM    2  C5  UNL     1      -6.254   2.651  11.966  1.00  0.00     0.010 A 
HETATM    3  C6  UNL     1      -5.083   2.171  11.379  1.00  0.00     0.031 A 
HETATM    4  C7  UNL     1      -3.928   2.900  11.575  1.00  0.00     0.046 A 
HETATM    5  C8  UNL     1      -3.895   4.074  12.329  1.00  0.00     0.007 A 
HETATM    6  C9  UNL     1      -5.058   4.559  12.908  1.00  0.00     0.022 A 
HETATM    7  C10 UNL     1      -2.495   4.545  12.310  1.00  0.00     0.047 A 
HETATM    8  C11 UNL     1      -2.087   5.644  12.965  1.00  0.00     0.048 C 
HETATM    9  C25 UNL     1      -1.734   3.554  11.459  1.00  0.00     0.257 A 
HETATM   10  O3  UNL     1      -0.558   3.563  11.151  1.00  0.00    -0.267 OA
HETATM   11  N3  UNL     1      -2.667   2.605  11.075  1.00  0.00    -0.322 N 
HETATM   12  H33 UNL     1      -2.433   1.816  10.493  1.00  0.00     0.169 HD
ENDROOT
BRANCH   8  13
HETATM   13  C12 UNL     1      -0.791   6.226  13.052  1.00  0.00     0.040 A 
HETATM   14  N1  UNL     1      -0.117   6.348  14.246  1.00  0.00    -0.359 N 
HETATM   15  C13 UNL     1       1.107   6.915  14.035  1.00  0.00     0.016 A 
HETATM   16  H12 UNL     1      -0.469   6.063  15.155  1.00  0.00     0.166 HD
HETATM   17  C14 UNL     1       1.243   7.173  12.691  1.00  0.00    -0.027 A 
HETATM   18  C24 UNL     1       2.120   7.173  15.093  1.00  0.00     0.057 C 
HETATM   19  C15 UNL     1       0.037   6.756  12.057  1.00  0.00    -0.023 A 
HETATM   20  C21 UNL     1       2.468   7.807  12.121  1.00  0.00     0.041 C 
HETATM   21  C22 UNL     1       3.642   7.742  13.119  1.00  0.00     0.005 C 
HETATM   22  C23 UNL     1       3.210   8.115  14.550  1.00  0.00     0.006 C 
BRANCH  19  23
HETATM   23  C16 UNL     1      -0.266   6.874  10.594  1.00  0.00     0.043 C 
BRANCH  23  24
HETATM   24  C17 UNL     1       0.311   8.153   9.982  1.00  0.00     0.035 C 
BRANCH  24  25
HETATM   25  C18 UNL     1       0.315   8.066   8.451  1.00  0.00     0.271 C 
BRANCH  25  26
HETATM   26  N2  UNL     1       1.663   7.903   7.880  1.00  0.00     0.080 N 
HETATM   27  C19 UNL     1       1.571   7.323   6.537  1.00  0.00     0.309 C 
HETATM   28  C20 UNL     1       2.526   7.070   8.720  1.00  0.00     0.309 C 
ENDBRANCH  25  26
ENDBRANCH  24  25
ENDBRANCH  23  24
ENDBRANCH  19  23
ENDBRANCH   8  13
BRANCH   1  29
HETATM   29  C3  UNL     1      -7.545   4.345  13.337  1.00  0.00     0.178 C 
BRANCH  29  30
HETATM   30  S1  UNL     1      -7.316   6.022  13.925  1.00  0.00     0.148 S 
HETATM   31  O1  UNL     1      -8.618   6.665  13.982  1.00  0.00    -0.228 OA
HETATM   32  O2  UNL     1      -6.216   6.633  13.201  1.00  0.00    -0.228 OA
BRANCH  30  33
HETATM   33  C2  UNL     1      -6.792   5.804  15.617  1.00  0.00     0.136 C 
HETATM   34  C1  UNL     1      -7.421   6.789  16.581  1.00  0.00     0.021 C 
ENDBRANCH  30  33
ENDBRANCH  29  30
ENDBRANCH   1  29
TORSDOF 8
ENDMDL
MODEL 4
REMARK minimizedAffinity -8.47716999
REMARK  8 active torsions:
REMARK  status: ('A' for Active; 'I' for Inactive)
REMARK    1  A    between atoms: C2_2  and  S1_3 
REMARK    2  A    between atoms: S1_3  and  C3_6 
REMARK    3  A    between atoms: C3_6  and  C4_7 
REMARK    4  A    between atoms: C11_14  and  C12_15 
REMARK    5  A    between atoms: C15_19  and  C16_20 
REMARK    6  A    between atoms: C16_20  and  C17_21 
REMARK    7  A    between atoms: C17_21  and  C18_22 
REMARK    8  A    between atoms: C18_22  and  N2_23 
ROOT
HETATM    1  C4  UNL     1      -6.837   3.506  12.366  1.00  0.00    -0.043 A 
HETATM    2  C5  UNL     1      -6.948   2.137  12.028  1.00  0.00     0.010 A 
HETATM    3  C6  UNL     1      -5.825   1.384  11.682  1.00  0.00     0.031 A 
HETATM    4  C7  UNL     1      -4.603   2.025  11.688  1.00  0.00     0.046 A 
HETATM    5  C8  UNL     1      -4.458   3.370  12.029  1.00  0.00     0.007 A 
HETATM    6  C9  UNL     1      -5.571   4.124  12.368  1.00  0.00     0.022 A 
HETATM    7  C10 UNL     1      -3.016   3.675  11.927  1.00  0.00     0.047 A 
HETATM    8  C11 UNL     1      -2.504   4.882  12.215  1.00  0.00     0.048 C 
HETATM    9  C25 UNL     1      -2.351   2.395  11.474  1.00  0.00     0.257 A 
HETATM   10  O3  UNL     1      -1.176   2.192  11.234  1.00  0.00    -0.267 OA
HETATM   11  N3  UNL     1      -3.373   1.466  11.369  1.00  0.00    -0.322 N 
HETATM   12  H33 UNL     1      -3.215   0.513  11.080  1.00  0.00     0.169 HD
ENDROOT
BRANCH   8  13
HETATM   13  C12 UNL     1      -1.155   5.336  12.173  1.00  0.00     0.040 A 
HETATM   14  N1  UNL     1      -0.380   5.238  11.038  1.00  0.00    -0.359 N 
HETATM   15  C13 UNL     1       0.855   5.770  11.271  1.00  0.00     0.016 A 
HETATM   16  H12 UNL     1      -0.673   4.830  10.156  1.00  0.00     0.166 HD
HETATM   17  C14 UNL     1       0.900   6.222  12.569  1.00  0.00    -0.027 A 
HETATM   18  C24 UNL     1       1.946   5.862  10.264  1.00  0.00     0.057 C 
HETATM   19  C15 UNL     1      -0.366   5.937  13.158  1.00  0.00    -0.023 A 
HETATM   20  C21 UNL     1       2.120   6.853  13.152  1.00  0.00     0.041 C 
HETATM   21  C22 UNL     1       3.105   7.282  12.046  1.00  0.00     0.005 C 
HETATM   22  C23 UNL     1       3.275   6.197  10.966  1.00  0.00     0.006 C 
BRANCH  19  23
HETATM   23  C16 UNL     1      -0.756   6.234  14.574  1.00  0.00     0.043 C 
BRANCH  23  24
HETATM   24  C17 UNL     1      -2.233   6.615  14.704  1.00  0.00     0.035 C 
BRANCH  24  25
HETATM   25  C18 UNL     1      -2.380   8.012  15.318  1.00  0.00     0.271 C 
BRANCH  25  26
HETATM   26  N2  UNL     1      -3.132   8.948  14.463  1.00  0.00     0.080 N 
HETATM   27  C19 UNL     1      -4.306   9.449  15.182  1.00  0.00     0.309 C 
HETATM   28  C20 UNL     1      -3.550   8.335  13.201  1.00  0.00     0.309 C 
ENDBRANCH  25  26
ENDBRANCH  24  25
ENDBRANCH  23  24
ENDBRANCH  19  23
ENDBRANCH   8  13
BRANCH   1  29
HETATM   29  C3  UNL     1      -8.072   4.297  12.725  1.00  0.00     0.178 C 
BRANCH  29  30
HETATM   30  S1  UNL     1      -7.655   5.535  13.952  1.00  0.00     0.148 S 
HETATM   31  O1  UNL     1      -6.689   6.448  13.367  1.00  0.00    -0.228 OA
HETATM   32  O2  UNL     1      -7.386   4.876  15.217  1.00  0.00    -0.228 OA
BRANCH  30  33
HETATM   33  C2  UNL     1      -9.169   6.463  14.139  1.00  0.00     0.136 C 
HETATM   34  C1  UNL     1      -9.373   7.019  15.534  1.00  0.00     0.021 C 
ENDBRANCH  30  33
ENDBRANCH  29  30
ENDBRANCH   1  29
TORSDOF 8
ENDMDL
MODEL 5
REMARK minimizedAffinity -8.2464323
REMARK  8 active torsions:
REMARK  status: ('A' for Active; 'I' for Inactive)
REMARK    1  A    between atoms: C2_2  and  S1_3 
REMARK    2  A    between atoms: S1_3  and  C3_6 
REMARK    3  A    between atoms: C3_6  and  C4_7 
REMARK    4  A    between atoms: C11_14  and  C12_15 
REMARK    5  A    between atoms: C15_19  and  C16_20 
REMARK    6  A    between atoms: C16_20  and  C17_21 
REMARK    7  A    between atoms: C17_21  and  C18_22 
REMARK    8  A    between atoms: C18_22  and  N2_23 
ROOT
HETATM    1  C4  UNL     1       1.800   6.798  12.819  1.00  0.00    -0.043 A 
HETATM    2  C5  UNL     1       2.354   7.274  14.030  1.00  0.00     0.010 A 
HETATM    3  C6  UNL     1       1.551   7.519  15.145  1.00  0.00     0.031 A 
HETATM    4  C7  UNL     1       0.200   7.270  15.023  1.00  0.00     0.046 A 
HETATM    5  C8  UNL     1      -0.376   6.788  13.847  1.00  0.00     0.007 A 
HETATM    6  C9  UNL     1       0.416   6.550  12.734  1.00  0.00     0.022 A 
HETATM    7  C10 UNL     1      -1.822   6.645  14.116  1.00  0.00     0.047 A 
HETATM    8  C11 UNL     1      -2.689   6.173  13.206  1.00  0.00     0.048 C 
HETATM    9  C25 UNL     1      -2.028   7.112  15.539  1.00  0.00     0.257 A 
HETATM   10  O3  UNL     1      -3.065   7.191  16.170  1.00  0.00    -0.267 OA
HETATM   11  N3  UNL     1      -0.768   7.454  16.001  1.00  0.00    -0.322 N 
HETATM   12  H33 UNL     1      -0.607   7.803  16.933  1.00  0.00     0.169 HD
ENDROOT
BRANCH   8  13
HETATM   13  C12 UNL     1      -4.095   5.971  13.304  1.00  0.00     0.040 A 
HETATM   14  N1  UNL     1      -4.960   6.979  13.669  1.00  0.00    -0.359 N 
HETATM   15  C13 UNL     1      -6.245   6.517  13.656  1.00  0.00     0.016 A 
HETATM   16  H12 UNL     1      -4.693   7.927  13.916  1.00  0.00     0.166 HD
HETATM   17  C14 UNL     1      -6.230   5.195  13.282  1.00  0.00    -0.027 A 
HETATM   18  C24 UNL     1      -7.446   7.336  13.969  1.00  0.00     0.057 C 
HETATM   19  C15 UNL     1      -4.869   4.831  13.071  1.00  0.00    -0.023 A 
HETATM   20  C21 UNL     1      -7.478   4.382  13.178  1.00  0.00     0.041 C 
HETATM   21  C22 UNL     1      -8.727   5.285  13.137  1.00  0.00     0.005 C 
HETATM   22  C23 UNL     1      -8.662   6.414  14.183  1.00  0.00     0.006 C 
BRANCH  19  23
HETATM   23  C16 UNL     1      -4.381   3.470  12.675  1.00  0.00     0.043 C 
BRANCH  23  24
HETATM   24  C17 UNL     1      -3.317   3.530  11.577  1.00  0.00     0.035 C 
BRANCH  24  25
HETATM   25  C18 UNL     1      -2.700   2.146  11.344  1.00  0.00     0.271 C 
BRANCH  25  26
HETATM   26  N2  UNL     1      -1.320   2.202  10.831  1.00  0.00     0.080 N 
HETATM   27  C19 UNL     1      -0.782   0.845  10.692  1.00  0.00     0.309 C 
HETATM   28  C20 UNL     1      -0.439   2.996  11.690  1.00  0.00     0.309 C 
ENDBRANCH  25  26
ENDBRANCH  24  25
ENDBRANCH  23  24
ENDBRANCH  19  23
ENDBRANCH   8  13
BRANCH   1  29
HETATM   29  C3  UNL     1       2.693   6.555  11.626  1.00  0.00     0.178 C 
BRANCH  29  30
HETATM   30  S1  UNL     1       1.772   6.853  10.117  1.00  0.00     0.148 S 
HETATM   31  O1  UNL     1       1.366   8.248  10.100  1.00  0.00    -0.228 OA
HETATM   32  O2  UNL     1       0.798   5.791   9.938  1.00  0.00    -0.228 OA
BRANCH  30  33
HETATM   33  C2  UNL     1       3.002   6.677   8.836  1.00  0.00     0.136 C 
HETATM   34  C1  UNL     1       2.423   6.636   7.437  1.00  0.00     0.021 C 
ENDBRANCH  30  33
ENDBRANCH  29  30
ENDBRANCH   1  29
TORSDOF 8
ENDMDL
MODEL 6
REMARK minimizedAffinity -8.241292
REMARK  8 active torsions:
REMARK  status: ('A' for Active; 'I' for Inactive)
REMARK    1  A    between atoms: C2_2  and  S1_3 
REMARK    2  A    between atoms: S1_3  and  C3_6 
REMARK    3  A    between atoms: C3_6  and  C4_7 
REMARK    4  A    between atoms: C11_14  and  C12_15 
REMARK    5  A    between atoms: C15_19  and  C16_20 
REMARK    6  A    between atoms: C16_20  and  C17_21 
REMARK    7  A    between atoms: C17_21  and  C18_22 
REMARK    8  A    between atoms: C18_22  and  N2_23 
ROOT
HETATM    1  C4  UNL     1      -6.612   4.090  13.430  1.00  0.00    -0.043 A 
HETATM    2  C5  UNL     1      -6.983   2.942  12.693  1.00  0.00     0.010 A 
HETATM    3  C6  UNL     1      -6.100   2.340  11.796  1.00  0.00     0.031 A 
HETATM    4  C7  UNL     1      -4.848   2.905  11.661  1.00  0.00     0.046 A 
HETATM    5  C8  UNL     1      -4.445   4.030  12.383  1.00  0.00     0.007 A 
HETATM    6  C9  UNL     1      -5.322   4.635  13.270  1.00  0.00     0.022 A 
HETATM    7  C10 UNL     1      -3.055   4.316  11.971  1.00  0.00     0.047 A 
HETATM    8  C11 UNL     1      -2.335   5.322  12.490  1.00  0.00     0.048 C 
HETATM    9  C25 UNL     1      -2.706   3.273  10.933  1.00  0.00     0.257 A 
HETATM   10  O3  UNL     1      -1.673   3.144  10.304  1.00  0.00    -0.267 OA
HETATM   11  N3  UNL     1      -3.830   2.472  10.823  1.00  0.00    -0.322 N 
HETATM   12  H33 UNL     1      -3.878   1.686  10.193  1.00  0.00     0.169 HD
ENDROOT
BRANCH   8  13
HETATM   13  C12 UNL     1      -0.999   5.728  12.211  1.00  0.00     0.040 A 
HETATM   14  N1  UNL     1      -0.453   5.645  10.949  1.00  0.00    -0.359 N 
HETATM   15  C13 UNL     1       0.826   6.122  10.963  1.00  0.00     0.016 A 
HETATM   16  H12 UNL     1      -0.922   5.283  10.125  1.00  0.00     0.166 HD
HETATM   17  C14 UNL     1       1.130   6.522  12.243  1.00  0.00    -0.027 A 
HETATM   18  C24 UNL     1       1.714   6.213   9.773  1.00  0.00     0.057 C 
HETATM   19  C15 UNL     1      -0.016   6.261  13.049  1.00  0.00    -0.023 A 
HETATM   20  C21 UNL     1       2.464   7.086  12.606  1.00  0.00     0.041 C 
HETATM   21  C22 UNL     1       3.244   7.521  11.350  1.00  0.00     0.005 C 
HETATM   22  C23 UNL     1       3.163   6.473  10.224  1.00  0.00     0.006 C 
BRANCH  19  23
HETATM   23  C16 UNL     1      -0.122   6.518  14.522  1.00  0.00     0.043 C 
BRANCH  23  24
HETATM   24  C17 UNL     1      -1.327   7.395  14.874  1.00  0.00     0.035 C 
BRANCH  24  25
HETATM   25  C18 UNL     1      -1.066   8.178  16.166  1.00  0.00     0.271 C 
BRANCH  25  26
HETATM   26  N2  UNL     1      -0.546   9.536  15.929  1.00  0.00     0.080 N 
HETATM   27  C19 UNL     1       0.313   9.944  17.045  1.00  0.00     0.309 C 
HETATM   28  C20 UNL     1      -1.616  10.518  15.744  1.00  0.00     0.309 C 
ENDBRANCH  25  26
ENDBRANCH  24  25
ENDBRANCH  23  24
ENDBRANCH  19  23
ENDBRANCH   8  13
BRANCH   1  29
HETATM   29  C3  UNL     1      -7.594   4.725  14.384  1.00  0.00     0.178 C 
BRANCH  29  30
HETATM   30  S1  UNL     1      -8.105   6.320  13.747  1.00  0.00     0.148 S 
HETATM   31  O1  UNL     1      -8.657   6.123  12.417  1.00  0.00    -0.228 OA
HETATM   32  O2  UNL     1      -7.045   7.284  13.977  1.00  0.00    -0.228 OA
BRANCH  30  33
HETATM   33  C2  UNL     1      -9.478   6.768  14.796  1.00  0.00     0.136 C 
HETATM   34  C1  UNL     1      -9.060   7.331  16.138  1.00  0.00     0.021 C 
ENDBRANCH  30  33
ENDBRANCH  29  30
ENDBRANCH   1  29
TORSDOF 8
ENDMDL
MODEL 7
REMARK minimizedAffinity -8.18261909
REMARK  8 active torsions:
REMARK  status: ('A' for Active; 'I' for Inactive)
REMARK    1  A    between atoms: C2_2  and  S1_3 
REMARK    2  A    between atoms: S1_3  and  C3_6 
REMARK    3  A    between atoms: C3_6  and  C4_7 
REMARK    4  A    between atoms: C11_14  and  C12_15 
REMARK    5  A    between atoms: C15_19  and  C16_20 
REMARK    6  A    between atoms: C16_20  and  C17_21 
REMARK    7  A    between atoms: C17_21  and  C18_22 
REMARK    8  A    between atoms: C18_22  and  N2_23 
ROOT
HETATM    1  C4  UNL     1      -2.635   3.464  11.959  1.00  0.00    -0.043 A 
HETATM    2  C5  UNL     1      -2.924   2.151  11.521  1.00  0.00     0.010 A 
HETATM    3  C6  UNL     1      -4.226   1.648  11.551  1.00  0.00     0.031 A 
HETATM    4  C7  UNL     1      -5.220   2.484  12.016  1.00  0.00     0.046 A 
HETATM    5  C8  UNL     1      -4.971   3.790  12.442  1.00  0.00     0.007 A 
HETATM    6  C9  UNL     1      -3.678   4.291  12.421  1.00  0.00     0.022 A 
HETATM    7  C10 UNL     1      -6.274   4.353  12.850  1.00  0.00     0.047 A 
HETATM    8  C11 UNL     1      -6.417   5.613  13.290  1.00  0.00     0.048 C 
HETATM    9  C25 UNL     1      -7.287   3.250  12.644  1.00  0.00     0.257 A 
HETATM   10  O3  UNL     1      -8.481   3.263  12.874  1.00  0.00    -0.267 OA
HETATM   11  N3  UNL     1      -6.569   2.180  12.135  1.00  0.00    -0.322 N 
HETATM   12  H33 UNL     1      -6.998   1.299  11.902  1.00  0.00     0.169 HD
ENDROOT
BRANCH   8  13
HETATM   13  C12 UNL     1      -7.587   6.305  13.714  1.00  0.00     0.040 A 
HETATM   14  N1  UNL     1      -8.788   6.198  13.049  1.00  0.00    -0.359 N 
HETATM   15  C13 UNL     1      -9.740   6.943  13.683  1.00  0.00     0.016 A 
HETATM   16  H12 UNL     1      -8.951   5.651  12.209  1.00  0.00     0.166 HD
HETATM   17  C14 UNL     1      -9.165   7.549  14.775  1.00  0.00    -0.027 A 
HETATM   18  C24 UNL     1     -11.163   7.042  13.263  1.00  0.00     0.057 C 
HETATM   19  C15 UNL     1      -7.793   7.165  14.797  1.00  0.00    -0.023 A 
HETATM   20  C21 UNL     1      -9.934   8.449  15.684  1.00  0.00     0.041 C 
HETATM   21  C22 UNL     1     -11.453   8.272  15.485  1.00  0.00     0.005 C 
HETATM   22  C23 UNL     1     -11.841   8.215  13.996  1.00  0.00     0.006 C 
BRANCH  19  23
HETATM   23  C16 UNL     1      -6.777   7.615  15.803  1.00  0.00     0.043 C 
BRANCH  23  24
HETATM   24  C17 UNL     1      -5.810   8.654  15.230  1.00  0.00     0.035 C 
BRANCH  24  25
HETATM   25  C18 UNL     1      -4.396   8.072  15.115  1.00  0.00     0.271 C 
BRANCH  25  26
HETATM   26  N2  UNL     1      -3.349   8.983  15.610  1.00  0.00     0.080 N 
HETATM   27  C19 UNL     1      -2.318   8.220  16.320  1.00  0.00     0.309 C 
HETATM   28  C20 UNL     1      -3.887  10.023  16.489  1.00  0.00     0.309 C 
ENDBRANCH  25  26
ENDBRANCH  24  25
ENDBRANCH  23  24
ENDBRANCH  19  23
ENDBRANCH   8  13
BRANCH   1  29
HETATM   29  C3  UNL     1      -1.215   3.975  11.925  1.00  0.00     0.178 C 
BRANCH  29  30
HETATM   30  S1  UNL     1      -1.076   5.429  12.964  1.00  0.00     0.148 S 
HETATM   31  O1  UNL     1      -1.421   5.051  14.323  1.00  0.00    -0.228 OA
HETATM   32  O2  UNL     1      -1.738   6.543  12.310  1.00  0.00    -0.228 OA
BRANCH  30  33
HETATM   33  C2  UNL     1       0.676   5.771  12.970  1.00  0.00     0.136 C 
HETATM   34  C1  UNL     1       1.370   5.418  11.670  1.00  0.00     0.021 C 
ENDBRANCH  30  33
ENDBRANCH  29  30
ENDBRANCH   1  29
TORSDOF 8
ENDMDL
MODEL 8
REMARK minimizedAffinity -8.11088943
REMARK  8 active torsions:
REMARK  status: ('A' for Active; 'I' for Inactive)
REMARK    1  A    between atoms: C2_2  and  S1_3 
REMARK    2  A    between atoms: S1_3  and  C3_6 
REMARK    3  A    between atoms: C3_6  and  C4_7 
REMARK    4  A    between atoms: C11_14  and  C12_15 
REMARK    5  A    between atoms: C15_19  and  C16_20 
REMARK    6  A    between atoms: C16_20  and  C17_21 
REMARK    7  A    between atoms: C17_21  and  C18_22 
REMARK    8  A    between atoms: C18_22  and  N2_23 
ROOT
HETATM    1  C4  UNL     1       1.732   8.444  13.695  1.00  0.00    -0.043 A 
HETATM    2  C5  UNL     1       2.849   8.017  12.940  1.00  0.00     0.010 A 
HETATM    3  C6  UNL     1       2.772   6.904  12.102  1.00  0.00     0.031 A 
HETATM    4  C7  UNL     1       1.564   6.242  12.033  1.00  0.00     0.046 A 
HETATM    5  C8  UNL     1       0.440   6.645  12.755  1.00  0.00     0.007 A 
HETATM    6  C9  UNL     1       0.513   7.746  13.594  1.00  0.00     0.022 A 
HETATM    7  C10 UNL     1      -0.642   5.700  12.408  1.00  0.00     0.047 A 
HETATM    8  C11 UNL     1      -1.886   5.804  12.901  1.00  0.00     0.048 C 
HETATM    9  C25 UNL     1      -0.033   4.706  11.445  1.00  0.00     0.257 A 
HETATM   10  O3  UNL     1      -0.553   3.738  10.923  1.00  0.00    -0.267 OA
HETATM   11  N3  UNL     1       1.279   5.115  11.274  1.00  0.00    -0.322 N 
HETATM   12  H33 UNL     1       1.927   4.627  10.675  1.00  0.00     0.169 HD
ENDROOT
BRANCH   8  13
HETATM   13  C12 UNL     1      -3.031   4.991  12.670  1.00  0.00     0.040 A 
HETATM   14  N1  UNL     1      -2.936   3.705  12.186  1.00  0.00    -0.359 N 
HETATM   15  C13 UNL     1      -4.179   3.151  12.085  1.00  0.00     0.016 A 
HETATM   16  H12 UNL     1      -2.074   3.230  11.936  1.00  0.00     0.166 HD
HETATM   17  C14 UNL     1      -5.106   4.078  12.503  1.00  0.00    -0.027 A 
HETATM   18  C24 UNL     1      -4.459   1.765  11.626  1.00  0.00     0.057 C 
HETATM   19  C15 UNL     1      -4.390   5.257  12.861  1.00  0.00    -0.023 A 
HETATM   20  C21 UNL     1      -6.571   3.794  12.507  1.00  0.00     0.041 C 
HETATM   21  C22 UNL     1      -6.844   2.281  12.392  1.00  0.00     0.005 C 
HETATM   22  C23 UNL     1      -5.962   1.611  11.322  1.00  0.00     0.006 C 
BRANCH  19  23
HETATM   23  C16 UNL     1      -5.004   6.535  13.349  1.00  0.00     0.043 C 
BRANCH  23  24
HETATM   24  C17 UNL     1      -6.445   6.343  13.825  1.00  0.00     0.035 C 
BRANCH  24  25
HETATM   25  C18 UNL     1      -6.849   7.462  14.794  1.00  0.00     0.271 C 
BRANCH  25  26
HETATM   26  N2  UNL     1      -7.485   6.965  16.026  1.00  0.00     0.080 N 
HETATM   27  C19 UNL     1      -7.736   5.525  15.913  1.00  0.00     0.309 C 
HETATM   28  C20 UNL     1      -8.736   7.663  16.327  1.00  0.00     0.309 C 
ENDBRANCH  25  26
ENDBRANCH  24  25
ENDBRANCH  23  24
ENDBRANCH  19  23
ENDBRANCH   8  13
BRANCH   1  29
HETATM   29  C3  UNL     1       1.850   9.645  14.602  1.00  0.00     0.178 C 
BRANCH  29  30
HETATM   30  S1  UNL     1       2.605   9.155  16.153  1.00  0.00     0.148 S 
HETATM   31  O1  UNL     1       4.015   8.904  15.912  1.00  0.00    -0.228 OA
HETATM   32  O2  UNL     1       1.769   8.155  16.791  1.00  0.00    -0.228 OA
BRANCH  30  33
HETATM   33  C2  UNL     1       2.523  10.638  17.144  1.00  0.00     0.136 C 
HETATM   34  C1  UNL     1       1.844  10.438  18.483  1.00  0.00     0.021 C 
ENDBRANCH  30  33
ENDBRANCH  29  30
ENDBRANCH   1  29
TORSDOF 8
ENDMDL
MODEL 9
REMARK minimizedAffinity -8.10211086
REMARK  8 active torsions:
REMARK  status: ('A' for Active; 'I' for Inactive)
REMARK    1  A    between atoms: C2_2  and  S1_3 
REMARK    2  A    between atoms: S1_3  and  C3_6 
REMARK    3  A    between atoms: C3_6  and  C4_7 
REMARK    4  A    between atoms: C11_14  and  C12_15 
REMARK    5  A    between atoms: C15_19  and  C16_20 
REMARK    6  A    between atoms: C16_20  and  C17_21 
REMARK    7  A    between atoms: C17_21  and  C18_22 
REMARK    8  A    between atoms: C18_22  and  N2_23 
ROOT
HETATM    1  C4  UNL     1      -0.468   4.476  12.242  1.00  0.00    -0.043 A 
HETATM    2  C5  UNL     1      -0.499   3.202  11.629  1.00  0.00     0.010 A 
HETATM    3  C6  UNL     1      -1.702   2.521  11.438  1.00  0.00     0.031 A 
HETATM    4  C7  UNL     1      -2.859   3.141  11.864  1.00  0.00     0.046 A 
HETATM    5  C8  UNL     1      -2.864   4.402  12.460  1.00  0.00     0.007 A 
HETATM    6  C9  UNL     1      -1.670   5.081  12.658  1.00  0.00     0.022 A 
HETATM    7  C10 UNL     1      -4.276   4.718  12.760  1.00  0.00     0.047 A 
HETATM    8  C11 UNL     1      -4.660   5.879  13.316  1.00  0.00     0.048 C 
HETATM    9  C25 UNL     1      -5.075   3.519  12.307  1.00  0.00     0.257 A 
HETATM   10  O3  UNL     1      -6.275   3.332  12.385  1.00  0.00    -0.267 OA
HETATM   11  N3  UNL     1      -4.149   2.636  11.778  1.00  0.00    -0.322 N 
HETATM   12  H33 UNL     1      -4.408   1.740  11.397  1.00  0.00     0.169 HD
ENDROOT
BRANCH   8  13
HETATM   13  C12 UNL     1      -5.962   6.337  13.663  1.00  0.00     0.040 A 
HETATM   14  N1  UNL     1      -7.098   5.874  13.036  1.00  0.00    -0.359 N 
HETATM   15  C13 UNL     1      -8.203   6.461  13.582  1.00  0.00     0.016 A 
HETATM   16  H12 UNL     1      -7.121   5.199  12.279  1.00  0.00     0.166 HD
HETATM   17  C14 UNL     1      -7.797   7.320  14.576  1.00  0.00    -0.027 A 
HETATM   18  C24 UNL     1      -9.605   6.179  13.174  1.00  0.00     0.057 C 
HETATM   19  C15 UNL     1      -6.374   7.263  14.626  1.00  0.00    -0.023 A 
HETATM   20  C21 UNL     1      -8.764   8.134  15.370  1.00  0.00     0.041 C 
HETATM   21  C22 UNL     1     -10.199   7.594  15.219  1.00  0.00     0.005 C 
HETATM   22  C23 UNL     1     -10.542   7.254  13.756  1.00  0.00     0.006 C 
BRANCH  19  23
HETATM   23  C16 UNL     1      -5.502   8.060  15.549  1.00  0.00     0.043 C 
BRANCH  23  24
HETATM   24  C17 UNL     1      -4.677   9.113  14.805  1.00  0.00     0.035 C 
BRANCH  24  25
HETATM   25  C18 UNL     1      -3.204   9.045  15.229  1.00  0.00     0.271 C 
BRANCH  25  26
HETATM   26  N2  UNL     1      -2.267   9.108  14.094  1.00  0.00     0.080 N 
HETATM   27  C19 UNL     1      -1.635  10.429  14.041  1.00  0.00     0.309 C 
HETATM   28  C20 UNL     1      -2.922   8.822  12.816  1.00  0.00     0.309 C 
ENDBRANCH  25  26
ENDBRANCH  24  25
ENDBRANCH  23  24
ENDBRANCH  19  23
ENDBRANCH   8  13
BRANCH   1  29
HETATM   29  C3  UNL     1       0.850   5.183  12.445  1.00  0.00     0.178 C 
BRANCH  29  30
HETATM   30  S1  UNL     1       1.494   5.718  10.860  1.00  0.00     0.148 S 
HETATM   31  O1  UNL     1       0.456   6.471  10.178  1.00  0.00    -0.228 OA
HETATM   32  O2  UNL     1       2.149   4.597  10.212  1.00  0.00    -0.228 OA
BRANCH  30  33
HETATM   33  C2  UNL     1       2.758   6.899  11.301  1.00  0.00     0.136 C 
HETATM   34  C1  UNL     1       3.828   7.069  10.241  1.00  0.00     0.021 C 
ENDBRANCH  30  33
ENDBRANCH  29  30
ENDBRANCH   1  29
TORSDOF 8
ENDMDL
