MODEL 1
REMARK minimizedAffinity -9.41772747
REMARK CNNscore 0.514182866
REMARK CNNaffinity 7.36409616
REMARK  14 active torsions:
REMARK  status: ('A' for Active; 'I' for Inactive)
REMARK    1  A    between atoms: O1_2  and  C2_3 
REMARK    2  A    between atoms: C6_7  and  C7_8 
REMARK    3  A    between atoms: N1_10  and  C9_11 
REMARK    4  A    between atoms: C13_15  and  C14_16 
REMARK       I    between atoms: C14_16  and  N2_18 
REMARK    5  A    between atoms: N2_18  and  C15_19 
REMARK    6  A    between atoms: C15_19  and  C16_20 
REMARK    7  A    between atoms: C16_20  and  C17_21 
REMARK    8  A    between atoms: C17_21  and  P1_22 
REMARK    9  A    between atoms: P1_22  and  O4_24 
REMARK   10  A    between atoms: P1_22  and  C18_25 
REMARK   11  A    between atoms: C18_25  and  P2_26 
REMARK   12  A    between atoms: P2_26  and  O6_28 
REMARK   13  A    between atoms: P2_26  and  O7_29 
REMARK   14  A    between atoms: C22_37  and  N5_38 
ROOT
HETATM    1  C9  UNL     1      -1.131  50.936 -24.456  1.00  0.00     0.041 A 
HETATM    2  C10 UNL     1      -0.507  51.228 -25.681  1.00  0.00     0.030 A 
HETATM    3  C11 UNL     1      -1.012  50.728 -26.887  1.00  0.00     0.003 A 
HETATM    4  C12 UNL     1      -2.156  49.934 -26.892  1.00  0.00     0.017 A 
HETATM    5  C13 UNL     1      -2.803  49.645 -25.688  1.00  0.00     0.034 A 
HETATM    6  C19 UNL     1      -2.280  50.131 -24.475  1.00  0.00     0.047 A 
ENDROOT
BRANCH   1   7
HETATM    7  N1  UNL     1      -0.593  51.451 -23.225  1.00  0.00    -0.307 N 
HETATM    8  C8  UNL     1      -0.737  50.842 -21.984  1.00  0.00     0.112 A 
HETATM    9  C7  UNL     1      -0.115  51.608 -21.020  1.00  0.00     0.007 A 
HETATM   10  C23 UNL     1       0.451  52.736 -21.669  1.00  0.00     0.059 A 
HETATM   11  C20 UNL     1       0.159  52.615 -23.026  1.00  0.00     0.127 A 
HETATM   12  C22 UNL     1       1.195  53.861 -21.271  1.00  0.00     0.093 A 
HETATM   13  N3  UNL     1       0.564  53.484 -23.974  1.00  0.00    -0.337 N 
HETATM   14  C21 UNL     1       1.269  54.512 -23.481  1.00  0.00     0.183 A 
ATOM     15  H3  UNL     1       0.356  53.371 -24.966  1.00  0.00     0.168 HD
HETATM   16  N4  UNL     1       1.606  54.741 -22.203  1.00  0.00    -0.343 N 
ATOM     17  H4  UNL     1       2.158  55.559 -21.945  1.00  0.00     0.167 HD
BRANCH   9  18
HETATM   18  C6  UNL     1      -0.106  51.229 -19.623  1.00  0.00    -0.021 A 
HETATM   19  C5  UNL     1      -0.619  49.989 -19.228  1.00  0.00     0.012 A 
HETATM   20  C4  UNL     1      -0.595  49.624 -17.882  1.00  0.00     0.004 A 
HETATM   21  C3  UNL     1      -0.070  50.498 -16.926  1.00  0.00     0.037 A 
HETATM   22  C2  UNL     1       0.436  51.741 -17.313  1.00  0.00     0.069 A 
HETATM   23  C24 UNL     1       0.430  52.096 -18.666  1.00  0.00     0.049 A 
BRANCH  22  24
HETATM   24  O1  UNL     1       0.979  52.676 -16.474  1.00  0.00    -0.356 OA
HETATM   25  C1  UNL     1       1.692  52.184 -15.348  1.00  0.00     0.210 C 
ENDBRANCH  22  24
ENDBRANCH   9  18
BRANCH  12  26
HETATM   26  N5  UNL     1       1.559  54.124 -19.958  1.00  0.00    -0.288 NA
HETATM   27  H25 UNL     1       2.302  54.812 -19.920  1.00  0.00     0.125 HD
HETATM   28  H26 UNL     1       1.673  53.308 -19.374  1.00  0.00     0.125 HD
ENDBRANCH  12  26
ENDBRANCH   1   7
BRANCH   5  29
HETATM   29  C14 UNL     1      -4.043  48.819 -25.645  1.00  0.00     0.251 C 
HETATM   30  O2  UNL     1      -4.551  48.516 -24.571  1.00  0.00    -0.268 OA
HETATM   31  N2  UNL     1      -4.590  48.476 -26.869  1.00  0.00    -0.357 N 
HETATM   32  H11 UNL     1      -4.288  49.013 -27.673  1.00  0.00     0.162 HD
BRANCH  31  33
HETATM   33  C15 UNL     1      -5.919  47.906 -26.929  1.00  0.00     0.123 C 
BRANCH  33  34
HETATM   34  C16 UNL     1      -6.173  47.227 -28.269  1.00  0.00     0.029 C 
BRANCH  34  35
HETATM   35  C17 UNL     1      -7.184  46.097 -28.124  1.00  0.00     0.096 C 
BRANCH  35  36
HETATM   36  P1  UNL     1      -8.526  46.102 -29.308  1.00  0.00     0.109 P 
HETATM   37  O3  UNL     1      -8.769  44.762 -29.921  1.00  0.00    -0.673 OA
BRANCH  36  38
HETATM   38  O4  UNL     1      -9.804  46.572 -28.446  1.00  0.00    -0.349 OA
HETATM   39  H18 UNL     1     -10.662  46.309 -28.863  1.00  0.00     0.217 HD
ENDBRANCH  36  38
BRANCH  36  40
HETATM   40  C18 UNL     1      -8.244  47.437 -30.459  1.00  0.00     0.218 C 
BRANCH  40  41
HETATM   41  P2  UNL     1      -9.032  49.005 -30.189  1.00  0.00     0.244 P 
HETATM   42  O5  UNL     1      -8.695  50.091 -31.152  1.00  0.00    -0.653 OA
BRANCH  41  43
HETATM   43  O6  UNL     1      -8.758  49.396 -28.661  1.00  0.00    -0.329 OA
HETATM   44  H21 UNL     1      -9.079  50.291 -28.451  1.00  0.00     0.220 HD
ENDBRANCH  41  43
BRANCH  41  45
HETATM   45  O7  UNL     1     -10.604  48.683 -30.097  1.00  0.00    -0.329 OA
HETATM   46  H22 UNL     1     -10.844  47.814 -29.729  1.00  0.00     0.220 HD
ENDBRANCH  41  45
ENDBRANCH  40  41
ENDBRANCH  36  40
ENDBRANCH  35  36
ENDBRANCH  34  35
ENDBRANCH  33  34
ENDBRANCH  31  33
ENDBRANCH   5  29
TORSDOF 14
ENDMDL
MODEL 2
REMARK minimizedAffinity -8.76782894
REMARK CNNscore 0.44548896
REMARK CNNaffinity 6.96773005
REMARK  14 active torsions:
REMARK  status: ('A' for Active; 'I' for Inactive)
REMARK    1  A    between atoms: O1_2  and  C2_3 
REMARK    2  A    between atoms: C6_7  and  C7_8 
REMARK    3  A    between atoms: N1_10  and  C9_11 
REMARK    4  A    between atoms: C13_15  and  C14_16 
REMARK       I    between atoms: C14_16  and  N2_18 
REMARK    5  A    between atoms: N2_18  and  C15_19 
REMARK    6  A    between atoms: C15_19  and  C16_20 
REMARK    7  A    between atoms: C16_20  and  C17_21 
REMARK    8  A    between atoms: C17_21  and  P1_22 
REMARK    9  A    between atoms: P1_22  and  O4_24 
REMARK   10  A    between atoms: P1_22  and  C18_25 
REMARK   11  A    between atoms: C18_25  and  P2_26 
REMARK   12  A    between atoms: P2_26  and  O6_28 
REMARK   13  A    between atoms: P2_26  and  O7_29 
REMARK   14  A    between atoms: C22_37  and  N5_38 
ROOT
HETATM    1  C9  UNL     1      -1.474  50.281 -20.755  1.00  0.00     0.041 A 
HETATM    2  C10 UNL     1      -0.972  50.137 -19.450  1.00  0.00     0.030 A 
HETATM    3  C11 UNL     1      -1.589  49.283 -18.529  1.00  0.00     0.003 A 
HETATM    4  C12 UNL     1      -2.715  48.550 -18.898  1.00  0.00     0.017 A 
HETATM    5  C13 UNL     1      -3.222  48.665 -20.195  1.00  0.00     0.034 A 
HETATM    6  C19 UNL     1      -2.612  49.542 -21.111  1.00  0.00     0.047 A 
ENDROOT
BRANCH   1   7
HETATM    7  N1  UNL     1      -0.833  51.171 -21.686  1.00  0.00    -0.307 N 
HETATM    8  C8  UNL     1      -0.865  51.027 -23.069  1.00  0.00     0.112 A 
HETATM    9  C7  UNL     1      -0.137  52.039 -23.656  1.00  0.00     0.007 A 
HETATM   10  C23 UNL     1       0.369  52.861 -22.615  1.00  0.00     0.059 A 
HETATM   11  C20 UNL     1      -0.081  52.320 -21.412  1.00  0.00     0.127 A 
HETATM   12  C22 UNL     1       1.159  54.022 -22.539  1.00  0.00     0.093 A 
HETATM   13  N3  UNL     1       0.167  52.849 -20.197  1.00  0.00    -0.337 N 
HETATM   14  C21 UNL     1       0.924  53.954 -20.248  1.00  0.00     0.183 A 
ATOM     15  H3  UNL     1      -0.185  52.449 -19.328  1.00  0.00     0.168 HD
HETATM   16  N4  UNL     1       1.421  54.563 -21.334  1.00  0.00    -0.343 N 
ATOM     17  H4  UNL     1       1.980  55.411 -21.250  1.00  0.00     0.167 HD
BRANCH   9  18
HETATM   18  C6  UNL     1       0.018  52.146 -25.091  1.00  0.00    -0.021 A 
HETATM   19  C5  UNL     1       0.249  50.999 -25.859  1.00  0.00     0.012 A 
HETATM   20  C4  UNL     1       0.384  51.106 -27.244  1.00  0.00     0.004 A 
HETATM   21  C3  UNL     1       0.300  52.356 -27.864  1.00  0.00     0.037 A 
HETATM   22  C2  UNL     1       0.078  53.506 -27.100  1.00  0.00     0.069 A 
HETATM   23  C24 UNL     1      -0.078  53.393 -25.715  1.00  0.00     0.049 A 
BRANCH  22  24
HETATM   24  O1  UNL     1      -0.029  54.779 -27.591  1.00  0.00    -0.356 OA
HETATM   25  C1  UNL     1      -0.011  55.833 -26.639  1.00  0.00     0.210 C 
ENDBRANCH  22  24
ENDBRANCH   9  18
BRANCH  12  26
HETATM   26  N5  UNL     1       1.686  54.674 -23.645  1.00  0.00    -0.288 NA
HETATM   27  H25 UNL     1       1.983  55.612 -23.404  1.00  0.00     0.125 HD
HETATM   28  H26 UNL     1       1.149  54.578 -24.495  1.00  0.00     0.125 HD
ENDBRANCH  12  26
ENDBRANCH   1   7
BRANCH   5  29
HETATM   29  C14 UNL     1      -4.410  47.885 -20.642  1.00  0.00     0.251 C 
HETATM   30  O2  UNL     1      -4.606  46.752 -20.214  1.00  0.00    -0.268 OA
HETATM   31  N2  UNL     1      -5.276  48.532 -21.506  1.00  0.00    -0.357 N 
HETATM   32  H11 UNL     1      -5.202  49.541 -21.558  1.00  0.00     0.162 HD
BRANCH  31  33
HETATM   33  C15 UNL     1      -6.577  47.960 -21.784  1.00  0.00     0.123 C 
BRANCH  33  34
HETATM   34  C16 UNL     1      -6.551  47.110 -23.047  1.00  0.00     0.029 C 
BRANCH  34  35
HETATM   35  C17 UNL     1      -7.032  47.907 -24.251  1.00  0.00     0.096 C 
BRANCH  35  36
HETATM   36  P1  UNL     1      -7.943  46.980 -25.481  1.00  0.00     0.109 P 
HETATM   37  O3  UNL     1      -7.331  47.056 -26.842  1.00  0.00    -0.673 OA
BRANCH  36  38
HETATM   38  O4  UNL     1      -7.912  45.465 -24.929  1.00  0.00    -0.349 OA
HETATM   39  H18 UNL     1      -8.076  44.798 -25.640  1.00  0.00     0.217 HD
ENDBRANCH  36  38
BRANCH  36  40
HETATM   40  C18 UNL     1      -9.659  47.461 -25.380  1.00  0.00     0.218 C 
BRANCH  40  41
HETATM   41  P2  UNL     1     -10.293  48.679 -26.507  1.00  0.00     0.244 P 
HETATM   42  O5  UNL     1     -11.776  48.755 -26.635  1.00  0.00    -0.653 OA
BRANCH  41  43
HETATM   43  O6  UNL     1      -9.541  48.446 -27.900  1.00  0.00    -0.329 OA
HETATM   44  H21 UNL     1      -9.897  49.015 -28.605  1.00  0.00     0.220 HD
ENDBRANCH  41  43
BRANCH  41  45
HETATM   45  O7  UNL     1      -9.606  50.064 -26.068  1.00  0.00    -0.329 OA
HETATM   46  H22 UNL     1      -8.712  49.999 -25.687  1.00  0.00     0.220 HD
ENDBRANCH  41  45
ENDBRANCH  40  41
ENDBRANCH  36  40
ENDBRANCH  35  36
ENDBRANCH  34  35
ENDBRANCH  33  34
ENDBRANCH  31  33
ENDBRANCH   5  29
TORSDOF 14
ENDMDL
MODEL 3
REMARK minimizedAffinity -9.92056656
REMARK CNNscore 0.441650659
REMARK CNNaffinity 7.3530755
REMARK  14 active torsions:
REMARK  status: ('A' for Active; 'I' for Inactive)
REMARK    1  A    between atoms: O1_2  and  C2_3 
REMARK    2  A    between atoms: C6_7  and  C7_8 
REMARK    3  A    between atoms: N1_10  and  C9_11 
REMARK    4  A    between atoms: C13_15  and  C14_16 
REMARK       I    between atoms: C14_16  and  N2_18 
REMARK    5  A    between atoms: N2_18  and  C15_19 
REMARK    6  A    between atoms: C15_19  and  C16_20 
REMARK    7  A    between atoms: C16_20  and  C17_21 
REMARK    8  A    between atoms: C17_21  and  P1_22 
REMARK    9  A    between atoms: P1_22  and  O4_24 
REMARK   10  A    between atoms: P1_22  and  C18_25 
REMARK   11  A    between atoms: C18_25  and  P2_26 
REMARK   12  A    between atoms: P2_26  and  O6_28 
REMARK   13  A    between atoms: P2_26  and  O7_29 
REMARK   14  A    between atoms: C22_37  and  N5_38 
ROOT
HETATM    1  C9  UNL     1      -1.219  50.871 -24.322  1.00  0.00     0.041 A 
HETATM    2  C10 UNL     1      -0.622  51.113 -25.572  1.00  0.00     0.030 A 
HETATM    3  C11 UNL     1      -1.167  50.584 -26.747  1.00  0.00     0.003 A 
HETATM    4  C12 UNL     1      -2.324  49.810 -26.697  1.00  0.00     0.017 A 
HETATM    5  C13 UNL     1      -2.944  49.572 -25.468  1.00  0.00     0.034 A 
HETATM    6  C19 UNL     1      -2.381  50.086 -24.286  1.00  0.00     0.047 A 
ENDROOT
BRANCH   1   7
HETATM    7  N1  UNL     1      -0.640  51.415 -23.123  1.00  0.00    -0.307 N 
HETATM    8  C8  UNL     1      -0.749  50.841 -21.861  1.00  0.00     0.112 A 
HETATM    9  C7  UNL     1      -0.093  51.628 -20.938  1.00  0.00     0.007 A 
HETATM   10  C23 UNL     1       0.459  52.735 -21.635  1.00  0.00     0.059 A 
HETATM   11  C20 UNL     1       0.125  52.579 -22.978  1.00  0.00     0.127 A 
HETATM   12  C22 UNL     1       1.222  53.865 -21.290  1.00  0.00     0.093 A 
HETATM   13  N3  UNL     1       0.506  53.419 -23.961  1.00  0.00    -0.337 N 
HETATM   14  C21 UNL     1       1.231  54.455 -23.518  1.00  0.00     0.183 A 
ATOM     15  H3  UNL     1       0.266  53.281 -24.943  1.00  0.00     0.168 HD
HETATM   16  N4  UNL     1       1.609  54.717 -22.258  1.00  0.00    -0.343 N 
ATOM     17  H4  UNL     1       2.173  55.538 -22.039  1.00  0.00     0.167 HD
BRANCH   9  18
HETATM   18  C6  UNL     1      -0.043  51.287 -19.533  1.00  0.00    -0.021 A 
HETATM   19  C5  UNL     1      -0.568  50.069 -19.086  1.00  0.00     0.012 A 
HETATM   20  C4  UNL     1      -0.505  49.740 -17.732  1.00  0.00     0.004 A 
HETATM   21  C3  UNL     1       0.072  50.628 -16.819  1.00  0.00     0.037 A 
HETATM   22  C2  UNL     1       0.589  51.849 -17.257  1.00  0.00     0.069 A 
HETATM   23  C24 UNL     1       0.544  52.167 -18.619  1.00  0.00     0.049 A 
BRANCH  22  24
HETATM   24  O1  UNL     1       1.181  52.794 -16.464  1.00  0.00    -0.356 OA
HETATM   25  C1  UNL     1       2.602  52.792 -16.421  1.00  0.00     0.210 C 
ENDBRANCH  22  24
ENDBRANCH   9  18
BRANCH  12  26
HETATM   26  N5  UNL     1       1.628  54.161 -19.997  1.00  0.00    -0.288 NA
HETATM   27  H25 UNL     1       2.376  54.844 -20.000  1.00  0.00     0.125 HD
HETATM   28  H26 UNL     1       1.755  53.360 -19.394  1.00  0.00     0.125 HD
ENDBRANCH  12  26
ENDBRANCH   1   7
BRANCH   5  29
HETATM   29  C14 UNL     1      -4.196  48.769 -25.367  1.00  0.00     0.251 C 
HETATM   30  O2  UNL     1      -4.729  48.583 -24.278  1.00  0.00    -0.268 OA
HETATM   31  N2  UNL     1      -4.725  48.310 -26.561  1.00  0.00    -0.357 N 
HETATM   32  H11 UNL     1      -4.400  48.760 -27.408  1.00  0.00     0.162 HD
BRANCH  31  33
HETATM   33  C15 UNL     1      -6.061  47.754 -26.590  1.00  0.00     0.123 C 
BRANCH  33  34
HETATM   34  C16 UNL     1      -6.610  47.701 -28.009  1.00  0.00     0.029 C 
BRANCH  34  35
HETATM   35  C17 UNL     1      -5.674  48.405 -28.983  1.00  0.00     0.096 C 
BRANCH  35  36
HETATM   36  P1  UNL     1      -5.997  48.110 -30.719  1.00  0.00     0.109 P 
HETATM   37  O3  UNL     1      -7.298  48.686 -31.176  1.00  0.00    -0.673 OA
BRANCH  36  38
HETATM   38  O4  UNL     1      -4.764  48.826 -31.471  1.00  0.00    -0.349 OA
HETATM   39  H18 UNL     1      -4.966  49.036 -32.416  1.00  0.00     0.217 HD
ENDBRANCH  36  38
BRANCH  36  40
HETATM   40  C18 UNL     1      -5.770  46.369 -31.037  1.00  0.00     0.218 C 
BRANCH  40  41
HETATM   41  P2  UNL     1      -4.735  45.855 -32.386  1.00  0.00     0.244 P 
HETATM   42  O5  UNL     1      -4.624  44.387 -32.613  1.00  0.00    -0.653 OA
BRANCH  41  43
HETATM   43  O6  UNL     1      -3.324  46.580 -32.180  1.00  0.00    -0.329 OA
HETATM   44  H21 UNL     1      -2.663  46.281 -32.828  1.00  0.00     0.220 HD
ENDBRANCH  41  43
BRANCH  41  45
HETATM   45  O7  UNL     1      -5.264  46.673 -33.665  1.00  0.00    -0.329 OA
HETATM   46  H22 UNL     1      -5.633  47.556 -33.487  1.00  0.00     0.220 HD
ENDBRANCH  41  45
ENDBRANCH  40  41
ENDBRANCH  36  40
ENDBRANCH  35  36
ENDBRANCH  34  35
ENDBRANCH  33  34
ENDBRANCH  31  33
ENDBRANCH   5  29
TORSDOF 14
ENDMDL
MODEL 4
REMARK minimizedAffinity -9.83274078
REMARK CNNscore 0.306123197
REMARK CNNaffinity 6.89550257
REMARK  14 active torsions:
REMARK  status: ('A' for Active; 'I' for Inactive)
REMARK    1  A    between atoms: O1_2  and  C2_3 
REMARK    2  A    between atoms: C6_7  and  C7_8 
REMARK    3  A    between atoms: N1_10  and  C9_11 
REMARK    4  A    between atoms: C13_15  and  C14_16 
REMARK       I    between atoms: C14_16  and  N2_18 
REMARK    5  A    between atoms: N2_18  and  C15_19 
REMARK    6  A    between atoms: C15_19  and  C16_20 
REMARK    7  A    between atoms: C16_20  and  C17_21 
REMARK    8  A    between atoms: C17_21  and  P1_22 
REMARK    9  A    between atoms: P1_22  and  O4_24 
REMARK   10  A    between atoms: P1_22  and  C18_25 
REMARK   11  A    between atoms: C18_25  and  P2_26 
REMARK   12  A    between atoms: P2_26  and  O6_28 
REMARK   13  A    between atoms: P2_26  and  O7_29 
REMARK   14  A    between atoms: C22_37  and  N5_38 
ROOT
HETATM    1  C9  UNL     1      -3.217  50.052 -24.673  1.00  0.00     0.041 A 
HETATM    2  C10 UNL     1      -4.083  49.518 -23.703  1.00  0.00     0.030 A 
HETATM    3  C11 UNL     1      -5.092  48.614 -24.055  1.00  0.00     0.003 A 
HETATM    4  C12 UNL     1      -5.249  48.219 -25.381  1.00  0.00     0.017 A 
HETATM    5  C13 UNL     1      -4.387  48.723 -26.359  1.00  0.00     0.034 A 
HETATM    6  C19 UNL     1      -3.389  49.649 -26.006  1.00  0.00     0.047 A 
ENDROOT
BRANCH   1   7
HETATM    7  N1  UNL     1      -2.191  50.988 -24.296  1.00  0.00    -0.307 N 
HETATM    8  C8  UNL     1      -1.692  51.136 -23.007  1.00  0.00     0.112 A 
HETATM    9  C7  UNL     1      -0.736  52.129 -22.994  1.00  0.00     0.007 A 
HETATM   10  C23 UNL     1      -0.615  52.623 -24.319  1.00  0.00     0.059 A 
HETATM   11  C20 UNL     1      -1.507  51.900 -25.108  1.00  0.00     0.127 A 
HETATM   12  C22 UNL     1       0.160  53.605 -24.963  1.00  0.00     0.093 A 
HETATM   13  N3  UNL     1      -1.653  52.061 -26.438  1.00  0.00    -0.337 N 
HETATM   14  C21 UNL     1      -0.863  53.018 -26.944  1.00  0.00     0.183 A 
ATOM     15  H3  UNL     1      -2.299  51.510 -27.003  1.00  0.00     0.168 HD
HETATM   16  N4  UNL     1       0.025  53.782 -26.291  1.00  0.00    -0.343 N 
ATOM     17  H4  UNL     1       0.583  54.477 -26.787  1.00  0.00     0.167 HD
BRANCH   9  18
HETATM   18  C6  UNL     1      -0.042  52.516 -21.784  1.00  0.00    -0.021 A 
HETATM   19  C5  UNL     1       1.011  53.435 -21.842  1.00  0.00     0.012 A 
HETATM   20  C4  UNL     1       1.667  53.815 -20.671  1.00  0.00     0.004 A 
HETATM   21  C3  UNL     1       1.283  53.271 -19.442  1.00  0.00     0.037 A 
HETATM   22  C2  UNL     1       0.238  52.345 -19.379  1.00  0.00     0.069 A 
HETATM   23  C24 UNL     1      -0.432  51.983 -20.552  1.00  0.00     0.049 A 
BRANCH  22  24
HETATM   24  O1  UNL     1      -0.231  51.750 -18.239  1.00  0.00    -0.356 OA
HETATM   25  C1  UNL     1       0.638  51.752 -17.115  1.00  0.00     0.210 C 
ENDBRANCH  22  24
ENDBRANCH   9  18
BRANCH  12  26
HETATM   26  N5  UNL     1       1.086  54.410 -24.315  1.00  0.00    -0.288 NA
HETATM   27  H25 UNL     1       1.715  54.844 -24.979  1.00  0.00     0.125 HD
HETATM   28  H26 UNL     1       1.512  53.998 -23.497  1.00  0.00     0.125 HD
ENDBRANCH  12  26
ENDBRANCH   1   7
BRANCH   5  29
HETATM   29  C14 UNL     1      -4.501  48.312 -27.787  1.00  0.00     0.251 C 
HETATM   30  O2  UNL     1      -3.494  48.103 -28.456  1.00  0.00    -0.268 OA
HETATM   31  N2  UNL     1      -5.785  48.136 -28.272  1.00  0.00    -0.357 N 
HETATM   32  H11 UNL     1      -6.523  48.032 -27.586  1.00  0.00     0.162 HD
BRANCH  31  33
HETATM   33  C15 UNL     1      -5.991  47.492 -29.552  1.00  0.00     0.123 C 
BRANCH  33  34
HETATM   34  C16 UNL     1      -7.298  47.937 -30.194  1.00  0.00     0.029 C 
BRANCH  34  35
HETATM   35  C17 UNL     1      -8.459  47.071 -29.724  1.00  0.00     0.096 C 
BRANCH  35  36
HETATM   36  P1  UNL     1      -9.092  47.444 -28.091  1.00  0.00     0.109 P 
HETATM   37  O3  UNL     1      -8.319  46.780 -27.000  1.00  0.00    -0.673 OA
BRANCH  36  38
HETATM   38  O4  UNL     1      -8.965  49.048 -27.982  1.00  0.00    -0.349 OA
HETATM   39  H18 UNL     1      -8.959  49.366 -27.045  1.00  0.00     0.217 HD
ENDBRANCH  36  38
BRANCH  36  40
HETATM   40  C18 UNL     1     -10.849  47.131 -28.093  1.00  0.00     0.218 C 
BRANCH  40  41
HETATM   41  P2  UNL     1     -11.863  47.831 -26.814  1.00  0.00     0.244 P 
HETATM   42  O5  UNL     1     -13.303  48.026 -27.143  1.00  0.00    -0.653 OA
BRANCH  41  43
HETATM   43  O6  UNL     1     -11.129  49.169 -26.332  1.00  0.00    -0.329 OA
HETATM   44  H21 UNL     1     -11.667  49.668 -25.692  1.00  0.00     0.220 HD
ENDBRANCH  41  43
BRANCH  41  45
HETATM   45  O7  UNL     1     -11.610  46.914 -25.519  1.00  0.00    -0.329 OA
HETATM   46  H22 UNL     1     -10.724  46.517 -25.440  1.00  0.00     0.220 HD
ENDBRANCH  41  45
ENDBRANCH  40  41
ENDBRANCH  36  40
ENDBRANCH  35  36
ENDBRANCH  34  35
ENDBRANCH  33  34
ENDBRANCH  31  33
ENDBRANCH   5  29
TORSDOF 14
ENDMDL
MODEL 5
REMARK minimizedAffinity -8.78676605
REMARK CNNscore 0.254045546
REMARK CNNaffinity 7.02233315
REMARK  14 active torsions:
REMARK  status: ('A' for Active; 'I' for Inactive)
REMARK    1  A    between atoms: O1_2  and  C2_3 
REMARK    2  A    between atoms: C6_7  and  C7_8 
REMARK    3  A    between atoms: N1_10  and  C9_11 
REMARK    4  A    between atoms: C13_15  and  C14_16 
REMARK       I    between atoms: C14_16  and  N2_18 
REMARK    5  A    between atoms: N2_18  and  C15_19 
REMARK    6  A    between atoms: C15_19  and  C16_20 
REMARK    7  A    between atoms: C16_20  and  C17_21 
REMARK    8  A    between atoms: C17_21  and  P1_22 
REMARK    9  A    between atoms: P1_22  and  O4_24 
REMARK   10  A    between atoms: P1_22  and  C18_25 
REMARK   11  A    between atoms: C18_25  and  P2_26 
REMARK   12  A    between atoms: P2_26  and  O6_28 
REMARK   13  A    between atoms: P2_26  and  O7_29 
REMARK   14  A    between atoms: C22_37  and  N5_38 
ROOT
HETATM    1  C9  UNL     1      -0.379  50.840 -19.960  1.00  0.00     0.041 A 
HETATM    2  C10 UNL     1      -1.010  49.586 -19.877  1.00  0.00     0.030 A 
HETATM    3  C11 UNL     1      -1.084  48.894 -18.663  1.00  0.00     0.003 A 
HETATM    4  C12 UNL     1      -0.536  49.445 -17.507  1.00  0.00     0.017 A 
HETATM    5  C13 UNL     1       0.080  50.697 -17.563  1.00  0.00     0.034 A 
HETATM    6  C19 UNL     1       0.172  51.381 -18.789  1.00  0.00     0.047 A 
ENDROOT
BRANCH   1   7
HETATM    7  N1  UNL     1      -0.304  51.533 -21.219  1.00  0.00    -0.307 N 
HETATM    8  C8  UNL     1      -1.002  51.170 -22.365  1.00  0.00     0.112 A 
HETATM    9  C7  UNL     1      -0.686  52.035 -23.391  1.00  0.00     0.007 A 
HETATM   10  C23 UNL     1       0.235  52.987 -22.880  1.00  0.00     0.059 A 
HETATM   11  C20 UNL     1       0.447  52.670 -21.539  1.00  0.00     0.127 A 
HETATM   12  C22 UNL     1       0.922  54.102 -23.392  1.00  0.00     0.093 A 
HETATM   13  N3  UNL     1       1.238  53.374 -20.706  1.00  0.00    -0.337 N 
HETATM   14  C21 UNL     1       1.837  54.416 -21.300  1.00  0.00     0.183 A 
ATOM     15  H3  UNL     1       1.369  53.138 -19.722  1.00  0.00     0.168 HD
HETATM   16  N4  UNL     1       1.719  54.815 -22.575  1.00  0.00    -0.343 N 
ATOM     17  H4  UNL     1       2.219  55.636 -22.915  1.00  0.00     0.167 HD
BRANCH   9  18
HETATM   18  C6  UNL     1      -1.255  51.901 -24.714  1.00  0.00    -0.021 A 
HETATM   19  C5  UNL     1      -2.639  52.003 -24.898  1.00  0.00     0.012 A 
HETATM   20  C4  UNL     1      -3.181  51.886 -26.178  1.00  0.00     0.004 A 
HETATM   21  C3  UNL     1      -2.347  51.657 -27.276  1.00  0.00     0.037 A 
HETATM   22  C2  UNL     1      -0.966  51.545 -27.098  1.00  0.00     0.069 A 
HETATM   23  C24 UNL     1      -0.423  51.683 -25.816  1.00  0.00     0.049 A 
BRANCH  22  24
HETATM   24  O1  UNL     1      -0.050  51.328 -28.092  1.00  0.00    -0.356 OA
HETATM   25  C1  UNL     1       1.272  51.792 -27.853  1.00  0.00     0.210 C 
ENDBRANCH  22  24
ENDBRANCH   9  18
BRANCH  12  26
HETATM   26  N5  UNL     1       0.820  54.539 -24.705  1.00  0.00    -0.288 NA
HETATM   27  H25 UNL     1       1.164  55.487 -24.798  1.00  0.00     0.125 HD
HETATM   28  H26 UNL     1      -0.060  54.335 -25.156  1.00  0.00     0.125 HD
ENDBRANCH  12  26
ENDBRANCH   1   7
BRANCH   5  29
HETATM   29  C14 UNL     1       0.660  51.337 -16.348  1.00  0.00     0.251 C 
HETATM   30  O2  UNL     1       1.762  51.875 -16.395  1.00  0.00    -0.268 OA
HETATM   31  N2  UNL     1      -0.134  51.328 -15.215  1.00  0.00    -0.357 N 
HETATM   32  H11 UNL     1      -1.121  51.145 -15.349  1.00  0.00     0.162 HD
BRANCH  31  33
HETATM   33  C15 UNL     1       0.228  52.145 -14.076  1.00  0.00     0.123 C 
BRANCH  33  34
HETATM   34  C16 UNL     1       0.793  51.299 -12.943  1.00  0.00     0.029 C 
BRANCH  34  35
HETATM   35  C17 UNL     1      -0.302  50.895 -11.965  1.00  0.00     0.096 C 
BRANCH  35  36
HETATM   36  P1  UNL     1      -0.751  52.131 -10.751  1.00  0.00     0.109 P 
HETATM   37  O3  UNL     1       0.343  52.415  -9.774  1.00  0.00    -0.673 OA
BRANCH  36  38
HETATM   38  O4  UNL     1      -1.080  53.441 -11.631  1.00  0.00    -0.349 OA
HETATM   39  H18 UNL     1      -1.019  54.277 -11.107  1.00  0.00     0.217 HD
ENDBRANCH  36  38
BRANCH  36  40
HETATM   40  C18 UNL     1      -2.319  51.664 -10.037  1.00  0.00     0.218 C 
BRANCH  40  41
HETATM   41  P2  UNL     1      -3.822  52.054 -10.899  1.00  0.00     0.244 P 
HETATM   42  O5  UNL     1      -4.998  51.188 -10.605  1.00  0.00    -0.653 OA
BRANCH  41  43
HETATM   43  O6  UNL     1      -3.452  52.125 -12.453  1.00  0.00    -0.329 OA
HETATM   44  H21 UNL     1      -4.241  52.245 -13.011  1.00  0.00     0.220 HD
ENDBRANCH  41  43
BRANCH  41  45
HETATM   45  O7  UNL     1      -4.079  53.616 -10.621  1.00  0.00    -0.329 OA
HETATM   46  H22 UNL     1      -3.285  54.169 -10.507  1.00  0.00     0.220 HD
ENDBRANCH  41  45
ENDBRANCH  40  41
ENDBRANCH  36  40
ENDBRANCH  35  36
ENDBRANCH  34  35
ENDBRANCH  33  34
ENDBRANCH  31  33
ENDBRANCH   5  29
TORSDOF 14
ENDMDL
MODEL 6
REMARK minimizedAffinity -9.16828632
REMARK CNNscore 0.185488656
REMARK CNNaffinity 6.33535767
REMARK  14 active torsions:
REMARK  status: ('A' for Active; 'I' for Inactive)
REMARK    1  A    between atoms: O1_2  and  C2_3 
REMARK    2  A    between atoms: C6_7  and  C7_8 
REMARK    3  A    between atoms: N1_10  and  C9_11 
REMARK    4  A    between atoms: C13_15  and  C14_16 
REMARK       I    between atoms: C14_16  and  N2_18 
REMARK    5  A    between atoms: N2_18  and  C15_19 
REMARK    6  A    between atoms: C15_19  and  C16_20 
REMARK    7  A    between atoms: C16_20  and  C17_21 
REMARK    8  A    between atoms: C17_21  and  P1_22 
REMARK    9  A    between atoms: P1_22  and  O4_24 
REMARK   10  A    between atoms: P1_22  and  C18_25 
REMARK   11  A    between atoms: C18_25  and  P2_26 
REMARK   12  A    between atoms: P2_26  and  O6_28 
REMARK   13  A    between atoms: P2_26  and  O7_29 
REMARK   14  A    between atoms: C22_37  and  N5_38 
ROOT
HETATM    1  C9  UNL     1      -2.530  50.163 -25.436  1.00  0.00     0.041 A 
HETATM    2  C10 UNL     1      -2.267  49.755 -26.755  1.00  0.00     0.030 A 
HETATM    3  C11 UNL     1      -3.080  48.812 -27.394  1.00  0.00     0.003 A 
HETATM    4  C12 UNL     1      -4.175  48.264 -26.731  1.00  0.00     0.017 A 
HETATM    5  C13 UNL     1      -4.465  48.669 -25.425  1.00  0.00     0.034 A 
HETATM    6  C19 UNL     1      -3.634  49.601 -24.777  1.00  0.00     0.047 A 
ENDROOT
BRANCH   1   7
HETATM    7  N1  UNL     1      -1.679  51.127 -24.790  1.00  0.00    -0.307 N 
HETATM    8  C8  UNL     1      -1.371  51.127 -23.435  1.00  0.00     0.112 A 
HETATM    9  C7  UNL     1      -0.547  52.195 -23.149  1.00  0.00     0.007 A 
HETATM   10  C23 UNL     1      -0.316  52.894 -24.363  1.00  0.00     0.059 A 
HETATM   11  C20 UNL     1      -1.009  52.214 -25.363  1.00  0.00     0.127 A 
HETATM   12  C22 UNL     1       0.414  54.033 -24.748  1.00  0.00     0.093 A 
HETATM   13  N3  UNL     1      -1.001  52.560 -26.666  1.00  0.00    -0.337 N 
HETATM   14  C21 UNL     1      -0.270  53.655 -26.917  1.00  0.00     0.183 A 
ATOM     15  H3  UNL     1      -1.500  52.040 -27.388  1.00  0.00     0.168 HD
HETATM   16  N4  UNL     1       0.431  54.395 -26.045  1.00  0.00    -0.343 N 
ATOM     17  H4  UNL     1       0.961  55.209 -26.355  1.00  0.00     0.167 HD
BRANCH   9  18
HETATM   18  C6  UNL     1      -0.065  52.460 -21.810  1.00  0.00    -0.021 A 
HETATM   19  C5  UNL     1       1.123  53.175 -21.621  1.00  0.00     0.012 A 
HETATM   20  C4  UNL     1       1.576  53.439 -20.328  1.00  0.00     0.004 A 
HETATM   21  C3  UNL     1       0.853  52.983 -19.223  1.00  0.00     0.037 A 
HETATM   22  C2  UNL     1      -0.329  52.260 -19.406  1.00  0.00     0.069 A 
HETATM   23  C24 UNL     1      -0.792  52.015 -20.702  1.00  0.00     0.049 A 
BRANCH  22  24
HETATM   24  O1  UNL     1      -1.124  51.768 -18.406  1.00  0.00    -0.356 OA
HETATM   25  C1  UNL     1      -0.545  50.789 -17.554  1.00  0.00     0.210 C 
ENDBRANCH  22  24
ENDBRANCH   9  18
BRANCH  12  26
HETATM   26  N5  UNL     1       1.148  54.817 -23.870  1.00  0.00    -0.288 NA
HETATM   27  H25 UNL     1       1.801  55.407 -24.371  1.00  0.00     0.125 HD
HETATM   28  H26 UNL     1       1.511  54.330 -23.063  1.00  0.00     0.125 HD
ENDBRANCH  12  26
ENDBRANCH   1   7
BRANCH   5  29
HETATM   29  C14 UNL     1      -5.640  48.129 -24.682  1.00  0.00     0.251 C 
HETATM   30  O2  UNL     1      -6.586  47.638 -25.290  1.00  0.00    -0.268 OA
HETATM   31  N2  UNL     1      -5.561  48.171 -23.302  1.00  0.00    -0.357 N 
HETATM   32  H11 UNL     1      -4.642  48.303 -22.899  1.00  0.00     0.162 HD
BRANCH  31  33
HETATM   33  C15 UNL     1      -6.523  47.441 -22.503  1.00  0.00     0.123 C 
BRANCH  33  34
HETATM   34  C16 UNL     1      -7.809  48.235 -22.317  1.00  0.00     0.029 C 
BRANCH  34  35
HETATM   35  C17 UNL     1      -8.955  47.326 -21.895  1.00  0.00     0.096 C 
BRANCH  35  36
HETATM   36  P1  UNL     1      -9.952  46.666 -23.227  1.00  0.00     0.109 P 
HETATM   37  O3  UNL     1      -9.754  45.200 -23.433  1.00  0.00    -0.673 OA
BRANCH  36  38
HETATM   38  O4  UNL     1     -11.467  46.976 -22.771  1.00  0.00    -0.349 OA
HETATM   39  H18 UNL     1     -12.127  46.394 -23.222  1.00  0.00     0.217 HD
ENDBRANCH  36  38
BRANCH  36  40
HETATM   40  C18 UNL     1      -9.698  47.688 -24.668  1.00  0.00     0.218 C 
BRANCH  40  41
HETATM   41  P2  UNL     1     -10.871  47.627 -26.001  1.00  0.00     0.244 P 
HETATM   42  O5  UNL     1     -10.561  46.686 -27.114  1.00  0.00    -0.653 OA
BRANCH  41  43
HETATM   43  O6  UNL     1     -11.095  49.137 -26.481  1.00  0.00    -0.329 OA
HETATM   44  H21 UNL     1     -11.657  49.187 -27.274  1.00  0.00     0.220 HD
ENDBRANCH  41  43
BRANCH  41  45
HETATM   45  O7  UNL     1     -12.295  47.362 -25.303  1.00  0.00    -0.329 OA
HETATM   46  H22 UNL     1     -12.412  47.733 -24.411  1.00  0.00     0.220 HD
ENDBRANCH  41  45
ENDBRANCH  40  41
ENDBRANCH  36  40
ENDBRANCH  35  36
ENDBRANCH  34  35
ENDBRANCH  33  34
ENDBRANCH  31  33
ENDBRANCH   5  29
TORSDOF 14
ENDMDL
MODEL 7
REMARK minimizedAffinity -9.93858147
REMARK CNNscore 0.18058525
REMARK CNNaffinity 6.18091583
REMARK  14 active torsions:
REMARK  status: ('A' for Active; 'I' for Inactive)
REMARK    1  A    between atoms: O1_2  and  C2_3 
REMARK    2  A    between atoms: C6_7  and  C7_8 
REMARK    3  A    between atoms: N1_10  and  C9_11 
REMARK    4  A    between atoms: C13_15  and  C14_16 
REMARK       I    between atoms: C14_16  and  N2_18 
REMARK    5  A    between atoms: N2_18  and  C15_19 
REMARK    6  A    between atoms: C15_19  and  C16_20 
REMARK    7  A    between atoms: C16_20  and  C17_21 
REMARK    8  A    between atoms: C17_21  and  P1_22 
REMARK    9  A    between atoms: P1_22  and  O4_24 
REMARK   10  A    between atoms: P1_22  and  C18_25 
REMARK   11  A    between atoms: C18_25  and  P2_26 
REMARK   12  A    between atoms: P2_26  and  O6_28 
REMARK   13  A    between atoms: P2_26  and  O7_29 
REMARK   14  A    between atoms: C22_37  and  N5_38 
ROOT
HETATM    1  C9  UNL     1      -2.602  50.115 -25.210  1.00  0.00     0.041 A 
HETATM    2  C10 UNL     1      -2.284  49.518 -26.442  1.00  0.00     0.030 A 
HETATM    3  C11 UNL     1      -3.137  48.579 -27.032  1.00  0.00     0.003 A 
HETATM    4  C12 UNL     1      -4.330  48.224 -26.405  1.00  0.00     0.017 A 
HETATM    5  C13 UNL     1      -4.675  48.817 -25.188  1.00  0.00     0.034 A 
HETATM    6  C19 UNL     1      -3.804  49.745 -24.587  1.00  0.00     0.047 A 
ENDROOT
BRANCH   1   7
HETATM    7  N1  UNL     1      -1.709  51.072 -24.613  1.00  0.00    -0.307 N 
HETATM    8  C8  UNL     1      -1.387  51.118 -23.261  1.00  0.00     0.112 A 
HETATM    9  C7  UNL     1      -0.521  52.164 -23.028  1.00  0.00     0.007 A 
HETATM   10  C23 UNL     1      -0.275  52.801 -24.273  1.00  0.00     0.059 A 
HETATM   11  C20 UNL     1      -1.003  52.107 -25.237  1.00  0.00     0.127 A 
HETATM   12  C22 UNL     1       0.494  53.893 -24.713  1.00  0.00     0.093 A 
HETATM   13  N3  UNL     1      -0.994  52.396 -26.554  1.00  0.00    -0.337 N 
HETATM   14  C21 UNL     1      -0.225  53.451 -26.858  1.00  0.00     0.183 A 
ATOM     15  H3  UNL     1      -1.520  51.866 -27.249  1.00  0.00     0.168 HD
HETATM   16  N4  UNL     1       0.512  54.199 -26.024  1.00  0.00    -0.343 N 
ATOM     17  H4  UNL     1       1.070  54.978 -26.373  1.00  0.00     0.167 HD
BRANCH   9  18
HETATM   18  C6  UNL     1      -0.016  52.467 -21.706  1.00  0.00    -0.021 A 
HETATM   19  C5  UNL     1       1.053  53.356 -21.550  1.00  0.00     0.012 A 
HETATM   20  C4  UNL     1       1.528  53.655 -20.272  1.00  0.00     0.004 A 
HETATM   21  C3  UNL     1       0.945  53.060 -19.150  1.00  0.00     0.037 A 
HETATM   22  C2  UNL     1      -0.117  52.165 -19.300  1.00  0.00     0.069 A 
HETATM   23  C24 UNL     1      -0.605  51.884 -20.581  1.00  0.00     0.049 A 
BRANCH  22  24
HETATM   24  O1  UNL     1      -0.772  51.527 -18.281  1.00  0.00    -0.356 OA
HETATM   25  C1  UNL     1      -0.497  50.143 -18.115  1.00  0.00     0.210 C 
ENDBRANCH  22  24
ENDBRANCH   9  18
BRANCH  12  26
HETATM   26  N5  UNL     1       1.266  54.685 -23.875  1.00  0.00    -0.288 NA
HETATM   27  H25 UNL     1       1.936  55.227 -24.406  1.00  0.00     0.125 HD
HETATM   28  H26 UNL     1       1.618  54.219 -23.051  1.00  0.00     0.125 HD
ENDBRANCH  12  26
ENDBRANCH   1   7
BRANCH   5  29
HETATM   29  C14 UNL     1      -5.951  48.487 -24.492  1.00  0.00     0.251 C 
HETATM   30  O2  UNL     1      -5.957  48.242 -23.290  1.00  0.00    -0.268 OA
HETATM   31  N2  UNL     1      -7.097  48.529 -25.265  1.00  0.00    -0.357 N 
HETATM   32  H11 UNL     1      -7.038  49.027 -26.145  1.00  0.00     0.162 HD
BRANCH  31  33
HETATM   33  C15 UNL     1      -8.397  48.482 -24.630  1.00  0.00     0.123 C 
BRANCH  33  34
HETATM   34  C16 UNL     1      -9.039  47.109 -24.780  1.00  0.00     0.029 C 
BRANCH  34  35
HETATM   35  C17 UNL     1      -8.544  46.409 -26.038  1.00  0.00     0.096 C 
BRANCH  35  36
HETATM   36  P1  UNL     1      -9.341  46.900 -27.563  1.00  0.00     0.109 P 
HETATM   37  O3  UNL     1      -8.978  48.285 -27.992  1.00  0.00    -0.673 OA
BRANCH  36  38
HETATM   38  O4  UNL     1      -8.823  45.818 -28.640  1.00  0.00    -0.349 OA
HETATM   39  H18 UNL     1      -8.903  46.140 -29.572  1.00  0.00     0.217 HD
ENDBRANCH  36  38
BRANCH  36  40
HETATM   40  C18 UNL     1     -11.089  46.576 -27.405  1.00  0.00     0.218 C 
BRANCH  40  41
HETATM   41  P2  UNL     1     -12.228  47.938 -27.338  1.00  0.00     0.244 P 
HETATM   42  O5  UNL     1     -13.562  47.656 -26.738  1.00  0.00    -0.653 OA
BRANCH  41  43
HETATM   43  O6  UNL     1     -12.304  48.541 -28.817  1.00  0.00    -0.329 OA
HETATM   44  H21 UNL     1     -12.980  49.238 -28.892  1.00  0.00     0.220 HD
ENDBRANCH  41  43
BRANCH  41  45
HETATM   45  O7  UNL     1     -11.427  49.128 -26.612  1.00  0.00    -0.329 OA
HETATM   46  H22 UNL     1     -10.465  49.150 -26.759  1.00  0.00     0.220 HD
ENDBRANCH  41  45
ENDBRANCH  40  41
ENDBRANCH  36  40
ENDBRANCH  35  36
ENDBRANCH  34  35
ENDBRANCH  33  34
ENDBRANCH  31  33
ENDBRANCH   5  29
TORSDOF 14
ENDMDL
MODEL 8
REMARK minimizedAffinity -9.84831142
REMARK CNNscore 0.162244827
REMARK CNNaffinity 6.15882826
REMARK  14 active torsions:
REMARK  status: ('A' for Active; 'I' for Inactive)
REMARK    1  A    between atoms: O1_2  and  C2_3 
REMARK    2  A    between atoms: C6_7  and  C7_8 
REMARK    3  A    between atoms: N1_10  and  C9_11 
REMARK    4  A    between atoms: C13_15  and  C14_16 
REMARK       I    between atoms: C14_16  and  N2_18 
REMARK    5  A    between atoms: N2_18  and  C15_19 
REMARK    6  A    between atoms: C15_19  and  C16_20 
REMARK    7  A    between atoms: C16_20  and  C17_21 
REMARK    8  A    between atoms: C17_21  and  P1_22 
REMARK    9  A    between atoms: P1_22  and  O4_24 
REMARK   10  A    between atoms: P1_22  and  C18_25 
REMARK   11  A    between atoms: C18_25  and  P2_26 
REMARK   12  A    between atoms: P2_26  and  O6_28 
REMARK   13  A    between atoms: P2_26  and  O7_29 
REMARK   14  A    between atoms: C22_37  and  N5_38 
ROOT
HETATM    1  C9  UNL     1      -2.846  50.112 -25.576  1.00  0.00     0.041 A 
HETATM    2  C10 UNL     1      -2.651  49.660 -26.893  1.00  0.00     0.030 A 
HETATM    3  C11 UNL     1      -3.515  48.722 -27.470  1.00  0.00     0.003 A 
HETATM    4  C12 UNL     1      -4.594  48.223 -26.744  1.00  0.00     0.017 A 
HETATM    5  C13 UNL     1      -4.817  48.671 -25.439  1.00  0.00     0.034 A 
HETATM    6  C19 UNL     1      -3.934  49.598 -24.855  1.00  0.00     0.047 A 
ENDROOT
BRANCH   1   7
HETATM    7  N1  UNL     1      -1.943  51.070 -24.996  1.00  0.00    -0.307 N 
HETATM    8  C8  UNL     1      -1.584  51.106 -23.653  1.00  0.00     0.112 A 
HETATM    9  C7  UNL     1      -0.720  52.157 -23.434  1.00  0.00     0.007 A 
HETATM   10  C23 UNL     1      -0.513  52.807 -24.679  1.00  0.00     0.059 A 
HETATM   11  C20 UNL     1      -1.263  52.116 -25.629  1.00  0.00     0.127 A 
HETATM   12  C22 UNL     1       0.235  53.909 -25.130  1.00  0.00     0.093 A 
HETATM   13  N3  UNL     1      -1.293  52.418 -26.943  1.00  0.00    -0.337 N 
HETATM   14  C21 UNL     1      -0.540  53.481 -27.258  1.00  0.00     0.183 A 
ATOM     15  H3  UNL     1      -1.834  51.890 -27.628  1.00  0.00     0.168 HD
HETATM   16  N4  UNL     1       0.214  54.227 -26.438  1.00  0.00    -0.343 N 
ATOM     17  H4  UNL     1       0.757  55.013 -26.796  1.00  0.00     0.167 HD
BRANCH   9  18
HETATM   18  C6  UNL     1      -0.180  52.451 -22.124  1.00  0.00    -0.021 A 
HETATM   19  C5  UNL     1       1.054  53.099 -22.003  1.00  0.00     0.012 A 
HETATM   20  C4  UNL     1       1.564  53.392 -20.737  1.00  0.00     0.004 A 
HETATM   21  C3  UNL     1       0.850  53.031 -19.591  1.00  0.00     0.037 A 
HETATM   22  C2  UNL     1      -0.379  52.376 -19.706  1.00  0.00     0.069 A 
HETATM   23  C24 UNL     1      -0.897  52.102 -20.976  1.00  0.00     0.049 A 
BRANCH  22  24
HETATM   24  O1  UNL     1      -1.171  51.980 -18.662  1.00  0.00    -0.356 OA
HETATM   25  C1  UNL     1      -0.610  51.037 -17.759  1.00  0.00     0.210 C 
ENDBRANCH  22  24
ENDBRANCH   9  18
BRANCH  12  26
HETATM   26  N5  UNL     1       1.024  54.699 -24.306  1.00  0.00    -0.288 NA
HETATM   27  H25 UNL     1       1.675  55.251 -24.851  1.00  0.00     0.125 HD
HETATM   28  H26 UNL     1       1.403  54.228 -23.497  1.00  0.00     0.125 HD
ENDBRANCH  12  26
ENDBRANCH   1   7
BRANCH   5  29
HETATM   29  C14 UNL     1      -5.971  48.184 -24.632  1.00  0.00     0.251 C 
HETATM   30  O2  UNL     1      -5.800  47.767 -23.491  1.00  0.00    -0.268 OA
HETATM   31  N2  UNL     1      -7.217  48.284 -25.226  1.00  0.00    -0.357 N 
HETATM   32  H11 UNL     1      -7.297  48.907 -26.021  1.00  0.00     0.162 HD
BRANCH  31  33
HETATM   33  C15 UNL     1      -8.411  48.084 -24.433  1.00  0.00     0.123 C 
BRANCH  33  34
HETATM   34  C16 UNL     1      -9.221  46.897 -24.936  1.00  0.00     0.029 C 
BRANCH  34  35
HETATM   35  C17 UNL     1     -10.715  47.179 -24.850  1.00  0.00     0.096 C 
BRANCH  35  36
HETATM   36  P1  UNL     1     -11.519  47.578 -26.398  1.00  0.00     0.109 P 
HETATM   37  O3  UNL     1     -12.989  47.313 -26.378  1.00  0.00    -0.673 OA
BRANCH  36  38
HETATM   38  O4  UNL     1     -11.229  49.152 -26.593  1.00  0.00    -0.349 OA
HETATM   39  H18 UNL     1     -11.871  49.583 -27.210  1.00  0.00     0.217 HD
ENDBRANCH  36  38
BRANCH  36  40
HETATM   40  C18 UNL     1     -10.611  46.787 -27.715  1.00  0.00     0.218 C 
BRANCH  40  41
HETATM   41  P2  UNL     1      -9.549  47.761 -28.753  1.00  0.00     0.244 P 
HETATM   42  O5  UNL     1      -8.582  47.011 -29.602  1.00  0.00    -0.653 OA
BRANCH  41  43
HETATM   43  O6  UNL     1      -8.860  48.850 -27.806  1.00  0.00    -0.329 OA
HETATM   44  H21 UNL     1      -8.187  49.372 -28.279  1.00  0.00     0.220 HD
ENDBRANCH  41  43
BRANCH  41  45
HETATM   45  O7  UNL     1     -10.533  48.724 -29.584  1.00  0.00    -0.329 OA
HETATM   46  H22 UNL     1     -11.352  48.994 -29.132  1.00  0.00     0.220 HD
ENDBRANCH  41  45
ENDBRANCH  40  41
ENDBRANCH  36  40
ENDBRANCH  35  36
ENDBRANCH  34  35
ENDBRANCH  33  34
ENDBRANCH  31  33
ENDBRANCH   5  29
TORSDOF 14
ENDMDL
MODEL 9
REMARK minimizedAffinity -8.65187263
REMARK CNNscore 0.157762662
REMARK CNNaffinity 5.69395685
REMARK  14 active torsions:
REMARK  status: ('A' for Active; 'I' for Inactive)
REMARK    1  A    between atoms: O1_2  and  C2_3 
REMARK    2  A    between atoms: C6_7  and  C7_8 
REMARK    3  A    between atoms: N1_10  and  C9_11 
REMARK    4  A    between atoms: C13_15  and  C14_16 
REMARK       I    between atoms: C14_16  and  N2_18 
REMARK    5  A    between atoms: N2_18  and  C15_19 
REMARK    6  A    between atoms: C15_19  and  C16_20 
REMARK    7  A    between atoms: C16_20  and  C17_21 
REMARK    8  A    between atoms: C17_21  and  P1_22 
REMARK    9  A    between atoms: P1_22  and  O4_24 
REMARK   10  A    between atoms: P1_22  and  C18_25 
REMARK   11  A    between atoms: C18_25  and  P2_26 
REMARK   12  A    between atoms: P2_26  and  O6_28 
REMARK   13  A    between atoms: P2_26  and  O7_29 
REMARK   14  A    between atoms: C22_37  and  N5_38 
ROOT
HETATM    1  C9  UNL     1      -2.843  49.176 -24.494  1.00  0.00     0.041 A 
HETATM    2  C10 UNL     1      -2.117  49.415 -25.673  1.00  0.00     0.030 A 
HETATM    3  C11 UNL     1      -2.683  49.176 -26.931  1.00  0.00     0.003 A 
HETATM    4  C12 UNL     1      -3.989  48.702 -27.034  1.00  0.00     0.017 A 
HETATM    5  C13 UNL     1      -4.735  48.474 -25.874  1.00  0.00     0.034 A 
HETATM    6  C19 UNL     1      -4.156  48.694 -24.611  1.00  0.00     0.047 A 
ENDROOT
BRANCH   1   7
HETATM    7  N1  UNL     1      -2.242  49.418 -23.209  1.00  0.00    -0.307 N 
HETATM    8  C8  UNL     1      -1.475  50.534 -22.893  1.00  0.00     0.112 A 
HETATM    9  C7  UNL     1      -1.042  50.441 -21.587  1.00  0.00     0.007 A 
HETATM   10  C23 UNL     1      -1.558  49.232 -21.050  1.00  0.00     0.059 A 
HETATM   11  C20 UNL     1      -2.305  48.624 -22.058  1.00  0.00     0.127 A 
HETATM   12  C22 UNL     1      -1.492  48.568 -19.812  1.00  0.00     0.093 A 
HETATM   13  N3  UNL     1      -2.983  47.468 -21.913  1.00  0.00    -0.337 N 
HETATM   14  C21 UNL     1      -2.852  46.929 -20.693  1.00  0.00     0.183 A 
ATOM     15  H3  UNL     1      -3.539  47.046 -22.657  1.00  0.00     0.168 HD
HETATM   16  N4  UNL     1      -2.160  47.411 -19.650  1.00  0.00    -0.343 N 
ATOM     17  H4  UNL     1      -2.140  46.914 -18.759  1.00  0.00     0.167 HD
BRANCH   9  18
HETATM   18  C6  UNL     1      -0.212  51.456 -20.976  1.00  0.00    -0.021 A 
HETATM   19  C5  UNL     1       0.531  52.331 -21.776  1.00  0.00     0.012 A 
HETATM   20  C4  UNL     1       1.320  53.317 -21.182  1.00  0.00     0.004 A 
HETATM   21  C3  UNL     1       1.378  53.426 -19.790  1.00  0.00     0.037 A 
HETATM   22  C2  UNL     1       0.645  52.549 -18.985  1.00  0.00     0.069 A 
HETATM   23  C24 UNL     1      -0.161  51.575 -19.584  1.00  0.00     0.049 A 
BRANCH  22  24
HETATM   24  O1  UNL     1       0.616  52.561 -17.617  1.00  0.00    -0.356 OA
HETATM   25  C1  UNL     1       1.867  52.686 -16.954  1.00  0.00     0.210 C 
ENDBRANCH  22  24
ENDBRANCH   9  18
BRANCH  12  26
HETATM   26  N5  UNL     1      -0.785  49.042 -18.716  1.00  0.00    -0.288 NA
HETATM   27  H25 UNL     1      -1.080  48.576 -17.867  1.00  0.00     0.125 HD
HETATM   28  H26 UNL     1      -0.694  50.047 -18.668  1.00  0.00     0.125 HD
ENDBRANCH  12  26
ENDBRANCH   1   7
BRANCH   5  29
HETATM   29  C14 UNL     1      -6.143  47.989 -25.934  1.00  0.00     0.251 C 
HETATM   30  O2  UNL     1      -6.832  47.953 -24.920  1.00  0.00    -0.268 OA
HETATM   31  N2  UNL     1      -6.617  47.645 -27.188  1.00  0.00    -0.357 N 
HETATM   32  H11 UNL     1      -6.097  47.990 -27.985  1.00  0.00     0.162 HD
BRANCH  31  33
HETATM   33  C15 UNL     1      -8.033  47.417 -27.385  1.00  0.00     0.123 C 
BRANCH  33  34
HETATM   34  C16 UNL     1      -8.365  45.930 -27.367  1.00  0.00     0.029 C 
BRANCH  34  35
HETATM   35  C17 UNL     1      -9.127  45.557 -26.102  1.00  0.00     0.096 C 
BRANCH  35  36
HETATM   36  P1  UNL     1     -10.889  45.319 -26.301  1.00  0.00     0.109 P 
HETATM   37  O3  UNL     1     -11.277  43.879 -26.390  1.00  0.00    -0.673 OA
BRANCH  36  38
HETATM   38  O4  UNL     1     -11.525  45.998 -24.985  1.00  0.00    -0.349 OA
HETATM   39  H18 UNL     1     -12.435  45.665 -24.786  1.00  0.00     0.217 HD
ENDBRANCH  36  38
BRANCH  36  40
HETATM   40  C18 UNL     1     -11.439  46.350 -27.650  1.00  0.00     0.218 C 
BRANCH  40  41
HETATM   41  P2  UNL     1     -12.336  47.843 -27.300  1.00  0.00     0.244 P 
HETATM   42  O5  UNL     1     -13.639  47.683 -26.596  1.00  0.00    -0.653 OA
BRANCH  41  43
HETATM   43  O6  UNL     1     -12.448  48.642 -28.682  1.00  0.00    -0.329 OA
HETATM   44  H21 UNL     1     -13.008  49.434 -28.600  1.00  0.00     0.220 HD
ENDBRANCH  41  43
BRANCH  41  45
HETATM   45  O7  UNL     1     -11.294  48.796 -26.532  1.00  0.00    -0.329 OA
HETATM   46  H22 UNL     1     -10.357  48.697 -26.780  1.00  0.00     0.220 HD
ENDBRANCH  41  45
ENDBRANCH  40  41
ENDBRANCH  36  40
ENDBRANCH  35  36
ENDBRANCH  34  35
ENDBRANCH  33  34
ENDBRANCH  31  33
ENDBRANCH   5  29
TORSDOF 14
ENDMDL
