MODEL 1
REMARK minimizedAffinity -7.37397528
REMARK CNNscore 0.756590247
REMARK CNNaffinity 6.87167931
REMARK  5 active torsions:
REMARK  status: ('A' for Active; 'I' for Inactive)
REMARK    1  A    between atoms: O1_1  and  C1_2 
REMARK    2  A    between atoms: C5_6  and  N1_7 
REMARK    3  A    between atoms: N1_7  and  C6_8 
REMARK    4  A    between atoms: C7_11  and  C8_12 
REMARK    5  A    between atoms: C9_13  and  C10_14 
ROOT
HETATM    1  C6  UNL     1      13.629  56.884   3.817  1.00  0.00     0.119 A 
HETATM    2  N2  UNL     1      13.497  57.817   4.775  1.00  0.00    -0.328 N 
ATOM      3  H2  UNL     1      13.571  57.576   5.763  1.00  0.00     0.169 HD
HETATM    4  C7  UNL     1      13.263  59.076   4.382  1.00  0.00     0.107 A 
HETATM    5  N3  UNL     1      13.151  59.484   3.112  1.00  0.00    -0.342 N 
ATOM      6  H3  UNL     1      12.967  60.460   2.881  1.00  0.00     0.167 HD
HETATM    7  C17 UNL     1      13.293  58.556   2.162  1.00  0.00     0.047 A 
HETATM    8  C18 UNL     1      13.186  58.949   0.833  1.00  0.00     0.030 A 
HETATM    9  C19 UNL     1      13.331  58.043  -0.220  1.00  0.00     0.002 A 
HETATM   10  C20 UNL     1      13.598  56.708   0.051  1.00  0.00     0.001 A 
HETATM   11  C21 UNL     1      13.710  56.289   1.377  1.00  0.00     0.017 A 
HETATM   12  C22 UNL     1      13.547  57.207   2.448  1.00  0.00     0.035 A 
ENDROOT
BRANCH   4  13
HETATM   13  C8  UNL     1      13.125  60.112   5.406  1.00  0.00     0.049 C 
HETATM   14  C9  UNL     1      13.139  59.879   6.728  1.00  0.00     0.016 C 
BRANCH  14  15
HETATM   15  C10 UNL     1      12.991  60.954   7.721  1.00  0.00    -0.016 A 
HETATM   16  C11 UNL     1      14.032  61.889   7.860  1.00  0.00     0.052 A 
HETATM   17  C12 UNL     1      13.899  62.885   8.805  1.00  0.00     0.105 A 
HETATM   18  C13 UNL     1      12.783  62.983   9.602  1.00  0.00     0.106 A 
HETATM   19  O3  UNL     1      14.811  63.859   9.065  1.00  0.00    -0.323 OA
HETATM   20  C14 UNL     1      11.741  62.087   9.507  1.00  0.00     0.059 A 
HETATM   21  O2  UNL     1      12.854  64.034  10.462  1.00  0.00    -0.323 OA
HETATM   22  C15 UNL     1      11.851  61.061   8.558  1.00  0.00     0.024 A 
HETATM   23 BR1  UNL     1      10.399  59.836   8.442  1.00  0.00    -0.050 Br
HETATM   24  C16 UNL     1      14.143  64.585  10.118  1.00  0.00     0.352 A 
ENDBRANCH  14  15
ENDBRANCH   4  13
BRANCH   1  25
HETATM   25  N1  UNL     1      13.837  55.526   4.191  1.00  0.00    -0.342 N 
HETATM   26  H5  UNL     1      13.114  55.263   4.853  1.00  0.00     0.167 HD
BRANCH  25  27
HETATM   27  C5  UNL     1      15.061  54.876   4.477  1.00  0.00     0.036 A 
HETATM   28  C4  UNL     1      16.304  55.411   4.111  1.00  0.00     0.029 A 
HETATM   29  C3  UNL     1      17.493  54.713   4.351  1.00  0.00     0.005 A 
HETATM   30  C2  UNL     1      17.452  53.454   4.942  1.00  0.00     0.036 A 
HETATM   31  C1  UNL     1      16.225  52.896   5.272  1.00  0.00     0.067 A 
HETATM   32  C23 UNL     1      15.035  53.586   5.034  1.00  0.00     0.066 A 
BRANCH  31  33
HETATM   33  O1  UNL     1      16.225  51.650   5.831  1.00  0.00    -0.361 OA
HETATM   34  H1  UNL     1      15.308  51.386   6.006  1.00  0.00     0.217 HD
ENDBRANCH  31  33
ENDBRANCH  25  27
ENDBRANCH   1  25
TORSDOF 5
ENDMDL
MODEL 2
REMARK minimizedAffinity -6.79697943
REMARK CNNscore 0.586125255
REMARK CNNaffinity 6.34840393
REMARK  5 active torsions:
REMARK  status: ('A' for Active; 'I' for Inactive)
REMARK    1  A    between atoms: O1_1  and  C1_2 
REMARK    2  A    between atoms: C5_6  and  N1_7 
REMARK    3  A    between atoms: N1_7  and  C6_8 
REMARK    4  A    between atoms: C7_11  and  C8_12 
REMARK    5  A    between atoms: C9_13  and  C10_14 
ROOT
HETATM    1  C6  UNL     1      13.482  49.536  -2.320  1.00  0.00     0.119 A 
HETATM    2  N2  UNL     1      13.155  50.745  -1.831  1.00  0.00    -0.328 N 
ATOM      3  H2  UNL     1      12.791  50.852  -0.885  1.00  0.00     0.169 HD
HETATM    4  C7  UNL     1      13.325  51.802  -2.635  1.00  0.00     0.107 A 
HETATM    5  N3  UNL     1      13.797  51.757  -3.887  1.00  0.00    -0.342 N 
ATOM      6  H3  UNL     1      13.897  52.602  -4.449  1.00  0.00     0.167 HD
HETATM    7  C17 UNL     1      14.130  50.556  -4.366  1.00  0.00     0.047 A 
HETATM    8  C18 UNL     1      14.626  50.476  -5.663  1.00  0.00     0.030 A 
HETATM    9  C19 UNL     1      15.007  49.260  -6.235  1.00  0.00     0.002 A 
HETATM   10  C20 UNL     1      14.901  48.088  -5.499  1.00  0.00     0.001 A 
HETATM   11  C21 UNL     1      14.406  48.143  -4.196  1.00  0.00     0.017 A 
HETATM   12  C22 UNL     1      14.004  49.376  -3.619  1.00  0.00     0.035 A 
ENDROOT
BRANCH   4  13
HETATM   13  C8  UNL     1      12.986  53.130  -2.122  1.00  0.00     0.049 C 
HETATM   14  C9  UNL     1      13.837  54.166  -2.077  1.00  0.00     0.016 C 
BRANCH  14  15
HETATM   15  C10 UNL     1      13.452  55.482  -1.547  1.00  0.00    -0.016 A 
HETATM   16  C11 UNL     1      13.907  55.852  -0.268  1.00  0.00     0.052 A 
HETATM   17  C12 UNL     1      13.530  57.080   0.234  1.00  0.00     0.105 A 
HETATM   18  C13 UNL     1      12.730  57.940  -0.479  1.00  0.00     0.106 A 
HETATM   19  O3  UNL     1      13.881  57.583   1.448  1.00  0.00    -0.323 OA
HETATM   20  C14 UNL     1      12.254  57.619  -1.732  1.00  0.00     0.059 A 
HETATM   21  O2  UNL     1      12.480  59.094   0.196  1.00  0.00    -0.323 OA
HETATM   22  C15 UNL     1      12.618  56.376  -2.267  1.00  0.00     0.024 A 
HETATM   23 BR1  UNL     1      11.952  55.954  -3.999  1.00  0.00    -0.050 Br
HETATM   24  C16 UNL     1      13.211  58.861   1.419  1.00  0.00     0.352 A 
ENDBRANCH  14  15
ENDBRANCH   4  13
BRANCH   1  25
HETATM   25  N1  UNL     1      13.279  48.380  -1.514  1.00  0.00    -0.342 N 
HETATM   26  H5  UNL     1      14.050  47.741  -1.674  1.00  0.00     0.167 HD
BRANCH  25  27
HETATM   27  C5  UNL     1      12.071  47.683  -1.275  1.00  0.00     0.036 A 
HETATM   28  C4  UNL     1      10.821  48.317  -1.272  1.00  0.00     0.029 A 
HETATM   29  C3  UNL     1       9.651  47.612  -0.967  1.00  0.00     0.005 A 
HETATM   30  C2  UNL     1       9.720  46.262  -0.638  1.00  0.00     0.036 A 
HETATM   31  C1  UNL     1      10.956  45.633  -0.597  1.00  0.00     0.067 A 
HETATM   32  C23 UNL     1      12.126  46.330  -0.899  1.00  0.00     0.066 A 
BRANCH  31  33
HETATM   33  O1  UNL     1      10.984  44.312  -0.250  1.00  0.00    -0.361 OA
HETATM   34  H1  UNL     1      11.904  44.005  -0.260  1.00  0.00     0.217 HD
ENDBRANCH  31  33
ENDBRANCH  25  27
ENDBRANCH   1  25
TORSDOF 5
ENDMDL
MODEL 3
REMARK minimizedAffinity -7.42916965
REMARK CNNscore 0.561704457
REMARK CNNaffinity 6.55084562
REMARK  5 active torsions:
REMARK  status: ('A' for Active; 'I' for Inactive)
REMARK    1  A    between atoms: O1_1  and  C1_2 
REMARK    2  A    between atoms: C5_6  and  N1_7 
REMARK    3  A    between atoms: N1_7  and  C6_8 
REMARK    4  A    between atoms: C7_11  and  C8_12 
REMARK    5  A    between atoms: C9_13  and  C10_14 
ROOT
HETATM    1  C6  UNL     1      11.765  54.728  -2.732  1.00  0.00     0.119 A 
HETATM    2  N2  UNL     1      12.272  54.953  -1.508  1.00  0.00    -0.328 N 
ATOM      3  H2  UNL     1      12.822  54.243  -1.025  1.00  0.00     0.169 HD
HETATM    4  C7  UNL     1      12.027  56.143  -0.947  1.00  0.00     0.107 A 
HETATM    5  N3  UNL     1      11.318  57.133  -1.505  1.00  0.00    -0.342 N 
ATOM      6  H3  UNL     1      11.164  58.016  -1.020  1.00  0.00     0.167 HD
HETATM    7  C17 UNL     1      10.824  56.911  -2.725  1.00  0.00     0.047 A 
HETATM    8  C18 UNL     1      10.086  57.921  -3.334  1.00  0.00     0.030 A 
HETATM    9  C19 UNL     1       9.544  57.772  -4.612  1.00  0.00     0.002 A 
HETATM   10  C20 UNL     1       9.743  56.591  -5.313  1.00  0.00     0.001 A 
HETATM   11  C21 UNL     1      10.480  55.564  -4.724  1.00  0.00     0.017 A 
HETATM   12  C22 UNL     1      11.019  55.708  -3.419  1.00  0.00     0.035 A 
ENDROOT
BRANCH   4  13
HETATM   13  C8  UNL     1      12.577  56.415   0.381  1.00  0.00     0.049 C 
HETATM   14  C9  UNL     1      12.809  57.643   0.869  1.00  0.00     0.016 C 
BRANCH  14  15
HETATM   15  C10 UNL     1      13.369  57.868   2.210  1.00  0.00    -0.016 A 
HETATM   16  C11 UNL     1      13.754  56.751   2.975  1.00  0.00     0.052 A 
HETATM   17  C12 UNL     1      14.262  56.964   4.239  1.00  0.00     0.105 A 
HETATM   18  C13 UNL     1      14.401  58.228   4.761  1.00  0.00     0.106 A 
HETATM   19  O3  UNL     1      14.675  55.997   5.101  1.00  0.00    -0.323 OA
HETATM   20  C14 UNL     1      14.031  59.351   4.054  1.00  0.00     0.059 A 
HETATM   21  O2  UNL     1      14.922  58.213   6.017  1.00  0.00    -0.323 OA
HETATM   22  C15 UNL     1      13.508  59.165   2.767  1.00  0.00     0.024 A 
HETATM   23 BR1  UNL     1      13.006  60.730   1.807  1.00  0.00    -0.050 Br
HETATM   24  C16 UNL     1      15.092  56.795   6.228  1.00  0.00     0.352 A 
ENDBRANCH  14  15
ENDBRANCH   4  13
BRANCH   1  25
HETATM   25  N1  UNL     1      11.966  53.461  -3.349  1.00  0.00    -0.342 N 
HETATM   26  H5  UNL     1      11.243  53.329  -4.048  1.00  0.00     0.167 HD
BRANCH  25  27
HETATM   27  C5  UNL     1      12.323  52.237  -2.735  1.00  0.00     0.036 A 
HETATM   28  C4  UNL     1      13.622  51.714  -2.793  1.00  0.00     0.029 A 
HETATM   29  C3  UNL     1      13.928  50.469  -2.231  1.00  0.00     0.005 A 
HETATM   30  C2  UNL     1      12.928  49.718  -1.621  1.00  0.00     0.036 A 
HETATM   31  C1  UNL     1      11.630  50.207  -1.594  1.00  0.00     0.067 A 
HETATM   32  C23 UNL     1      11.317  51.446  -2.153  1.00  0.00     0.066 A 
BRANCH  31  33
HETATM   33  O1  UNL     1      10.673  49.431  -1.005  1.00  0.00    -0.361 OA
HETATM   34  H1  UNL     1       9.820  49.890  -1.059  1.00  0.00     0.217 HD
ENDBRANCH  31  33
ENDBRANCH  25  27
ENDBRANCH   1  25
TORSDOF 5
ENDMDL
MODEL 4
REMARK minimizedAffinity -7.41870785
REMARK CNNscore 0.560676277
REMARK CNNaffinity 6.06601572
REMARK  5 active torsions:
REMARK  status: ('A' for Active; 'I' for Inactive)
REMARK    1  A    between atoms: O1_1  and  C1_2 
REMARK    2  A    between atoms: C5_6  and  N1_7 
REMARK    3  A    between atoms: N1_7  and  C6_8 
REMARK    4  A    between atoms: C7_11  and  C8_12 
REMARK    5  A    between atoms: C9_13  and  C10_14 
ROOT
HETATM    1  C6  UNL     1      12.242  54.412  -2.121  1.00  0.00     0.119 A 
HETATM    2  N2  UNL     1      11.940  53.110  -2.258  1.00  0.00    -0.328 N 
ATOM      3  H2  UNL     1      10.973  52.797  -2.347  1.00  0.00     0.169 HD
HETATM    4  C7  UNL     1      12.956  52.239  -2.272  1.00  0.00     0.107 A 
HETATM    5  N3  UNL     1      14.252  52.557  -2.163  1.00  0.00    -0.342 N 
ATOM      6  H3  UNL     1      14.979  51.842  -2.176  1.00  0.00     0.167 HD
HETATM    7  C17 UNL     1      14.550  53.853  -2.037  1.00  0.00     0.047 A 
HETATM    8  C18 UNL     1      15.887  54.216  -1.925  1.00  0.00     0.030 A 
HETATM    9  C19 UNL     1      16.284  55.550  -1.800  1.00  0.00     0.002 A 
HETATM   10  C20 UNL     1      15.326  56.555  -1.793  1.00  0.00     0.001 A 
HETATM   11  C21 UNL     1      13.979  56.216  -1.904  1.00  0.00     0.017 A 
HETATM   12  C22 UNL     1      13.574  54.860  -2.016  1.00  0.00     0.035 A 
ENDROOT
BRANCH   4  13
HETATM   13  C8  UNL     1      12.654  50.816  -2.430  1.00  0.00     0.049 C 
HETATM   14  C9  UNL     1      12.221  50.018  -1.442  1.00  0.00     0.016 C 
BRANCH  14  15
HETATM   15  C10 UNL     1      11.935  48.590  -1.647  1.00  0.00    -0.016 A 
HETATM   16  C11 UNL     1      10.595  48.164  -1.636  1.00  0.00     0.052 A 
HETATM   17  C12 UNL     1      10.330  46.822  -1.811  1.00  0.00     0.105 A 
HETATM   18  C13 UNL     1      11.336  45.903  -1.994  1.00  0.00     0.106 A 
HETATM   19  O3  UNL     1       9.096  46.251  -1.824  1.00  0.00    -0.323 OA
HETATM   20  C14 UNL     1      12.664  46.271  -2.005  1.00  0.00     0.059 A 
HETATM   21  O2  UNL     1      10.858  44.639  -2.148  1.00  0.00    -0.323 OA
HETATM   22  C15 UNL     1      12.963  47.629  -1.826  1.00  0.00     0.024 A 
HETATM   23 BR1  UNL     1      14.802  48.116  -1.846  1.00  0.00    -0.050 Br
HETATM   24  C16 UNL     1       9.437  44.866  -2.037  1.00  0.00     0.352 A 
ENDBRANCH  14  15
ENDBRANCH   4  13
BRANCH   1  25
HETATM   25  N1  UNL     1      11.189  55.369  -2.059  1.00  0.00    -0.342 N 
HETATM   26  H5  UNL     1      10.454  54.996  -1.468  1.00  0.00     0.167 HD
BRANCH  25  27
HETATM   27  C5  UNL     1      10.660  56.155  -3.110  1.00  0.00     0.036 A 
HETATM   28  C4  UNL     1      10.147  57.443  -2.906  1.00  0.00     0.029 A 
HETATM   29  C3  UNL     1       9.571  58.169  -3.954  1.00  0.00     0.005 A 
HETATM   30  C2  UNL     1       9.479  57.604  -5.222  1.00  0.00     0.036 A 
HETATM   31  C1  UNL     1       9.945  56.313  -5.428  1.00  0.00     0.067 A 
HETATM   32  C23 UNL     1      10.520  55.583  -4.387  1.00  0.00     0.066 A 
BRANCH  31  33
HETATM   33  O1  UNL     1       9.819  55.785  -6.681  1.00  0.00    -0.361 OA
HETATM   34  H1  UNL     1      10.180  54.886  -6.680  1.00  0.00     0.217 HD
ENDBRANCH  31  33
ENDBRANCH  25  27
ENDBRANCH   1  25
TORSDOF 5
ENDMDL
MODEL 5
REMARK minimizedAffinity -6.39247608
REMARK CNNscore 0.554330885
REMARK CNNaffinity 6.52363729
REMARK  5 active torsions:
REMARK  status: ('A' for Active; 'I' for Inactive)
REMARK    1  A    between atoms: O1_1  and  C1_2 
REMARK    2  A    between atoms: C5_6  and  N1_7 
REMARK    3  A    between atoms: N1_7  and  C6_8 
REMARK    4  A    between atoms: C7_11  and  C8_12 
REMARK    5  A    between atoms: C9_13  and  C10_14 
ROOT
HETATM    1  C6  UNL     1      11.930  55.083  -1.762  1.00  0.00     0.119 A 
HETATM    2  N2  UNL     1      12.655  55.404  -0.677  1.00  0.00    -0.328 N 
ATOM      3  H2  UNL     1      13.180  54.697  -0.163  1.00  0.00     0.169 HD
HETATM    4  C7  UNL     1      12.660  56.687  -0.296  1.00  0.00     0.107 A 
HETATM    5  N3  UNL     1      12.004  57.681  -0.908  1.00  0.00    -0.342 N 
ATOM      6  H3  UNL     1      12.047  58.639  -0.562  1.00  0.00     0.167 HD
HETATM    7  C17 UNL     1      11.293  57.361  -1.991  1.00  0.00     0.047 A 
HETATM    8  C18 UNL     1      10.603  58.372  -2.651  1.00  0.00     0.030 A 
HETATM    9  C19 UNL     1       9.844  58.123  -3.798  1.00  0.00     0.002 A 
HETATM   10  C20 UNL     1       9.772  56.834  -4.310  1.00  0.00     0.001 A 
HETATM   11  C21 UNL     1      10.456  55.804  -3.666  1.00  0.00     0.017 A 
HETATM   12  C22 UNL     1      11.215  56.054  -2.492  1.00  0.00     0.035 A 
ENDROOT
BRANCH   4  13
HETATM   13  C8  UNL     1      13.450  57.063   0.877  1.00  0.00     0.049 C 
HETATM   14  C9  UNL     1      14.503  56.369   1.337  1.00  0.00     0.016 C 
BRANCH  14  15
HETATM   15  C10 UNL     1      15.264  56.784   2.525  1.00  0.00    -0.016 A 
HETATM   16  C11 UNL     1      14.812  56.372   3.791  1.00  0.00     0.052 A 
HETATM   17  C12 UNL     1      15.518  56.776   4.905  1.00  0.00     0.105 A 
HETATM   18  C13 UNL     1      16.641  57.563   4.805  1.00  0.00     0.106 A 
HETATM   19  O3  UNL     1      15.212  56.468   6.194  1.00  0.00    -0.323 OA
HETATM   20  C14 UNL     1      17.118  57.997   3.587  1.00  0.00     0.059 A 
HETATM   21  O2  UNL     1      17.184  57.845   6.019  1.00  0.00    -0.323 OA
HETATM   22  C15 UNL     1      16.418  57.604   2.438  1.00  0.00     0.024 A 
HETATM   23 BR1  UNL     1      17.096  58.213   0.767  1.00  0.00    -0.050 Br
HETATM   24  C16 UNL     1      16.272  57.149   6.897  1.00  0.00     0.352 A 
ENDBRANCH  14  15
ENDBRANCH   4  13
BRANCH   1  25
HETATM   25  N1  UNL     1      11.862  53.723  -2.178  1.00  0.00    -0.342 N 
HETATM   26  H5  UNL     1      11.632  53.154  -1.371  1.00  0.00     0.167 HD
BRANCH  25  27
HETATM   27  C5  UNL     1      12.724  53.037  -3.067  1.00  0.00     0.036 A 
HETATM   28  C4  UNL     1      12.322  52.629  -4.346  1.00  0.00     0.029 A 
HETATM   29  C3  UNL     1      13.177  51.895  -5.175  1.00  0.00     0.005 A 
HETATM   30  C2  UNL     1      14.444  51.539  -4.725  1.00  0.00     0.036 A 
HETATM   31  C1  UNL     1      14.839  51.901  -3.445  1.00  0.00     0.067 A 
HETATM   32  C23 UNL     1      13.991  52.632  -2.612  1.00  0.00     0.066 A 
BRANCH  31  33
HETATM   33  O1  UNL     1      16.082  51.515  -3.032  1.00  0.00    -0.361 OA
HETATM   34  H1  UNL     1      16.223  51.831  -2.127  1.00  0.00     0.217 HD
ENDBRANCH  31  33
ENDBRANCH  25  27
ENDBRANCH   1  25
TORSDOF 5
ENDMDL
MODEL 6
REMARK minimizedAffinity -7.1435914
REMARK CNNscore 0.552243948
REMARK CNNaffinity 6.38314056
REMARK  5 active torsions:
REMARK  status: ('A' for Active; 'I' for Inactive)
REMARK    1  A    between atoms: O1_1  and  C1_2 
REMARK    2  A    between atoms: C5_6  and  N1_7 
REMARK    3  A    between atoms: N1_7  and  C6_8 
REMARK    4  A    between atoms: C7_11  and  C8_12 
REMARK    5  A    between atoms: C9_13  and  C10_14 
ROOT
HETATM    1  C6  UNL     1      11.518  56.155  -1.608  1.00  0.00     0.119 A 
HETATM    2  N2  UNL     1      11.774  56.749  -0.430  1.00  0.00    -0.328 N 
ATOM      3  H2  UNL     1      11.109  57.399  -0.010  1.00  0.00     0.169 HD
HETATM    4  C7  UNL     1      12.934  56.456   0.170  1.00  0.00     0.107 A 
HETATM    5  N3  UNL     1      13.863  55.618  -0.305  1.00  0.00    -0.342 N 
ATOM      6  H3  UNL     1      14.731  55.442   0.201  1.00  0.00     0.167 HD
HETATM    7  C17 UNL     1      13.602  55.021  -1.471  1.00  0.00     0.047 A 
HETATM    8  C18 UNL     1      14.546  54.141  -1.989  1.00  0.00     0.030 A 
HETATM    9  C19 UNL     1      14.345  53.469  -3.197  1.00  0.00     0.002 A 
HETATM   10  C20 UNL     1      13.171  53.668  -3.910  1.00  0.00     0.001 A 
HETATM   11  C21 UNL     1      12.209  54.546  -3.411  1.00  0.00     0.017 A 
HETATM   12  C22 UNL     1      12.419  55.241  -2.191  1.00  0.00     0.035 A 
ENDROOT
BRANCH   4  13
HETATM   13  C8  UNL     1      13.231  57.083   1.458  1.00  0.00     0.049 C 
HETATM   14  C9  UNL     1      13.577  56.411   2.567  1.00  0.00     0.016 C 
BRANCH  14  15
HETATM   15  C10 UNL     1      13.861  57.085   3.843  1.00  0.00    -0.016 A 
HETATM   16  C11 UNL     1      13.579  58.458   3.957  1.00  0.00     0.052 A 
HETATM   17  C12 UNL     1      13.863  59.091   5.149  1.00  0.00     0.105 A 
HETATM   18  C13 UNL     1      14.408  58.417   6.215  1.00  0.00     0.106 A 
HETATM   19  O3  UNL     1      13.653  60.408   5.418  1.00  0.00    -0.323 OA
HETATM   20  C14 UNL     1      14.708  57.074   6.149  1.00  0.00     0.059 A 
HETATM   21  O2  UNL     1      14.607  59.226   7.290  1.00  0.00    -0.323 OA
HETATM   22  C15 UNL     1      14.434  56.405   4.948  1.00  0.00     0.024 A 
HETATM   23 BR1  UNL     1      14.855  54.550   4.880  1.00  0.00    -0.050 Br
HETATM   24  C16 UNL     1      14.127  60.487   6.778  1.00  0.00     0.352 A 
ENDBRANCH  14  15
ENDBRANCH   4  13
BRANCH   1  25
HETATM   25  N1  UNL     1      10.315  56.469  -2.301  1.00  0.00    -0.342 N 
HETATM   26  H5  UNL     1       9.852  55.600  -2.546  1.00  0.00     0.167 HD
BRANCH  25  27
HETATM   27  C5  UNL     1      10.108  57.462  -3.288  1.00  0.00     0.036 A 
HETATM   28  C4  UNL     1       9.094  57.369  -4.251  1.00  0.00     0.029 A 
HETATM   29  C3  UNL     1       8.956  58.335  -5.254  1.00  0.00     0.005 A 
HETATM   30  C2  UNL     1       9.849  59.400  -5.320  1.00  0.00     0.036 A 
HETATM   31  C1  UNL     1      10.882  59.480  -4.397  1.00  0.00     0.067 A 
HETATM   32  C23 UNL     1      11.026  58.520  -3.395  1.00  0.00     0.066 A 
BRANCH  31  33
HETATM   33  O1  UNL     1      11.751  60.528  -4.508  1.00  0.00    -0.361 OA
HETATM   34  H1  UNL     1      12.416  60.459  -3.806  1.00  0.00     0.217 HD
ENDBRANCH  31  33
ENDBRANCH  25  27
ENDBRANCH   1  25
TORSDOF 5
ENDMDL
MODEL 7
REMARK minimizedAffinity -7.79645681
REMARK CNNscore 0.537684321
REMARK CNNaffinity 5.95152283
REMARK  5 active torsions:
REMARK  status: ('A' for Active; 'I' for Inactive)
REMARK    1  A    between atoms: O1_1  and  C1_2 
REMARK    2  A    between atoms: C5_6  and  N1_7 
REMARK    3  A    between atoms: N1_7  and  C6_8 
REMARK    4  A    between atoms: C7_11  and  C8_12 
REMARK    5  A    between atoms: C9_13  and  C10_14 
ROOT
HETATM    1  C6  UNL     1      12.234  54.409  -2.129  1.00  0.00     0.119 A 
HETATM    2  N2  UNL     1      11.756  53.153  -2.130  1.00  0.00    -0.328 N 
ATOM      3  H2  UNL     1      10.753  52.968  -2.118  1.00  0.00     0.169 HD
HETATM    4  C7  UNL     1      12.647  52.154  -2.149  1.00  0.00     0.107 A 
HETATM    5  N3  UNL     1      13.978  52.301  -2.168  1.00  0.00    -0.342 N 
ATOM      6  H3  UNL     1      14.602  51.496  -2.176  1.00  0.00     0.167 HD
HETATM    7  C17 UNL     1      14.449  53.550  -2.176  1.00  0.00     0.047 A 
HETATM    8  C18 UNL     1      15.827  53.737  -2.199  1.00  0.00     0.030 A 
HETATM    9  C19 UNL     1      16.401  55.010  -2.219  1.00  0.00     0.002 A 
HETATM   10  C20 UNL     1      15.585  56.134  -2.224  1.00  0.00     0.001 A 
HETATM   11  C21 UNL     1      14.200  55.972  -2.201  1.00  0.00     0.017 A 
HETATM   12  C22 UNL     1      13.617  54.679  -2.166  1.00  0.00     0.035 A 
ENDROOT
BRANCH   4  13
HETATM   13  C8  UNL     1      12.151  50.777  -2.161  1.00  0.00     0.049 C 
HETATM   14  C9  UNL     1      10.862  50.434  -2.017  1.00  0.00     0.016 C 
BRANCH  14  15
HETATM   15  C10 UNL     1      10.411  49.034  -2.030  1.00  0.00    -0.016 A 
HETATM   16  C11 UNL     1      10.820  48.185  -0.985  1.00  0.00     0.052 A 
HETATM   17  C12 UNL     1      10.410  46.868  -1.010  1.00  0.00     0.105 A 
HETATM   18  C13 UNL     1       9.620  46.374  -2.020  1.00  0.00     0.106 A 
HETATM   19  O3  UNL     1      10.719  45.924  -0.082  1.00  0.00    -0.323 OA
HETATM   20  C14 UNL     1       9.201  47.165  -3.068  1.00  0.00     0.059 A 
HETATM   21  O2  UNL     1       9.330  45.056  -1.852  1.00  0.00    -0.323 OA
HETATM   22  C15 UNL     1       9.605  48.507  -3.072  1.00  0.00     0.024 A 
HETATM   23 BR1  UNL     1       9.013  49.581  -4.527  1.00  0.00    -0.050 Br
HETATM   24  C16 UNL     1      10.031  44.776  -0.621  1.00  0.00     0.352 A 
ENDBRANCH  14  15
ENDBRANCH   4  13
BRANCH   1  25
HETATM   25  N1  UNL     1      11.323  55.501  -2.068  1.00  0.00    -0.342 N 
HETATM   26  H5  UNL     1      10.644  55.310  -1.338  1.00  0.00     0.167 HD
BRANCH  25  27
HETATM   27  C5  UNL     1      10.739  56.214  -3.143  1.00  0.00     0.036 A 
HETATM   28  C4  UNL     1      10.163  57.482  -2.984  1.00  0.00     0.029 A 
HETATM   29  C3  UNL     1       9.536  58.132  -4.052  1.00  0.00     0.005 A 
HETATM   30  C2  UNL     1       9.458  57.511  -5.295  1.00  0.00     0.036 A 
HETATM   31  C1  UNL     1       9.989  56.239  -5.454  1.00  0.00     0.067 A 
HETATM   32  C23 UNL     1      10.614  55.583  -4.392  1.00  0.00     0.066 A 
BRANCH  31  33
HETATM   33  O1  UNL     1       9.875  55.653  -6.683  1.00  0.00    -0.361 OA
HETATM   34  H1  UNL     1      10.283  54.774  -6.650  1.00  0.00     0.217 HD
ENDBRANCH  31  33
ENDBRANCH  25  27
ENDBRANCH   1  25
TORSDOF 5
ENDMDL
MODEL 8
REMARK minimizedAffinity -7.73524666
REMARK CNNscore 0.532884181
REMARK CNNaffinity 6.77543974
REMARK  5 active torsions:
REMARK  status: ('A' for Active; 'I' for Inactive)
REMARK    1  A    between atoms: O1_1  and  C1_2 
REMARK    2  A    between atoms: C5_6  and  N1_7 
REMARK    3  A    between atoms: N1_7  and  C6_8 
REMARK    4  A    between atoms: C7_11  and  C8_12 
REMARK    5  A    between atoms: C9_13  and  C10_14 
ROOT
HETATM    1  C6  UNL     1      13.389  57.836   3.036  1.00  0.00     0.119 A 
HETATM    2  N2  UNL     1      13.259  57.139   1.895  1.00  0.00    -0.328 N 
ATOM      3  H2  UNL     1      13.327  56.121   1.885  1.00  0.00     0.169 HD
HETATM    4  C7  UNL     1      13.036  57.830   0.770  1.00  0.00     0.107 A 
HETATM    5  N3  UNL     1      12.930  59.162   0.687  1.00  0.00    -0.342 N 
ATOM      6  H3  UNL     1      12.765  59.629  -0.204  1.00  0.00     0.167 HD
HETATM    7  C17 UNL     1      13.050  59.852   1.824  1.00  0.00     0.047 A 
HETATM    8  C18 UNL     1      12.941  61.237   1.771  1.00  0.00     0.030 A 
HETATM    9  C19 UNL     1      13.044  62.032   2.916  1.00  0.00     0.002 A 
HETATM   10  C20 UNL     1      13.255  61.435   4.152  1.00  0.00     0.001 A 
HETATM   11  C21 UNL     1      13.367  60.048   4.230  1.00  0.00     0.017 A 
HETATM   12  C22 UNL     1      13.277  59.241   3.065  1.00  0.00     0.035 A 
ENDROOT
BRANCH   4  13
HETATM   13  C8  UNL     1      12.881  57.092  -0.484  1.00  0.00     0.049 C 
HETATM   14  C9  UNL     1      11.867  56.254  -0.750  1.00  0.00     0.016 C 
BRANCH  14  15
HETATM   15  C10 UNL     1      11.756  55.529  -2.024  1.00  0.00    -0.016 A 
HETATM   16  C11 UNL     1      12.377  54.272  -2.140  1.00  0.00     0.052 A 
HETATM   17  C12 UNL     1      12.286  53.602  -3.342  1.00  0.00     0.105 A 
HETATM   18  C13 UNL     1      11.608  54.129  -4.416  1.00  0.00     0.106 A 
HETATM   19  O3  UNL     1      12.829  52.386  -3.617  1.00  0.00    -0.323 OA
HETATM   20  C14 UNL     1      10.990  55.359  -4.353  1.00  0.00     0.059 A 
HETATM   21  O2  UNL     1      11.639  53.308  -5.499  1.00  0.00    -0.323 OA
HETATM   22  C15 UNL     1      11.070  56.065  -3.144  1.00  0.00     0.024 A 
HETATM   23 BR1  UNL     1      10.208  57.760  -3.079  1.00  0.00    -0.050 Br
HETATM   24  C16 UNL     1      12.416  52.205  -4.987  1.00  0.00     0.352 A 
ENDBRANCH  14  15
ENDBRANCH   4  13
BRANCH   1  25
HETATM   25  N1  UNL     1      13.668  57.144   4.248  1.00  0.00    -0.342 N 
HETATM   26  H5  UNL     1      13.635  57.812   5.011  1.00  0.00     0.167 HD
BRANCH  25  27
HETATM   27  C5  UNL     1      14.640  56.142   4.479  1.00  0.00     0.036 A 
HETATM   28  C4  UNL     1      15.995  56.318   4.165  1.00  0.00     0.029 A 
HETATM   29  C3  UNL     1      16.920  55.284   4.346  1.00  0.00     0.005 A 
HETATM   30  C2  UNL     1      16.497  54.048   4.824  1.00  0.00     0.036 A 
HETATM   31  C1  UNL     1      15.152  53.849   5.100  1.00  0.00     0.067 A 
HETATM   32  C23 UNL     1      14.223  54.875   4.921  1.00  0.00     0.066 A 
BRANCH  31  33
HETATM   33  O1  UNL     1      14.772  52.616   5.548  1.00  0.00    -0.361 OA
HETATM   34  H1  UNL     1      13.814  52.618   5.696  1.00  0.00     0.217 HD
ENDBRANCH  31  33
ENDBRANCH  25  27
ENDBRANCH   1  25
TORSDOF 5
ENDMDL
MODEL 9
REMARK minimizedAffinity -6.81054688
REMARK CNNscore 0.521191657
REMARK CNNaffinity 6.48866653
REMARK  5 active torsions:
REMARK  status: ('A' for Active; 'I' for Inactive)
REMARK    1  A    between atoms: O1_1  and  C1_2 
REMARK    2  A    between atoms: C5_6  and  N1_7 
REMARK    3  A    between atoms: N1_7  and  C6_8 
REMARK    4  A    between atoms: C7_11  and  C8_12 
REMARK    5  A    between atoms: C9_13  and  C10_14 
ROOT
HETATM    1  C6  UNL     1      11.941  55.216  -1.669  1.00  0.00     0.119 A 
HETATM    2  N2  UNL     1      12.664  55.570  -0.593  1.00  0.00    -0.328 N 
ATOM      3  H2  UNL     1      13.154  54.873  -0.032  1.00  0.00     0.169 HD
HETATM    4  C7  UNL     1      12.715  56.871  -0.284  1.00  0.00     0.107 A 
HETATM    5  N3  UNL     1      12.107  57.854  -0.961  1.00  0.00    -0.342 N 
ATOM      6  H3  UNL     1      12.183  58.827  -0.668  1.00  0.00     0.167 HD
HETATM    7  C17 UNL     1      11.398  57.501  -2.035  1.00  0.00     0.047 A 
HETATM    8  C18 UNL     1      10.758  58.499  -2.762  1.00  0.00     0.030 A 
HETATM    9  C19 UNL     1      10.005  58.215  -3.904  1.00  0.00     0.002 A 
HETATM   10  C20 UNL     1       9.889  56.903  -4.345  1.00  0.00     0.001 A 
HETATM   11  C21 UNL     1      10.523  55.885  -3.633  1.00  0.00     0.017 A 
HETATM   12  C22 UNL     1      11.275  56.171  -2.464  1.00  0.00     0.035 A 
ENDROOT
BRANCH   4  13
HETATM   13  C8  UNL     1      13.503  57.282   0.878  1.00  0.00     0.049 C 
HETATM   14  C9  UNL     1      12.983  57.778   2.011  1.00  0.00     0.016 C 
BRANCH  14  15
HETATM   15  C10 UNL     1      13.817  58.184   3.153  1.00  0.00    -0.016 A 
HETATM   16  C11 UNL     1      14.213  59.530   3.252  1.00  0.00     0.052 A 
HETATM   17  C12 UNL     1      15.010  59.904   4.314  1.00  0.00     0.105 A 
HETATM   18  C13 UNL     1      15.419  59.000   5.266  1.00  0.00     0.106 A 
HETATM   19  O3  UNL     1      15.479  61.158   4.551  1.00  0.00    -0.323 OA
HETATM   20  C14 UNL     1      15.062  57.671   5.207  1.00  0.00     0.059 A 
HETATM   21  O2  UNL     1      16.194  59.575   6.224  1.00  0.00    -0.323 OA
HETATM   22  C15 UNL     1      14.256  57.261   4.137  1.00  0.00     0.024 A 
HETATM   23 BR1  UNL     1      13.773  55.421   4.076  1.00  0.00    -0.050 Br
HETATM   24  C16 UNL     1      16.230  60.943   5.764  1.00  0.00     0.352 A 
ENDBRANCH  14  15
ENDBRANCH   4  13
BRANCH   1  25
HETATM   25  N1  UNL     1      11.826  53.839  -2.010  1.00  0.00    -0.342 N 
HETATM   26  H5  UNL     1      11.519  53.332  -1.186  1.00  0.00     0.167 HD
BRANCH  25  27
HETATM   27  C5  UNL     1      12.700  53.058  -2.802  1.00  0.00     0.036 A 
HETATM   28  C4  UNL     1      12.875  53.278  -4.175  1.00  0.00     0.029 A 
HETATM   29  C3  UNL     1      13.698  52.446  -4.944  1.00  0.00     0.005 A 
HETATM   30  C2  UNL     1      14.342  51.365  -4.350  1.00  0.00     0.036 A 
HETATM   31  C1  UNL     1      14.145  51.113  -3.000  1.00  0.00     0.067 A 
HETATM   32  C23 UNL     1      13.324  51.937  -2.228  1.00  0.00     0.066 A 
BRANCH  31  33
HETATM   33  O1  UNL     1      14.777  50.031  -2.458  1.00  0.00    -0.361 OA
HETATM   34  H1  UNL     1      14.550  49.974  -1.517  1.00  0.00     0.217 HD
ENDBRANCH  31  33
ENDBRANCH  25  27
ENDBRANCH   1  25
TORSDOF 5
ENDMDL
