MODEL 1
REMARK minimizedAffinity -8.51075745
REMARK  8 active torsions:
REMARK  status: ('A' for Active; 'I' for Inactive)
REMARK    1  A    between atoms: O1_2  and  C2_3 
REMARK    2  A    between atoms: C5_6  and  N1_7 
REMARK    3  A    between atoms: N1_7  and  C6_8 
REMARK    4  A    between atoms: C17_24  and  O3_25 
REMARK    5  A    between atoms: O3_25  and  C18_26 
REMARK    6  A    between atoms: C18_26  and  C19_27 
REMARK    7  A    between atoms: C19_27  and  C20_28 
REMARK    8  A    between atoms: C20_28  and  N4_29 
ROOT
HETATM    1  C2  UNL     1      -1.349  50.146 -20.707  1.00  0.00     0.102 A 
HETATM    2  C3  UNL     1      -0.737  50.963 -19.755  1.00  0.00     0.056 A 
HETATM    3  C4  UNL     1       0.069  52.062 -20.146  1.00  0.00     0.032 A 
HETATM    4  C5  UNL     1       0.725  52.935 -19.258  1.00  0.00     0.098 A 
HETATM    5  N2  UNL     1       1.466  53.970 -19.690  1.00  0.00    -0.342 N 
ATOM      6  H2  UNL     1       1.909  54.620 -19.040  1.00  0.00     0.167 HD
HETATM    7  C14 UNL     1       1.594  54.105 -21.011  1.00  0.00     0.182 A 
HETATM    8  N3  UNL     1       1.021  53.337 -21.944  1.00  0.00    -0.351 N 
ATOM      9  H3  UNL     1       1.154  53.514 -22.940  1.00  0.00     0.166 HD
HETATM   10  C15 UNL     1       0.264  52.325 -21.506  1.00  0.00     0.049 A 
HETATM   11  C16 UNL     1      -0.354  51.509 -22.443  1.00  0.00     0.070 A 
HETATM   12  C17 UNL     1      -1.158  50.426 -22.069  1.00  0.00     0.104 A 
ENDROOT
BRANCH   4  13
HETATM   13  N1  UNL     1       0.500  52.787 -17.859  1.00  0.00    -0.242 NA
HETATM   14  H5  UNL     1       0.079  53.657 -17.546  1.00  0.00     0.135 HD
BRANCH  13  15
HETATM   15  C6  UNL     1       1.455  52.321 -16.920  1.00  0.00     0.049 A 
HETATM   16  C7  UNL     1       2.740  52.906 -16.894  1.00  0.00     0.027 A 
HETATM   17  C8  UNL     1       3.719  52.526 -15.969  1.00  0.00     0.003 A 
HETATM   18  C9  UNL     1       3.447  51.563 -14.993  1.00  0.00     0.014 A 
HETATM   19  C10 UNL     1       2.162  51.000 -14.943  1.00  0.00     0.001 A 
HETATM   20  C11 UNL     1       1.514  50.056 -14.101  1.00  0.00     0.039 A 
HETATM   21  C13 UNL     1       1.215  51.395 -15.887  1.00  0.00     0.106 A 
HETATM   22  C12 UNL     1       0.222  49.954 -14.556  1.00  0.00     0.143 A 
HETATM   23  O2  UNL     1       0.028  50.768 -15.624  1.00  0.00    -0.320 OA
ENDBRANCH  13  15
ENDBRANCH   4  13
BRANCH   1  24
HETATM   24  O1  UNL     1      -2.144  49.068 -20.413  1.00  0.00    -0.353 OA
HETATM   25  C1  UNL     1      -1.533  47.948 -19.788  1.00  0.00     0.210 C 
ENDBRANCH   1  24
BRANCH  12  26
HETATM   26  O3  UNL     1      -1.798  49.591 -22.952  1.00  0.00    -0.348 OA
BRANCH  26  27
HETATM   27  C18 UNL     1      -2.891  50.123 -23.704  1.00  0.00     0.177 C 
BRANCH  27  28
HETATM   28  C19 UNL     1      -2.309  50.993 -24.815  1.00  0.00     0.057 C 
BRANCH  28  29
HETATM   29  C20 UNL     1      -1.858  50.222 -26.063  1.00  0.00     0.274 C 
BRANCH  29  30
HETATM   30  N4  UNL     1      -1.017  50.980 -27.003  1.00  0.00     0.092 N 
HETATM   31  C21 UNL     1       0.416  50.902 -26.639  1.00  0.00     0.298 C 
HETATM   32  C22 UNL     1       0.922  52.136 -25.875  1.00  0.00     0.198 C 
HETATM   33  O4  UNL     1       0.771  53.361 -26.609  1.00  0.00    -0.388 OA
HETATM   34  C23 UNL     1      -0.270  53.299 -27.592  1.00  0.00     0.198 C 
HETATM   35  C24 UNL     1      -1.431  52.389 -27.160  1.00  0.00     0.298 C 
ENDBRANCH  29  30
ENDBRANCH  28  29
ENDBRANCH  27  28
ENDBRANCH  26  27
ENDBRANCH  12  26
TORSDOF 8
ENDMDL
MODEL 2
REMARK minimizedAffinity -8.34358597
REMARK  8 active torsions:
REMARK  status: ('A' for Active; 'I' for Inactive)
REMARK    1  A    between atoms: O1_2  and  C2_3 
REMARK    2  A    between atoms: C5_6  and  N1_7 
REMARK    3  A    between atoms: N1_7  and  C6_8 
REMARK    4  A    between atoms: C17_24  and  O3_25 
REMARK    5  A    between atoms: O3_25  and  C18_26 
REMARK    6  A    between atoms: C18_26  and  C19_27 
REMARK    7  A    between atoms: C19_27  and  C20_28 
REMARK    8  A    between atoms: C20_28  and  N4_29 
ROOT
HETATM    1  C2  UNL     1      -3.363  49.765 -25.958  1.00  0.00     0.102 A 
HETATM    2  C3  UNL     1      -2.465  50.234 -24.997  1.00  0.00     0.056 A 
HETATM    3  C4  UNL     1      -1.311  50.966 -25.372  1.00  0.00     0.032 A 
HETATM    4  C5  UNL     1      -0.353  51.474 -24.475  1.00  0.00     0.098 A 
HETATM    5  N2  UNL     1       0.718  52.172 -24.892  1.00  0.00    -0.342 N 
ATOM      6  H2  UNL     1       1.388  52.568 -24.232  1.00  0.00     0.167 HD
HETATM    7  C14 UNL     1       0.859  52.323 -26.209  1.00  0.00     0.182 A 
HETATM    8  N3  UNL     1       0.016  51.883 -27.151  1.00  0.00    -0.351 N 
ATOM      9  H3  UNL     1       0.185  52.052 -28.143  1.00  0.00     0.166 HD
HETATM   10  C15 UNL     1      -1.059  51.211 -26.726  1.00  0.00     0.049 A 
HETATM   11  C16 UNL     1      -1.961  50.744 -27.672  1.00  0.00     0.070 A 
HETATM   12  C17 UNL     1      -3.110  50.029 -27.313  1.00  0.00     0.104 A 
ENDROOT
BRANCH   4  13
HETATM   13  N1  UNL     1      -0.586  51.342 -23.076  1.00  0.00    -0.242 NA
HETATM   14  H5  UNL     1      -1.595  51.364 -22.955  1.00  0.00     0.135 HD
BRANCH  13  15
HETATM   15  C6  UNL     1       0.062  52.092 -22.062  1.00  0.00     0.049 A 
HETATM   16  C7  UNL     1       0.752  53.273 -22.412  1.00  0.00     0.027 A 
HETATM   17  C8  UNL     1       1.379  54.086 -21.461  1.00  0.00     0.003 A 
HETATM   18  C9  UNL     1       1.313  53.777 -20.099  1.00  0.00     0.014 A 
HETATM   19  C10 UNL     1       0.584  52.645 -19.701  1.00  0.00     0.001 A 
HETATM   20  C11 UNL     1       0.264  52.048 -18.452  1.00  0.00     0.039 A 
HETATM   21  C13 UNL     1      -0.020  51.853 -20.677  1.00  0.00     0.106 A 
HETATM   22  C12 UNL     1      -0.527  50.961 -18.733  1.00  0.00     0.143 A 
HETATM   23  O2  UNL     1      -0.715  50.843 -20.071  1.00  0.00    -0.320 OA
ENDBRANCH  13  15
ENDBRANCH   4  13
BRANCH   1  24
HETATM   24  O1  UNL     1      -4.503  49.055 -25.679  1.00  0.00    -0.353 OA
HETATM   25  C1  UNL     1      -5.101  49.242 -24.403  1.00  0.00     0.210 C 
ENDBRANCH   1  24
BRANCH  12  26
HETATM   26  O3  UNL     1      -4.038  49.550 -28.205  1.00  0.00    -0.348 OA
BRANCH  26  27
HETATM   27  C18 UNL     1      -4.291  48.143 -28.216  1.00  0.00     0.177 C 
BRANCH  27  28
HETATM   28  C19 UNL     1      -5.524  47.901 -29.082  1.00  0.00     0.057 C 
BRANCH  28  29
HETATM   29  C20 UNL     1      -5.425  48.458 -30.508  1.00  0.00     0.274 C 
BRANCH  29  30
HETATM   30  N4  UNL     1      -5.791  47.519 -31.580  1.00  0.00     0.092 N 
HETATM   31  C21 UNL     1      -4.662  47.283 -32.508  1.00  0.00     0.298 C 
HETATM   32  C22 UNL     1      -4.749  48.110 -33.802  1.00  0.00     0.198 C 
HETATM   33  O4  UNL     1      -5.939  47.854 -34.562  1.00  0.00    -0.388 OA
HETATM   34  C23 UNL     1      -7.019  47.357 -33.760  1.00  0.00     0.198 C 
HETATM   35  C24 UNL     1      -6.997  47.924 -32.332  1.00  0.00     0.298 C 
ENDBRANCH  29  30
ENDBRANCH  28  29
ENDBRANCH  27  28
ENDBRANCH  26  27
ENDBRANCH  12  26
TORSDOF 8
ENDMDL
MODEL 3
REMARK minimizedAffinity -8.27887154
REMARK  8 active torsions:
REMARK  status: ('A' for Active; 'I' for Inactive)
REMARK    1  A    between atoms: O1_2  and  C2_3 
REMARK    2  A    between atoms: C5_6  and  N1_7 
REMARK    3  A    between atoms: N1_7  and  C6_8 
REMARK    4  A    between atoms: C17_24  and  O3_25 
REMARK    5  A    between atoms: O3_25  and  C18_26 
REMARK    6  A    between atoms: C18_26  and  C19_27 
REMARK    7  A    between atoms: C19_27  and  C20_28 
REMARK    8  A    between atoms: C20_28  and  N4_29 
ROOT
HETATM    1  C2  UNL     1      -1.145  49.918 -20.087  1.00  0.00     0.102 A 
HETATM    2  C3  UNL     1      -0.553  50.868 -19.252  1.00  0.00     0.056 A 
HETATM    3  C4  UNL     1       0.148  51.976 -19.789  1.00  0.00     0.032 A 
HETATM    4  C5  UNL     1       0.776  52.978 -19.025  1.00  0.00     0.098 A 
HETATM    5  N2  UNL     1       1.417  54.014 -19.594  1.00  0.00    -0.342 N 
ATOM      6  H2  UNL     1       1.838  54.755 -19.033  1.00  0.00     0.167 HD
HETATM    7  C14 UNL     1       1.475  54.025 -20.926  1.00  0.00     0.182 A 
HETATM    8  N3  UNL     1       0.920  53.128 -21.749  1.00  0.00    -0.351 N 
ATOM      9  H3  UNL     1       0.994  53.213 -22.763  1.00  0.00     0.166 HD
HETATM   10  C15 UNL     1       0.262  52.115 -21.176  1.00  0.00     0.049 A 
HETATM   11  C16 UNL     1      -0.334  51.166 -21.997  1.00  0.00     0.070 A 
HETATM   12  C17 UNL     1      -1.037  50.073 -21.478  1.00  0.00     0.104 A 
ENDROOT
BRANCH   4  13
HETATM   13  N1  UNL     1       0.627  52.955 -17.609  1.00  0.00    -0.242 NA
HETATM   14  H5  UNL     1       0.375  53.901 -17.336  1.00  0.00     0.135 HD
BRANCH  13  15
HETATM   15  C6  UNL     1       1.555  52.395 -16.695  1.00  0.00     0.049 A 
HETATM   16  C7  UNL     1       2.873  52.901 -16.653  1.00  0.00     0.027 A 
HETATM   17  C8  UNL     1       3.830  52.426 -15.750  1.00  0.00     0.003 A 
HETATM   18  C9  UNL     1       3.505  51.442 -14.812  1.00  0.00     0.014 A 
HETATM   19  C10 UNL     1       2.188  50.954 -14.778  1.00  0.00     0.001 A 
HETATM   20  C11 UNL     1       1.488  50.016 -13.972  1.00  0.00     0.039 A 
HETATM   21  C13 UNL     1       1.263  51.444 -15.699  1.00  0.00     0.106 A 
HETATM   22  C12 UNL     1       0.191  50.010 -14.424  1.00  0.00     0.143 A 
HETATM   23  O2  UNL     1       0.042  50.877 -15.455  1.00  0.00    -0.320 OA
ENDBRANCH  13  15
ENDBRANCH   4  13
BRANCH   1  24
HETATM   24  O1  UNL     1      -1.842  48.822 -19.649  1.00  0.00    -0.353 OA
HETATM   25  C1  UNL     1      -2.256  48.803 -18.289  1.00  0.00     0.210 C 
ENDBRANCH   1  24
BRANCH  12  26
HETATM   26  O3  UNL     1      -1.651  49.110 -22.242  1.00  0.00    -0.348 OA
BRANCH  26  27
HETATM   27  C18 UNL     1      -2.539  49.542 -23.275  1.00  0.00     0.177 C 
BRANCH  27  28
HETATM   28  C19 UNL     1      -3.553  48.425 -23.511  1.00  0.00     0.057 C 
BRANCH  28  29
HETATM   29  C20 UNL     1      -4.533  48.682 -24.664  1.00  0.00     0.274 C 
BRANCH  29  30
HETATM   30  N4  UNL     1      -4.115  48.164 -25.975  1.00  0.00     0.092 N 
HETATM   31  C21 UNL     1      -2.924  48.879 -26.490  1.00  0.00     0.298 C 
HETATM   32  C22 UNL     1      -3.262  49.971 -27.518  1.00  0.00     0.198 C 
HETATM   33  O4  UNL     1      -3.948  49.470 -28.676  1.00  0.00    -0.388 OA
HETATM   34  C23 UNL     1      -4.656  48.249 -28.421  1.00  0.00     0.198 C 
HETATM   35  C24 UNL     1      -5.194  48.173 -26.984  1.00  0.00     0.298 C 
ENDBRANCH  29  30
ENDBRANCH  28  29
ENDBRANCH  27  28
ENDBRANCH  26  27
ENDBRANCH  12  26
TORSDOF 8
ENDMDL
MODEL 4
REMARK minimizedAffinity -8.20938778
REMARK  8 active torsions:
REMARK  status: ('A' for Active; 'I' for Inactive)
REMARK    1  A    between atoms: O1_2  and  C2_3 
REMARK    2  A    between atoms: C5_6  and  N1_7 
REMARK    3  A    between atoms: N1_7  and  C6_8 
REMARK    4  A    between atoms: C17_24  and  O3_25 
REMARK    5  A    between atoms: O3_25  and  C18_26 
REMARK    6  A    between atoms: C18_26  and  C19_27 
REMARK    7  A    between atoms: C19_27  and  C20_28 
REMARK    8  A    between atoms: C20_28  and  N4_29 
ROOT
HETATM    1  C2  UNL     1      -0.917  49.631 -19.762  1.00  0.00     0.102 A 
HETATM    2  C3  UNL     1      -0.373  50.666 -18.999  1.00  0.00     0.056 A 
HETATM    3  C4  UNL     1       0.172  51.819 -19.616  1.00  0.00     0.032 A 
HETATM    4  C5  UNL     1       0.742  52.907 -18.928  1.00  0.00     0.098 A 
HETATM    5  N2  UNL     1       1.232  53.981 -19.571  1.00  0.00    -0.342 N 
ATOM      6  H2  UNL     1       1.611  54.781 -19.063  1.00  0.00     0.167 HD
HETATM    7  C14 UNL     1       1.199  53.950 -20.904  1.00  0.00     0.182 A 
HETATM    8  N3  UNL     1       0.686  52.972 -21.659  1.00  0.00    -0.351 N 
ATOM      9  H3  UNL     1       0.683  53.027 -22.678  1.00  0.00     0.166 HD
HETATM   10  C15 UNL     1       0.177  51.918 -21.012  1.00  0.00     0.049 A 
HETATM   11  C16 UNL     1      -0.371  50.885 -21.760  1.00  0.00     0.070 A 
HETATM   12  C17 UNL     1      -0.921  49.746 -21.162  1.00  0.00     0.104 A 
ENDROOT
BRANCH   4  13
HETATM   13  N1  UNL     1       0.692  52.920 -17.505  1.00  0.00    -0.242 NA
HETATM   14  H5  UNL     1       0.441  53.869 -17.240  1.00  0.00     0.135 HD
BRANCH  13  15
HETATM   15  C6  UNL     1       1.691  52.402 -16.644  1.00  0.00     0.049 A 
HETATM   16  C7  UNL     1       3.012  52.892 -16.746  1.00  0.00     0.027 A 
HETATM   17  C8  UNL     1       4.041  52.457 -15.902  1.00  0.00     0.003 A 
HETATM   18  C9  UNL     1       3.790  51.533 -14.883  1.00  0.00     0.014 A 
HETATM   19  C10 UNL     1       2.477  51.066 -14.707  1.00  0.00     0.001 A 
HETATM   20  C11 UNL     1       1.843  50.186 -13.790  1.00  0.00     0.039 A 
HETATM   21  C13 UNL     1       1.479  51.514 -15.572  1.00  0.00     0.106 A 
HETATM   22  C12 UNL     1       0.511  50.171 -14.126  1.00  0.00     0.143 A 
HETATM   23  O2  UNL     1       0.280  50.979 -15.190  1.00  0.00    -0.320 OA
ENDBRANCH  13  15
ENDBRANCH   4  13
BRANCH   1  24
HETATM   24  O1  UNL     1      -1.467  48.486 -19.244  1.00  0.00    -0.353 OA
HETATM   25  C1  UNL     1      -2.609  48.621 -18.410  1.00  0.00     0.210 C 
ENDBRANCH   1  24
BRANCH  12  26
HETATM   26  O3  UNL     1      -1.481  48.699 -21.851  1.00  0.00    -0.348 OA
BRANCH  26  27
HETATM   27  C18 UNL     1      -2.820  48.851 -22.326  1.00  0.00     0.177 C 
BRANCH  27  28
HETATM   28  C19 UNL     1      -2.748  49.287 -23.787  1.00  0.00     0.057 C 
BRANCH  28  29
HETATM   29  C20 UNL     1      -3.265  50.706 -24.059  1.00  0.00     0.274 C 
BRANCH  29  30
HETATM   30  N4  UNL     1      -2.442  51.513 -24.973  1.00  0.00     0.092 N 
HETATM   31  C21 UNL     1      -3.204  51.922 -26.176  1.00  0.00     0.298 C 
HETATM   32  C22 UNL     1      -2.927  51.042 -27.405  1.00  0.00     0.198 C 
HETATM   33  O4  UNL     1      -1.546  51.035 -27.801  1.00  0.00    -0.388 OA
HETATM   34  C23 UNL     1      -0.655  51.350 -26.723  1.00  0.00     0.198 C 
HETATM   35  C24 UNL     1      -1.179  50.856 -25.365  1.00  0.00     0.298 C 
ENDBRANCH  29  30
ENDBRANCH  28  29
ENDBRANCH  27  28
ENDBRANCH  26  27
ENDBRANCH  12  26
TORSDOF 8
ENDMDL
MODEL 5
REMARK minimizedAffinity -8.20670795
REMARK  8 active torsions:
REMARK  status: ('A' for Active; 'I' for Inactive)
REMARK    1  A    between atoms: O1_2  and  C2_3 
REMARK    2  A    between atoms: C5_6  and  N1_7 
REMARK    3  A    between atoms: N1_7  and  C6_8 
REMARK    4  A    between atoms: C17_24  and  O3_25 
REMARK    5  A    between atoms: O3_25  and  C18_26 
REMARK    6  A    between atoms: C18_26  and  C19_27 
REMARK    7  A    between atoms: C19_27  and  C20_28 
REMARK    8  A    between atoms: C20_28  and  N4_29 
ROOT
HETATM    1  C2  UNL     1      -1.202  51.773 -21.607  1.00  0.00     0.102 A 
HETATM    2  C3  UNL     1      -1.864  51.970 -22.820  1.00  0.00     0.056 A 
HETATM    3  C4  UNL     1      -1.193  52.534 -23.934  1.00  0.00     0.032 A 
HETATM    4  C5  UNL     1      -1.780  52.771 -25.192  1.00  0.00     0.098 A 
HETATM    5  N2  UNL     1      -1.088  53.298 -26.216  1.00  0.00    -0.342 N 
ATOM      6  H2  UNL     1      -1.511  53.433 -27.135  1.00  0.00     0.167 HD
HETATM    7  C14 UNL     1       0.179  53.636 -25.972  1.00  0.00     0.182 A 
HETATM    8  N3  UNL     1       0.837  53.460 -24.821  1.00  0.00    -0.351 N 
ATOM      9  H3  UNL     1       1.815  53.731 -24.715  1.00  0.00     0.166 HD
HETATM   10  C15 UNL     1       0.148  52.912 -23.814  1.00  0.00     0.049 A 
HETATM   11  C16 UNL     1       0.798  52.706 -22.605  1.00  0.00     0.070 A 
HETATM   12  C17 UNL     1       0.149  52.141 -21.500  1.00  0.00     0.104 A 
ENDROOT
BRANCH   4  13
HETATM   13  N1  UNL     1      -3.116  52.331 -25.419  1.00  0.00    -0.242 NA
HETATM   14  H5  UNL     1      -3.664  52.677 -24.636  1.00  0.00     0.135 HD
BRANCH  13  15
HETATM   15  C6  UNL     1      -3.497  51.008 -25.758  1.00  0.00     0.049 A 
HETATM   16  C7  UNL     1      -2.942  50.403 -26.906  1.00  0.00     0.027 A 
HETATM   17  C8  UNL     1      -3.239  49.087 -27.279  1.00  0.00     0.003 A 
HETATM   18  C9  UNL     1      -4.083  48.293 -26.496  1.00  0.00     0.014 A 
HETATM   19  C10 UNL     1      -4.608  48.836 -25.312  1.00  0.00     0.001 A 
HETATM   20  C11 UNL     1      -5.439  48.345 -24.268  1.00  0.00     0.039 A 
HETATM   21  C13 UNL     1      -4.298  50.153 -24.976  1.00  0.00     0.106 A 
HETATM   22  C12 UNL     1      -5.561  49.367 -23.359  1.00  0.00     0.143 A 
HETATM   23  O2  UNL     1      -4.866  50.456 -23.770  1.00  0.00    -0.320 OA
ENDBRANCH  13  15
ENDBRANCH   4  13
BRANCH   1  24
HETATM   24  O1  UNL     1      -1.775  51.231 -20.486  1.00  0.00    -0.353 OA
HETATM   25  C1  UNL     1      -3.120  50.781 -20.583  1.00  0.00     0.210 C 
ENDBRANCH   1  24
BRANCH  12  26
HETATM   26  O3  UNL     1       0.743  51.910 -20.284  1.00  0.00    -0.348 OA
BRANCH  26  27
HETATM   27  C18 UNL     1       0.831  53.001 -19.364  1.00  0.00     0.177 C 
BRANCH  27  28
HETATM   28  C19 UNL     1       0.564  52.450 -17.966  1.00  0.00     0.057 C 
BRANCH  28  29
HETATM   29  C20 UNL     1       1.762  52.523 -17.009  1.00  0.00     0.274 C 
BRANCH  29  30
HETATM   30  N4  UNL     1       1.760  51.535 -15.919  1.00  0.00     0.092 N 
HETATM   31  C21 UNL     1       0.460  51.506 -15.210  1.00  0.00     0.298 C 
HETATM   32  C22 UNL     1       0.461  52.305 -13.897  1.00  0.00     0.198 C 
HETATM   33  O4  UNL     1       1.434  51.840 -12.948  1.00  0.00    -0.388 OA
HETATM   34  C23 UNL     1       2.534  51.157 -13.565  1.00  0.00     0.198 C 
HETATM   35  C24 UNL     1       2.866  51.718 -14.957  1.00  0.00     0.298 C 
ENDBRANCH  29  30
ENDBRANCH  28  29
ENDBRANCH  27  28
ENDBRANCH  26  27
ENDBRANCH  12  26
TORSDOF 8
ENDMDL
MODEL 6
REMARK minimizedAffinity -8.18932724
REMARK  8 active torsions:
REMARK  status: ('A' for Active; 'I' for Inactive)
REMARK    1  A    between atoms: O1_2  and  C2_3 
REMARK    2  A    between atoms: C5_6  and  N1_7 
REMARK    3  A    between atoms: N1_7  and  C6_8 
REMARK    4  A    between atoms: C17_24  and  O3_25 
REMARK    5  A    between atoms: O3_25  and  C18_26 
REMARK    6  A    between atoms: C18_26  and  C19_27 
REMARK    7  A    between atoms: C19_27  and  C20_28 
REMARK    8  A    between atoms: C20_28  and  N4_29 
ROOT
HETATM    1  C2  UNL     1      -2.447  50.183 -26.711  1.00  0.00     0.102 A 
HETATM    2  C3  UNL     1      -1.946  50.374 -25.422  1.00  0.00     0.056 A 
HETATM    3  C4  UNL     1      -2.498  49.684 -24.314  1.00  0.00     0.032 A 
HETATM    4  C5  UNL     1      -2.059  49.816 -22.983  1.00  0.00     0.098 A 
HETATM    5  N2  UNL     1      -2.616  49.124 -21.975  1.00  0.00    -0.342 N 
ATOM      6  H2  UNL     1      -2.268  49.198 -21.018  1.00  0.00     0.167 HD
HETATM    7  C14 UNL     1      -3.645  48.335 -22.286  1.00  0.00     0.182 A 
HETATM    8  N3  UNL     1      -4.146  48.134 -23.510  1.00  0.00    -0.351 N 
ATOM      9  H3  UNL     1      -4.929  47.500 -23.672  1.00  0.00     0.166 HD
HETATM   10  C15 UNL     1      -3.570  48.808 -24.511  1.00  0.00     0.049 A 
HETATM   11  C16 UNL     1      -4.057  48.622 -25.798  1.00  0.00     0.070 A 
HETATM   12  C17 UNL     1      -3.514  49.291 -26.901  1.00  0.00     0.104 A 
ENDROOT
BRANCH   4  13
HETATM   13  N1  UNL     1      -0.914  50.621 -22.716  1.00  0.00    -0.242 NA
HETATM   14  H5  UNL     1      -0.124  50.136 -23.133  1.00  0.00     0.135 HD
BRANCH  13  15
HETATM   15  C6  UNL     1      -0.567  51.158 -21.451  1.00  0.00     0.049 A 
HETATM   16  C7  UNL     1      -0.892  50.437 -20.281  1.00  0.00     0.027 A 
HETATM   17  C8  UNL     1      -0.545  50.884 -19.002  1.00  0.00     0.003 A 
HETATM   18  C9  UNL     1       0.184  52.065 -18.829  1.00  0.00     0.014 A 
HETATM   19  C10 UNL     1       0.582  52.783 -19.969  1.00  0.00     0.001 A 
HETATM   20  C11 UNL     1       1.341  53.963 -20.195  1.00  0.00     0.039 A 
HETATM   21  C13 UNL     1       0.210  52.311 -21.228  1.00  0.00     0.106 A 
HETATM   22  C12 UNL     1       1.409  54.124 -21.558  1.00  0.00     0.143 A 
HETATM   23  O2  UNL     1       0.743  53.125 -22.189  1.00  0.00    -0.320 OA
ENDBRANCH  13  15
ENDBRANCH   4  13
BRANCH   1  24
HETATM   24  O1  UNL     1      -1.968  50.807 -27.834  1.00  0.00    -0.353 OA
HETATM   25  C1  UNL     1      -0.682  51.407 -27.758  1.00  0.00     0.210 C 
ENDBRANCH   1  24
BRANCH  12  26
HETATM   26  O3  UNL     1      -3.951  49.140 -28.194  1.00  0.00    -0.348 OA
BRANCH  26  27
HETATM   27  C18 UNL     1      -5.058  48.267 -28.429  1.00  0.00     0.177 C 
BRANCH  27  28
HETATM   28  C19 UNL     1      -5.146  48.023 -29.933  1.00  0.00     0.057 C 
BRANCH  28  29
HETATM   29  C20 UNL     1      -6.311  47.124 -30.370  1.00  0.00     0.274 C 
BRANCH  29  30
HETATM   30  N4  UNL     1      -6.310  46.735 -31.788  1.00  0.00     0.092 N 
HETATM   31  C21 UNL     1      -4.941  46.450 -32.276  1.00  0.00     0.298 C 
HETATM   32  C22 UNL     1      -4.311  47.620 -33.049  1.00  0.00     0.198 C 
HETATM   33  O4  UNL     1      -5.066  48.008 -34.208  1.00  0.00    -0.388 OA
HETATM   34  C23 UNL     1      -6.453  47.659 -34.114  1.00  0.00     0.198 C 
HETATM   35  C24 UNL     1      -6.976  47.716 -32.669  1.00  0.00     0.298 C 
ENDBRANCH  29  30
ENDBRANCH  28  29
ENDBRANCH  27  28
ENDBRANCH  26  27
ENDBRANCH  12  26
TORSDOF 8
ENDMDL
MODEL 7
REMARK minimizedAffinity -8.11210346
REMARK  8 active torsions:
REMARK  status: ('A' for Active; 'I' for Inactive)
REMARK    1  A    between atoms: O1_2  and  C2_3 
REMARK    2  A    between atoms: C5_6  and  N1_7 
REMARK    3  A    between atoms: N1_7  and  C6_8 
REMARK    4  A    between atoms: C17_24  and  O3_25 
REMARK    5  A    between atoms: O3_25  and  C18_26 
REMARK    6  A    between atoms: C18_26  and  C19_27 
REMARK    7  A    between atoms: C19_27  and  C20_28 
REMARK    8  A    between atoms: C20_28  and  N4_29 
ROOT
HETATM    1  C2  UNL     1      -0.158  51.893 -20.831  1.00  0.00     0.102 A 
HETATM    2  C3  UNL     1      -0.036  51.874 -19.440  1.00  0.00     0.056 A 
HETATM    3  C4  UNL     1      -0.411  50.732 -18.690  1.00  0.00     0.032 A 
HETATM    4  C5  UNL     1      -0.326  50.625 -17.289  1.00  0.00     0.098 A 
HETATM    5  N2  UNL     1      -0.686  49.507 -16.634  1.00  0.00    -0.342 N 
ATOM      6  H2  UNL     1      -0.587  49.425 -15.622  1.00  0.00     0.167 HD
HETATM    7  C14 UNL     1      -1.178  48.512 -17.373  1.00  0.00     0.182 A 
HETATM    8  N3  UNL     1      -1.307  48.504 -18.704  1.00  0.00    -0.351 N 
ATOM      9  H3  UNL     1      -1.680  47.695 -19.202  1.00  0.00     0.166 HD
HETATM   10  C15 UNL     1      -0.923  49.609 -19.351  1.00  0.00     0.049 A 
HETATM   11  C16 UNL     1      -1.035  49.638 -20.734  1.00  0.00     0.070 A 
HETATM   12  C17 UNL     1      -0.659  50.757 -21.486  1.00  0.00     0.104 A 
ENDROOT
BRANCH   4  13
HETATM   13  N1  UNL     1       0.269  51.691 -16.555  1.00  0.00    -0.242 NA
HETATM   14  H5  UNL     1       0.029  52.544 -17.052  1.00  0.00     0.135 HD
BRANCH  13  15
HETATM   15  C6  UNL     1       1.613  51.728 -16.106  1.00  0.00     0.049 A 
HETATM   16  C7  UNL     1       2.512  52.648 -16.690  1.00  0.00     0.027 A 
HETATM   17  C8  UNL     1       3.840  52.769 -16.270  1.00  0.00     0.003 A 
HETATM   18  C9  UNL     1       4.331  51.998 -15.211  1.00  0.00     0.014 A 
HETATM   19  C10 UNL     1       3.454  51.115 -14.561  1.00  0.00     0.001 A 
HETATM   20  C11 UNL     1       3.565  50.225 -13.458  1.00  0.00     0.039 A 
HETATM   21  C13 UNL     1       2.139  51.013 -15.013  1.00  0.00     0.106 A 
HETATM   22  C12 UNL     1       2.323  49.664 -13.287  1.00  0.00     0.143 A 
HETATM   23  O2  UNL     1       1.454  50.143 -14.211  1.00  0.00    -0.320 OA
ENDBRANCH  13  15
ENDBRANCH   4  13
BRANCH   1  24
HETATM   24  O1  UNL     1       0.185  52.954 -21.629  1.00  0.00    -0.353 OA
HETATM   25  C1  UNL     1       1.287  53.756 -21.224  1.00  0.00     0.210 C 
ENDBRANCH   1  24
BRANCH  12  26
HETATM   26  O3  UNL     1      -0.742  50.838 -22.855  1.00  0.00    -0.348 OA
BRANCH  26  27
HETATM   27  C18 UNL     1      -2.022  50.645 -23.460  1.00  0.00     0.177 C 
BRANCH  27  28
HETATM   28  C19 UNL     1      -1.971  51.257 -24.858  1.00  0.00     0.057 C 
BRANCH  28  29
HETATM   29  C20 UNL     1      -0.854  50.709 -25.756  1.00  0.00     0.274 C 
BRANCH  29  30
HETATM   30  N4  UNL     1      -0.025  51.725 -26.423  1.00  0.00     0.092 N 
HETATM   31  C21 UNL     1       0.847  52.436 -25.459  1.00  0.00     0.298 C 
HETATM   32  C22 UNL     1       0.293  53.803 -25.026  1.00  0.00     0.198 C 
HETATM   33  O4  UNL     1       0.100  54.711 -26.121  1.00  0.00    -0.388 OA
HETATM   34  C23 UNL     1      -0.086  54.043 -27.375  1.00  0.00     0.198 C 
HETATM   35  C24 UNL     1      -0.806  52.693 -27.219  1.00  0.00     0.298 C 
ENDBRANCH  29  30
ENDBRANCH  28  29
ENDBRANCH  27  28
ENDBRANCH  26  27
ENDBRANCH  12  26
TORSDOF 8
ENDMDL
MODEL 8
REMARK minimizedAffinity -8.03068638
REMARK  8 active torsions:
REMARK  status: ('A' for Active; 'I' for Inactive)
REMARK    1  A    between atoms: O1_2  and  C2_3 
REMARK    2  A    between atoms: C5_6  and  N1_7 
REMARK    3  A    between atoms: N1_7  and  C6_8 
REMARK    4  A    between atoms: C17_24  and  O3_25 
REMARK    5  A    between atoms: O3_25  and  C18_26 
REMARK    6  A    between atoms: C18_26  and  C19_27 
REMARK    7  A    between atoms: C19_27  and  C20_28 
REMARK    8  A    between atoms: C20_28  and  N4_29 
ROOT
HETATM    1  C2  UNL     1      -2.416  49.506 -26.181  1.00  0.00     0.102 A 
HETATM    2  C3  UNL     1      -3.132  49.036 -27.283  1.00  0.00     0.056 A 
HETATM    3  C4  UNL     1      -4.435  48.499 -27.132  1.00  0.00     0.032 A 
HETATM    4  C5  UNL     1      -5.227  48.001 -28.183  1.00  0.00     0.098 A 
HETATM    5  N2  UNL     1      -6.464  47.514 -27.978  1.00  0.00    -0.342 N 
ATOM      6  H2  UNL     1      -7.045  47.188 -28.750  1.00  0.00     0.167 HD
HETATM    7  C14 UNL     1      -6.892  47.479 -26.716  1.00  0.00     0.182 A 
HETATM    8  N3  UNL     1      -6.227  47.921 -25.642  1.00  0.00    -0.351 N 
ATOM      9  H3  UNL     1      -6.629  47.875 -24.706  1.00  0.00     0.166 HD
HETATM   10  C15 UNL     1      -5.008  48.427 -25.858  1.00  0.00     0.049 A 
HETATM   11  C16 UNL     1      -4.288  48.902 -24.770  1.00  0.00     0.070 A 
HETATM   12  C17 UNL     1      -3.005  49.443 -24.908  1.00  0.00     0.104 A 
ENDROOT
BRANCH   4  13
HETATM   13  N1  UNL     1      -4.749  48.123 -29.520  1.00  0.00    -0.242 NA
HETATM   14  H5  UNL     1      -4.507  49.102 -29.645  1.00  0.00     0.135 HD
BRANCH  13  15
HETATM   15  C6  UNL     1      -5.395  47.609 -30.672  1.00  0.00     0.049 A 
HETATM   16  C7  UNL     1      -4.818  46.519 -31.360  1.00  0.00     0.027 A 
HETATM   17  C8  UNL     1      -5.420  45.934 -32.479  1.00  0.00     0.003 A 
HETATM   18  C9  UNL     1      -6.657  46.388 -32.947  1.00  0.00     0.014 A 
HETATM   19  C10 UNL     1      -7.296  47.430 -32.255  1.00  0.00     0.001 A 
HETATM   20  C11 UNL     1      -8.535  48.112 -32.395  1.00  0.00     0.039 A 
HETATM   21  C13 UNL     1      -6.662  47.995 -31.150  1.00  0.00     0.106 A 
HETATM   22  C12 UNL     1      -8.595  49.020 -31.366  1.00  0.00     0.143 A 
HETATM   23  O2  UNL     1      -7.477  48.947 -30.602  1.00  0.00    -0.320 OA
ENDBRANCH  13  15
ENDBRANCH   4  13
BRANCH   1  24
HETATM   24  O1  UNL     1      -1.155  50.043 -26.242  1.00  0.00    -0.353 OA
HETATM   25  C1  UNL     1      -0.982  51.237 -26.993  1.00  0.00     0.210 C 
ENDBRANCH   1  24
BRANCH  12  26
HETATM   26  O3  UNL     1      -2.251  49.933 -23.870  1.00  0.00    -0.348 OA
BRANCH  26  27
HETATM   27  C18 UNL     1      -2.153  49.142 -22.684  1.00  0.00     0.177 C 
BRANCH  27  28
HETATM   28  C19 UNL     1      -1.677  50.054 -21.556  1.00  0.00     0.057 C 
BRANCH  28  29
HETATM   29  C20 UNL     1      -1.244  51.456 -22.006  1.00  0.00     0.274 C 
BRANCH  29  30
HETATM   30  N4  UNL     1       0.118  51.852 -21.616  1.00  0.00     0.092 N 
HETATM   31  C21 UNL     1       0.232  52.049 -20.152  1.00  0.00     0.298 C 
HETATM   32  C22 UNL     1       0.152  53.524 -19.726  1.00  0.00     0.198 C 
HETATM   33  O4  UNL     1       1.177  54.342 -20.311  1.00  0.00    -0.388 OA
HETATM   34  C23 UNL     1       1.685  53.807 -21.540  1.00  0.00     0.198 C 
HETATM   35  C24 UNL     1       0.614  53.043 -22.335  1.00  0.00     0.298 C 
ENDBRANCH  29  30
ENDBRANCH  28  29
ENDBRANCH  27  28
ENDBRANCH  26  27
ENDBRANCH  12  26
TORSDOF 8
ENDMDL
MODEL 9
REMARK minimizedAffinity -7.98975229
REMARK  8 active torsions:
REMARK  status: ('A' for Active; 'I' for Inactive)
REMARK    1  A    between atoms: O1_2  and  C2_3 
REMARK    2  A    between atoms: C5_6  and  N1_7 
REMARK    3  A    between atoms: N1_7  and  C6_8 
REMARK    4  A    between atoms: C17_24  and  O3_25 
REMARK    5  A    between atoms: O3_25  and  C18_26 
REMARK    6  A    between atoms: C18_26  and  C19_27 
REMARK    7  A    between atoms: C19_27  and  C20_28 
REMARK    8  A    between atoms: C20_28  and  N4_29 
ROOT
HETATM    1  C2  UNL     1      -0.534  50.857 -19.313  1.00  0.00     0.102 A 
HETATM    2  C3  UNL     1      -0.538  51.066 -20.693  1.00  0.00     0.056 A 
HETATM    3  C4  UNL     1       0.135  52.174 -21.266  1.00  0.00     0.032 A 
HETATM    4  C5  UNL     1       0.181  52.464 -22.643  1.00  0.00     0.098 A 
HETATM    5  N2  UNL     1       0.849  53.525 -23.128  1.00  0.00    -0.342 N 
ATOM      6  H2  UNL     1       0.908  53.709 -24.130  1.00  0.00     0.167 HD
HETATM    7  C14 UNL     1       1.430  54.327 -22.234  1.00  0.00     0.182 A 
HETATM    8  N3  UNL     1       1.448  54.152 -20.908  1.00  0.00    -0.351 N 
ATOM      9  H3  UNL     1       1.930  54.803 -20.288  1.00  0.00     0.166 HD
HETATM   10  C15 UNL     1       0.804  53.080 -20.436  1.00  0.00     0.049 A 
HETATM   11  C16 UNL     1       0.805  52.859 -19.065  1.00  0.00     0.070 A 
HETATM   12  C17 UNL     1       0.152  51.763 -18.489  1.00  0.00     0.104 A 
ENDROOT
BRANCH   4  13
HETATM   13  N1  UNL     1      -0.399  51.539 -23.558  1.00  0.00    -0.242 NA
HETATM   14  H5  UNL     1       0.016  50.636 -23.348  1.00  0.00     0.135 HD
BRANCH  13  15
HETATM   15  C6  UNL     1      -0.510  51.732 -24.958  1.00  0.00     0.049 A 
HETATM   16  C7  UNL     1      -1.755  52.111 -25.506  1.00  0.00     0.027 A 
HETATM   17  C8  UNL     1      -1.930  52.359 -26.872  1.00  0.00     0.003 A 
HETATM   18  C9  UNL     1      -0.852  52.277 -27.759  1.00  0.00     0.014 A 
HETATM   19  C10 UNL     1       0.418  51.964 -27.247  1.00  0.00     0.001 A 
HETATM   20  C11 UNL     1       1.718  51.833 -27.805  1.00  0.00     0.039 A 
HETATM   21  C13 UNL     1       0.552  51.714 -25.882  1.00  0.00     0.106 A 
HETATM   22  C12 UNL     1       2.561  51.544 -26.760  1.00  0.00     0.143 A 
HETATM   23  O2  UNL     1       1.869  51.484 -25.595  1.00  0.00    -0.320 OA
ENDBRANCH  13  15
ENDBRANCH   4  13
BRANCH   1  24
HETATM   24  O1  UNL     1      -1.156  49.810 -18.682  1.00  0.00    -0.353 OA
HETATM   25  C1  UNL     1      -2.562  49.894 -18.495  1.00  0.00     0.210 C 
ENDBRANCH   1  24
BRANCH  12  26
HETATM   26  O3  UNL     1       0.127  51.493 -17.143  1.00  0.00    -0.348 OA
BRANCH  26  27
HETATM   27  C18 UNL     1       1.060  52.179 -16.306  1.00  0.00     0.177 C 
BRANCH  27  28
HETATM   28  C19 UNL     1       1.627  51.165 -15.316  1.00  0.00     0.057 C 
BRANCH  28  29
HETATM   29  C20 UNL     1       0.961  51.178 -13.933  1.00  0.00     0.274 C 
BRANCH  29  30
HETATM   30  N4  UNL     1      -0.173  52.104 -13.786  1.00  0.00     0.092 N 
HETATM   31  C21 UNL     1      -0.059  52.915 -12.552  1.00  0.00     0.298 C 
HETATM   32  C22 UNL     1      -0.910  52.381 -11.388  1.00  0.00     0.198 C 
HETATM   33  O4  UNL     1      -2.313  52.321 -11.689  1.00  0.00    -0.388 OA
HETATM   34  C23 UNL     1      -2.579  52.220 -13.094  1.00  0.00     0.198 C 
HETATM   35  C24 UNL     1      -1.489  51.436 -13.843  1.00  0.00     0.298 C 
ENDBRANCH  29  30
ENDBRANCH  28  29
ENDBRANCH  27  28
ENDBRANCH  26  27
ENDBRANCH  12  26
TORSDOF 8
ENDMDL
