MODEL 1
REMARK minimizedAffinity -8.86858273
REMARK  7 active torsions:
REMARK  status: ('A' for Active; 'I' for Inactive)
REMARK    1  A    between atoms: C2_2  and  S1_3 
REMARK    2  A    between atoms: S1_3  and  C3_6 
REMARK    3  A    between atoms: C10_13  and  C11_14 
REMARK    4  A    between atoms: C14_18  and  C15_19 
REMARK    5  A    between atoms: C15_19  and  C16_20 
REMARK    6  A    between atoms: C16_20  and  C17_21 
REMARK    7  A    between atoms: C17_21  and  N2_22 
ROOT
HETATM    1  C3  UNL     1      -6.045   3.492  12.605  1.00  0.00     0.060 A 
HETATM    2  C4  UNL     1      -6.015   2.312  11.834  1.00  0.00     0.026 A 
HETATM    3  C5  UNL     1      -4.811   1.861  11.292  1.00  0.00     0.032 A 
HETATM    4  C6  UNL     1      -3.676   2.608  11.551  1.00  0.00     0.046 A 
HETATM    5  C7  UNL     1      -3.693   3.774  12.324  1.00  0.00     0.008 A 
HETATM    6  C8  UNL     1      -4.881   4.230  12.870  1.00  0.00     0.038 A 
HETATM    7  C9  UNL     1      -2.301   4.270  12.363  1.00  0.00     0.047 A 
HETATM    8  C10 UNL     1      -1.952   5.404  12.993  1.00  0.00     0.048 C 
HETATM    9  C24 UNL     1      -1.484   3.282  11.565  1.00  0.00     0.257 A 
HETATM   10  O3  UNL     1      -0.288   3.285  11.350  1.00  0.00    -0.267 OA
HETATM   11  N3  UNL     1      -2.388   2.333  11.113  1.00  0.00    -0.322 N 
HETATM   12  H31 UNL     1      -2.108   1.543  10.551  1.00  0.00     0.169 HD
ENDROOT
BRANCH   8  13
HETATM   13  C11 UNL     1      -0.680   6.037  13.093  1.00  0.00     0.040 A 
HETATM   14  N1  UNL     1      -0.027   6.192  14.296  1.00  0.00    -0.359 N 
HETATM   15  C12 UNL     1       1.169   6.820  14.099  1.00  0.00     0.016 A 
HETATM   16  H10 UNL     1      -0.368   5.876  15.199  1.00  0.00     0.166 HD
HETATM   17  C13 UNL     1       1.311   7.078  12.755  1.00  0.00    -0.027 A 
HETATM   18  C23 UNL     1       2.152   7.128  15.169  1.00  0.00     0.057 C 
HETATM   19  C14 UNL     1       0.135   6.600  12.108  1.00  0.00    -0.023 A 
HETATM   20  C20 UNL     1       2.516   7.762  12.199  1.00  0.00     0.041 C 
HETATM   21  C21 UNL     1       3.674   7.764  13.216  1.00  0.00     0.005 C 
HETATM   22  C22 UNL     1       3.200   8.125  14.637  1.00  0.00     0.006 C 
BRANCH  19  23
HETATM   23  C15 UNL     1      -0.145   6.691  10.636  1.00  0.00     0.043 C 
BRANCH  23  24
HETATM   24  C16 UNL     1       0.261   8.050  10.060  1.00  0.00     0.035 C 
BRANCH  24  25
HETATM   25  C17 UNL     1       0.404   8.055   8.530  1.00  0.00     0.271 C 
BRANCH  25  26
HETATM   26  N2  UNL     1       1.720   7.777   7.939  1.00  0.00     0.080 N 
HETATM   27  C18 UNL     1       2.574   6.922   8.751  1.00  0.00     0.309 C 
HETATM   28  C19 UNL     1       1.634   7.283   6.568  1.00  0.00     0.309 C 
ENDBRANCH  25  26
ENDBRANCH  24  25
ENDBRANCH  23  24
ENDBRANCH  19  23
ENDBRANCH   8  13
BRANCH   1  29
HETATM   29  S1  UNL     1      -7.585   4.040  13.314  1.00  0.00     0.175 S 
HETATM   30  O1  UNL     1      -8.638   3.200  12.778  1.00  0.00    -0.223 OA
HETATM   31  O2  UNL     1      -7.369   4.128  14.745  1.00  0.00    -0.223 OA
BRANCH  29  32
HETATM   32  C2  UNL     1      -7.803   5.693  12.689  1.00  0.00     0.141 C 
HETATM   33  C1  UNL     1      -8.876   5.803  11.625  1.00  0.00     0.021 C 
ENDBRANCH  29  32
ENDBRANCH   1  29
TORSDOF 7
ENDMDL
MODEL 2
REMARK minimizedAffinity -8.71779537
REMARK  7 active torsions:
REMARK  status: ('A' for Active; 'I' for Inactive)
REMARK    1  A    between atoms: C2_2  and  S1_3 
REMARK    2  A    between atoms: S1_3  and  C3_6 
REMARK    3  A    between atoms: C10_13  and  C11_14 
REMARK    4  A    between atoms: C14_18  and  C15_19 
REMARK    5  A    between atoms: C15_19  and  C16_20 
REMARK    6  A    between atoms: C16_20  and  C17_21 
REMARK    7  A    between atoms: C17_21  and  N2_22 
ROOT
HETATM    1  C3  UNL     1       2.553   6.756  11.360  1.00  0.00     0.060 A 
HETATM    2  C4  UNL     1       3.046   7.262  12.580  1.00  0.00     0.026 A 
HETATM    3  C5  UNL     1       2.289   7.138  13.746  1.00  0.00     0.032 A 
HETATM    4  C6  UNL     1       1.066   6.502  13.646  1.00  0.00     0.046 A 
HETATM    5  C7  UNL     1       0.572   5.987  12.442  1.00  0.00     0.008 A 
HETATM    6  C8  UNL     1       1.316   6.101  11.279  1.00  0.00     0.038 A 
HETATM    7  C9  UNL     1      -0.747   5.394  12.749  1.00  0.00     0.047 A 
HETATM    8  C10 UNL     1      -1.530   4.837  11.811  1.00  0.00     0.048 C 
HETATM    9  C24 UNL     1      -0.959   5.597  14.231  1.00  0.00     0.257 A 
HETATM   10  O3  UNL     1      -1.900   5.250  14.918  1.00  0.00    -0.267 OA
HETATM   11  N3  UNL     1       0.166   6.272  14.678  1.00  0.00    -0.322 N 
HETATM   12  H31 UNL     1       0.293   6.535  15.644  1.00  0.00     0.169 HD
ENDROOT
BRANCH   8  13
HETATM   13  C11 UNL     1      -2.828   4.263  11.929  1.00  0.00     0.040 A 
HETATM   14  N1  UNL     1      -3.095   2.963  11.565  1.00  0.00    -0.359 N 
HETATM   15  C12 UNL     1      -4.410   2.676  11.791  1.00  0.00     0.016 A 
HETATM   16  H10 UNL     1      -2.418   2.301  11.196  1.00  0.00     0.166 HD
HETATM   17  C13 UNL     1      -5.017   3.793  12.314  1.00  0.00    -0.027 A 
HETATM   18  C23 UNL     1      -5.047   1.357  11.540  1.00  0.00     0.057 C 
HETATM   19  C14 UNL     1      -4.027   4.814  12.391  1.00  0.00    -0.023 A 
HETATM   20  C20 UNL     1      -6.466   3.817  12.674  1.00  0.00     0.041 C 
HETATM   21  C21 UNL     1      -7.042   2.390  12.758  1.00  0.00     0.005 C 
HETATM   22  C22 UNL     1      -6.579   1.505  11.585  1.00  0.00     0.006 C 
BRANCH  19  23
HETATM   23  C15 UNL     1      -4.255   6.212  12.889  1.00  0.00     0.043 C 
BRANCH  23  24
HETATM   24  C16 UNL     1      -5.064   6.229  14.188  1.00  0.00     0.035 C 
BRANCH  24  25
HETATM   25  C17 UNL     1      -5.886   7.512  14.386  1.00  0.00     0.271 C 
BRANCH  25  26
HETATM   26  N2  UNL     1      -6.979   7.511  15.367  1.00  0.00     0.080 N 
HETATM   27  C18 UNL     1      -8.308   7.644  14.785  1.00  0.00     0.309 C 
HETATM   28  C19 UNL     1      -6.920   6.376  16.283  1.00  0.00     0.309 C 
ENDBRANCH  25  26
ENDBRANCH  24  25
ENDBRANCH  23  24
ENDBRANCH  19  23
ENDBRANCH   8  13
BRANCH   1  29
HETATM   29  S1  UNL     1       3.544   6.897   9.886  1.00  0.00     0.175 S 
HETATM   30  O1  UNL     1       4.094   8.238   9.853  1.00  0.00    -0.223 OA
HETATM   31  O2  UNL     1       4.418   5.741   9.867  1.00  0.00    -0.223 OA
BRANCH  29  32
HETATM   32  C2  UNL     1       2.382   6.728   8.547  1.00  0.00     0.141 C 
HETATM   33  C1  UNL     1       1.835   8.049   8.046  1.00  0.00     0.021 C 
ENDBRANCH  29  32
ENDBRANCH   1  29
TORSDOF 7
ENDMDL
MODEL 3
REMARK minimizedAffinity -8.71475029
REMARK  7 active torsions:
REMARK  status: ('A' for Active; 'I' for Inactive)
REMARK    1  A    between atoms: C2_2  and  S1_3 
REMARK    2  A    between atoms: S1_3  and  C3_6 
REMARK    3  A    between atoms: C10_13  and  C11_14 
REMARK    4  A    between atoms: C14_18  and  C15_19 
REMARK    5  A    between atoms: C15_19  and  C16_20 
REMARK    6  A    between atoms: C16_20  and  C17_21 
REMARK    7  A    between atoms: C17_21  and  N2_22 
ROOT
HETATM    1  C3  UNL     1      -6.294   3.335  12.561  1.00  0.00     0.060 A 
HETATM    2  C4  UNL     1      -6.393   2.071  11.945  1.00  0.00     0.026 A 
HETATM    3  C5  UNL     1      -5.259   1.468  11.399  1.00  0.00     0.032 A 
HETATM    4  C6  UNL     1      -4.063   2.153  11.501  1.00  0.00     0.046 A 
HETATM    5  C7  UNL     1      -3.951   3.403  12.120  1.00  0.00     0.008 A 
HETATM    6  C8  UNL     1      -5.069   4.010  12.668  1.00  0.00     0.038 A 
HETATM    7  C9  UNL     1      -2.529   3.795  12.021  1.00  0.00     0.047 A 
HETATM    8  C10 UNL     1      -2.064   4.967  12.483  1.00  0.00     0.048 C 
HETATM    9  C24 UNL     1      -1.833   2.657  11.311  1.00  0.00     0.257 A 
HETATM   10  O3  UNL     1      -0.655   2.544  11.033  1.00  0.00    -0.267 OA
HETATM   11  N3  UNL     1      -2.826   1.731  11.032  1.00  0.00    -0.322 N 
HETATM   12  H31 UNL     1      -2.637   0.860  10.560  1.00  0.00     0.169 HD
ENDROOT
BRANCH   8  13
HETATM   13  C11 UNL     1      -0.749   5.510  12.434  1.00  0.00     0.040 A 
HETATM   14  N1  UNL     1       0.057   5.390  11.324  1.00  0.00    -0.359 N 
HETATM   15  C12 UNL     1       1.253   6.008  11.547  1.00  0.00     0.016 A 
HETATM   16  H10 UNL     1      -0.197   4.927  10.456  1.00  0.00     0.166 HD
HETATM   17  C13 UNL     1       1.238   6.545  12.813  1.00  0.00    -0.027 A 
HETATM   18  C23 UNL     1       2.358   6.102  10.558  1.00  0.00     0.057 C 
HETATM   19  C14 UNL     1      -0.022   6.222  13.393  1.00  0.00    -0.023 A 
HETATM   20  C20 UNL     1       2.402   7.293  13.375  1.00  0.00     0.041 C 
HETATM   21  C21 UNL     1       3.390   7.701  12.265  1.00  0.00     0.005 C 
HETATM   22  C22 UNL     1       3.649   6.557  11.265  1.00  0.00     0.006 C 
BRANCH  19  23
HETATM   23  C15 UNL     1      -0.465   6.597  14.778  1.00  0.00     0.043 C 
BRANCH  23  24
HETATM   24  C16 UNL     1      -1.986   6.522  14.930  1.00  0.00     0.035 C 
BRANCH  24  25
HETATM   25  C17 UNL     1      -2.589   7.711  15.694  1.00  0.00     0.271 C 
BRANCH  25  26
HETATM   26  N2  UNL     1      -4.008   8.034  15.499  1.00  0.00     0.080 N 
HETATM   27  C18 UNL     1      -4.248   9.236  14.712  1.00  0.00     0.309 C 
HETATM   28  C19 UNL     1      -4.782   6.908  14.985  1.00  0.00     0.309 C 
ENDBRANCH  25  26
ENDBRANCH  24  25
ENDBRANCH  23  24
ENDBRANCH  19  23
ENDBRANCH   8  13
BRANCH   1  29
HETATM   29  S1  UNL     1      -7.745   4.080  13.278  1.00  0.00     0.175 S 
HETATM   30  O1  UNL     1      -8.896   3.315  12.835  1.00  0.00    -0.223 OA
HETATM   31  O2  UNL     1      -7.468   4.242  14.692  1.00  0.00    -0.223 OA
BRANCH  29  32
HETATM   32  C2  UNL     1      -7.826   5.701  12.546  1.00  0.00     0.141 C 
HETATM   33  C1  UNL     1      -8.922   5.846  11.510  1.00  0.00     0.021 C 
ENDBRANCH  29  32
ENDBRANCH   1  29
TORSDOF 7
ENDMDL
MODEL 4
REMARK minimizedAffinity -8.33661652
REMARK  7 active torsions:
REMARK  status: ('A' for Active; 'I' for Inactive)
REMARK    1  A    between atoms: C2_2  and  S1_3 
REMARK    2  A    between atoms: S1_3  and  C3_6 
REMARK    3  A    between atoms: C10_13  and  C11_14 
REMARK    4  A    between atoms: C14_18  and  C15_19 
REMARK    5  A    between atoms: C15_19  and  C16_20 
REMARK    6  A    between atoms: C16_20  and  C17_21 
REMARK    7  A    between atoms: C17_21  and  N2_22 
ROOT
HETATM    1  C3  UNL     1      -6.234   4.355  13.016  1.00  0.00     0.060 A 
HETATM    2  C4  UNL     1      -6.590   3.113  12.452  1.00  0.00     0.026 A 
HETATM    3  C5  UNL     1      -5.647   2.375  11.734  1.00  0.00     0.032 A 
HETATM    4  C6  UNL     1      -4.377   2.909  11.616  1.00  0.00     0.046 A 
HETATM    5  C7  UNL     1      -4.011   4.135  12.181  1.00  0.00     0.008 A 
HETATM    6  C8  UNL     1      -4.936   4.875  12.898  1.00  0.00     0.038 A 
HETATM    7  C9  UNL     1      -2.590   4.349  11.833  1.00  0.00     0.047 A 
HETATM    8  C10 UNL     1      -1.915   5.456  12.184  1.00  0.00     0.048 C 
HETATM    9  C24 UNL     1      -2.169   3.135  11.039  1.00  0.00     0.257 A 
HETATM   10  O3  UNL     1      -1.079   2.878  10.566  1.00  0.00    -0.267 OA
HETATM   11  N3  UNL     1      -3.300   2.338  10.952  1.00  0.00    -0.322 N 
HETATM   12  H31 UNL     1      -3.301   1.450  10.473  1.00  0.00     0.169 HD
ENDROOT
BRANCH   8  13
HETATM   13  C11 UNL     1      -0.572   5.834  11.899  1.00  0.00     0.040 A 
HETATM   14  N1  UNL     1      -0.050   5.798  10.626  1.00  0.00    -0.359 N 
HETATM   15  C12 UNL     1       1.248   6.219  10.642  1.00  0.00     0.016 A 
HETATM   16  H10 UNL     1      -0.553   5.518   9.788  1.00  0.00     0.166 HD
HETATM   17  C13 UNL     1       1.588   6.541  11.935  1.00  0.00    -0.027 A 
HETATM   18  C23 UNL     1       2.118   6.337   9.442  1.00  0.00     0.057 C 
HETATM   19  C14 UNL     1       0.445   6.284  12.746  1.00  0.00    -0.023 A 
HETATM   20  C20 UNL     1       2.948   7.037  12.302  1.00  0.00     0.041 C 
HETATM   21  C21 UNL     1       3.727   7.496  11.055  1.00  0.00     0.005 C 
HETATM   22  C22 UNL     1       3.584   6.508   9.881  1.00  0.00     0.006 C 
BRANCH  19  23
HETATM   23  C15 UNL     1       0.372   6.480  14.233  1.00  0.00     0.043 C 
BRANCH  23  24
HETATM   24  C16 UNL     1      -0.432   7.728  14.606  1.00  0.00     0.035 C 
BRANCH  24  25
HETATM   25  C17 UNL     1       0.071   8.431  15.876  1.00  0.00     0.271 C 
BRANCH  25  26
HETATM   26  N2  UNL     1      -0.866   9.253  16.651  1.00  0.00     0.080 N 
HETATM   27  C18 UNL     1      -0.858  10.666  16.300  1.00  0.00     0.309 C 
HETATM   28  C19 UNL     1      -2.225   8.720  16.650  1.00  0.00     0.309 C 
ENDBRANCH  25  26
ENDBRANCH  24  25
ENDBRANCH  23  24
ENDBRANCH  19  23
ENDBRANCH   8  13
BRANCH   1  29
HETATM   29  S1  UNL     1      -7.440   5.273  13.953  1.00  0.00     0.175 S 
HETATM   30  O1  UNL     1      -8.630   5.399  13.134  1.00  0.00    -0.223 OA
HETATM   31  O2  UNL     1      -7.508   4.646  15.259  1.00  0.00    -0.223 OA
BRANCH  29  32
HETATM   32  C2  UNL     1      -6.717   6.887  14.156  1.00  0.00     0.141 C 
HETATM   33  C1  UNL     1      -6.673   7.356  15.596  1.00  0.00     0.021 C 
ENDBRANCH  29  32
ENDBRANCH   1  29
TORSDOF 7
ENDMDL
MODEL 5
REMARK minimizedAffinity -8.33194351
REMARK  7 active torsions:
REMARK  status: ('A' for Active; 'I' for Inactive)
REMARK    1  A    between atoms: C2_2  and  S1_3 
REMARK    2  A    between atoms: S1_3  and  C3_6 
REMARK    3  A    between atoms: C10_13  and  C11_14 
REMARK    4  A    between atoms: C14_18  and  C15_19 
REMARK    5  A    between atoms: C15_19  and  C16_20 
REMARK    6  A    between atoms: C16_20  and  C17_21 
REMARK    7  A    between atoms: C17_21  and  N2_22 
ROOT
HETATM    1  C3  UNL     1      -6.410   4.714  13.616  1.00  0.00     0.060 A 
HETATM    2  C4  UNL     1      -6.904   3.528  13.035  1.00  0.00     0.026 A 
HETATM    3  C5  UNL     1      -6.114   2.808  12.138  1.00  0.00     0.032 A 
HETATM    4  C6  UNL     1      -4.853   3.301  11.862  1.00  0.00     0.046 A 
HETATM    5  C7  UNL     1      -4.349   4.470  12.442  1.00  0.00     0.008 A 
HETATM    6  C8  UNL     1      -5.121   5.192  13.336  1.00  0.00     0.038 A 
HETATM    7  C9  UNL     1      -2.987   4.655  11.897  1.00  0.00     0.047 A 
HETATM    8  C10 UNL     1      -2.215   5.708  12.211  1.00  0.00     0.048 C 
HETATM    9  C24 UNL     1      -2.746   3.484  10.973  1.00  0.00     0.257 A 
HETATM   10  O3  UNL     1      -1.751   3.221  10.326  1.00  0.00    -0.267 OA
HETATM   11  N3  UNL     1      -3.914   2.738  11.008  1.00  0.00    -0.322 N 
HETATM   12  H31 UNL     1      -4.028   1.886  10.480  1.00  0.00     0.169 HD
ENDROOT
BRANCH   8  13
HETATM   13  C11 UNL     1      -0.913   6.055  11.752  1.00  0.00     0.040 A 
HETATM   14  N1  UNL     1       0.034   5.106  11.436  1.00  0.00    -0.359 N 
HETATM   15  C12 UNL     1       1.181   5.714  11.016  1.00  0.00     0.016 A 
HETATM   16  H10 UNL     1      -0.097   4.099  11.489  1.00  0.00     0.166 HD
HETATM   17  C13 UNL     1       0.992   7.075  11.049  1.00  0.00    -0.027 A 
HETATM   18  C23 UNL     1       2.405   5.000  10.568  1.00  0.00     0.057 C 
HETATM   19  C14 UNL     1      -0.329   7.305  11.531  1.00  0.00    -0.023 A 
HETATM   20  C20 UNL     1       2.061   8.039  10.650  1.00  0.00     0.041 C 
HETATM   21  C21 UNL     1       3.180   7.331   9.862  1.00  0.00     0.005 C 
HETATM   22  C22 UNL     1       3.585   5.989  10.500  1.00  0.00     0.006 C 
BRANCH  19  23
HETATM   23  C15 UNL     1      -0.956   8.653  11.743  1.00  0.00     0.043 C 
BRANCH  23  24
HETATM   24  C16 UNL     1      -0.733   9.168  13.167  1.00  0.00     0.035 C 
BRANCH  24  25
HETATM   25  C17 UNL     1      -1.925   8.924  14.105  1.00  0.00     0.271 C 
BRANCH  25  26
HETATM   26  N2  UNL     1      -1.796   7.925  15.173  1.00  0.00     0.080 N 
HETATM   27  C18 UNL     1      -0.475   7.321  15.273  1.00  0.00     0.309 C 
HETATM   28  C19 UNL     1      -2.247   8.418  16.471  1.00  0.00     0.309 C 
ENDBRANCH  25  26
ENDBRANCH  24  25
ENDBRANCH  23  24
ENDBRANCH  19  23
ENDBRANCH   8  13
BRANCH   1  29
HETATM   29  S1  UNL     1      -7.419   5.608  14.782  1.00  0.00     0.175 S 
HETATM   30  O1  UNL     1      -8.529   6.186  14.049  1.00  0.00    -0.223 OA
HETATM   31  O2  UNL     1      -7.658   4.707  15.893  1.00  0.00    -0.223 OA
BRANCH  29  32
HETATM   32  C2  UNL     1      -6.373   6.928  15.361  1.00  0.00     0.141 C 
HETATM   33  C1  UNL     1      -6.893   8.309  15.021  1.00  0.00     0.021 C 
ENDBRANCH  29  32
ENDBRANCH   1  29
TORSDOF 7
ENDMDL
MODEL 6
REMARK minimizedAffinity -8.22664833
REMARK  7 active torsions:
REMARK  status: ('A' for Active; 'I' for Inactive)
REMARK    1  A    between atoms: C2_2  and  S1_3 
REMARK    2  A    between atoms: S1_3  and  C3_6 
REMARK    3  A    between atoms: C10_13  and  C11_14 
REMARK    4  A    between atoms: C14_18  and  C15_19 
REMARK    5  A    between atoms: C15_19  and  C16_20 
REMARK    6  A    between atoms: C16_20  and  C17_21 
REMARK    7  A    between atoms: C17_21  and  N2_22 
ROOT
HETATM    1  C3  UNL     1      -0.985   4.182  11.750  1.00  0.00     0.060 A 
HETATM    2  C4  UNL     1      -1.097   2.849  11.307  1.00  0.00     0.026 A 
HETATM    3  C5  UNL     1      -2.335   2.204  11.334  1.00  0.00     0.032 A 
HETATM    4  C6  UNL     1      -3.419   2.926  11.798  1.00  0.00     0.046 A 
HETATM    5  C7  UNL     1      -3.320   4.253  12.230  1.00  0.00     0.008 A 
HETATM    6  C8  UNL     1      -2.098   4.904  12.205  1.00  0.00     0.038 A 
HETATM    7  C9  UNL     1      -4.680   4.661  12.644  1.00  0.00     0.047 A 
HETATM    8  C10 UNL     1      -4.951   5.874  13.153  1.00  0.00     0.048 C 
HETATM    9  C24 UNL     1      -5.567   3.464  12.395  1.00  0.00     0.257 A 
HETATM   10  O3  UNL     1      -6.765   3.357  12.573  1.00  0.00    -0.267 OA
HETATM   11  N3  UNL     1      -4.728   2.477  11.901  1.00  0.00    -0.322 N 
HETATM   12  H31 UNL     1      -5.063   1.562  11.641  1.00  0.00     0.169 HD
ENDROOT
BRANCH   8  13
HETATM   13  C11 UNL     1      -6.182   6.408  13.631  1.00  0.00     0.040 A 
HETATM   14  N1  UNL     1      -7.403   5.981  13.161  1.00  0.00    -0.359 N 
HETATM   15  C12 UNL     1      -8.408   6.651  13.797  1.00  0.00     0.016 A 
HETATM   16  H10 UNL     1      -7.548   5.262  12.457  1.00  0.00     0.166 HD
HETATM   17  C13 UNL     1      -7.848   7.525  14.699  1.00  0.00    -0.027 A 
HETATM   18  C23 UNL     1      -9.858   6.429  13.562  1.00  0.00     0.057 C 
HETATM   19  C14 UNL     1      -6.433   7.392  14.591  1.00  0.00    -0.023 A 
HETATM   20  C20 UNL     1      -8.676   8.418  15.563  1.00  0.00     0.041 C 
HETATM   21  C21 UNL     1     -10.146   7.956  15.591  1.00  0.00     0.005 C 
HETATM   22  C22 UNL     1     -10.666   7.580  14.191  1.00  0.00     0.006 C 
BRANCH  19  23
HETATM   23  C15 UNL     1      -5.424   8.172  15.383  1.00  0.00     0.043 C 
BRANCH  23  24
HETATM   24  C16 UNL     1      -4.660   9.170  14.508  1.00  0.00     0.035 C 
BRANCH  24  25
HETATM   25  C17 UNL     1      -3.633  10.010  15.283  1.00  0.00     0.271 C 
BRANCH  25  26
HETATM   26  N2  UNL     1      -3.296   9.628  16.660  1.00  0.00     0.080 N 
HETATM   27  C18 UNL     1      -2.005   8.967  16.800  1.00  0.00     0.309 C 
HETATM   28  C19 UNL     1      -3.424  10.733  17.604  1.00  0.00     0.309 C 
ENDBRANCH  25  26
ENDBRANCH  24  25
ENDBRANCH  23  24
ENDBRANCH  19  23
ENDBRANCH   8  13
BRANCH   1  29
HETATM   29  S1  UNL     1       0.596   5.000  11.684  1.00  0.00     0.175 S 
HETATM   30  O1  UNL     1       0.926   5.428  13.031  1.00  0.00    -0.223 OA
HETATM   31  O2  UNL     1       1.484   4.118  10.953  1.00  0.00    -0.223 OA
BRANCH  29  32
HETATM   32  C2  UNL     1       0.312   6.446  10.684  1.00  0.00     0.141 C 
HETATM   33  C1  UNL     1       1.432   6.738   9.707  1.00  0.00     0.021 C 
ENDBRANCH  29  32
ENDBRANCH   1  29
TORSDOF 7
ENDMDL
MODEL 7
REMARK minimizedAffinity -8.20256805
REMARK  7 active torsions:
REMARK  status: ('A' for Active; 'I' for Inactive)
REMARK    1  A    between atoms: C2_2  and  S1_3 
REMARK    2  A    between atoms: S1_3  and  C3_6 
REMARK    3  A    between atoms: C10_13  and  C11_14 
REMARK    4  A    between atoms: C14_18  and  C15_19 
REMARK    5  A    between atoms: C15_19  and  C16_20 
REMARK    6  A    between atoms: C16_20  and  C17_21 
REMARK    7  A    between atoms: C17_21  and  N2_22 
ROOT
HETATM    1  C3  UNL     1       2.233   6.869  11.324  1.00  0.00     0.060 A 
HETATM    2  C4  UNL     1       3.028   7.373  12.373  1.00  0.00     0.026 A 
HETATM    3  C5  UNL     1       2.462   7.612  13.627  1.00  0.00     0.032 A 
HETATM    4  C6  UNL     1       1.118   7.328  13.783  1.00  0.00     0.046 A 
HETATM    5  C7  UNL     1       0.323   6.817  12.751  1.00  0.00     0.008 A 
HETATM    6  C8  UNL     1       0.874   6.572  11.505  1.00  0.00     0.038 A 
HETATM    7  C9  UNL     1      -1.036   6.653  13.311  1.00  0.00     0.047 A 
HETATM    8  C10 UNL     1      -2.074   6.214  12.581  1.00  0.00     0.048 C 
HETATM    9  C24 UNL     1      -0.947   7.094  14.753  1.00  0.00     0.257 A 
HETATM   10  O3  UNL     1      -1.823   7.109  15.597  1.00  0.00    -0.267 OA
HETATM   11  N3  UNL     1       0.368   7.487  14.941  1.00  0.00    -0.322 N 
HETATM   12  H31 UNL     1       0.711   7.827  15.827  1.00  0.00     0.169 HD
ENDROOT
BRANCH   8  13
HETATM   13  C11 UNL     1      -3.438   6.038  12.949  1.00  0.00     0.040 A 
HETATM   14  N1  UNL     1      -4.209   7.070  13.436  1.00  0.00    -0.359 N 
HETATM   15  C12 UNL     1      -5.473   6.625  13.697  1.00  0.00     0.016 A 
HETATM   16  H10 UNL     1      -3.899   8.028  13.570  1.00  0.00     0.166 HD
HETATM   17  C13 UNL     1      -5.541   5.289  13.376  1.00  0.00    -0.027 A 
HETATM   18  C23 UNL     1      -6.583   7.471  14.208  1.00  0.00     0.057 C 
HETATM   19  C14 UNL     1      -4.250   4.901  12.915  1.00  0.00    -0.023 A 
HETATM   20  C20 UNL     1      -6.792   4.492  13.545  1.00  0.00     0.041 C 
HETATM   21  C21 UNL     1      -8.016   5.410  13.726  1.00  0.00     0.005 C 
HETATM   22  C22 UNL     1      -7.735   6.572  14.697  1.00  0.00     0.006 C 
BRANCH  19  23
HETATM   23  C15 UNL     1      -3.864   3.519  12.472  1.00  0.00     0.043 C 
BRANCH  23  24
HETATM   24  C16 UNL     1      -3.734   3.423  10.950  1.00  0.00     0.035 C 
BRANCH  24  25
HETATM   25  C17 UNL     1      -2.294   3.194  10.466  1.00  0.00     0.271 C 
BRANCH  25  26
HETATM   26  N2  UNL     1      -1.390   2.378  11.287  1.00  0.00     0.080 N 
HETATM   27  C18 UNL     1      -1.037   1.094  10.698  1.00  0.00     0.309 C 
HETATM   28  C19 UNL     1      -0.197   3.105  11.712  1.00  0.00     0.309 C 
ENDBRANCH  25  26
ENDBRANCH  24  25
ENDBRANCH  23  24
ENDBRANCH  19  23
ENDBRANCH   8  13
BRANCH   1  29
HETATM   29  S1  UNL     1       2.976   6.543   9.738  1.00  0.00     0.175 S 
HETATM   30  O1  UNL     1       1.924   6.095   8.845  1.00  0.00    -0.223 OA
HETATM   31  O2  UNL     1       3.774   7.709   9.411  1.00  0.00    -0.223 OA
BRANCH  29  32
HETATM   32  C2  UNL     1       4.086   5.183  10.033  1.00  0.00     0.141 C 
HETATM   33  C1  UNL     1       3.893   4.022   9.080  1.00  0.00     0.021 C 
ENDBRANCH  29  32
ENDBRANCH   1  29
TORSDOF 7
ENDMDL
MODEL 8
REMARK minimizedAffinity -8.18197536
REMARK  7 active torsions:
REMARK  status: ('A' for Active; 'I' for Inactive)
REMARK    1  A    between atoms: C2_2  and  S1_3 
REMARK    2  A    between atoms: S1_3  and  C3_6 
REMARK    3  A    between atoms: C10_13  and  C11_14 
REMARK    4  A    between atoms: C14_18  and  C15_19 
REMARK    5  A    between atoms: C15_19  and  C16_20 
REMARK    6  A    between atoms: C16_20  and  C17_21 
REMARK    7  A    between atoms: C17_21  and  N2_22 
ROOT
HETATM    1  C3  UNL     1      -5.925   4.500  12.940  1.00  0.00     0.060 A 
HETATM    2  C4  UNL     1      -6.285   3.245  12.409  1.00  0.00     0.026 A 
HETATM    3  C5  UNL     1      -5.334   2.466  11.748  1.00  0.00     0.032 A 
HETATM    4  C6  UNL     1      -4.052   2.974  11.650  1.00  0.00     0.046 A 
HETATM    5  C7  UNL     1      -3.681   4.213  12.183  1.00  0.00     0.008 A 
HETATM    6  C8  UNL     1      -4.615   4.993  12.845  1.00  0.00     0.038 A 
HETATM    7  C9  UNL     1      -2.247   4.391  11.873  1.00  0.00     0.047 A 
HETATM    8  C10 UNL     1      -1.563   5.498  12.206  1.00  0.00     0.048 C 
HETATM    9  C24 UNL     1      -1.823   3.143  11.135  1.00  0.00     0.257 A 
HETATM   10  O3  UNL     1      -0.723   2.851  10.707  1.00  0.00    -0.267 OA
HETATM   11  N3  UNL     1      -2.965   2.362  11.041  1.00  0.00    -0.322 N 
HETATM   12  H31 UNL     1      -2.967   1.457  10.594  1.00  0.00     0.169 HD
ENDROOT
BRANCH   8  13
HETATM   13  C11 UNL     1      -0.205   5.843  11.951  1.00  0.00     0.040 A 
HETATM   14  N1  UNL     1       0.483   5.367  10.857  1.00  0.00    -0.359 N 
HETATM   15  C12 UNL     1       1.755   5.862  10.856  1.00  0.00     0.016 A 
HETATM   16  H10 UNL     1       0.106   4.751  10.143  1.00  0.00     0.166 HD
HETATM   17  C13 UNL     1       1.909   6.677  11.953  1.00  0.00    -0.027 A 
HETATM   18  C23 UNL     1       2.774   5.582   9.810  1.00  0.00     0.057 C 
HETATM   19  C14 UNL     1       0.675   6.659  12.666  1.00  0.00    -0.023 A 
HETATM   20  C20 UNL     1       3.192   7.379  12.250  1.00  0.00     0.041 C 
HETATM   21  C21 UNL     1       4.118   7.389  11.019  1.00  0.00     0.005 C 
HETATM   22  C22 UNL     1       4.163   6.021  10.311  1.00  0.00     0.006 C 
BRANCH  19  23
HETATM   23  C15 UNL     1       0.398   7.399  13.943  1.00  0.00     0.043 C 
BRANCH  23  24
HETATM   24  C16 UNL     1       1.486   7.155  14.992  1.00  0.00     0.035 C 
BRANCH  24  25
HETATM   25  C17 UNL     1       1.447   8.146  16.165  1.00  0.00     0.271 C 
BRANCH  25  26
HETATM   26  N2  UNL     1       2.221   9.390  16.069  1.00  0.00     0.080 N 
HETATM   27  C18 UNL     1       2.274  10.162  17.303  1.00  0.00     0.309 C 
HETATM   28  C19 UNL     1       3.559   9.186  15.522  1.00  0.00     0.309 C 
ENDBRANCH  25  26
ENDBRANCH  24  25
ENDBRANCH  23  24
ENDBRANCH  19  23
ENDBRANCH   8  13
BRANCH   1  29
HETATM   29  S1  UNL     1      -7.143   5.470  13.807  1.00  0.00     0.175 S 
HETATM   30  O1  UNL     1      -7.481   4.762  15.026  1.00  0.00    -0.223 OA
HETATM   31  O2  UNL     1      -6.626   6.824  13.859  1.00  0.00    -0.223 OA
BRANCH  29  32
HETATM   32  C2  UNL     1      -8.565   5.467  12.735  1.00  0.00     0.141 C 
HETATM   33  C1  UNL     1      -9.677   6.385  13.198  1.00  0.00     0.021 C 
ENDBRANCH  29  32
ENDBRANCH   1  29
TORSDOF 7
ENDMDL
MODEL 9
REMARK minimizedAffinity -8.10614681
REMARK  7 active torsions:
REMARK  status: ('A' for Active; 'I' for Inactive)
REMARK    1  A    between atoms: C2_2  and  S1_3 
REMARK    2  A    between atoms: S1_3  and  C3_6 
REMARK    3  A    between atoms: C10_13  and  C11_14 
REMARK    4  A    between atoms: C14_18  and  C15_19 
REMARK    5  A    between atoms: C15_19  and  C16_20 
REMARK    6  A    between atoms: C16_20  and  C17_21 
REMARK    7  A    between atoms: C17_21  and  N2_22 
ROOT
HETATM    1  C3  UNL     1     -11.188   8.247  14.341  1.00  0.00     0.060 A 
HETATM    2  C4  UNL     1     -11.151   8.671  15.685  1.00  0.00     0.026 A 
HETATM    3  C5  UNL     1     -10.080   8.309  16.503  1.00  0.00     0.032 A 
HETATM    4  C6  UNL     1      -9.078   7.541  15.939  1.00  0.00     0.046 A 
HETATM    5  C7  UNL     1      -9.100   7.124  14.603  1.00  0.00     0.008 A 
HETATM    6  C8  UNL     1     -10.156   7.480  13.781  1.00  0.00     0.038 A 
HETATM    7  C9  UNL     1      -7.869   6.333  14.391  1.00  0.00     0.047 A 
HETATM    8  C10 UNL     1      -7.579   5.741  13.221  1.00  0.00     0.048 C 
HETATM    9  C24 UNL     1      -7.133   6.348  15.710  1.00  0.00     0.257 A 
HETATM   10  O3  UNL     1      -6.064   5.839  15.988  1.00  0.00    -0.267 OA
HETATM   11  N3  UNL     1      -7.932   7.081  16.573  1.00  0.00    -0.322 N 
HETATM   12  H31 UNL     1      -7.675   7.255  17.533  1.00  0.00     0.169 HD
ENDROOT
BRANCH   8  13
HETATM   13  C11 UNL     1      -6.470   4.922  12.864  1.00  0.00     0.040 A 
HETATM   14  N1  UNL     1      -6.623   3.623  12.433  1.00  0.00    -0.359 N 
HETATM   15  C12 UNL     1      -5.403   3.079  12.151  1.00  0.00     0.016 A 
HETATM   16  H10 UNL     1      -7.508   3.136  12.323  1.00  0.00     0.166 HD
HETATM   17  C13 UNL     1      -4.436   4.026  12.392  1.00  0.00    -0.027 A 
HETATM   18  C23 UNL     1      -5.186   1.702  11.636  1.00  0.00     0.057 C 
HETATM   19  C14 UNL     1      -5.100   5.196  12.861  1.00  0.00    -0.023 A 
HETATM   20  C20 UNL     1      -2.983   3.752  12.184  1.00  0.00     0.041 C 
HETATM   21  C21 UNL     1      -2.773   2.487  11.330  1.00  0.00     0.005 C 
HETATM   22  C22 UNL     1      -3.696   1.331  11.763  1.00  0.00     0.006 C 
BRANCH  19  23
HETATM   23  C15 UNL     1      -4.426   6.477  13.262  1.00  0.00     0.043 C 
BRANCH  23  24
HETATM   24  C16 UNL     1      -3.246   6.230  14.204  1.00  0.00     0.035 C 
BRANCH  24  25
HETATM   25  C17 UNL     1      -2.432   7.495  14.518  1.00  0.00     0.271 C 
BRANCH  25  26
HETATM   26  N2  UNL     1      -1.371   7.905  13.590  1.00  0.00     0.080 N 
HETATM   27  C18 UNL     1      -0.915   6.851  12.694  1.00  0.00     0.309 C 
HETATM   28  C19 UNL     1      -1.704   9.117  12.847  1.00  0.00     0.309 C 
ENDBRANCH  25  26
ENDBRANCH  24  25
ENDBRANCH  23  24
ENDBRANCH  19  23
ENDBRANCH   8  13
BRANCH   1  29
HETATM   29  S1  UNL     1     -12.548   8.741  13.301  1.00  0.00     0.175 S 
HETATM   30  O1  UNL     1     -13.410   9.603  14.086  1.00  0.00    -0.223 OA
HETATM   31  O2  UNL     1     -11.965   9.213  12.060  1.00  0.00    -0.223 OA
BRANCH  29  32
HETATM   32  C2  UNL     1     -13.421   7.227  12.956  1.00  0.00     0.141 C 
HETATM   33  C1  UNL     1     -14.876   7.435  12.591  1.00  0.00     0.021 C 
ENDBRANCH  29  32
ENDBRANCH   1  29
TORSDOF 7
ENDMDL
