MODEL 1
REMARK minimizedAffinity -9.81321812
REMARK CNNscore 0.797405422
REMARK CNNaffinity 8.32416439
REMARK  6 active torsions:
REMARK  status: ('A' for Active; 'I' for Inactive)
REMARK    1  A    between atoms: N2_5  and  C4_6 
REMARK    2  A    between atoms: C7_9  and  N3_10 
REMARK    3  A    between atoms: N3_10  and  C8_11 
REMARK    4  A    between atoms: C11_18  and  N6_19 
REMARK    5  A    between atoms: N6_19  and  C12_20 
REMARK    6  A    between atoms: N7_26  and  C18_27 
ROOT
HETATM    1  C8  UNL     1       0.256  52.363 -19.040  1.00  0.00     0.684 A 
HETATM    2  N4  UNL     1       1.104  53.350 -19.395  1.00  0.00    -0.199 N 
ATOM      3  H4  UNL     1       1.596  53.885 -18.679  1.00  0.00     0.183 HD
HETATM    4  C9  UNL     1       1.301  53.626 -20.708  1.00  0.00     0.140 A 
HETATM    5  C10 UNL     1       0.623  52.892 -21.666  1.00  0.00     0.110 A 
HETATM    6  N5  UNL     1       0.630  52.915 -23.030  1.00  0.00    -0.186 N 
ATOM      7  H5  UNL     1       1.158  53.549 -23.630  1.00  0.00     0.184 HD
HETATM    8  C11 UNL     1      -0.185  51.952 -23.418  1.00  0.00     0.687 A 
HETATM    9  N7  UNL     1      -0.793  51.360 -22.313  1.00  0.00    -0.160 N 
HETATM   10  C23 UNL     1      -0.231  51.919 -21.191  1.00  0.00     0.168 A 
HETATM   11  N8  UNL     1      -0.448  51.604 -19.905  1.00  0.00    -0.173 N 
ATOM     12  H8  UNL     1      -1.083  50.864 -19.610  1.00  0.00     0.186 HD
ENDROOT
BRANCH   1  13
HETATM   13  N3  UNL     1       0.035  52.043 -17.701  1.00  0.00    -0.192 N 
HETATM   14  H10 UNL     1      -0.950  51.873 -17.565  1.00  0.00     0.184 HD
BRANCH  13  15
HETATM   15  C7  UNL     1       0.861  51.898 -16.583  1.00  0.00     0.049 A 
HETATM   16  C6  UNL     1       0.302  51.421 -15.392  1.00  0.00     0.032 A 
HETATM   17  C5  UNL     1       1.079  51.248 -14.237  1.00  0.00     0.031 A 
HETATM   18  C4  UNL     1       2.451  51.534 -14.219  1.00  0.00     0.030 A 
HETATM   19  C25 UNL     1       2.998  52.031 -15.408  1.00  0.00     0.031 A 
HETATM   20  C24 UNL     1       2.221  52.203 -16.566  1.00  0.00     0.032 A 
BRANCH  18  21
HETATM   21  N2  UNL     1       3.188  51.354 -13.038  1.00  0.00    -0.378 N 
HETATM   22  C3  UNL     1       3.641  49.987 -12.706  1.00  0.00     0.153 C 
HETATM   23  C2  UNL     1       4.612  50.005 -11.502  1.00  0.00     0.291 C 
HETATM   24  N1  UNL     1       4.105  50.685 -10.290  1.00  0.00     0.087 N 
HETATM   25  C1  UNL     1       3.053  49.910  -9.636  1.00  0.00     0.310 C 
HETATM   26  C27 UNL     1       3.633  52.034 -10.673  1.00  0.00     0.291 C 
HETATM   27  C26 UNL     1       2.651  52.093 -11.871  1.00  0.00     0.153 C 
ENDBRANCH  18  21
ENDBRANCH  13  15
ENDBRANCH   1  13
BRANCH   9  28
HETATM   28  C18 UNL     1      -1.798  50.320 -22.343  1.00  0.00     0.109 C 
HETATM   29  C19 UNL     1      -2.347  50.040 -23.743  1.00  0.00     0.026 C 
HETATM   30  C20 UNL     1      -2.967  48.643 -23.664  1.00  0.00     0.002 C 
HETATM   31  C21 UNL     1      -2.577  48.069 -22.302  1.00  0.00     0.002 C 
HETATM   32  C22 UNL     1      -1.410  48.927 -21.831  1.00  0.00     0.026 C 
ENDBRANCH   9  28
BRANCH   8  33
HETATM   33  N6  UNL     1      -0.433  51.512 -24.677  1.00  0.00    -0.191 N 
HETATM   34  H12 UNL     1      -1.243  50.933 -24.861  1.00  0.00     0.184 HD
BRANCH  33  35
HETATM   35  C12 UNL     1       0.407  51.594 -25.811  1.00  0.00     0.049 A 
HETATM   36  C13 UNL     1       1.803  51.503 -25.764  1.00  0.00     0.030 A 
HETATM   37  C14 UNL     1       2.577  51.586 -26.927  1.00  0.00     0.002 A 
HETATM   38  C15 UNL     1       1.965  51.761 -28.165  1.00  0.00     0.000 A 
HETATM   39  C16 UNL     1       0.579  51.859 -28.239  1.00  0.00     0.002 A 
HETATM   40  C17 UNL     1      -0.189  51.778 -27.072  1.00  0.00     0.030 A 
ENDBRANCH  33  35
ENDBRANCH   8  33
TORSDOF 6
ENDMDL
MODEL 2
REMARK minimizedAffinity -9.8672514
REMARK CNNscore 0.76157546
REMARK CNNaffinity 8.194911
REMARK  6 active torsions:
REMARK  status: ('A' for Active; 'I' for Inactive)
REMARK    1  A    between atoms: N2_5  and  C4_6 
REMARK    2  A    between atoms: C7_9  and  N3_10 
REMARK    3  A    between atoms: N3_10  and  C8_11 
REMARK    4  A    between atoms: C11_18  and  N6_19 
REMARK    5  A    between atoms: N6_19  and  C12_20 
REMARK    6  A    between atoms: N7_26  and  C18_27 
ROOT
HETATM    1  C8  UNL     1       0.664  52.870 -19.132  1.00  0.00     0.684 A 
HETATM    2  N4  UNL     1       1.404  53.868 -19.658  1.00  0.00    -0.199 N 
ATOM      3  H4  UNL     1       1.913  54.506 -19.046  1.00  0.00     0.183 HD
HETATM    4  C9  UNL     1       1.467  54.020 -21.004  1.00  0.00     0.140 A 
HETATM    5  C10 UNL     1       0.767  53.147 -21.820  1.00  0.00     0.110 A 
HETATM    6  N5  UNL     1       0.656  53.030 -23.175  1.00  0.00    -0.186 N 
ATOM      7  H5  UNL     1       1.082  53.632 -23.879  1.00  0.00     0.184 HD
HETATM    8  C11 UNL     1      -0.115  51.981 -23.391  1.00  0.00     0.687 A 
HETATM    9  N7  UNL     1      -0.581  51.468 -22.183  1.00  0.00    -0.160 N 
HETATM   10  C23 UNL     1       0.031  52.175 -21.177  1.00  0.00     0.168 A 
HETATM   11  N8  UNL     1      -0.052  51.981 -19.851  1.00  0.00    -0.173 N 
ATOM     12  H8  UNL     1      -0.603  51.235 -19.429  1.00  0.00     0.186 HD
ENDROOT
BRANCH   1  13
HETATM   13  N3  UNL     1       0.583  52.676 -17.754  1.00  0.00    -0.192 N 
HETATM   14  H10 UNL     1       0.364  53.557 -17.314  1.00  0.00     0.184 HD
BRANCH  13  15
HETATM   15  C7  UNL     1       0.714  51.566 -16.915  1.00  0.00     0.049 A 
HETATM   16  C6  UNL     1       1.476  51.693 -15.749  1.00  0.00     0.032 A 
HETATM   17  C5  UNL     1       1.641  50.618 -14.863  1.00  0.00     0.031 A 
HETATM   18  C4  UNL     1       1.047  49.370 -15.095  1.00  0.00     0.030 A 
HETATM   19  C25 UNL     1       0.304  49.245 -16.275  1.00  0.00     0.031 A 
HETATM   20  C24 UNL     1       0.136  50.322 -17.162  1.00  0.00     0.032 A 
BRANCH  18  21
HETATM   21  N2  UNL     1       1.246  48.319 -14.185  1.00  0.00    -0.378 N 
HETATM   22  C3  UNL     1       2.635  47.980 -13.813  1.00  0.00     0.153 C 
HETATM   23  C2  UNL     1       2.661  46.959 -12.651  1.00  0.00     0.291 C 
HETATM   24  N1  UNL     1       1.875  45.726 -12.874  1.00  0.00     0.087 N 
HETATM   25  C1  UNL     1       2.503  44.856 -13.866  1.00  0.00     0.310 C 
HETATM   26  C27 UNL     1       0.504  46.111 -13.275  1.00  0.00     0.291 C 
HETATM   27  C26 UNL     1       0.400  47.129 -14.439  1.00  0.00     0.153 C 
ENDBRANCH  18  21
ENDBRANCH  13  15
ENDBRANCH   1  13
BRANCH   9  28
HETATM   28  C18 UNL     1      -1.505  50.367 -22.019  1.00  0.00     0.109 C 
HETATM   29  C19 UNL     1      -2.182  49.938 -23.322  1.00  0.00     0.026 C 
HETATM   30  C20 UNL     1      -2.686  48.515 -23.068  1.00  0.00     0.002 C 
HETATM   31  C21 UNL     1      -2.108  48.081 -21.720  1.00  0.00     0.002 C 
HETATM   32  C22 UNL     1      -0.963  49.049 -21.452  1.00  0.00     0.026 C 
ENDBRANCH   9  28
BRANCH   8  33
HETATM   33  N6  UNL     1      -0.435  51.398 -24.574  1.00  0.00    -0.191 N 
HETATM   34  H12 UNL     1      -1.143  50.674 -24.605  1.00  0.00     0.184 HD
BRANCH  33  35
HETATM   35  C12 UNL     1       0.225  51.527 -25.817  1.00  0.00     0.049 A 
HETATM   36  C13 UNL     1      -0.431  51.705 -27.040  1.00  0.00     0.030 A 
HETATM   37  C14 UNL     1       0.284  51.833 -28.236  1.00  0.00     0.002 A 
HETATM   38  C15 UNL     1       1.675  51.788 -28.230  1.00  0.00     0.000 A 
HETATM   39  C16 UNL     1       2.351  51.608 -27.027  1.00  0.00     0.002 A 
HETATM   40  C17 UNL     1       1.631  51.477 -25.835  1.00  0.00     0.030 A 
ENDBRANCH  33  35
ENDBRANCH   8  33
TORSDOF 6
ENDMDL
MODEL 3
REMARK minimizedAffinity -9.08353806
REMARK CNNscore 0.594287992
REMARK CNNaffinity 8.0784626
REMARK  6 active torsions:
REMARK  status: ('A' for Active; 'I' for Inactive)
REMARK    1  A    between atoms: N2_5  and  C4_6 
REMARK    2  A    between atoms: C7_9  and  N3_10 
REMARK    3  A    between atoms: N3_10  and  C8_11 
REMARK    4  A    between atoms: C11_18  and  N6_19 
REMARK    5  A    between atoms: N6_19  and  C12_20 
REMARK    6  A    between atoms: N7_26  and  C18_27 
ROOT
HETATM    1  C8  UNL     1      -0.359  52.138 -22.935  1.00  0.00     0.684 A 
HETATM    2  N4  UNL     1       0.547  53.106 -23.185  1.00  0.00    -0.199 N 
ATOM      3  H4  UNL     1       0.720  53.411 -24.143  1.00  0.00     0.183 HD
HETATM    4  C9  UNL     1       1.228  53.670 -22.156  1.00  0.00     0.140 A 
HETATM    5  C10 UNL     1       0.983  53.241 -20.863  1.00  0.00     0.110 A 
HETATM    6  N5  UNL     1       1.476  53.623 -19.649  1.00  0.00    -0.186 N 
ATOM      7  H5  UNL     1       2.190  54.330 -19.473  1.00  0.00     0.184 HD
HETATM    8  C11 UNL     1       0.844  52.894 -18.750  1.00  0.00     0.687 A 
HETATM    9  N7  UNL     1       0.006  51.974 -19.377  1.00  0.00    -0.160 N 
HETATM   10  C23 UNL     1       0.049  52.237 -20.725  1.00  0.00     0.168 A 
HETATM   11  N8  UNL     1      -0.654  51.658 -21.710  1.00  0.00    -0.173 N 
ATOM     12  H8  UNL     1      -1.345  50.925 -21.548  1.00  0.00     0.186 HD
ENDROOT
BRANCH   1  13
HETATM   13  N3  UNL     1      -1.085  51.542 -23.965  1.00  0.00    -0.192 N 
HETATM   14  H10 UNL     1      -0.618  51.723 -24.840  1.00  0.00     0.184 HD
BRANCH  13  15
HETATM   15  C7  UNL     1      -2.249  50.771 -24.019  1.00  0.00     0.049 A 
HETATM   16  C6  UNL     1      -3.459  51.401 -24.330  1.00  0.00     0.032 A 
HETATM   17  C5  UNL     1      -4.661  50.681 -24.405  1.00  0.00     0.031 A 
HETATM   18  C4  UNL     1      -4.710  49.298 -24.182  1.00  0.00     0.030 A 
HETATM   19  C25 UNL     1      -3.500  48.679 -23.850  1.00  0.00     0.031 A 
HETATM   20  C24 UNL     1      -2.294  49.399 -23.776  1.00  0.00     0.032 A 
BRANCH  18  21
HETATM   21  N2  UNL     1      -5.937  48.620 -24.259  1.00  0.00    -0.378 N 
HETATM   22  C3  UNL     1      -6.275  47.945 -25.529  1.00  0.00     0.153 C 
HETATM   23  C2  UNL     1      -7.545  47.076 -25.370  1.00  0.00     0.291 C 
HETATM   24  N1  UNL     1      -8.730  47.778 -24.832  1.00  0.00     0.087 N 
HETATM   25  C1  UNL     1      -9.295  48.710 -25.805  1.00  0.00     0.310 C 
HETATM   26  C27 UNL     1      -8.339  48.466 -23.581  1.00  0.00     0.291 C 
HETATM   27  C26 UNL     1      -7.076  49.360 -23.667  1.00  0.00     0.153 C 
ENDBRANCH  18  21
ENDBRANCH  13  15
ENDBRANCH   1  13
BRANCH   9  28
HETATM   28  C18 UNL     1      -0.792  50.958 -18.725  1.00  0.00     0.109 C 
HETATM   29  C19 UNL     1      -2.274  51.323 -18.617  1.00  0.00     0.026 C 
HETATM   30  C20 UNL     1      -3.003  49.995 -18.396  1.00  0.00     0.002 C 
HETATM   31  C21 UNL     1      -1.966  48.889 -18.596  1.00  0.00     0.002 C 
HETATM   32  C22 UNL     1      -0.818  49.555 -19.343  1.00  0.00     0.026 C 
ENDBRANCH   9  28
BRANCH   8  33
HETATM   33  N6  UNL     1       0.910  52.977 -17.397  1.00  0.00    -0.191 N 
HETATM   34  H12 UNL     1       0.272  53.582 -16.896  1.00  0.00     0.184 HD
BRANCH  33  35
HETATM   35  C12 UNL     1       1.903  52.451 -16.539  1.00  0.00     0.049 A 
HETATM   36  C13 UNL     1       3.258  52.793 -16.603  1.00  0.00     0.030 A 
HETATM   37  C14 UNL     1       4.190  52.240 -15.717  1.00  0.00     0.002 A 
HETATM   38  C15 UNL     1       3.780  51.333 -14.744  1.00  0.00     0.000 A 
HETATM   39  C16 UNL     1       2.438  50.974 -14.662  1.00  0.00     0.002 A 
HETATM   40  C17 UNL     1       1.512  51.527 -15.552  1.00  0.00     0.030 A 
ENDBRANCH  33  35
ENDBRANCH   8  33
TORSDOF 6
ENDMDL
MODEL 4
REMARK minimizedAffinity -9.5508461
REMARK CNNscore 0.506679416
REMARK CNNaffinity 7.78098297
REMARK  6 active torsions:
REMARK  status: ('A' for Active; 'I' for Inactive)
REMARK    1  A    between atoms: N2_5  and  C4_6 
REMARK    2  A    between atoms: C7_9  and  N3_10 
REMARK    3  A    between atoms: N3_10  and  C8_11 
REMARK    4  A    between atoms: C11_18  and  N6_19 
REMARK    5  A    between atoms: N6_19  and  C12_20 
REMARK    6  A    between atoms: N7_26  and  C18_27 
ROOT
HETATM    1  C8  UNL     1      -0.443  51.680 -24.797  1.00  0.00     0.684 A 
HETATM    2  N4  UNL     1       0.293  52.800 -24.637  1.00  0.00    -0.199 N 
ATOM      3  H4  UNL     1       0.643  53.304 -25.451  1.00  0.00     0.183 HD
HETATM    4  C9  UNL     1       0.565  53.251 -23.387  1.00  0.00     0.140 A 
HETATM    5  C10 UNL     1       0.085  52.553 -22.293  1.00  0.00     0.110 A 
HETATM    6  N5  UNL     1       0.167  52.765 -20.947  1.00  0.00    -0.186 N 
ATOM      7  H5  UNL     1       0.661  53.522 -20.475  1.00  0.00     0.184 HD
HETATM    8  C11 UNL     1      -0.522  51.793 -20.379  1.00  0.00     0.687 A 
HETATM    9  N7  UNL     1      -0.977  50.897 -21.344  1.00  0.00    -0.160 N 
HETATM   10  C23 UNL     1      -0.642  51.415 -22.571  1.00  0.00     0.168 A 
HETATM   11  N8  UNL     1      -0.944  50.938 -23.789  1.00  0.00    -0.173 N 
ATOM     12  H8  UNL     1      -1.498  50.095 -23.937  1.00  0.00     0.186 HD
ENDROOT
BRANCH   1  13
HETATM   13  N3  UNL     1      -0.753  51.191 -26.065  1.00  0.00    -0.192 N 
HETATM   14  H10 UNL     1      -0.046  51.501 -26.715  1.00  0.00     0.184 HD
BRANCH  13  15
HETATM   15  C7  UNL     1      -1.773  50.386 -26.579  1.00  0.00     0.049 A 
HETATM   16  C6  UNL     1      -2.494  50.843 -27.687  1.00  0.00     0.032 A 
HETATM   17  C5  UNL     1      -3.526  50.079 -28.253  1.00  0.00     0.031 A 
HETATM   18  C4  UNL     1      -3.881  48.822 -27.745  1.00  0.00     0.030 A 
HETATM   19  C25 UNL     1      -3.169  48.382 -26.623  1.00  0.00     0.031 A 
HETATM   20  C24 UNL     1      -2.133  49.146 -26.056  1.00  0.00     0.032 A 
BRANCH  18  21
HETATM   21  N2  UNL     1      -4.926  48.097 -28.338  1.00  0.00    -0.378 N 
HETATM   22  C3  UNL     1      -5.344  48.475 -29.704  1.00  0.00     0.153 C 
HETATM   23  C2  UNL     1      -6.345  47.446 -30.279  1.00  0.00     0.291 C 
HETATM   24  N1  UNL     1      -7.531  47.177 -29.437  1.00  0.00     0.087 N 
HETATM   25  C1  UNL     1      -8.454  48.310 -29.426  1.00  0.00     0.310 C 
HETATM   26  C27 UNL     1      -7.069  46.835 -28.074  1.00  0.00     0.291 C 
HETATM   27  C26 UNL     1      -6.066  47.826 -27.430  1.00  0.00     0.153 C 
ENDBRANCH  18  21
ENDBRANCH  13  15
ENDBRANCH   1  13
BRANCH   9  28
HETATM   28  C18 UNL     1      -1.704  49.670 -21.099  1.00  0.00     0.109 C 
HETATM   29  C19 UNL     1      -2.692  49.313 -22.212  1.00  0.00     0.026 C 
HETATM   30  C20 UNL     1      -2.963  47.815 -22.048  1.00  0.00     0.002 C 
HETATM   31  C21 UNL     1      -1.976  47.306 -20.997  1.00  0.00     0.002 C 
HETATM   32  C22 UNL     1      -0.899  48.379 -20.914  1.00  0.00     0.026 C 
ENDBRANCH   9  28
BRANCH   8  33
HETATM   33  N6  UNL     1      -0.821  51.626 -19.066  1.00  0.00    -0.191 N 
HETATM   34  H12 UNL     1      -1.784  51.674 -18.757  1.00  0.00     0.184 HD
BRANCH  33  35
HETATM   35  C12 UNL     1       0.069  51.562 -17.970  1.00  0.00     0.049 A 
HETATM   36  C13 UNL     1       1.050  52.522 -17.698  1.00  0.00     0.030 A 
HETATM   37  C14 UNL     1       1.896  52.402 -16.589  1.00  0.00     0.002 A 
HETATM   38  C15 UNL     1       1.773  51.316 -15.727  1.00  0.00     0.000 A 
HETATM   39  C16 UNL     1       0.807  50.347 -15.978  1.00  0.00     0.002 A 
HETATM   40  C17 UNL     1      -0.033  50.470 -17.089  1.00  0.00     0.030 A 
ENDBRANCH  33  35
ENDBRANCH   8  33
TORSDOF 6
ENDMDL
MODEL 5
REMARK minimizedAffinity -9.17682362
REMARK CNNscore 0.235114068
REMARK CNNaffinity 7.36011171
REMARK  6 active torsions:
REMARK  status: ('A' for Active; 'I' for Inactive)
REMARK    1  A    between atoms: N2_5  and  C4_6 
REMARK    2  A    between atoms: C7_9  and  N3_10 
REMARK    3  A    between atoms: N3_10  and  C8_11 
REMARK    4  A    between atoms: C11_18  and  N6_19 
REMARK    5  A    between atoms: N6_19  and  C12_20 
REMARK    6  A    between atoms: N7_26  and  C18_27 
ROOT
HETATM    1  C8  UNL     1      -0.441  50.949 -19.369  1.00  0.00     0.684 A 
HETATM    2  N4  UNL     1       0.213  52.129 -19.377  1.00  0.00    -0.199 N 
ATOM      3  H4  UNL     1       0.572  52.522 -18.507  1.00  0.00     0.183 HD
HETATM    4  C9  UNL     1       0.392  52.790 -20.548  1.00  0.00     0.140 A 
HETATM    5  C10 UNL     1      -0.104  52.244 -21.719  1.00  0.00     0.110 A 
HETATM    6  N5  UNL     1      -0.063  52.646 -23.022  1.00  0.00    -0.186 N 
ATOM      7  H5  UNL     1       0.352  53.505 -23.386  1.00  0.00     0.184 HD
HETATM    8  C11 UNL     1      -0.666  51.702 -23.718  1.00  0.00     0.687 A 
HETATM    9  N7  UNL     1      -1.182  50.729 -22.866  1.00  0.00    -0.160 N 
HETATM   10  C23 UNL     1      -0.770  51.043 -21.593  1.00  0.00     0.168 A 
HETATM   11  N8  UNL     1      -0.961  50.350 -20.460  1.00  0.00    -0.173 N 
ATOM     12  H8  UNL     1      -1.451  49.457 -20.427  1.00  0.00     0.186 HD
ENDROOT
BRANCH   1  13
HETATM   13  N3  UNL     1      -0.635  50.236 -18.188  1.00  0.00    -0.192 N 
HETATM   14  H10 UNL     1      -0.317  49.287 -18.324  1.00  0.00     0.184 HD
BRANCH  13  15
HETATM   15  C7  UNL     1      -1.132  50.559 -16.923  1.00  0.00     0.049 A 
HETATM   16  C6  UNL     1      -0.227  50.731 -15.869  1.00  0.00     0.032 A 
HETATM   17  C5  UNL     1      -0.663  51.063 -14.578  1.00  0.00     0.031 A 
HETATM   18  C4  UNL     1      -2.020  51.244 -14.279  1.00  0.00     0.030 A 
HETATM   19  C25 UNL     1      -2.921  51.049 -15.332  1.00  0.00     0.031 A 
HETATM   20  C24 UNL     1      -2.485  50.719 -16.628  1.00  0.00     0.032 A 
BRANCH  18  21
HETATM   21  N2  UNL     1      -2.412  51.567 -12.969  1.00  0.00    -0.378 N 
HETATM   22  C3  UNL     1      -3.459  52.593 -12.792  1.00  0.00     0.153 C 
HETATM   23  C2  UNL     1      -3.917  52.666 -11.317  1.00  0.00     0.291 C 
HETATM   24  N1  UNL     1      -2.835  52.863 -10.327  1.00  0.00     0.087 N 
HETATM   25  C1  UNL     1      -2.283  54.214 -10.391  1.00  0.00     0.310 C 
HETATM   26  C27 UNL     1      -1.794  51.837 -10.561  1.00  0.00     0.291 C 
HETATM   27  C26 UNL     1      -1.283  51.710 -12.019  1.00  0.00     0.153 C 
ENDBRANCH  18  21
ENDBRANCH  13  15
ENDBRANCH   1  13
BRANCH   9  28
HETATM   28  C18 UNL     1      -1.968  49.578 -23.254  1.00  0.00     0.109 C 
HETATM   29  C19 UNL     1      -2.810  49.000 -22.114  1.00  0.00     0.026 C 
HETATM   30  C20 UNL     1      -3.905  48.176 -22.796  1.00  0.00     0.002 C 
HETATM   31  C21 UNL     1      -3.803  48.469 -24.293  1.00  0.00     0.002 C 
HETATM   32  C22 UNL     1      -2.983  49.749 -24.391  1.00  0.00     0.026 C 
ENDBRANCH   9  28
BRANCH   8  33
HETATM   33  N6  UNL     1      -0.788  51.593 -25.066  1.00  0.00    -0.191 N 
HETATM   34  H12 UNL     1      -1.678  51.333 -25.474  1.00  0.00     0.184 HD
BRANCH  33  35
HETATM   35  C12 UNL     1       0.237  51.618 -26.039  1.00  0.00     0.049 A 
HETATM   36  C13 UNL     1       1.596  51.452 -25.753  1.00  0.00     0.030 A 
HETATM   37  C14 UNL     1       2.561  51.481 -26.767  1.00  0.00     0.002 A 
HETATM   38  C15 UNL     1       2.180  51.674 -28.091  1.00  0.00     0.000 A 
HETATM   39  C16 UNL     1       0.835  51.844 -28.401  1.00  0.00     0.002 A 
HETATM   40  C17 UNL     1      -0.124  51.819 -27.384  1.00  0.00     0.030 A 
ENDBRANCH  33  35
ENDBRANCH   8  33
TORSDOF 6
ENDMDL
MODEL 6
REMARK minimizedAffinity -10.1743698
REMARK CNNscore 0.195825621
REMARK CNNaffinity 6.68907881
REMARK  6 active torsions:
REMARK  status: ('A' for Active; 'I' for Inactive)
REMARK    1  A    between atoms: N2_5  and  C4_6 
REMARK    2  A    between atoms: C7_9  and  N3_10 
REMARK    3  A    between atoms: N3_10  and  C8_11 
REMARK    4  A    between atoms: C11_18  and  N6_19 
REMARK    5  A    between atoms: N6_19  and  C12_20 
REMARK    6  A    between atoms: N7_26  and  C18_27 
ROOT
HETATM    1  C8  UNL     1      -3.634  49.275 -26.700  1.00  0.00     0.684 A 
HETATM    2  N4  UNL     1      -4.522  49.637 -25.751  1.00  0.00    -0.199 N 
ATOM      3  H4  UNL     1      -5.486  49.308 -25.798  1.00  0.00     0.183 HD
HETATM    4  C9  UNL     1      -4.126  50.441 -24.733  1.00  0.00     0.140 A 
HETATM    5  C10 UNL     1      -2.814  50.881 -24.685  1.00  0.00     0.110 A 
HETATM    6  N5  UNL     1      -2.126  51.657 -23.798  1.00  0.00    -0.186 N 
ATOM      7  H5  UNL     1      -2.498  52.108 -22.962  1.00  0.00     0.184 HD
HETATM    8  C11 UNL     1      -0.884  51.708 -24.240  1.00  0.00     0.687 A 
HETATM    9  N7  UNL     1      -0.778  51.044 -25.460  1.00  0.00    -0.160 N 
HETATM   10  C23 UNL     1      -1.997  50.464 -25.714  1.00  0.00     0.168 A 
HETATM   11  N8  UNL     1      -2.343  49.662 -26.733  1.00  0.00    -0.173 N 
ATOM     12  H8  UNL     1      -1.691  49.373 -27.463  1.00  0.00     0.186 HD
ENDROOT
BRANCH   1  13
HETATM   13  N3  UNL     1      -4.001  48.442 -27.756  1.00  0.00    -0.192 N 
HETATM   14  H10 UNL     1      -3.165  48.058 -28.173  1.00  0.00     0.184 HD
BRANCH  13  15
HETATM   15  C7  UNL     1      -5.221  48.040 -28.304  1.00  0.00     0.049 A 
HETATM   16  C6  UNL     1      -6.223  47.577 -27.444  1.00  0.00     0.032 A 
HETATM   17  C5  UNL     1      -7.473  47.165 -27.932  1.00  0.00     0.031 A 
HETATM   18  C4  UNL     1      -7.782  47.203 -29.299  1.00  0.00     0.030 A 
HETATM   19  C25 UNL     1      -6.767  47.647 -30.154  1.00  0.00     0.031 A 
HETATM   20  C24 UNL     1      -5.516  48.062 -29.666  1.00  0.00     0.032 A 
BRANCH  18  21
HETATM   21  N2  UNL     1      -9.043  46.773 -29.743  1.00  0.00    -0.378 N 
HETATM   22  C3  UNL     1      -9.428  45.371 -29.480  1.00  0.00     0.153 C 
HETATM   23  C2  UNL     1     -10.913  45.130 -29.838  1.00  0.00     0.291 C 
HETATM   24  N1  UNL     1     -11.305  45.521 -31.210  1.00  0.00     0.087 N 
HETATM   25  C1  UNL     1     -10.750  44.611 -32.210  1.00  0.00     0.310 C 
HETATM   26  C27 UNL     1     -10.872  46.917 -31.441  1.00  0.00     0.291 C 
HETATM   27  C26 UNL     1      -9.392  47.230 -31.109  1.00  0.00     0.153 C 
ENDBRANCH  18  21
ENDBRANCH  13  15
ENDBRANCH   1  13
BRANCH   9  28
HETATM   28  C18 UNL     1       0.407  50.948 -26.284  1.00  0.00     0.109 C 
HETATM   29  C19 UNL     1       0.229  51.544 -27.682  1.00  0.00     0.026 C 
HETATM   30  C20 UNL     1       1.647  51.815 -28.190  1.00  0.00     0.002 C 
HETATM   31  C21 UNL     1       2.588  51.576 -27.009  1.00  0.00     0.002 C 
HETATM   32  C22 UNL     1       1.693  51.613 -25.778  1.00  0.00     0.026 C 
ENDBRANCH   9  28
BRANCH   8  33
HETATM   33  N6  UNL     1       0.200  52.271 -23.649  1.00  0.00    -0.191 N 
HETATM   34  H12 UNL     1       1.041  52.436 -24.188  1.00  0.00     0.184 HD
BRANCH  33  35
HETATM   35  C12 UNL     1       0.412  52.520 -22.274  1.00  0.00     0.049 A 
HETATM   36  C13 UNL     1      -0.009  51.669 -21.247  1.00  0.00     0.030 A 
HETATM   37  C14 UNL     1       0.240  51.972 -19.903  1.00  0.00     0.002 A 
HETATM   38  C15 UNL     1       0.920  53.138 -19.562  1.00  0.00     0.000 A 
HETATM   39  C16 UNL     1       1.347  54.002 -20.565  1.00  0.00     0.002 A 
HETATM   40  C17 UNL     1       1.092  53.696 -21.905  1.00  0.00     0.030 A 
ENDBRANCH  33  35
ENDBRANCH   8  33
TORSDOF 6
ENDMDL
MODEL 7
REMARK minimizedAffinity -10.3187656
REMARK CNNscore 0.183665261
REMARK CNNaffinity 6.75611639
REMARK  6 active torsions:
REMARK  status: ('A' for Active; 'I' for Inactive)
REMARK    1  A    between atoms: N2_5  and  C4_6 
REMARK    2  A    between atoms: C7_9  and  N3_10 
REMARK    3  A    between atoms: N3_10  and  C8_11 
REMARK    4  A    between atoms: C11_18  and  N6_19 
REMARK    5  A    between atoms: N6_19  and  C12_20 
REMARK    6  A    between atoms: N7_26  and  C18_27 
ROOT
HETATM    1  C8  UNL     1      -3.550  49.310 -26.694  1.00  0.00     0.684 A 
HETATM    2  N4  UNL     1      -4.438  49.691 -25.752  1.00  0.00    -0.199 N 
ATOM      3  H4  UNL     1      -5.402  49.360 -25.792  1.00  0.00     0.183 HD
HETATM    4  C9  UNL     1      -4.043  50.519 -24.753  1.00  0.00     0.140 A 
HETATM    5  C10 UNL     1      -2.732  50.962 -24.717  1.00  0.00     0.110 A 
HETATM    6  N5  UNL     1      -2.045  51.760 -23.848  1.00  0.00    -0.186 N 
ATOM      7  H5  UNL     1      -2.416  52.228 -23.022  1.00  0.00     0.184 HD
HETATM    8  C11 UNL     1      -0.803  51.803 -24.293  1.00  0.00     0.687 A 
HETATM    9  N7  UNL     1      -0.697  51.112 -25.497  1.00  0.00    -0.160 N 
HETATM   10  C23 UNL     1      -1.915  50.523 -25.737  1.00  0.00     0.168 A 
HETATM   11  N8  UNL     1      -2.260  49.698 -26.738  1.00  0.00    -0.173 N 
ATOM     12  H8  UNL     1      -1.609  49.394 -27.462  1.00  0.00     0.186 HD
ENDROOT
BRANCH   1  13
HETATM   13  N3  UNL     1      -3.917  48.452 -27.731  1.00  0.00    -0.192 N 
HETATM   14  H10 UNL     1      -3.083  48.036 -28.118  1.00  0.00     0.184 HD
BRANCH  13  15
HETATM   15  C7  UNL     1      -5.136  48.062 -28.290  1.00  0.00     0.049 A 
HETATM   16  C6  UNL     1      -6.126  47.544 -27.448  1.00  0.00     0.032 A 
HETATM   17  C5  UNL     1      -7.373  47.140 -27.949  1.00  0.00     0.031 A 
HETATM   18  C4  UNL     1      -7.693  47.242 -29.310  1.00  0.00     0.030 A 
HETATM   19  C25 UNL     1      -6.689  47.741 -30.148  1.00  0.00     0.031 A 
HETATM   20  C24 UNL     1      -5.440  48.148 -29.648  1.00  0.00     0.032 A 
BRANCH  18  21
HETATM   21  N2  UNL     1      -8.950  46.818 -29.767  1.00  0.00    -0.378 N 
HETATM   22  C3  UNL     1      -9.763  47.775 -30.545  1.00  0.00     0.153 C 
HETATM   23  C2  UNL     1     -11.007  47.081 -31.148  1.00  0.00     0.291 C 
HETATM   24  N1  UNL     1     -11.858  46.355 -30.180  1.00  0.00     0.087 N 
HETATM   25  C1  UNL     1     -12.592  47.272 -29.311  1.00  0.00     0.310 C 
HETATM   26  C27 UNL     1     -11.000  45.433 -29.402  1.00  0.00     0.291 C 
HETATM   27  C26 UNL     1      -9.736  46.062 -28.763  1.00  0.00     0.153 C 
ENDBRANCH  18  21
ENDBRANCH  13  15
ENDBRANCH   1  13
BRANCH   9  28
HETATM   28  C18 UNL     1       0.487  51.000 -26.320  1.00  0.00     0.109 C 
HETATM   29  C19 UNL     1       0.321  51.603 -27.716  1.00  0.00     0.026 C 
HETATM   30  C20 UNL     1       1.744  51.853 -28.222  1.00  0.00     0.002 C 
HETATM   31  C21 UNL     1       2.679  51.594 -27.041  1.00  0.00     0.002 C 
HETATM   32  C22 UNL     1       1.783  51.642 -25.810  1.00  0.00     0.026 C 
ENDBRANCH   9  28
BRANCH   8  33
HETATM   33  N6  UNL     1       0.281  52.381 -23.715  1.00  0.00    -0.191 N 
HETATM   34  H12 UNL     1       1.122  52.532 -24.258  1.00  0.00     0.184 HD
BRANCH  33  35
HETATM   35  C12 UNL     1       0.492  52.665 -22.347  1.00  0.00     0.049 A 
HETATM   36  C13 UNL     1       1.131  53.816 -21.873  1.00  0.00     0.030 A 
HETATM   37  C14 UNL     1       1.303  54.040 -20.502  1.00  0.00     0.002 A 
HETATM   38  C15 UNL     1       0.834  53.112 -19.576  1.00  0.00     0.000 A 
HETATM   39  C16 UNL     1       0.199  51.958 -20.022  1.00  0.00     0.002 A 
HETATM   40  C17 UNL     1       0.033  51.738 -21.393  1.00  0.00     0.030 A 
ENDBRANCH  33  35
ENDBRANCH   8  33
TORSDOF 6
ENDMDL
MODEL 8
REMARK minimizedAffinity -9.30688667
REMARK CNNscore 0.108822003
REMARK CNNaffinity 6.34483337
REMARK  6 active torsions:
REMARK  status: ('A' for Active; 'I' for Inactive)
REMARK    1  A    between atoms: N2_5  and  C4_6 
REMARK    2  A    between atoms: C7_9  and  N3_10 
REMARK    3  A    between atoms: N3_10  and  C8_11 
REMARK    4  A    between atoms: C11_18  and  N6_19 
REMARK    5  A    between atoms: N6_19  and  C12_20 
REMARK    6  A    between atoms: N7_26  and  C18_27 
ROOT
HETATM    1  C8  UNL     1      -1.533  48.787 -19.930  1.00  0.00     0.684 A 
HETATM    2  N4  UNL     1      -2.339  48.076 -20.746  1.00  0.00    -0.199 N 
ATOM      3  H4  UNL     1      -2.855  47.274 -20.385  1.00  0.00     0.183 HD
HETATM    4  C9  UNL     1      -2.459  48.432 -22.049  1.00  0.00     0.140 A 
HETATM    5  C10 UNL     1      -1.748  49.522 -22.523  1.00  0.00     0.110 A 
HETATM    6  N5  UNL     1      -1.681  50.127 -23.745  1.00  0.00    -0.186 N 
ATOM      7  H5  UNL     1      -2.162  49.840 -24.598  1.00  0.00     0.184 HD
HETATM    8  C11 UNL     1      -0.870  51.157 -23.601  1.00  0.00     0.687 A 
HETATM    9  N7  UNL     1      -0.336  51.175 -22.315  1.00  0.00    -0.160 N 
HETATM   10  C23 UNL     1      -0.944  50.166 -21.607  1.00  0.00     0.168 A 
HETATM   11  N8  UNL     1      -0.803  49.855 -20.310  1.00  0.00    -0.173 N 
ATOM     12  H8  UNL     1      -0.201  50.376 -19.672  1.00  0.00     0.186 HD
ENDROOT
BRANCH   1  13
HETATM   13  N3  UNL     1      -1.392  48.457 -18.583  1.00  0.00    -0.192 N 
HETATM   14  H10 UNL     1      -1.223  47.465 -18.506  1.00  0.00     0.184 HD
BRANCH  13  15
HETATM   15  C7  UNL     1      -1.415  49.187 -17.392  1.00  0.00     0.049 A 
HETATM   16  C6  UNL     1      -2.568  49.911 -17.070  1.00  0.00     0.032 A 
HETATM   17  C5  UNL     1      -2.655  50.659 -15.886  1.00  0.00     0.031 A 
HETATM   18  C4  UNL     1      -1.600  50.712 -14.965  1.00  0.00     0.030 A 
HETATM   19  C25 UNL     1      -0.442  50.002 -15.305  1.00  0.00     0.031 A 
HETATM   20  C24 UNL     1      -0.354  49.252 -16.490  1.00  0.00     0.032 A 
BRANCH  18  21
HETATM   21  N2  UNL     1      -1.728  51.480 -13.797  1.00  0.00    -0.378 N 
HETATM   22  C3  UNL     1      -0.675  51.357 -12.768  1.00  0.00     0.153 C 
HETATM   23  C2  UNL     1      -0.858  52.422 -11.661  1.00  0.00     0.291 C 
HETATM   24  N1  UNL     1      -2.194  52.450 -11.025  1.00  0.00     0.087 N 
HETATM   25  C1  UNL     1      -2.409  51.287 -10.167  1.00  0.00     0.310 C 
HETATM   26  C27 UNL     1      -3.218  52.540 -12.090  1.00  0.00     0.291 C 
HETATM   27  C26 UNL     1      -3.099  51.500 -13.233  1.00  0.00     0.153 C 
ENDBRANCH  18  21
ENDBRANCH  13  15
ENDBRANCH   1  13
BRANCH   9  28
HETATM   28  C18 UNL     1       0.645  52.109 -21.807  1.00  0.00     0.109 C 
HETATM   29  C19 UNL     1       0.782  53.374 -22.656  1.00  0.00     0.026 C 
HETATM   30  C20 UNL     1       1.433  54.411 -21.738  1.00  0.00     0.002 C 
HETATM   31  C21 UNL     1       1.458  53.799 -20.337  1.00  0.00     0.002 C 
HETATM   32  C22 UNL     1       0.453  52.656 -20.387  1.00  0.00     0.026 C 
ENDBRANCH   9  28
BRANCH   8  33
HETATM   33  N6  UNL     1      -0.566  52.125 -24.503  1.00  0.00    -0.191 N 
HETATM   34  H12 UNL     1      -0.993  53.039 -24.426  1.00  0.00     0.184 HD
BRANCH  33  35
HETATM   35  C12 UNL     1       0.166  51.997 -25.705  1.00  0.00     0.049 A 
HETATM   36  C13 UNL     1       1.539  51.734 -25.766  1.00  0.00     0.030 A 
HETATM   37  C14 UNL     1       2.202  51.613 -26.992  1.00  0.00     0.002 A 
HETATM   38  C15 UNL     1       1.500  51.751 -28.186  1.00  0.00     0.000 A 
HETATM   39  C16 UNL     1       0.135  52.017 -28.153  1.00  0.00     0.002 A 
HETATM   40  C17 UNL     1      -0.522  52.140 -26.924  1.00  0.00     0.030 A 
ENDBRANCH  33  35
ENDBRANCH   8  33
TORSDOF 6
ENDMDL
MODEL 9
REMARK minimizedAffinity -8.86328697
REMARK CNNscore 0.095162116
REMARK CNNaffinity 6.2887826
REMARK  6 active torsions:
REMARK  status: ('A' for Active; 'I' for Inactive)
REMARK    1  A    between atoms: N2_5  and  C4_6 
REMARK    2  A    between atoms: C7_9  and  N3_10 
REMARK    3  A    between atoms: N3_10  and  C8_11 
REMARK    4  A    between atoms: C11_18  and  N6_19 
REMARK    5  A    between atoms: N6_19  and  C12_20 
REMARK    6  A    between atoms: N7_26  and  C18_27 
ROOT
HETATM    1  C8  UNL     1      -4.366  49.056 -25.998  1.00  0.00     0.684 A 
HETATM    2  N4  UNL     1      -3.645  49.926 -26.735  1.00  0.00    -0.199 N 
ATOM      3  H4  UNL     1      -3.900  50.110 -27.706  1.00  0.00     0.183 HD
HETATM    4  C9  UNL     1      -2.579  50.555 -26.180  1.00  0.00     0.140 A 
HETATM    5  C10 UNL     1      -2.246  50.292 -24.862  1.00  0.00     0.110 A 
HETATM    6  N5  UNL     1      -1.272  50.773 -24.037  1.00  0.00    -0.186 N 
ATOM      7  H5  UNL     1      -0.543  51.446 -24.276  1.00  0.00     0.184 HD
HETATM    8  C11 UNL     1      -1.461  50.193 -22.867  1.00  0.00     0.687 A 
HETATM    9  N7  UNL     1      -2.499  49.267 -22.950  1.00  0.00    -0.160 N 
HETATM   10  C23 UNL     1      -3.040  49.374 -24.208  1.00  0.00     0.168 A 
HETATM   11  N8  UNL     1      -4.107  48.737 -24.714  1.00  0.00    -0.173 N 
ATOM     12  H8  UNL     1      -4.669  48.075 -24.178  1.00  0.00     0.186 HD
ENDROOT
BRANCH   1  13
HETATM   13  N3  UNL     1      -5.473  48.398 -26.531  1.00  0.00    -0.192 N 
HETATM   14  H10 UNL     1      -6.206  48.380 -25.837  1.00  0.00     0.184 HD
BRANCH  13  15
HETATM   15  C7  UNL     1      -5.760  47.813 -27.767  1.00  0.00     0.049 A 
HETATM   16  C6  UNL     1      -6.807  46.889 -27.846  1.00  0.00     0.032 A 
HETATM   17  C5  UNL     1      -7.148  46.271 -29.059  1.00  0.00     0.031 A 
HETATM   18  C4  UNL     1      -6.465  46.553 -30.250  1.00  0.00     0.030 A 
HETATM   19  C25 UNL     1      -5.405  47.462 -30.158  1.00  0.00     0.031 A 
HETATM   20  C24 UNL     1      -5.064  48.083 -28.944  1.00  0.00     0.032 A 
BRANCH  18  21
HETATM   21  N2  UNL     1      -6.835  45.905 -31.439  1.00  0.00    -0.378 N 
HETATM   22  C3  UNL     1      -8.026  46.403 -32.157  1.00  0.00     0.153 C 
HETATM   23  C2  UNL     1      -8.160  45.724 -33.541  1.00  0.00     0.291 C 
HETATM   24  N1  UNL     1      -8.154  44.245 -33.523  1.00  0.00     0.087 N 
HETATM   25  C1  UNL     1      -9.390  43.706 -32.959  1.00  0.00     0.310 C 
HETATM   26  C27 UNL     1      -6.965  43.790 -32.767  1.00  0.00     0.291 C 
HETATM   27  C26 UNL     1      -6.770  44.426 -31.368  1.00  0.00     0.153 C 
ENDBRANCH  18  21
ENDBRANCH  13  15
ENDBRANCH   1  13
BRANCH   9  28
HETATM   28  C18 UNL     1      -2.949  48.387 -21.894  1.00  0.00     0.109 C 
HETATM   29  C19 UNL     1      -4.451  48.100 -21.936  1.00  0.00     0.026 C 
HETATM   30  C20 UNL     1      -4.642  46.818 -21.122  1.00  0.00     0.002 C 
HETATM   31  C21 UNL     1      -3.243  46.283 -20.815  1.00  0.00     0.002 C 
HETATM   32  C22 UNL     1      -2.325  46.989 -21.804  1.00  0.00     0.026 C 
ENDBRANCH   9  28
BRANCH   8  33
HETATM   33  N6  UNL     1      -0.815  50.423 -21.696  1.00  0.00    -0.191 N 
HETATM   34  H12 UNL     1      -0.849  49.732 -20.956  1.00  0.00     0.184 HD
BRANCH  33  35
HETATM   35  C12 UNL     1      -0.209  51.621 -21.255  1.00  0.00     0.049 A 
HETATM   36  C13 UNL     1       0.706  52.363 -22.010  1.00  0.00     0.030 A 
HETATM   37  C14 UNL     1       1.265  53.547 -21.516  1.00  0.00     0.002 A 
HETATM   38  C15 UNL     1       0.916  54.013 -20.252  1.00  0.00     0.000 A 
HETATM   39  C16 UNL     1       0.012  53.291 -19.480  1.00  0.00     0.002 A 
HETATM   40  C17 UNL     1      -0.541  52.107 -19.977  1.00  0.00     0.030 A 
ENDBRANCH  33  35
ENDBRANCH   8  33
TORSDOF 6
ENDMDL
