MODEL 1
REMARK minimizedAffinity -9.48528957
REMARK  7 active torsions:
REMARK  status: ('A' for Active; 'I' for Inactive)
REMARK    1  A    between atoms: C2_2  and  S1_3 
REMARK    2  A    between atoms: S1_3  and  C3_6 
REMARK    3  A    between atoms: C10_13  and  C11_14 
REMARK    4  A    between atoms: C14_18  and  C15_19 
REMARK    5  A    between atoms: C15_19  and  C16_20 
REMARK    6  A    between atoms: C16_20  and  C17_21 
REMARK    7  A    between atoms: C17_21  and  N2_22 
ROOT
HETATM    1  C11 UNL     1      -0.857   5.637  11.999  1.00  0.00     0.040 A 
HETATM    2  N1  UNL     1      -0.304   5.609  10.741  1.00  0.00    -0.359 N 
HETATM    3  C12 UNL     1       0.965   6.107  10.793  1.00  0.00     0.016 A 
HETATM    4  C13 UNL     1       1.237   6.468  12.096  1.00  0.00    -0.027 A 
HETATM    5  C14 UNL     1       0.079   6.175  12.874  1.00  0.00    -0.023 A 
HETATM    6  C23 UNL     1       2.564   7.016  12.510  1.00  0.00     0.041 C 
HETATM    7  C24 UNL     1       3.383   7.477  11.288  1.00  0.00     0.005 C 
HETATM    8  C25 UNL     1       3.322   6.463  10.130  1.00  0.00     0.006 C 
HETATM    9  C26 UNL     1       1.884   6.237   9.632  1.00  0.00     0.057 C 
HETATM   10  H10 UNL     1      -0.758   5.250   9.911  1.00  0.00     0.166 HD
ENDROOT
BRANCH   1  11
HETATM   11  C10 UNL     1      -2.189   5.185  12.140  1.00  0.00     0.048 C 
HETATM   12  C9  UNL     1      -2.599   3.956  11.795  1.00  0.00     0.047 A 
HETATM   13  C7  UNL     1      -3.966   3.454  11.985  1.00  0.00     0.008 A 
HETATM   14  C27 UNL     1      -1.810   2.841  11.146  1.00  0.00     0.257 A 
HETATM   15  C6  UNL     1      -3.977   2.147  11.484  1.00  0.00     0.046 A 
HETATM   16  C8  UNL     1      -5.112   4.006  12.530  1.00  0.00     0.038 A 
HETATM   17  C5  UNL     1      -5.107   1.354  11.488  1.00  0.00     0.032 A 
HETATM   18  N4  UNL     1      -2.720   1.802  11.002  1.00  0.00    -0.322 N 
HETATM   19  C4  UNL     1      -6.274   1.900  12.031  1.00  0.00     0.026 A 
HETATM   20  C3  UNL     1      -6.265   3.207  12.559  1.00  0.00     0.060 A 
HETATM   21  H36 UNL     1      -2.464   0.921  10.581  1.00  0.00     0.169 HD
HETATM   22  O3  UNL     1      -0.647   2.817  10.798  1.00  0.00    -0.267 OA
BRANCH  20  23
HETATM   23  S1  UNL     1      -7.769   3.881  13.235  1.00  0.00     0.175 S 
HETATM   24  O1  UNL     1      -7.609   3.916  14.676  1.00  0.00    -0.223 OA
HETATM   25  O2  UNL     1      -8.870   3.164  12.622  1.00  0.00    -0.223 OA
BRANCH  23  26
HETATM   26  C2  UNL     1      -7.770   5.555  12.619  1.00  0.00     0.141 C 
HETATM   27  C1  UNL     1      -8.925   5.797  11.669  1.00  0.00     0.021 C 
ENDBRANCH  23  26
ENDBRANCH  20  23
ENDBRANCH   1  11
BRANCH   5  28
HETATM   28  C15 UNL     1      -0.078   6.394  14.348  1.00  0.00     0.043 C 
BRANCH  28  29
HETATM   29  C16 UNL     1      -1.532   6.338  14.830  1.00  0.00     0.035 C 
BRANCH  29  30
HETATM   30  C17 UNL     1      -1.918   7.553  15.686  1.00  0.00     0.273 C 
BRANCH  30  31
HETATM   31  N2  UNL     1      -3.371   7.675  15.871  1.00  0.00     0.091 N 
HETATM   32  C18 UNL     1      -3.893   8.995  15.451  1.00  0.00     0.302 C 
HETATM   33  C19 UNL     1      -5.382   9.011  15.006  1.00  0.00     0.302 C 
HETATM   34  N3  UNL     1      -6.184   7.992  15.692  1.00  0.00     0.087 N 
HETATM   35  C20 UNL     1      -7.595   8.069  15.341  1.00  0.00     0.310 C 
HETATM   36  C21 UNL     1      -5.631   6.646  15.450  1.00  0.00     0.302 C 
HETATM   37  C22 UNL     1      -4.100   6.598  15.189  1.00  0.00     0.302 C 
ENDBRANCH  30  31
ENDBRANCH  29  30
ENDBRANCH  28  29
ENDBRANCH   5  28
TORSDOF 7
ENDMDL
MODEL 2
REMARK minimizedAffinity -9.25207233
REMARK  7 active torsions:
REMARK  status: ('A' for Active; 'I' for Inactive)
REMARK    1  A    between atoms: C2_2  and  S1_3 
REMARK    2  A    between atoms: S1_3  and  C3_6 
REMARK    3  A    between atoms: C10_13  and  C11_14 
REMARK    4  A    between atoms: C14_18  and  C15_19 
REMARK    5  A    between atoms: C15_19  and  C16_20 
REMARK    6  A    between atoms: C16_20  and  C17_21 
REMARK    7  A    between atoms: C17_21  and  N2_22 
ROOT
HETATM    1  C11 UNL     1      -3.273   4.315  11.848  1.00  0.00     0.040 A 
HETATM    2  N1  UNL     1      -3.537   3.015  11.485  1.00  0.00    -0.359 N 
HETATM    3  C12 UNL     1      -4.797   2.681  11.888  1.00  0.00     0.016 A 
HETATM    4  C13 UNL     1      -5.354   3.770  12.525  1.00  0.00    -0.027 A 
HETATM    5  C14 UNL     1      -4.387   4.818  12.508  1.00  0.00    -0.023 A 
HETATM    6  C23 UNL     1      -6.749   3.753  13.058  1.00  0.00     0.041 C 
HETATM    7  C24 UNL     1      -7.291   2.314  13.158  1.00  0.00     0.005 C 
HETATM    8  C25 UNL     1      -6.959   1.478  11.907  1.00  0.00     0.006 C 
HETATM    9  C26 UNL     1      -5.443   1.359  11.674  1.00  0.00     0.057 C 
HETATM   10  H10 UNL     1      -2.907   2.411  10.974  1.00  0.00     0.166 HD
ENDROOT
BRANCH   1  11
HETATM   11  C10 UNL     1      -1.995   4.834  11.539  1.00  0.00     0.048 C 
HETATM   12  C9  UNL     1      -1.132   5.288  12.459  1.00  0.00     0.047 A 
HETATM   13  C7  UNL     1       0.219   5.779  12.158  1.00  0.00     0.008 A 
HETATM   14  C27 UNL     1      -1.322   5.419  13.953  1.00  0.00     0.257 A 
HETATM   15  C6  UNL     1       0.776   6.170  13.381  1.00  0.00     0.046 A 
HETATM   16  C8  UNL     1       0.948   5.894  10.987  1.00  0.00     0.038 A 
HETATM   17  C5  UNL     1       2.049   6.694  13.490  1.00  0.00     0.032 A 
HETATM   18  N4  UNL     1      -0.126   5.954  14.416  1.00  0.00    -0.322 N 
HETATM   19  C4  UNL     1       2.795   6.821  12.315  1.00  0.00     0.026 A 
HETATM   20  C3  UNL     1       2.249   6.408  11.082  1.00  0.00     0.060 A 
HETATM   21  H36 UNL     1       0.026   6.158  15.392  1.00  0.00     0.169 HD
HETATM   22  O3  UNL     1      -2.287   5.145  14.638  1.00  0.00    -0.267 OA
BRANCH  20  23
HETATM   23  S1  UNL     1       3.219   6.590   9.598  1.00  0.00     0.175 S 
HETATM   24  O1  UNL     1       2.799   5.545   8.685  1.00  0.00    -0.223 OA
HETATM   25  O2  UNL     1       4.605   6.713  10.009  1.00  0.00    -0.223 OA
BRANCH  23  26
HETATM   26  C2  UNL     1       2.677   8.163   8.957  1.00  0.00     0.141 C 
HETATM   27  C1  UNL     1       1.671   7.989   7.836  1.00  0.00     0.021 C 
ENDBRANCH  23  26
ENDBRANCH  20  23
ENDBRANCH   1  11
BRANCH   5  28
HETATM   28  C15 UNL     1      -4.560   6.193  13.079  1.00  0.00     0.043 C 
BRANCH  28  29
HETATM   29  C16 UNL     1      -6.023   6.593  13.295  1.00  0.00     0.035 C 
BRANCH  29  30
HETATM   30  C17 UNL     1      -6.297   7.087  14.723  1.00  0.00     0.273 C 
BRANCH  30  31
HETATM   31  N2  UNL     1      -7.732   7.231  15.006  1.00  0.00     0.091 N 
HETATM   32  C18 UNL     1      -8.107   8.617  15.366  1.00  0.00     0.302 C 
HETATM   33  C19 UNL     1      -9.580   9.009  15.060  1.00  0.00     0.302 C 
HETATM   34  N3  UNL     1     -10.493   7.864  15.139  1.00  0.00     0.087 N 
HETATM   35  C20 UNL     1     -11.883   8.250  14.942  1.00  0.00     0.310 C 
HETATM   36  C21 UNL     1     -10.080   6.803  14.202  1.00  0.00     0.302 C 
HETATM   37  C22 UNL     1      -8.559   6.753  13.891  1.00  0.00     0.302 C 
ENDBRANCH  30  31
ENDBRANCH  29  30
ENDBRANCH  28  29
ENDBRANCH   5  28
TORSDOF 7
ENDMDL
MODEL 3
REMARK minimizedAffinity -9.15857506
REMARK  7 active torsions:
REMARK  status: ('A' for Active; 'I' for Inactive)
REMARK    1  A    between atoms: C2_2  and  S1_3 
REMARK    2  A    between atoms: S1_3  and  C3_6 
REMARK    3  A    between atoms: C10_13  and  C11_14 
REMARK    4  A    between atoms: C14_18  and  C15_19 
REMARK    5  A    between atoms: C15_19  and  C16_20 
REMARK    6  A    between atoms: C16_20  and  C17_21 
REMARK    7  A    between atoms: C17_21  and  N2_22 
ROOT
HETATM    1  C11 UNL     1      -7.659   6.071  13.557  1.00  0.00     0.040 A 
HETATM    2  N1  UNL     1      -8.644   6.101  12.598  1.00  0.00    -0.359 N 
HETATM    3  C12 UNL     1      -9.762   6.684  13.119  1.00  0.00     0.016 A 
HETATM    4  C13 UNL     1      -9.504   7.030  14.428  1.00  0.00    -0.027 A 
HETATM    5  C14 UNL     1      -8.164   6.640  14.719  1.00  0.00    -0.023 A 
HETATM    6  C23 UNL     1     -10.513   7.729  15.281  1.00  0.00     0.041 C 
HETATM    7  C24 UNL     1     -11.923   7.639  14.665  1.00  0.00     0.005 C 
HETATM    8  C25 UNL     1     -11.913   7.908  13.148  1.00  0.00     0.006 C 
HETATM    9  C26 UNL     1     -11.038   6.897  12.385  1.00  0.00     0.057 C 
HETATM   10  H10 UNL     1      -8.547   5.768  11.648  1.00  0.00     0.166 HD
ENDROOT
BRANCH   1  11
HETATM   11  C10 UNL     1      -6.426   5.472  13.210  1.00  0.00     0.048 C 
HETATM   12  C9  UNL     1      -6.307   4.210  12.774  1.00  0.00     0.047 A 
HETATM   13  C7  UNL     1      -5.042   3.592  12.358  1.00  0.00     0.008 A 
HETATM   14  C27 UNL     1      -7.379   3.155  12.621  1.00  0.00     0.257 A 
HETATM   15  C6  UNL     1      -5.349   2.277  11.993  1.00  0.00     0.046 A 
HETATM   16  C8  UNL     1      -3.741   4.058  12.272  1.00  0.00     0.038 A 
HETATM   17  C5  UNL     1      -4.395   1.381  11.550  1.00  0.00     0.032 A 
HETATM   18  N4  UNL     1      -6.708   2.035  12.147  1.00  0.00    -0.322 N 
HETATM   19  C4  UNL     1      -3.077   1.836  11.462  1.00  0.00     0.026 A 
HETATM   20  C3  UNL     1      -2.763   3.167  11.807  1.00  0.00     0.060 A 
HETATM   21  H36 UNL     1      -7.185   1.165  11.961  1.00  0.00     0.169 HD
HETATM   22  O3  UNL     1      -8.569   3.220  12.858  1.00  0.00    -0.267 OA
BRANCH  20  23
HETATM   23  S1  UNL     1      -1.072   3.718  11.695  1.00  0.00     0.175 S 
HETATM   24  O1  UNL     1      -0.983   4.583  10.535  1.00  0.00    -0.223 OA
HETATM   25  O2  UNL     1      -0.233   2.541  11.818  1.00  0.00    -0.223 OA
BRANCH  23  26
HETATM   26  C2  UNL     1      -0.877   4.709  13.165  1.00  0.00     0.141 C 
HETATM   27  C1  UNL     1       0.412   5.506  13.130  1.00  0.00     0.021 C 
ENDBRANCH  23  26
ENDBRANCH  20  23
ENDBRANCH   1  11
BRANCH   5  28
HETATM   28  C15 UNL     1      -7.449   6.828  16.023  1.00  0.00     0.043 C 
BRANCH  28  29
HETATM   29  C16 UNL     1      -6.057   7.453  15.879  1.00  0.00     0.035 C 
BRANCH  29  30
HETATM   30  C17 UNL     1      -6.089   8.811  15.163  1.00  0.00     0.273 C 
BRANCH  30  31
HETATM   31  N2  UNL     1      -4.793   9.167  14.569  1.00  0.00     0.091 N 
HETATM   32  C18 UNL     1      -3.688   9.152  15.553  1.00  0.00     0.302 C 
HETATM   33  C19 UNL     1      -2.276   8.880  14.965  1.00  0.00     0.302 C 
HETATM   34  N3  UNL     1      -2.140   9.360  13.586  1.00  0.00     0.087 N 
HETATM   35  C20 UNL     1      -0.790   9.186  13.070  1.00  0.00     0.310 C 
HETATM   36  C21 UNL     1      -3.147   8.729  12.714  1.00  0.00     0.302 C 
HETATM   37  C22 UNL     1      -4.465   8.311  13.422  1.00  0.00     0.302 C 
ENDBRANCH  30  31
ENDBRANCH  29  30
ENDBRANCH  28  29
ENDBRANCH   5  28
TORSDOF 7
ENDMDL
MODEL 4
REMARK minimizedAffinity -9.10852337
REMARK  7 active torsions:
REMARK  status: ('A' for Active; 'I' for Inactive)
REMARK    1  A    between atoms: C2_2  and  S1_3 
REMARK    2  A    between atoms: S1_3  and  C3_6 
REMARK    3  A    between atoms: C10_13  and  C11_14 
REMARK    4  A    between atoms: C14_18  and  C15_19 
REMARK    5  A    between atoms: C15_19  and  C16_20 
REMARK    6  A    between atoms: C16_20  and  C17_21 
REMARK    7  A    between atoms: C17_21  and  N2_22 
ROOT
HETATM    1  C11 UNL     1      -0.730   5.614  12.074  1.00  0.00     0.040 A 
HETATM    2  N1  UNL     1      -0.072   5.509  10.871  1.00  0.00    -0.359 N 
HETATM    3  C12 UNL     1       1.198   5.988  11.008  1.00  0.00     0.016 A 
HETATM    4  C13 UNL     1       1.365   6.414  12.309  1.00  0.00    -0.027 A 
HETATM    5  C14 UNL     1       0.138   6.182  12.997  1.00  0.00    -0.023 A 
HETATM    6  C23 UNL     1       2.662   6.963  12.807  1.00  0.00     0.041 C 
HETATM    7  C24 UNL     1       3.593   7.344  11.639  1.00  0.00     0.005 C 
HETATM    8  C25 UNL     1       3.610   6.270  10.535  1.00  0.00     0.006 C 
HETATM    9  C26 UNL     1       2.216   6.040   9.925  1.00  0.00     0.057 C 
HETATM   10  H10 UNL     1      -0.459   5.113  10.025  1.00  0.00     0.166 HD
ENDROOT
BRANCH   1  11
HETATM   11  C10 UNL     1      -2.078   5.191  12.121  1.00  0.00     0.048 C 
HETATM   12  C9  UNL     1      -2.479   3.945  11.832  1.00  0.00     0.047 A 
HETATM   13  C7  UNL     1      -3.868   3.477  11.929  1.00  0.00     0.008 A 
HETATM   14  C27 UNL     1      -1.656   2.773  11.345  1.00  0.00     0.257 A 
HETATM   15  C6  UNL     1      -3.859   2.136  11.528  1.00  0.00     0.046 A 
HETATM   16  C8  UNL     1      -5.049   4.084  12.321  1.00  0.00     0.038 A 
HETATM   17  C5  UNL     1      -5.001   1.360  11.485  1.00  0.00     0.032 A 
HETATM   18  N4  UNL     1      -2.570   1.738  11.194  1.00  0.00    -0.322 N 
HETATM   19  C4  UNL     1      -6.201   1.961  11.873  1.00  0.00     0.026 A 
HETATM   20  C3  UNL     1      -6.214   3.305  12.300  1.00  0.00     0.060 A 
HETATM   21  H36 UNL     1      -2.294   0.824  10.867  1.00  0.00     0.169 HD
HETATM   22  O3  UNL     1      -0.466   2.707  11.112  1.00  0.00    -0.267 OA
BRANCH  20  23
HETATM   23  S1  UNL     1      -7.761   4.049  12.779  1.00  0.00     0.175 S 
HETATM   24  O1  UNL     1      -8.746   2.985  12.831  1.00  0.00    -0.223 OA
HETATM   25  O2  UNL     1      -7.957   5.208  11.930  1.00  0.00    -0.223 OA
BRANCH  23  26
HETATM   26  C2  UNL     1      -7.437   4.610  14.440  1.00  0.00     0.141 C 
HETATM   27  C1  UNL     1      -7.229   6.111  14.489  1.00  0.00     0.021 C 
ENDBRANCH  23  26
ENDBRANCH  20  23
ENDBRANCH   1  11
BRANCH   5  28
HETATM   28  C15 UNL     1      -0.140   6.483  14.439  1.00  0.00     0.043 C 
BRANCH  28  29
HETATM   29  C16 UNL     1      -1.000   7.734  14.654  1.00  0.00     0.035 C 
BRANCH  29  30
HETATM   30  C17 UNL     1      -2.109   7.518  15.693  1.00  0.00     0.273 C 
BRANCH  30  31
HETATM   31  N2  UNL     1      -2.676   8.780  16.186  1.00  0.00     0.091 N 
HETATM   32  C18 UNL     1      -1.684   9.613  16.903  1.00  0.00     0.302 C 
HETATM   33  C19 UNL     1      -1.963  11.141  16.890  1.00  0.00     0.302 C 
HETATM   34  N3  UNL     1      -3.395  11.450  16.820  1.00  0.00     0.087 N 
HETATM   35  C20 UNL     1      -3.658  12.879  16.900  1.00  0.00     0.310 C 
HETATM   36  C21 UNL     1      -3.999  10.846  15.617  1.00  0.00     0.302 C 
HETATM   37  C22 UNL     1      -3.305   9.553  15.108  1.00  0.00     0.302 C 
ENDBRANCH  30  31
ENDBRANCH  29  30
ENDBRANCH  28  29
ENDBRANCH   5  28
TORSDOF 7
ENDMDL
MODEL 5
REMARK minimizedAffinity -9.01508331
REMARK  7 active torsions:
REMARK  status: ('A' for Active; 'I' for Inactive)
REMARK    1  A    between atoms: C2_2  and  S1_3 
REMARK    2  A    between atoms: S1_3  and  C3_6 
REMARK    3  A    between atoms: C10_13  and  C11_14 
REMARK    4  A    between atoms: C14_18  and  C15_19 
REMARK    5  A    between atoms: C15_19  and  C16_20 
REMARK    6  A    between atoms: C16_20  and  C17_21 
REMARK    7  A    between atoms: C17_21  and  N2_22 
ROOT
HETATM    1  C11 UNL     1      -3.015   4.612  13.068  1.00  0.00     0.040 A 
HETATM    2  N1  UNL     1      -2.919   3.339  12.557  1.00  0.00    -0.359 N 
HETATM    3  C12 UNL     1      -4.169   2.874  12.267  1.00  0.00     0.016 A 
HETATM    4  C13 UNL     1      -5.085   3.851  12.598  1.00  0.00    -0.027 A 
HETATM    5  C14 UNL     1      -4.358   4.964  13.114  1.00  0.00    -0.023 A 
HETATM    6  C23 UNL     1      -6.551   3.678  12.370  1.00  0.00     0.041 C 
HETATM    7  C24 UNL     1      -6.906   2.199  12.118  1.00  0.00     0.005 C 
HETATM    8  C25 UNL     1      -5.914   1.519  11.155  1.00  0.00     0.006 C 
HETATM    9  C26 UNL     1      -4.474   1.536  11.697  1.00  0.00     0.057 C 
HETATM   10  H10 UNL     1      -2.056   2.837  12.396  1.00  0.00     0.166 HD
ENDROOT
BRANCH   1  11
HETATM   11  C10 UNL     1      -1.816   5.253  13.457  1.00  0.00     0.048 C 
HETATM   12  C9  UNL     1      -0.785   5.473  12.628  1.00  0.00     0.047 A 
HETATM   13  C7  UNL     1       0.443   6.185  13.003  1.00  0.00     0.008 A 
HETATM   14  C27 UNL     1      -0.625   5.057  11.183  1.00  0.00     0.257 A 
HETATM   15  C6  UNL     1       1.260   6.184  11.867  1.00  0.00     0.046 A 
HETATM   16  C8  UNL     1       0.867   6.796  14.171  1.00  0.00     0.038 A 
HETATM   17  C5  UNL     1       2.513   6.764  11.846  1.00  0.00     0.032 A 
HETATM   18  N4  UNL     1       0.628   5.529  10.817  1.00  0.00    -0.322 N 
HETATM   19  C4  UNL     1       2.956   7.381  13.019  1.00  0.00     0.026 A 
HETATM   20  C3  UNL     1       2.130   7.406  14.161  1.00  0.00     0.060 A 
HETATM   21  H36 UNL     1       1.006   5.383   9.892  1.00  0.00     0.169 HD
HETATM   22  O3  UNL     1      -1.387   4.439  10.467  1.00  0.00    -0.267 OA
BRANCH  20  23
HETATM   23  S1  UNL     1       2.725   8.190  15.646  1.00  0.00     0.175 S 
HETATM   24  O1  UNL     1       4.152   7.945  15.713  1.00  0.00    -0.223 OA
HETATM   25  O2  UNL     1       1.845   7.783  16.725  1.00  0.00    -0.223 OA
BRANCH  23  26
HETATM   26  C2  UNL     1       2.457   9.923  15.319  1.00  0.00     0.141 C 
HETATM   27  C1  UNL     1       2.979  10.789  16.448  1.00  0.00     0.021 C 
ENDBRANCH  23  26
ENDBRANCH  20  23
ENDBRANCH   1  11
BRANCH   5  28
HETATM   28  C15 UNL     1      -4.941   6.259  13.592  1.00  0.00     0.043 C 
BRANCH  28  29
HETATM   29  C16 UNL     1      -5.250   6.281  15.092  1.00  0.00     0.035 C 
BRANCH  29  30
HETATM   30  C17 UNL     1      -6.672   5.798  15.410  1.00  0.00     0.273 C 
BRANCH  30  31
HETATM   31  N2  UNL     1      -7.694   6.813  15.117  1.00  0.00     0.091 N 
HETATM   32  C18 UNL     1      -8.658   6.372  14.083  1.00  0.00     0.302 C 
HETATM   33  C19 UNL     1     -10.062   7.033  14.159  1.00  0.00     0.302 C 
HETATM   34  N3  UNL     1     -10.016   8.390  14.712  1.00  0.00     0.087 N 
HETATM   35  C20 UNL     1     -11.319   9.039  14.697  1.00  0.00     0.310 C 
HETATM   36  C21 UNL     1      -9.422   8.381  16.062  1.00  0.00     0.302 C 
HETATM   37  C22 UNL     1      -8.405   7.237  16.329  1.00  0.00     0.302 C 
ENDBRANCH  30  31
ENDBRANCH  29  30
ENDBRANCH  28  29
ENDBRANCH   5  28
TORSDOF 7
ENDMDL
MODEL 6
REMARK minimizedAffinity -8.92665005
REMARK  7 active torsions:
REMARK  status: ('A' for Active; 'I' for Inactive)
REMARK    1  A    between atoms: C2_2  and  S1_3 
REMARK    2  A    between atoms: S1_3  and  C3_6 
REMARK    3  A    between atoms: C10_13  and  C11_14 
REMARK    4  A    between atoms: C14_18  and  C15_19 
REMARK    5  A    between atoms: C15_19  and  C16_20 
REMARK    6  A    between atoms: C16_20  and  C17_21 
REMARK    7  A    between atoms: C17_21  and  N2_22 
ROOT
HETATM    1  C11 UNL     1      -0.871   6.755  13.526  1.00  0.00     0.040 A 
HETATM    2  N1  UNL     1      -0.155   6.469  14.666  1.00  0.00    -0.359 N 
HETATM    3  C12 UNL     1       1.021   7.161  14.646  1.00  0.00     0.016 A 
HETATM    4  C13 UNL     1       1.073   7.897  13.480  1.00  0.00    -0.027 A 
HETATM    5  C14 UNL     1      -0.129   7.642  12.757  1.00  0.00    -0.023 A 
HETATM    6  C23 UNL     1       2.218   8.802  13.162  1.00  0.00     0.041 C 
HETATM    7  C24 UNL     1       3.435   8.499  14.057  1.00  0.00     0.005 C 
HETATM    8  C25 UNL     1       3.036   8.290  15.530  1.00  0.00     0.006 C 
HETATM    9  C26 UNL     1       2.061   7.113  15.707  1.00  0.00     0.057 C 
HETATM   10  H10 UNL     1      -0.465   5.863  15.414  1.00  0.00     0.166 HD
ENDROOT
BRANCH   1  11
HETATM   11  C10 UNL     1      -2.113   6.104  13.354  1.00  0.00     0.048 C 
HETATM   12  C9  UNL     1      -2.262   4.940  12.704  1.00  0.00     0.047 A 
HETATM   13  C7  UNL     1      -3.537   4.225  12.564  1.00  0.00     0.008 A 
HETATM   14  C27 UNL     1      -1.219   4.120  11.979  1.00  0.00     0.257 A 
HETATM   15  C6  UNL     1      -3.262   3.078  11.813  1.00  0.00     0.046 A 
HETATM   16  C8  UNL     1      -4.821   4.477  13.017  1.00  0.00     0.038 A 
HETATM   17  C5  UNL     1      -4.234   2.156  11.472  1.00  0.00     0.032 A 
HETATM   18  N4  UNL     1      -1.914   3.026  11.481  1.00  0.00    -0.322 N 
HETATM   19  C4  UNL     1      -5.536   2.400  11.918  1.00  0.00     0.026 A 
HETATM   20  C3  UNL     1      -5.815   3.542  12.695  1.00  0.00     0.060 A 
HETATM   21  H36 UNL     1      -1.461   2.306  10.937  1.00  0.00     0.169 HD
HETATM   22  O3  UNL     1      -0.034   4.335  11.827  1.00  0.00    -0.267 OA
BRANCH  20  23
HETATM   23  S1  UNL     1      -7.487   3.833  13.241  1.00  0.00     0.175 S 
HETATM   24  O1  UNL     1      -7.413   4.264  14.624  1.00  0.00    -0.223 OA
HETATM   25  O2  UNL     1      -8.267   2.671  12.861  1.00  0.00    -0.223 OA
BRANCH  23  26
HETATM   26  C2  UNL     1      -8.000   5.215  12.238  1.00  0.00     0.141 C 
HETATM   27  C1  UNL     1      -9.063   6.042  12.934  1.00  0.00     0.021 C 
ENDBRANCH  23  26
ENDBRANCH  20  23
ENDBRANCH   1  11
BRANCH   5  28
HETATM   28  C15 UNL     1      -0.510   8.234  11.434  1.00  0.00     0.043 C 
BRANCH  28  29
HETATM   29  C16 UNL     1      -0.077   7.390  10.231  1.00  0.00     0.035 C 
BRANCH  29  30
HETATM   30  C17 UNL     1       1.174   7.947   9.536  1.00  0.00     0.273 C 
BRANCH  30  31
HETATM   31  N2  UNL     1       2.419   7.536  10.199  1.00  0.00     0.091 N 
HETATM   32  C18 UNL     1       2.612   6.068  10.194  1.00  0.00     0.302 C 
HETATM   33  C19 UNL     1       4.089   5.591  10.264  1.00  0.00     0.302 C 
HETATM   34  N3  UNL     1       4.949   6.529  10.993  1.00  0.00     0.087 N 
HETATM   35  C20 UNL     1       6.311   6.036  11.135  1.00  0.00     0.310 C 
HETATM   36  C21 UNL     1       4.911   7.864  10.366  1.00  0.00     0.302 C 
HETATM   37  C22 UNL     1       3.591   8.205   9.620  1.00  0.00     0.302 C 
ENDBRANCH  30  31
ENDBRANCH  29  30
ENDBRANCH  28  29
ENDBRANCH   5  28
TORSDOF 7
ENDMDL
MODEL 7
REMARK minimizedAffinity -8.91802597
REMARK  7 active torsions:
REMARK  status: ('A' for Active; 'I' for Inactive)
REMARK    1  A    between atoms: C2_2  and  S1_3 
REMARK    2  A    between atoms: S1_3  and  C3_6 
REMARK    3  A    between atoms: C10_13  and  C11_14 
REMARK    4  A    between atoms: C14_18  and  C15_19 
REMARK    5  A    between atoms: C15_19  and  C16_20 
REMARK    6  A    between atoms: C16_20  and  C17_21 
REMARK    7  A    between atoms: C17_21  and  N2_22 
ROOT
HETATM    1  C11 UNL     1      -3.446   5.119  12.260  1.00  0.00     0.040 A 
HETATM    2  N1  UNL     1      -3.847   3.878  11.826  1.00  0.00    -0.359 N 
HETATM    3  C12 UNL     1      -5.080   3.597  12.339  1.00  0.00     0.016 A 
HETATM    4  C13 UNL     1      -5.480   4.662  13.119  1.00  0.00    -0.027 A 
HETATM    5  C14 UNL     1      -4.442   5.639  13.077  1.00  0.00    -0.023 A 
HETATM    6  C23 UNL     1      -6.808   4.694  13.802  1.00  0.00     0.041 C 
HETATM    7  C24 UNL     1      -7.446   3.292  13.847  1.00  0.00     0.005 C 
HETATM    8  C25 UNL     1      -7.314   2.548  12.504  1.00  0.00     0.006 C 
HETATM    9  C26 UNL     1      -5.845   2.346  12.095  1.00  0.00     0.057 C 
HETATM   10  H10 UNL     1      -3.323   3.279  11.202  1.00  0.00     0.166 HD
ENDROOT
BRANCH   1  11
HETATM   11  C10 UNL     1      -2.171   5.575  11.852  1.00  0.00     0.048 C 
HETATM   12  C9  UNL     1      -1.154   5.799  12.696  1.00  0.00     0.047 A 
HETATM   13  C7  UNL     1       0.191   6.220  12.281  1.00  0.00     0.008 A 
HETATM   14  C27 UNL     1      -1.135   5.699  14.204  1.00  0.00     0.257 A 
HETATM   15  C6  UNL     1       0.938   6.357  13.456  1.00  0.00     0.046 A 
HETATM   16  C8  UNL     1       0.771   6.465  11.048  1.00  0.00     0.038 A 
HETATM   17  C5  UNL     1       2.262   6.749  13.459  1.00  0.00     0.032 A 
HETATM   18  N4  UNL     1       0.160   6.049  14.565  1.00  0.00    -0.322 N 
HETATM   19  C4  UNL     1       2.860   7.004  12.222  1.00  0.00     0.026 A 
HETATM   20  C3  UNL     1       2.119   6.846  11.032  1.00  0.00     0.060 A 
HETATM   21  H36 UNL     1       0.457   6.077  15.529  1.00  0.00     0.169 HD
HETATM   22  O3  UNL     1      -2.027   5.396  14.971  1.00  0.00    -0.267 OA
BRANCH  20  23
HETATM   23  S1  UNL     1       2.904   7.189   9.469  1.00  0.00     0.175 S 
HETATM   24  O1  UNL     1       3.461   5.938   8.990  1.00  0.00    -0.223 OA
HETATM   25  O2  UNL     1       3.743   8.356   9.661  1.00  0.00    -0.223 OA
BRANCH  23  26
HETATM   26  C2  UNL     1       1.532   7.641   8.423  1.00  0.00     0.141 C 
HETATM   27  C1  UNL     1       1.808   7.311   6.970  1.00  0.00     0.021 C 
ENDBRANCH  23  26
ENDBRANCH  20  23
ENDBRANCH   1  11
BRANCH   5  28
HETATM   28  C15 UNL     1      -4.446   6.967  13.771  1.00  0.00     0.043 C 
BRANCH  28  29
HETATM   29  C16 UNL     1      -4.202   8.154  12.834  1.00  0.00     0.035 C 
BRANCH  29  30
HETATM   30  C17 UNL     1      -2.968   8.977  13.230  1.00  0.00     0.273 C 
BRANCH  30  31
HETATM   31  N2  UNL     1      -2.836   9.134  14.685  1.00  0.00     0.091 N 
HETATM   32  C18 UNL     1      -1.428   9.269  15.121  1.00  0.00     0.302 C 
HETATM   33  C19 UNL     1      -1.213  10.047  16.449  1.00  0.00     0.302 C 
HETATM   34  N3  UNL     1      -2.347   9.912  17.369  1.00  0.00     0.087 N 
HETATM   35  C20 UNL     1      -2.105  10.566  18.646  1.00  0.00     0.310 C 
HETATM   36  C21 UNL     1      -3.591  10.388  16.735  1.00  0.00     0.302 C 
HETATM   37  C22 UNL     1      -3.634  10.260  15.187  1.00  0.00     0.302 C 
ENDBRANCH  30  31
ENDBRANCH  29  30
ENDBRANCH  28  29
ENDBRANCH   5  28
TORSDOF 7
ENDMDL
MODEL 8
REMARK minimizedAffinity -8.79294872
REMARK  7 active torsions:
REMARK  status: ('A' for Active; 'I' for Inactive)
REMARK    1  A    between atoms: C2_2  and  S1_3 
REMARK    2  A    between atoms: S1_3  and  C3_6 
REMARK    3  A    between atoms: C10_13  and  C11_14 
REMARK    4  A    between atoms: C14_18  and  C15_19 
REMARK    5  A    between atoms: C15_19  and  C16_20 
REMARK    6  A    between atoms: C16_20  and  C17_21 
REMARK    7  A    between atoms: C17_21  and  N2_22 
ROOT
HETATM    1  C11 UNL     1      -3.774   5.329  13.406  1.00  0.00     0.040 A 
HETATM    2  N1  UNL     1      -5.070   5.025  13.750  1.00  0.00    -0.359 N 
HETATM    3  C12 UNL     1      -5.503   3.974  12.996  1.00  0.00     0.016 A 
HETATM    4  C13 UNL     1      -4.482   3.596  12.149  1.00  0.00    -0.027 A 
HETATM    5  C14 UNL     1      -3.374   4.457  12.402  1.00  0.00    -0.023 A 
HETATM    6  C23 UNL     1      -4.614   2.442  11.209  1.00  0.00     0.041 C 
HETATM    7  C24 UNL     1      -6.089   2.029  11.036  1.00  0.00     0.005 C 
HETATM    8  C25 UNL     1      -6.843   1.988  12.378  1.00  0.00     0.006 C 
HETATM    9  C26 UNL     1      -6.854   3.358  13.080  1.00  0.00     0.057 C 
HETATM   10  H10 UNL     1      -5.609   5.490  14.469  1.00  0.00     0.166 HD
ENDROOT
BRANCH   1  11
HETATM   11  C10 UNL     1      -3.160   6.418  14.066  1.00  0.00     0.048 C 
HETATM   12  C9  UNL     1      -3.764   7.595  14.282  1.00  0.00     0.047 A 
HETATM   13  C7  UNL     1      -3.158   8.716  15.013  1.00  0.00     0.008 A 
HETATM   14  C27 UNL     1      -5.136   8.052  13.841  1.00  0.00     0.257 A 
HETATM   15  C6  UNL     1      -4.102   9.749  14.999  1.00  0.00     0.046 A 
HETATM   16  C8  UNL     1      -1.941   8.887  15.650  1.00  0.00     0.038 A 
HETATM   17  C5  UNL     1      -3.877  10.976  15.591  1.00  0.00     0.032 A 
HETATM   18  N4  UNL     1      -5.246   9.351  14.319  1.00  0.00    -0.322 N 
HETATM   19  C4  UNL     1      -2.651  11.165  16.234  1.00  0.00     0.026 A 
HETATM   20  C3  UNL     1      -1.704  10.121  16.272  1.00  0.00     0.060 A 
HETATM   21  H36 UNL     1      -6.071   9.912  14.159  1.00  0.00     0.169 HD
HETATM   22  O3  UNL     1      -5.981   7.458  13.202  1.00  0.00    -0.267 OA
BRANCH  20  23
HETATM   23  S1  UNL     1      -0.144  10.392  17.090  1.00  0.00     0.175 S 
HETATM   24  O1  UNL     1       0.431  11.595  16.519  1.00  0.00    -0.223 OA
HETATM   25  O2  UNL     1       0.576   9.134  17.062  1.00  0.00    -0.223 OA
BRANCH  23  26
HETATM   26  C2  UNL     1      -0.628  10.732  18.772  1.00  0.00     0.141 C 
HETATM   27  C1  UNL     1       0.560  11.136  19.622  1.00  0.00     0.021 C 
ENDBRANCH  23  26
ENDBRANCH  20  23
ENDBRANCH   1  11
BRANCH   5  28
HETATM   28  C15 UNL     1      -2.041   4.408  11.720  1.00  0.00     0.043 C 
BRANCH  28  29
HETATM   29  C16 UNL     1      -1.005   5.365  12.320  1.00  0.00     0.035 C 
BRANCH  29  30
HETATM   30  C17 UNL     1       0.434   5.004  11.922  1.00  0.00     0.273 C 
BRANCH  30  31
HETATM   31  N2  UNL     1       0.873   5.693  10.701  1.00  0.00     0.091 N 
HETATM   32  C18 UNL     1       0.327   7.065  10.590  1.00  0.00     0.302 C 
HETATM   33  C19 UNL     1       1.181   8.056   9.751  1.00  0.00     0.302 C 
HETATM   34  N3  UNL     1       1.937   7.385   8.689  1.00  0.00     0.087 N 
HETATM   35  C20 UNL     1       2.664   8.325   7.848  1.00  0.00     0.310 C 
HETATM   36  C21 UNL     1       2.826   6.353   9.254  1.00  0.00     0.302 C 
HETATM   37  C22 UNL     1       2.336   5.717  10.585  1.00  0.00     0.302 C 
ENDBRANCH  30  31
ENDBRANCH  29  30
ENDBRANCH  28  29
ENDBRANCH   5  28
TORSDOF 7
ENDMDL
MODEL 9
REMARK minimizedAffinity -8.78854465
REMARK  7 active torsions:
REMARK  status: ('A' for Active; 'I' for Inactive)
REMARK    1  A    between atoms: C2_2  and  S1_3 
REMARK    2  A    between atoms: S1_3  and  C3_6 
REMARK    3  A    between atoms: C10_13  and  C11_14 
REMARK    4  A    between atoms: C14_18  and  C15_19 
REMARK    5  A    between atoms: C15_19  and  C16_20 
REMARK    6  A    between atoms: C16_20  and  C17_21 
REMARK    7  A    between atoms: C17_21  and  N2_22 
ROOT
HETATM    1  C11 UNL     1      -6.866   4.968  12.794  1.00  0.00     0.040 A 
HETATM    2  N1  UNL     1      -7.035   3.734  12.212  1.00  0.00    -0.359 N 
HETATM    3  C12 UNL     1      -5.818   3.134  12.065  1.00  0.00     0.016 A 
HETATM    4  C13 UNL     1      -4.850   3.988  12.551  1.00  0.00    -0.027 A 
HETATM    5  C14 UNL     1      -5.508   5.164  13.016  1.00  0.00    -0.023 A 
HETATM    6  C23 UNL     1      -3.403   3.618  12.575  1.00  0.00     0.041 C 
HETATM    7  C24 UNL     1      -3.120   2.407  11.665  1.00  0.00     0.005 C 
HETATM    8  C25 UNL     1      -4.177   1.298  11.828  1.00  0.00     0.006 C 
HETATM    9  C26 UNL     1      -5.592   1.788  11.475  1.00  0.00     0.057 C 
HETATM   10  H10 UNL     1      -7.923   3.324  11.957  1.00  0.00     0.166 HD
ENDROOT
BRANCH   1  11
HETATM   11  C10 UNL     1      -8.020   5.758  13.000  1.00  0.00     0.048 C 
HETATM   12  C9  UNL     1      -8.364   6.280  14.187  1.00  0.00     0.047 A 
HETATM   13  C7  UNL     1      -9.529   7.146  14.405  1.00  0.00     0.008 A 
HETATM   14  C27 UNL     1      -7.689   6.109  15.529  1.00  0.00     0.257 A 
HETATM   15  C6  UNL     1      -9.537   7.456  15.770  1.00  0.00     0.046 A 
HETATM   16  C8  UNL     1     -10.505   7.654  13.565  1.00  0.00     0.038 A 
HETATM   17  C5  UNL     1     -10.503   8.255  16.350  1.00  0.00     0.032 A 
HETATM   18  N4  UNL     1      -8.463   6.851  16.411  1.00  0.00    -0.322 N 
HETATM   19  C4  UNL     1     -11.497   8.771  15.514  1.00  0.00     0.026 A 
HETATM   20  C3  UNL     1     -11.483   8.482  14.134  1.00  0.00     0.060 A 
HETATM   21  H36 UNL     1      -8.247   6.909  17.395  1.00  0.00     0.169 HD
HETATM   22  O3  UNL     1      -6.700   5.468  15.821  1.00  0.00    -0.267 OA
BRANCH  20  23
HETATM   23  S1  UNL     1     -12.769   9.145  13.095  1.00  0.00     0.175 S 
HETATM   24  O1  UNL     1     -12.150   9.516  11.837  1.00  0.00    -0.223 OA
HETATM   25  O2  UNL     1     -13.496  10.120  13.886  1.00  0.00    -0.223 OA
BRANCH  23  26
HETATM   26  C2  UNL     1     -13.827   7.736  12.819  1.00  0.00     0.141 C 
HETATM   27  C1  UNL     1     -14.026   6.934  14.089  1.00  0.00     0.021 C 
ENDBRANCH  23  26
ENDBRANCH  20  23
ENDBRANCH   1  11
BRANCH   5  28
HETATM   28  C15 UNL     1      -4.853   6.361  13.634  1.00  0.00     0.043 C 
BRANCH  28  29
HETATM   29  C16 UNL     1      -3.628   6.862  12.862  1.00  0.00     0.035 C 
BRANCH  29  30
HETATM   30  C17 UNL     1      -2.385   7.007  13.753  1.00  0.00     0.273 C 
BRANCH  30  31
HETATM   31  N2  UNL     1      -1.159   7.247  12.979  1.00  0.00     0.091 N 
HETATM   32  C18 UNL     1      -0.685   6.038  12.268  1.00  0.00     0.302 C 
HETATM   33  C19 UNL     1       0.152   6.305  10.987  1.00  0.00     0.302 C 
HETATM   34  N3  UNL     1       0.904   7.562  11.059  1.00  0.00     0.087 N 
HETATM   35  C20 UNL     1       1.757   7.765   9.897  1.00  0.00     0.310 C 
HETATM   36  C21 UNL     1      -0.007   8.701  11.276  1.00  0.00     0.302 C 
HETATM   37  C22 UNL     1      -1.318   8.362  12.037  1.00  0.00     0.302 C 
ENDBRANCH  30  31
ENDBRANCH  29  30
ENDBRANCH  28  29
ENDBRANCH   5  28
TORSDOF 7
ENDMDL
