MODEL 1
REMARK minimizedAffinity -8.88342285
REMARK  6 active torsions:
REMARK  status: ('A' for Active; 'I' for Inactive)
REMARK    1  A    between atoms: N1_2  and  C3_4 
REMARK    2  A    between atoms: C3_4  and  C4_5 
REMARK    3  A    between atoms: C4_5  and  C5_6 
REMARK    4  A    between atoms: C5_6  and  C6_7 
REMARK    5  A    between atoms: C7_8  and  C8_9 
REMARK    6  A    between atoms: C14_17  and  S1_18 
ROOT
HETATM    1  C6  UNL     1       0.255   6.687  11.903  1.00  0.00    -0.023 A 
HETATM    2  C7  UNL     1      -0.600   6.167  12.881  1.00  0.00     0.040 A 
HETATM    3  N3  UNL     1       0.027   6.333  14.095  1.00  0.00    -0.359 N 
HETATM    4  C18 UNL     1       1.244   6.923  13.916  1.00  0.00     0.016 A 
HETATM    5  C19 UNL     1       1.426   7.152  12.571  1.00  0.00    -0.027 A 
HETATM    6  C20 UNL     1       2.661   7.796  12.035  1.00  0.00     0.041 C 
HETATM    7  C21 UNL     1       3.799   7.764  13.075  1.00  0.00     0.005 C 
HETATM    8  C22 UNL     1       3.311   8.164  14.480  1.00  0.00     0.006 C 
HETATM    9  C23 UNL     1       2.213   7.219  15.004  1.00  0.00     0.057 C 
HETATM   10  H21 UNL     1      -0.346   6.051  14.997  1.00  0.00     0.166 HD
ENDROOT
BRANCH   2  11
HETATM   11  C8  UNL     1      -1.880   5.557  12.761  1.00  0.00     0.048 C 
HETATM   12  C9  UNL     1      -2.225   4.378  12.215  1.00  0.00     0.047 A 
HETATM   13  C10 UNL     1      -1.392   3.308  11.548  1.00  0.00     0.257 A 
HETATM   14  C17 UNL     1      -3.619   3.891  12.177  1.00  0.00     0.008 A 
HETATM   15  O1  UNL     1      -0.191   3.288  11.360  1.00  0.00    -0.267 OA
HETATM   16  N2  UNL     1      -2.288   2.319  11.176  1.00  0.00    -0.322 N 
HETATM   17  C11 UNL     1      -3.588   2.647  11.537  1.00  0.00     0.046 A 
HETATM   18  H14 UNL     1      -1.999   1.481  10.696  1.00  0.00     0.169 HD
HETATM   19  C12 UNL     1      -4.720   1.889  11.312  1.00  0.00     0.032 A 
HETATM   20  C13 UNL     1      -5.939   2.404  11.757  1.00  0.00     0.026 A 
HETATM   21  C14 UNL     1      -5.980   3.649  12.418  1.00  0.00     0.059 A 
HETATM   22  C16 UNL     1      -4.822   4.413  12.624  1.00  0.00     0.038 A 
BRANCH  21  23
HETATM   23  S1  UNL     1      -7.550   4.293  12.957  1.00  0.00     0.171 S 
HETATM   24  C15 UNL     1      -7.282   4.634  14.677  1.00  0.00     0.167 C 
HETATM   25  O2  UNL     1      -7.758   5.554  12.273  1.00  0.00    -0.223 OA
HETATM   26  O3  UNL     1      -8.518   3.218  12.853  1.00  0.00    -0.223 OA
ENDBRANCH  21  23
ENDBRANCH   2  11
BRANCH   1  27
HETATM   27  C5  UNL     1       0.012   6.735  10.420  1.00  0.00     0.043 C 
BRANCH  27  28
HETATM   28  C4  UNL     1       0.163   8.136   9.817  1.00  0.00     0.035 C 
BRANCH  28  29
HETATM   29  C3  UNL     1       0.479   8.153   8.314  1.00  0.00     0.271 C 
BRANCH  29  30
HETATM   30  N1  UNL     1       1.738   7.484   7.935  1.00  0.00     0.080 N 
HETATM   31  C1  UNL     1       2.874   8.369   8.213  1.00  0.00     0.309 C 
HETATM   32  C2  UNL     1       1.755   7.090   6.526  1.00  0.00     0.309 C 
ENDBRANCH  29  30
ENDBRANCH  28  29
ENDBRANCH  27  28
ENDBRANCH   1  27
TORSDOF 6
ENDMDL
MODEL 2
REMARK minimizedAffinity -8.7083416
REMARK  6 active torsions:
REMARK  status: ('A' for Active; 'I' for Inactive)
REMARK    1  A    between atoms: N1_2  and  C3_4 
REMARK    2  A    between atoms: C3_4  and  C4_5 
REMARK    3  A    between atoms: C4_5  and  C5_6 
REMARK    4  A    between atoms: C5_6  and  C6_7 
REMARK    5  A    between atoms: C7_8  and  C8_9 
REMARK    6  A    between atoms: C14_17  and  S1_18 
ROOT
HETATM    1  C6  UNL     1      -4.447   4.881  12.582  1.00  0.00    -0.023 A 
HETATM    2  C7  UNL     1      -3.330   4.310  11.962  1.00  0.00     0.040 A 
HETATM    3  N3  UNL     1      -3.686   3.036  11.582  1.00  0.00    -0.359 N 
HETATM    4  C18 UNL     1      -4.976   2.782  11.950  1.00  0.00     0.016 A 
HETATM    5  C19 UNL     1      -5.479   3.897  12.578  1.00  0.00    -0.027 A 
HETATM    6  C20 UNL     1      -6.876   3.951  13.101  1.00  0.00     0.041 C 
HETATM    7  C21 UNL     1      -7.478   2.536  13.221  1.00  0.00     0.005 C 
HETATM    8  C22 UNL     1      -7.191   1.677  11.976  1.00  0.00     0.006 C 
HETATM    9  C23 UNL     1      -5.681   1.491  11.735  1.00  0.00     0.057 C 
HETATM   10  H21 UNL     1      -3.084   2.370  11.107  1.00  0.00     0.166 HD
ENDROOT
BRANCH   2  11
HETATM   11  C8  UNL     1      -2.031   4.842  11.724  1.00  0.00     0.048 C 
HETATM   12  C9  UNL     1      -1.127   5.327  12.592  1.00  0.00     0.047 A 
HETATM   13  C10 UNL     1      -1.171   5.480  14.095  1.00  0.00     0.257 A 
HETATM   14  C17 UNL     1       0.191   5.843  12.170  1.00  0.00     0.008 A 
HETATM   15  O1  UNL     1      -2.066   5.182  14.862  1.00  0.00    -0.267 OA
HETATM   16  N2  UNL     1       0.044   6.044  14.446  1.00  0.00    -0.322 N 
HETATM   17  C11 UNL     1       0.845   6.262  13.333  1.00  0.00     0.046 A 
HETATM   18  H14 UNL     1       0.282   6.266  15.401  1.00  0.00     0.169 HD
HETATM   19  C12 UNL     1       2.112   6.813  13.327  1.00  0.00     0.032 A 
HETATM   20  C13 UNL     1       2.750   6.944  12.092  1.00  0.00     0.026 A 
HETATM   21  C14 UNL     1       2.107   6.511  10.915  1.00  0.00     0.059 A 
HETATM   22  C16 UNL     1       0.814   5.968  10.938  1.00  0.00     0.038 A 
BRANCH  21  23
HETATM   23  S1  UNL     1       2.935   6.710   9.351  1.00  0.00     0.171 S 
HETATM   24  C15 UNL     1       2.178   8.163   8.671  1.00  0.00     0.167 C 
HETATM   25  O2  UNL     1       4.324   7.014   9.633  1.00  0.00    -0.223 OA
HETATM   26  O3  UNL     1       2.572   5.578   8.521  1.00  0.00    -0.223 OA
ENDBRANCH  21  23
ENDBRANCH   2  11
BRANCH   1  27
HETATM   27  C5  UNL     1      -4.551   6.262  13.167  1.00  0.00     0.043 C 
BRANCH  27  28
HETATM   28  C4  UNL     1      -5.982   6.809  13.199  1.00  0.00     0.035 C 
BRANCH  28  29
HETATM   29  C3  UNL     1      -6.411   7.396  14.552  1.00  0.00     0.271 C 
BRANCH  29  30
HETATM   30  N1  UNL     1      -7.464   6.638  15.252  1.00  0.00     0.080 N 
HETATM   31  C1  UNL     1      -8.748   6.825  14.568  1.00  0.00     0.309 C 
HETATM   32  C2  UNL     1      -7.593   7.033  16.656  1.00  0.00     0.309 C 
ENDBRANCH  29  30
ENDBRANCH  28  29
ENDBRANCH  27  28
ENDBRANCH   1  27
TORSDOF 6
ENDMDL
MODEL 3
REMARK minimizedAffinity -8.64400864
REMARK  6 active torsions:
REMARK  status: ('A' for Active; 'I' for Inactive)
REMARK    1  A    between atoms: N1_2  and  C3_4 
REMARK    2  A    between atoms: C3_4  and  C4_5 
REMARK    3  A    between atoms: C4_5  and  C5_6 
REMARK    4  A    between atoms: C5_6  and  C6_7 
REMARK    5  A    between atoms: C7_8  and  C8_9 
REMARK    6  A    between atoms: C14_17  and  S1_18 
ROOT
HETATM    1  C6  UNL     1       0.005   6.213  13.103  1.00  0.00    -0.023 A 
HETATM    2  C7  UNL     1      -0.698   5.453  12.161  1.00  0.00     0.040 A 
HETATM    3  N3  UNL     1       0.140   5.265  11.086  1.00  0.00    -0.359 N 
HETATM    4  C18 UNL     1       1.335   5.886  11.311  1.00  0.00     0.016 A 
HETATM    5  C19 UNL     1       1.287   6.491  12.546  1.00  0.00    -0.027 A 
HETATM    6  C20 UNL     1       2.444   7.255  13.101  1.00  0.00     0.041 C 
HETATM    7  C21 UNL     1       3.454   7.614  11.992  1.00  0.00     0.005 C 
HETATM    8  C22 UNL     1       3.738   6.422  11.059  1.00  0.00     0.006 C 
HETATM    9  C23 UNL     1       2.466   5.925  10.348  1.00  0.00     0.057 C 
HETATM   10  H21 UNL     1      -0.088   4.751  10.241  1.00  0.00     0.166 HD
ENDROOT
BRANCH   2  11
HETATM   11  C8  UNL     1      -2.023   4.932  12.196  1.00  0.00     0.048 C 
HETATM   12  C9  UNL     1      -2.479   3.715  11.854  1.00  0.00     0.047 A 
HETATM   13  C10 UNL     1      -1.761   2.496  11.321  1.00  0.00     0.257 A 
HETATM   14  C17 UNL     1      -3.903   3.336  11.956  1.00  0.00     0.008 A 
HETATM   15  O1  UNL     1      -0.577   2.356  11.084  1.00  0.00    -0.267 OA
HETATM   16  N2  UNL     1      -2.742   1.534  11.149  1.00  0.00    -0.322 N 
HETATM   17  C11 UNL     1      -3.994   2.012  11.514  1.00  0.00     0.046 A 
HETATM   18  H14 UNL     1      -2.540   0.614  10.790  1.00  0.00     0.169 HD
HETATM   19  C12 UNL     1      -5.187   1.317  11.461  1.00  0.00     0.032 A 
HETATM   20  C13 UNL     1      -6.340   1.986  11.877  1.00  0.00     0.026 A 
HETATM   21  C14 UNL     1      -6.257   3.315  12.341  1.00  0.00     0.059 A 
HETATM   22  C16 UNL     1      -5.040   4.010  12.373  1.00  0.00     0.038 A 
BRANCH  21  23
HETATM   23  S1  UNL     1      -7.746   4.151  12.846  1.00  0.00     0.171 S 
HETATM   24  C15 UNL     1      -7.375   4.678  14.498  1.00  0.00     0.167 C 
HETATM   25  O2  UNL     1      -7.883   5.331  12.014  1.00  0.00    -0.223 OA
HETATM   26  O3  UNL     1      -8.800   3.157  12.912  1.00  0.00    -0.223 OA
ENDBRANCH  21  23
ENDBRANCH   2  11
BRANCH   1  27
HETATM   27  C5  UNL     1      -0.491   6.677  14.444  1.00  0.00     0.043 C 
BRANCH  27  28
HETATM   28  C4  UNL     1      -1.250   8.007  14.393  1.00  0.00     0.035 C 
BRANCH  28  29
HETATM   29  C3  UNL     1      -2.598   8.001  15.129  1.00  0.00     0.271 C 
BRANCH  29  30
HETATM   30  N1  UNL     1      -3.031   9.313  15.643  1.00  0.00     0.080 N 
HETATM   31  C1  UNL     1      -2.618   9.459  17.043  1.00  0.00     0.309 C 
HETATM   32  C2  UNL     1      -4.478   9.502  15.536  1.00  0.00     0.309 C 
ENDBRANCH  29  30
ENDBRANCH  28  29
ENDBRANCH  27  28
ENDBRANCH   1  27
TORSDOF 6
ENDMDL
MODEL 4
REMARK minimizedAffinity -8.61950397
REMARK  6 active torsions:
REMARK  status: ('A' for Active; 'I' for Inactive)
REMARK    1  A    between atoms: N1_2  and  C3_4 
REMARK    2  A    between atoms: C3_4  and  C4_5 
REMARK    3  A    between atoms: C4_5  and  C5_6 
REMARK    4  A    between atoms: C5_6  and  C6_7 
REMARK    5  A    between atoms: C7_8  and  C8_9 
REMARK    6  A    between atoms: C14_17  and  S1_18 
ROOT
HETATM    1  C6  UNL     1      -7.701   7.194  14.769  1.00  0.00    -0.023 A 
HETATM    2  C7  UNL     1      -7.549   6.290  13.712  1.00  0.00     0.040 A 
HETATM    3  N3  UNL     1      -8.776   6.173  13.101  1.00  0.00    -0.359 N 
HETATM    4  C18 UNL     1      -9.693   6.958  13.739  1.00  0.00     0.016 A 
HETATM    5  C19 UNL     1      -9.067   7.601  14.782  1.00  0.00    -0.027 A 
HETATM    6  C20 UNL     1      -9.793   8.545  15.683  1.00  0.00     0.041 C 
HETATM    7  C21 UNL     1     -11.320   8.367  15.558  1.00  0.00     0.005 C 
HETATM    8  C22 UNL     1     -11.772   8.255  14.090  1.00  0.00     0.006 C 
HETATM    9  C23 UNL     1     -11.131   7.051  13.375  1.00  0.00     0.057 C 
HETATM   10  H21 UNL     1      -8.984   5.586  12.299  1.00  0.00     0.166 HD
ENDROOT
BRANCH   2  11
HETATM   11  C8  UNL     1      -6.405   5.567  13.270  1.00  0.00     0.048 C 
HETATM   12  C9  UNL     1      -6.302   4.301  12.831  1.00  0.00     0.047 A 
HETATM   13  C10 UNL     1      -7.343   3.220  12.659  1.00  0.00     0.257 A 
HETATM   14  C17 UNL     1      -5.021   3.704  12.404  1.00  0.00     0.008 A 
HETATM   15  O1  UNL     1      -8.537   3.271  12.888  1.00  0.00    -0.267 OA
HETATM   16  N2  UNL     1      -6.657   2.118  12.175  1.00  0.00    -0.322 N 
HETATM   17  C11 UNL     1      -5.304   2.387  12.023  1.00  0.00     0.046 A 
HETATM   18  H14 UNL     1      -7.113   1.241  11.977  1.00  0.00     0.169 HD
HETATM   19  C12 UNL     1      -4.337   1.512  11.568  1.00  0.00     0.032 A 
HETATM   20  C13 UNL     1      -3.026   1.986  11.490  1.00  0.00     0.026 A 
HETATM   21  C14 UNL     1      -2.732   3.315  11.855  1.00  0.00     0.059 A 
HETATM   22  C16 UNL     1      -3.724   4.186  12.329  1.00  0.00     0.038 A 
BRANCH  21  23
HETATM   23  S1  UNL     1      -1.048   3.887  11.765  1.00  0.00     0.171 S 
HETATM   24  C15 UNL     1      -0.888   4.911  13.204  1.00  0.00     0.167 C 
HETATM   25  O2  UNL     1      -0.189   2.731  11.935  1.00  0.00    -0.223 OA
HETATM   26  O3  UNL     1      -0.939   4.732  10.592  1.00  0.00    -0.223 OA
ENDBRANCH  21  23
ENDBRANCH   2  11
BRANCH   1  27
HETATM   27  C5  UNL     1      -6.640   7.648  15.733  1.00  0.00     0.043 C 
BRANCH  27  28
HETATM   28  C4  UNL     1      -5.760   8.779  15.193  1.00  0.00     0.035 C 
BRANCH  28  29
HETATM   29  C3  UNL     1      -4.411   8.320  14.618  1.00  0.00     0.271 C 
BRANCH  29  30
HETATM   30  N1  UNL     1      -3.493   7.711  15.598  1.00  0.00     0.080 N 
HETATM   31  C1  UNL     1      -2.140   8.244  15.409  1.00  0.00     0.309 C 
HETATM   32  C2  UNL     1      -3.465   6.251  15.501  1.00  0.00     0.309 C 
ENDBRANCH  29  30
ENDBRANCH  28  29
ENDBRANCH  27  28
ENDBRANCH   1  27
TORSDOF 6
ENDMDL
MODEL 5
REMARK minimizedAffinity -8.51144981
REMARK  6 active torsions:
REMARK  status: ('A' for Active; 'I' for Inactive)
REMARK    1  A    between atoms: N1_2  and  C3_4 
REMARK    2  A    between atoms: C3_4  and  C4_5 
REMARK    3  A    between atoms: C4_5  and  C5_6 
REMARK    4  A    between atoms: C5_6  and  C6_7 
REMARK    5  A    between atoms: C7_8  and  C8_9 
REMARK    6  A    between atoms: C14_17  and  S1_18 
ROOT
HETATM    1  C6  UNL     1      -4.324   5.306  13.062  1.00  0.00    -0.023 A 
HETATM    2  C7  UNL     1      -3.322   4.699  12.298  1.00  0.00     0.040 A 
HETATM    3  N3  UNL     1      -3.843   3.523  11.809  1.00  0.00    -0.359 N 
HETATM    4  C18 UNL     1      -5.126   3.363  12.247  1.00  0.00     0.016 A 
HETATM    5  C19 UNL     1      -5.458   4.443  13.032  1.00  0.00    -0.027 A 
HETATM    6  C20 UNL     1      -6.803   4.580  13.666  1.00  0.00     0.041 C 
HETATM    7  C21 UNL     1      -7.551   3.232  13.676  1.00  0.00     0.005 C 
HETATM    8  C22 UNL     1      -7.445   2.500  12.325  1.00  0.00     0.006 C 
HETATM    9  C23 UNL     1      -5.985   2.188  11.947  1.00  0.00     0.057 C 
HETATM   10  H21 UNL     1      -3.352   2.858  11.218  1.00  0.00     0.166 HD
ENDROOT
BRANCH   2  11
HETATM   11  C8  UNL     1      -1.990   5.117  12.019  1.00  0.00     0.048 C 
HETATM   12  C9  UNL     1      -1.038   5.574  12.850  1.00  0.00     0.047 A 
HETATM   13  C10 UNL     1      -1.047   5.804  14.344  1.00  0.00     0.257 A 
HETATM   14  C17 UNL     1       0.309   5.965  12.388  1.00  0.00     0.008 A 
HETATM   15  O1  UNL     1      -1.951   5.614  15.136  1.00  0.00    -0.267 OA
HETATM   16  N2  UNL     1       0.213   6.289  14.653  1.00  0.00    -0.322 N 
HETATM   17  C11 UNL     1       1.011   6.389  13.521  1.00  0.00     0.046 A 
HETATM   18  H14 UNL     1       0.481   6.540  15.592  1.00  0.00     0.169 HD
HETATM   19  C12 UNL     1       2.316   6.840  13.473  1.00  0.00     0.032 A 
HETATM   20  C13 UNL     1       2.943   6.860  12.225  1.00  0.00     0.026 A 
HETATM   21  C14 UNL     1       2.251   6.420  11.079  1.00  0.00     0.059 A 
HETATM   22  C16 UNL     1       0.921   5.980  11.145  1.00  0.00     0.038 A 
BRANCH  21  23
HETATM   23  S1  UNL     1       3.068   6.476   9.498  1.00  0.00     0.171 S 
HETATM   24  C15 UNL     1       3.315   8.212   9.229  1.00  0.00     0.167 C 
HETATM   25  O2  UNL     1       4.368   5.854   9.661  1.00  0.00    -0.223 OA
HETATM   26  O3  UNL     1       2.128   5.993   8.506  1.00  0.00    -0.223 OA
ENDBRANCH  21  23
ENDBRANCH   2  11
BRANCH   1  27
HETATM   27  C5  UNL     1      -4.233   6.612  13.803  1.00  0.00     0.043 C 
BRANCH  27  28
HETATM   28  C4  UNL     1      -4.214   7.839  12.886  1.00  0.00     0.035 C 
BRANCH  28  29
HETATM   29  C3  UNL     1      -3.513   9.069  13.480  1.00  0.00     0.271 C 
BRANCH  29  30
HETATM   30  N1  UNL     1      -2.045   9.077  13.339  1.00  0.00     0.080 N 
HETATM   31  C1  UNL     1      -1.494  10.290  13.952  1.00  0.00     0.309 C 
HETATM   32  C2  UNL     1      -1.621   8.996  11.941  1.00  0.00     0.309 C 
ENDBRANCH  29  30
ENDBRANCH  28  29
ENDBRANCH  27  28
ENDBRANCH   1  27
TORSDOF 6
ENDMDL
MODEL 6
REMARK minimizedAffinity -8.4848175
REMARK  6 active torsions:
REMARK  status: ('A' for Active; 'I' for Inactive)
REMARK    1  A    between atoms: N1_2  and  C3_4 
REMARK    2  A    between atoms: C3_4  and  C4_5 
REMARK    3  A    between atoms: C4_5  and  C5_6 
REMARK    4  A    between atoms: C5_6  and  C6_7 
REMARK    5  A    between atoms: C7_8  and  C8_9 
REMARK    6  A    between atoms: C14_17  and  S1_18 
ROOT
HETATM    1  C6  UNL     1      -4.686   4.813  13.099  1.00  0.00    -0.023 A 
HETATM    2  C7  UNL     1      -3.307   4.609  12.990  1.00  0.00     0.040 A 
HETATM    3  N3  UNL     1      -3.126   3.386  12.384  1.00  0.00    -0.359 N 
HETATM    4  C18 UNL     1      -4.335   2.811  12.122  1.00  0.00     0.016 A 
HETATM    5  C19 UNL     1      -5.327   3.661  12.557  1.00  0.00    -0.027 A 
HETATM    6  C20 UNL     1      -6.775   3.330  12.412  1.00  0.00     0.041 C 
HETATM    7  C21 UNL     1      -6.975   1.827  12.132  1.00  0.00     0.005 C 
HETATM    8  C22 UNL     1      -5.990   1.298  11.073  1.00  0.00     0.006 C 
HETATM    9  C23 UNL     1      -4.522   1.471  11.508  1.00  0.00     0.057 C 
HETATM   10  H21 UNL     1      -2.230   2.960  12.169  1.00  0.00     0.166 HD
ENDROOT
BRANCH   2  11
HETATM   11  C8  UNL     1      -2.215   5.428  13.396  1.00  0.00     0.048 C 
HETATM   12  C9  UNL     1      -0.996   5.573  12.849  1.00  0.00     0.047 A 
HETATM   13  C10 UNL     1      -0.366   4.928  11.636  1.00  0.00     0.257 A 
HETATM   14  C17 UNL     1       0.028   6.480  13.405  1.00  0.00     0.008 A 
HETATM   15  O1  UNL     1      -0.850   4.115  10.871  1.00  0.00    -0.267 OA
HETATM   16  N2  UNL     1       0.911   5.457  11.556  1.00  0.00    -0.322 N 
HETATM   17  C11 UNL     1       1.153   6.361  12.581  1.00  0.00     0.046 A 
HETATM   18  H14 UNL     1       1.563   5.189  10.835  1.00  0.00     0.169 HD
HETATM   19  C12 UNL     1       2.323   7.063  12.800  1.00  0.00     0.032 A 
HETATM   20  C13 UNL     1       2.359   7.927  13.896  1.00  0.00     0.026 A 
HETATM   21  C14 UNL     1       1.225   8.067  14.723  1.00  0.00     0.059 A 
HETATM   22  C16 UNL     1       0.051   7.336  14.495  1.00  0.00     0.038 A 
BRANCH  21  23
HETATM   23  S1  UNL     1       1.306   9.162  16.126  1.00  0.00     0.171 S 
HETATM   24  C15 UNL     1       1.892  10.681  15.423  1.00  0.00     0.167 C 
HETATM   25  O2  UNL     1      -0.052   9.371  16.588  1.00  0.00    -0.223 OA
HETATM   26  O3  UNL     1       2.328   8.649  17.017  1.00  0.00    -0.223 OA
ENDBRANCH  21  23
ENDBRANCH   2  11
BRANCH   1  27
HETATM   27  C5  UNL     1      -5.382   6.006  13.695  1.00  0.00     0.043 C 
BRANCH  27  28
HETATM   28  C4  UNL     1      -6.894   5.820  13.854  1.00  0.00     0.035 C 
BRANCH  28  29
HETATM   29  C3  UNL     1      -7.335   5.337  15.244  1.00  0.00     0.271 C 
BRANCH  29  30
HETATM   30  N1  UNL     1      -8.323   6.200  15.917  1.00  0.00     0.080 N 
HETATM   31  C1  UNL     1      -9.197   6.826  14.919  1.00  0.00     0.309 C 
HETATM   32  C2  UNL     1      -7.691   7.236  16.735  1.00  0.00     0.309 C 
ENDBRANCH  29  30
ENDBRANCH  28  29
ENDBRANCH  27  28
ENDBRANCH   1  27
TORSDOF 6
ENDMDL
MODEL 7
REMARK minimizedAffinity -8.34601402
REMARK  6 active torsions:
REMARK  status: ('A' for Active; 'I' for Inactive)
REMARK    1  A    between atoms: N1_2  and  C3_4 
REMARK    2  A    between atoms: C3_4  and  C4_5 
REMARK    3  A    between atoms: C4_5  and  C5_6 
REMARK    4  A    between atoms: C5_6  and  C6_7 
REMARK    5  A    between atoms: C7_8  and  C8_9 
REMARK    6  A    between atoms: C14_17  and  S1_18 
ROOT
HETATM    1  C6  UNL     1      -5.320   5.204  13.005  1.00  0.00    -0.023 A 
HETATM    2  C7  UNL     1      -6.696   4.970  12.921  1.00  0.00     0.040 A 
HETATM    3  N3  UNL     1      -6.861   3.698  12.421  1.00  0.00    -0.359 N 
HETATM    4  C18 UNL     1      -5.643   3.131  12.177  1.00  0.00     0.016 A 
HETATM    5  C19 UNL     1      -4.664   4.036  12.518  1.00  0.00    -0.027 A 
HETATM    6  C20 UNL     1      -3.211   3.723  12.377  1.00  0.00     0.041 C 
HETATM    7  C21 UNL     1      -2.992   2.508  11.452  1.00  0.00     0.005 C 
HETATM    8  C22 UNL     1      -3.966   1.357  11.767  1.00  0.00     0.006 C 
HETATM    9  C23 UNL     1      -5.438   1.778  11.597  1.00  0.00     0.057 C 
HETATM   10  H21 UNL     1      -7.751   3.242  12.245  1.00  0.00     0.166 HD
ENDROOT
BRANCH   2  11
HETATM   11  C8  UNL     1      -7.799   5.808  13.250  1.00  0.00     0.048 C 
HETATM   12  C9  UNL     1      -8.127   6.381  14.420  1.00  0.00     0.047 A 
HETATM   13  C10 UNL     1      -7.457   6.334  15.774  1.00  0.00     0.257 A 
HETATM   14  C17 UNL     1      -9.320   7.235  14.587  1.00  0.00     0.008 A 
HETATM   15  O1  UNL     1      -6.440   5.750  16.098  1.00  0.00    -0.267 OA
HETATM   16  N2  UNL     1      -8.246   7.111  16.606  1.00  0.00    -0.322 N 
HETATM   17  C11 UNL     1      -9.335   7.640  15.927  1.00  0.00     0.046 A 
HETATM   18  H14 UNL     1      -8.032   7.247  17.582  1.00  0.00     0.169 HD
HETATM   19  C12 UNL     1     -10.320   8.451  16.456  1.00  0.00     0.032 A 
HETATM   20  C13 UNL     1     -11.333   8.877  15.596  1.00  0.00     0.026 A 
HETATM   21  C14 UNL     1     -11.320   8.489  14.241  1.00  0.00     0.059 A 
HETATM   22  C16 UNL     1     -10.321   7.652  13.724  1.00  0.00     0.038 A 
BRANCH  21  23
HETATM   23  S1  UNL     1     -12.637   9.030  13.171  1.00  0.00     0.171 S 
HETATM   24  C15 UNL     1     -13.649   7.583  13.008  1.00  0.00     0.167 C 
HETATM   25  O2  UNL     1     -13.395  10.034  13.892  1.00  0.00    -0.223 OA
HETATM   26  O3  UNL     1     -12.052   9.322  11.877  1.00  0.00    -0.223 OA
ENDBRANCH  21  23
ENDBRANCH   2  11
BRANCH   1  27
HETATM   27  C5  UNL     1      -4.641   6.454  13.492  1.00  0.00     0.043 C 
BRANCH  27  28
HETATM   28  C4  UNL     1      -3.126   6.461  13.261  1.00  0.00     0.035 C 
BRANCH  28  29
HETATM   29  C3  UNL     1      -2.286   6.571  14.542  1.00  0.00     0.271 C 
BRANCH  29  30
HETATM   30  N1  UNL     1      -0.865   6.902  14.327  1.00  0.00     0.080 N 
HETATM   31  C1  UNL     1      -0.253   7.311  15.596  1.00  0.00     0.309 C 
HETATM   32  C2  UNL     1      -0.686   7.959  13.332  1.00  0.00     0.309 C 
ENDBRANCH  29  30
ENDBRANCH  28  29
ENDBRANCH  27  28
ENDBRANCH   1  27
TORSDOF 6
ENDMDL
MODEL 8
REMARK minimizedAffinity -8.19072151
REMARK  6 active torsions:
REMARK  status: ('A' for Active; 'I' for Inactive)
REMARK    1  A    between atoms: N1_2  and  C3_4 
REMARK    2  A    between atoms: C3_4  and  C4_5 
REMARK    3  A    between atoms: C4_5  and  C5_6 
REMARK    4  A    between atoms: C5_6  and  C6_7 
REMARK    5  A    between atoms: C7_8  and  C8_9 
REMARK    6  A    between atoms: C14_17  and  S1_18 
ROOT
HETATM    1  C6  UNL     1       0.530   6.330  12.688  1.00  0.00    -0.023 A 
HETATM    2  C7  UNL     1      -0.565   5.982  11.890  1.00  0.00     0.040 A 
HETATM    3  N3  UNL     1      -0.130   5.982  10.584  1.00  0.00    -0.359 N 
HETATM    4  C18 UNL     1       1.189   6.328  10.531  1.00  0.00     0.016 A 
HETATM    5  C19 UNL     1       1.632   6.560  11.813  1.00  0.00    -0.027 A 
HETATM    6  C20 UNL     1       3.041   6.955  12.106  1.00  0.00     0.041 C 
HETATM    7  C21 UNL     1       3.753   7.458  10.834  1.00  0.00     0.005 C 
HETATM    8  C22 UNL     1       3.480   6.549   9.620  1.00  0.00     0.006 C 
HETATM    9  C23 UNL     1       1.980   6.469   9.281  1.00  0.00     0.057 C 
HETATM   10  H21 UNL     1      -0.700   5.768   9.771  1.00  0.00     0.166 HD
ENDROOT
BRANCH   2  11
HETATM   11  C8  UNL     1      -1.909   5.676  12.246  1.00  0.00     0.048 C 
HETATM   12  C9  UNL     1      -2.672   4.622  11.908  1.00  0.00     0.047 A 
HETATM   13  C10 UNL     1      -2.378   3.416  11.045  1.00  0.00     0.257 A 
HETATM   14  C17 UNL     1      -4.063   4.458  12.374  1.00  0.00     0.008 A 
HETATM   15  O1  UNL     1      -1.350   3.136  10.457  1.00  0.00    -0.267 OA
HETATM   16  N2  UNL     1      -3.540   2.663  11.051  1.00  0.00    -0.322 N 
HETATM   17  C11 UNL     1      -4.529   3.260  11.821  1.00  0.00     0.046 A 
HETATM   18  H14 UNL     1      -3.627   1.798  10.540  1.00  0.00     0.169 HD
HETATM   19  C12 UNL     1      -5.807   2.780  12.035  1.00  0.00     0.032 A 
HETATM   20  C13 UNL     1      -6.652   3.538  12.847  1.00  0.00     0.026 A 
HETATM   21  C14 UNL     1      -6.187   4.738  13.424  1.00  0.00     0.059 A 
HETATM   22  C16 UNL     1      -4.892   5.219  13.184  1.00  0.00     0.038 A 
BRANCH  21  23
HETATM   23  S1  UNL     1      -7.292   5.697  14.440  1.00  0.00     0.171 S 
HETATM   24  C15 UNL     1      -8.756   5.818  13.446  1.00  0.00     0.167 C 
HETATM   25  O2  UNL     1      -7.605   4.899  15.610  1.00  0.00    -0.223 OA
HETATM   26  O3  UNL     1      -6.721   7.023  14.570  1.00  0.00    -0.223 OA
ENDBRANCH  21  23
ENDBRANCH   2  11
BRANCH   1  27
HETATM   27  C5  UNL     1       0.554   6.465  14.185  1.00  0.00     0.043 C 
BRANCH  27  28
HETATM   28  C4  UNL     1       0.559   7.918  14.671  1.00  0.00     0.035 C 
BRANCH  28  29
HETATM   29  C3  UNL     1      -0.633   8.758  14.187  1.00  0.00     0.271 C 
BRANCH  29  30
HETATM   30  N1  UNL     1      -1.051   9.832  15.106  1.00  0.00     0.080 N 
HETATM   31  C1  UNL     1      -1.926   9.283  16.147  1.00  0.00     0.309 C 
HETATM   32  C2  UNL     1      -1.738  10.922  14.412  1.00  0.00     0.309 C 
ENDBRANCH  29  30
ENDBRANCH  28  29
ENDBRANCH  27  28
ENDBRANCH   1  27
TORSDOF 6
ENDMDL
MODEL 9
REMARK minimizedAffinity -8.19036198
REMARK  6 active torsions:
REMARK  status: ('A' for Active; 'I' for Inactive)
REMARK    1  A    between atoms: N1_2  and  C3_4 
REMARK    2  A    between atoms: C3_4  and  C4_5 
REMARK    3  A    between atoms: C4_5  and  C5_6 
REMARK    4  A    between atoms: C5_6  and  C6_7 
REMARK    5  A    between atoms: C7_8  and  C8_9 
REMARK    6  A    between atoms: C14_17  and  S1_18 
ROOT
HETATM    1  C6  UNL     1      -4.588   4.859  13.348  1.00  0.00    -0.023 A 
HETATM    2  C7  UNL     1      -3.243   4.643  13.031  1.00  0.00     0.040 A 
HETATM    3  N3  UNL     1      -3.183   3.483  12.292  1.00  0.00    -0.359 N 
HETATM    4  C18 UNL     1      -4.434   2.959  12.144  1.00  0.00     0.016 A 
HETATM    5  C19 UNL     1      -5.331   3.778  12.790  1.00  0.00    -0.027 A 
HETATM    6  C20 UNL     1      -6.795   3.489  12.814  1.00  0.00     0.041 C 
HETATM    7  C21 UNL     1      -7.078   2.024  12.422  1.00  0.00     0.005 C 
HETATM    8  C22 UNL     1      -6.261   1.586  11.192  1.00  0.00     0.006 C 
HETATM    9  C23 UNL     1      -4.744   1.689  11.436  1.00  0.00     0.057 C 
HETATM   10  H21 UNL     1      -2.338   3.064  11.916  1.00  0.00     0.166 HD
ENDROOT
BRANCH   2  11
HETATM   11  C8  UNL     1      -2.081   5.398  13.360  1.00  0.00     0.048 C 
HETATM   12  C9  UNL     1      -0.924   5.536  12.690  1.00  0.00     0.047 A 
HETATM   13  C10 UNL     1      -0.457   4.947  11.379  1.00  0.00     0.257 A 
HETATM   14  C17 UNL     1       0.190   6.372  13.181  1.00  0.00     0.008 A 
HETATM   15  O1  UNL     1      -1.053   4.199  10.627  1.00  0.00    -0.267 OA
HETATM   16  N2  UNL     1       0.825   5.436  11.189  1.00  0.00    -0.322 N 
HETATM   17  C11 UNL     1       1.213   6.266  12.232  1.00  0.00     0.046 A 
HETATM   18  H14 UNL     1       1.383   5.192  10.386  1.00  0.00     0.169 HD
HETATM   19  C12 UNL     1       2.427   6.914  12.360  1.00  0.00     0.032 A 
HETATM   20  C13 UNL     1       2.616   7.707  13.493  1.00  0.00     0.026 A 
HETATM   21  C14 UNL     1       1.586   7.833  14.447  1.00  0.00     0.059 A 
HETATM   22  C16 UNL     1       0.366   7.157  14.309  1.00  0.00     0.038 A 
BRANCH  21  23
HETATM   23  S1  UNL     1       1.862   8.835  15.894  1.00  0.00     0.171 S 
HETATM   24  C15 UNL     1       0.229   9.360  16.343  1.00  0.00     0.167 C 
HETATM   25  O2  UNL     1       2.359   7.960  16.937  1.00  0.00    -0.223 OA
HETATM   26  O3  UNL     1       2.616  10.001  15.476  1.00  0.00    -0.223 OA
ENDBRANCH  21  23
ENDBRANCH   2  11
BRANCH   1  27
HETATM   27  C5  UNL     1      -5.159   5.999  14.144  1.00  0.00     0.043 C 
BRANCH  27  28
HETATM   28  C4  UNL     1      -5.605   7.187  13.285  1.00  0.00     0.035 C 
BRANCH  28  29
HETATM   29  C3  UNL     1      -4.547   8.290  13.124  1.00  0.00     0.271 C 
BRANCH  29  30
HETATM   30  N1  UNL     1      -4.406   9.190  14.283  1.00  0.00     0.080 N 
HETATM   31  C1  UNL     1      -3.165   8.881  15.002  1.00  0.00     0.309 C 
HETATM   32  C2  UNL     1      -5.542   9.097  15.201  1.00  0.00     0.309 C 
ENDBRANCH  29  30
ENDBRANCH  28  29
ENDBRANCH  27  28
ENDBRANCH   1  27
TORSDOF 6
ENDMDL
