MODEL 1
REMARK minimizedAffinity -9.5171833
REMARK  10 active torsions:
REMARK  status: ('A' for Active; 'I' for Inactive)
REMARK       I    between atoms: N1_2  and  C2_3 
REMARK    1  A    between atoms: C2_3  and  C3_5 
REMARK    2  A    between atoms: C3_5  and  N2_6 
REMARK    3  A    between atoms: N2_6  and  C4_7 
REMARK    4  A    between atoms: C4_7  and  C5_8 
REMARK    5  A    between atoms: C5_8  and  O2_9 
REMARK    6  A    between atoms: O2_9  and  C6_10 
REMARK    7  A    between atoms: C9_13  and  N3_14 
REMARK    8  A    between atoms: C11_16  and  C12_17 
REMARK    9  A    between atoms: C16_21  and  O3_22 
REMARK   10  A    between atoms: C20_26  and  N4_27 
ROOT
HETATM    1  N3  UNL     1      -1.651  51.352 -25.329  1.00  0.00    -0.307 N 
HETATM    2  C10 UNL     1      -1.378  51.304 -23.971  1.00  0.00     0.112 A 
HETATM    3  C11 UNL     1      -0.602  52.384 -23.603  1.00  0.00     0.007 A 
HETATM    4  C19 UNL     1      -0.363  53.145 -24.783  1.00  0.00     0.059 A 
HETATM    5  C20 UNL     1       0.309  54.338 -25.101  1.00  0.00     0.093 A 
HETATM    6  N5  UNL     1       0.346  54.756 -26.377  1.00  0.00    -0.343 N 
ATOM      7  H5  UNL     1       0.837  55.613 -26.633  1.00  0.00     0.167 HD
HETATM    8  C21 UNL     1      -0.278  54.018 -27.306  1.00  0.00     0.183 A 
HETATM    9  N6  UNL     1      -0.972  52.893 -27.124  1.00  0.00    -0.337 N 
ATOM     10  H6  UNL     1      -1.440  52.394 -27.880  1.00  0.00     0.168 HD
HETATM   11  C22 UNL     1      -0.993  52.480 -25.836  1.00  0.00     0.127 A 
ENDROOT
BRANCH   1  12
HETATM   12  C9  UNL     1      -2.474  50.404 -26.038  1.00  0.00     0.040 A 
HETATM   13  C8  UNL     1      -2.940  49.238 -25.400  1.00  0.00     0.033 A 
HETATM   14  C7  UNL     1      -3.763  48.315 -26.070  1.00  0.00     0.039 A 
HETATM   15  C6  UNL     1      -4.137  48.542 -27.388  1.00  0.00     0.069 A 
HETATM   16  C24 UNL     1      -3.666  49.685 -28.032  1.00  0.00     0.039 A 
HETATM   17  C23 UNL     1      -2.847  50.608 -27.369  1.00  0.00     0.033 A 
BRANCH  15  18
HETATM   18  O2  UNL     1      -4.927  47.748 -28.164  1.00  0.00    -0.349 OA
BRANCH  18  19
HETATM   19  C5  UNL     1      -6.332  47.668 -27.900  1.00  0.00     0.205 C 
BRANCH  19  20
HETATM   20  C4  UNL     1      -7.169  48.024 -29.144  1.00  0.00     0.296 C 
BRANCH  20  21
HETATM   21  N2  UNL     1      -6.459  48.740 -30.217  1.00  0.00     0.094 N 
HETATM   22  H7  UNL     1      -6.936  49.640 -30.349  1.00  0.00     0.316 HD
BRANCH  21  23
HETATM   23  C3  UNL     1      -6.538  48.029 -31.515  1.00  0.00     0.371 C 
BRANCH  23  24
HETATM   24  C2  UNL     1      -5.125  47.615 -31.945  1.00  0.00     0.245 C 
HETATM   25  N1  UNL     1      -4.774  48.114 -33.185  1.00  0.00    -0.364 N 
HETATM   26  C1  UNL     1      -3.554  47.732 -33.844  1.00  0.00     0.149 C 
HETATM   27  H4  UNL     1      -5.563  48.438 -33.739  1.00  0.00     0.161 HD
HETATM   28  O1  UNL     1      -4.393  46.920 -31.244  1.00  0.00    -0.272 OA
ENDBRANCH  23  24
ENDBRANCH  21  23
ENDBRANCH  20  21
ENDBRANCH  19  20
ENDBRANCH  18  19
ENDBRANCH  15  18
ENDBRANCH   1  12
BRANCH   3  29
HETATM   29  C12 UNL     1      -0.141  52.580 -22.235  1.00  0.00    -0.021 A 
HETATM   30  C13 UNL     1       1.030  53.297 -21.974  1.00  0.00     0.012 A 
HETATM   31  C14 UNL     1       1.470  53.471 -20.664  1.00  0.00     0.004 A 
HETATM   32  C15 UNL     1       0.744  52.919 -19.610  1.00  0.00     0.037 A 
HETATM   33  C16 UNL     1      -0.427  52.201 -19.852  1.00  0.00     0.069 A 
HETATM   34  C18 UNL     1      -0.874  52.047 -21.165  1.00  0.00     0.049 A 
BRANCH  33  35
HETATM   35  O3  UNL     1      -1.036  51.705 -18.733  1.00  0.00    -0.356 OA
HETATM   36  C17 UNL     1      -2.454  51.582 -18.777  1.00  0.00     0.210 C 
ENDBRANCH  33  35
ENDBRANCH   3  29
BRANCH   5  37
HETATM   37  N4  UNL     1       0.929  55.162 -24.166  1.00  0.00    -0.288 NA
HETATM   38  H22 UNL     1       0.467  55.168 -23.267  1.00  0.00     0.125 HD
HETATM   39  H23 UNL     1       1.078  56.079 -24.575  1.00  0.00     0.125 HD
ENDBRANCH   5  37
TORSDOF 10
ENDMDL
MODEL 2
REMARK minimizedAffinity -9.4158392
REMARK  10 active torsions:
REMARK  status: ('A' for Active; 'I' for Inactive)
REMARK       I    between atoms: N1_2  and  C2_3 
REMARK    1  A    between atoms: C2_3  and  C3_5 
REMARK    2  A    between atoms: C3_5  and  N2_6 
REMARK    3  A    between atoms: N2_6  and  C4_7 
REMARK    4  A    between atoms: C4_7  and  C5_8 
REMARK    5  A    between atoms: C5_8  and  O2_9 
REMARK    6  A    between atoms: O2_9  and  C6_10 
REMARK    7  A    between atoms: C9_13  and  N3_14 
REMARK    8  A    between atoms: C11_16  and  C12_17 
REMARK    9  A    between atoms: C16_21  and  O3_22 
REMARK   10  A    between atoms: C20_26  and  N4_27 
ROOT
HETATM    1  N3  UNL     1      -1.640  51.450 -25.346  1.00  0.00    -0.307 N 
HETATM    2  C10 UNL     1      -1.300  51.363 -24.004  1.00  0.00     0.112 A 
HETATM    3  C11 UNL     1      -0.497  52.427 -23.647  1.00  0.00     0.007 A 
HETATM    4  C19 UNL     1      -0.309  53.217 -24.818  1.00  0.00     0.059 A 
HETATM    5  C20 UNL     1       0.358  54.412 -25.137  1.00  0.00     0.093 A 
HETATM    6  N5  UNL     1       0.336  54.863 -26.403  1.00  0.00    -0.343 N 
ATOM      7  H5  UNL     1       0.822  55.723 -26.661  1.00  0.00     0.167 HD
HETATM    8  C21 UNL     1      -0.340  54.155 -27.319  1.00  0.00     0.183 A 
HETATM    9  N6  UNL     1      -1.035  53.031 -27.131  1.00  0.00    -0.337 N 
ATOM     10  H6  UNL     1      -1.544  52.556 -27.876  1.00  0.00     0.168 HD
HETATM   11  C22 UNL     1      -0.996  52.585 -25.855  1.00  0.00     0.127 A 
ENDROOT
BRANCH   1  12
HETATM   12  C9  UNL     1      -2.505  50.526 -26.037  1.00  0.00     0.040 A 
HETATM   13  C8  UNL     1      -2.827  50.719 -27.394  1.00  0.00     0.033 A 
HETATM   14  C7  UNL     1      -3.649  49.814 -28.088  1.00  0.00     0.039 A 
HETATM   15  C6  UNL     1      -4.164  48.699 -27.439  1.00  0.00     0.069 A 
HETATM   16  C24 UNL     1      -3.863  48.510 -26.091  1.00  0.00     0.039 A 
HETATM   17  C23 UNL     1      -3.043  49.407 -25.395  1.00  0.00     0.033 A 
BRANCH  15  18
HETATM   18  O2  UNL     1      -4.966  47.737 -27.974  1.00  0.00    -0.349 OA
BRANCH  18  19
HETATM   19  C5  UNL     1      -5.911  48.083 -28.992  1.00  0.00     0.205 C 
BRANCH  19  20
HETATM   20  C4  UNL     1      -7.363  47.920 -28.504  1.00  0.00     0.296 C 
BRANCH  20  21
HETATM   21  N2  UNL     1      -8.307  48.970 -28.924  1.00  0.00     0.094 N 
HETATM   22  H7  UNL     1      -9.168  48.841 -28.377  1.00  0.00     0.316 HD
BRANCH  21  23
HETATM   23  C3  UNL     1      -8.692  48.841 -30.349  1.00  0.00     0.371 C 
BRANCH  23  24
HETATM   24  C2  UNL     1     -10.063  48.157 -30.435  1.00  0.00     0.245 C 
HETATM   25  N1  UNL     1     -10.872  48.439 -29.352  1.00  0.00    -0.364 N 
HETATM   26  C1  UNL     1     -12.141  47.790 -29.158  1.00  0.00     0.149 C 
HETATM   27  H4  UNL     1     -10.374  48.816 -28.550  1.00  0.00     0.161 HD
HETATM   28  O1  UNL     1     -10.392  47.444 -31.381  1.00  0.00    -0.272 OA
ENDBRANCH  23  24
ENDBRANCH  21  23
ENDBRANCH  20  21
ENDBRANCH  19  20
ENDBRANCH  18  19
ENDBRANCH  15  18
ENDBRANCH   1  12
BRANCH   3  29
HETATM   29  C12 UNL     1       0.032  52.583 -22.299  1.00  0.00    -0.021 A 
HETATM   30  C13 UNL     1       0.978  53.573 -22.016  1.00  0.00     0.012 A 
HETATM   31  C14 UNL     1       1.488  53.709 -20.726  1.00  0.00     0.004 A 
HETATM   32  C15 UNL     1       1.059  52.848 -19.717  1.00  0.00     0.037 A 
HETATM   33  C16 UNL     1       0.114  51.856 -19.983  1.00  0.00     0.069 A 
HETATM   34  C18 UNL     1      -0.407  51.737 -21.271  1.00  0.00     0.049 A 
BRANCH  33  35
HETATM   35  O3  UNL     1      -0.212  51.075 -18.908  1.00  0.00    -0.356 OA
HETATM   36  C17 UNL     1       0.207  51.539 -17.629  1.00  0.00     0.210 C 
ENDBRANCH  33  35
ENDBRANCH   3  29
BRANCH   5  37
HETATM   37  N4  UNL     1       1.031  55.207 -24.213  1.00  0.00    -0.288 NA
HETATM   38  H22 UNL     1       0.613  55.193 -23.293  1.00  0.00     0.125 HD
HETATM   39  H23 UNL     1       1.167  56.133 -24.605  1.00  0.00     0.125 HD
ENDBRANCH   5  37
TORSDOF 10
ENDMDL
MODEL 3
REMARK minimizedAffinity -9.33036709
REMARK  10 active torsions:
REMARK  status: ('A' for Active; 'I' for Inactive)
REMARK       I    between atoms: N1_2  and  C2_3 
REMARK    1  A    between atoms: C2_3  and  C3_5 
REMARK    2  A    between atoms: C3_5  and  N2_6 
REMARK    3  A    between atoms: N2_6  and  C4_7 
REMARK    4  A    between atoms: C4_7  and  C5_8 
REMARK    5  A    between atoms: C5_8  and  O2_9 
REMARK    6  A    between atoms: O2_9  and  C6_10 
REMARK    7  A    between atoms: C9_13  and  N3_14 
REMARK    8  A    between atoms: C11_16  and  C12_17 
REMARK    9  A    between atoms: C16_21  and  O3_22 
REMARK   10  A    between atoms: C20_26  and  N4_27 
ROOT
HETATM    1  N3  UNL     1      -1.684  51.376 -25.357  1.00  0.00    -0.307 N 
HETATM    2  C10 UNL     1      -1.307  51.339 -24.023  1.00  0.00     0.112 A 
HETATM    3  C11 UNL     1      -0.508  52.423 -23.724  1.00  0.00     0.007 A 
HETATM    4  C19 UNL     1      -0.360  53.174 -24.926  1.00  0.00     0.059 A 
HETATM    5  C20 UNL     1       0.284  54.365 -25.304  1.00  0.00     0.093 A 
HETATM    6  N5  UNL     1       0.223  54.771 -26.583  1.00  0.00    -0.343 N 
ATOM      7  H5  UNL     1       0.691  55.627 -26.883  1.00  0.00     0.167 HD
HETATM    8  C21 UNL     1      -0.470  54.026 -27.455  1.00  0.00     0.183 A 
HETATM    9  N6  UNL     1      -1.147  52.901 -27.211  1.00  0.00    -0.337 N 
ATOM     10  H6  UNL     1      -1.671  52.395 -27.925  1.00  0.00     0.168 HD
HETATM   11  C22 UNL     1      -1.068  52.500 -25.922  1.00  0.00     0.127 A 
ENDROOT
BRANCH   1  12
HETATM   12  C9  UNL     1      -2.558  50.420 -25.992  1.00  0.00     0.040 A 
HETATM   13  C8  UNL     1      -3.084  49.333 -25.268  1.00  0.00     0.033 A 
HETATM   14  C7  UNL     1      -3.955  48.407 -25.867  1.00  0.00     0.039 A 
HETATM   15  C6  UNL     1      -4.319  48.551 -27.199  1.00  0.00     0.069 A 
HETATM   16  C24 UNL     1      -3.790  49.616 -27.928  1.00  0.00     0.039 A 
HETATM   17  C23 UNL     1      -2.923  50.542 -27.336  1.00  0.00     0.033 A 
BRANCH  15  18
HETATM   18  O2  UNL     1      -5.152  47.744 -27.913  1.00  0.00    -0.349 OA
BRANCH  18  19
HETATM   19  C5  UNL     1      -6.511  47.575 -27.496  1.00  0.00     0.205 C 
BRANCH  19  20
HETATM   20  C4  UNL     1      -7.505  48.019 -28.588  1.00  0.00     0.296 C 
BRANCH  20  21
HETATM   21  N2  UNL     1      -8.669  48.793 -28.125  1.00  0.00     0.094 N 
HETATM   22  H7  UNL     1      -8.432  49.788 -28.230  1.00  0.00     0.316 HD
BRANCH  21  23
HETATM   23  C3  UNL     1      -8.950  48.579 -26.686  1.00  0.00     0.371 C 
BRANCH  23  24
HETATM   24  C2  UNL     1     -10.425  48.190 -26.519  1.00  0.00     0.245 C 
HETATM   25  N1  UNL     1     -11.153  48.332 -27.684  1.00  0.00    -0.364 N 
HETATM   26  C1  UNL     1     -12.580  48.161 -27.719  1.00  0.00     0.149 C 
HETATM   27  H4  UNL     1     -10.700  48.911 -28.387  1.00  0.00     0.161 HD
HETATM   28  O1  UNL     1     -10.890  47.787 -25.455  1.00  0.00    -0.272 OA
ENDBRANCH  23  24
ENDBRANCH  21  23
ENDBRANCH  20  21
ENDBRANCH  19  20
ENDBRANCH  18  19
ENDBRANCH  15  18
ENDBRANCH   1  12
BRANCH   3  29
HETATM   29  C12 UNL     1       0.057  52.630 -22.398  1.00  0.00    -0.021 A 
HETATM   30  C13 UNL     1       1.041  53.600 -22.186  1.00  0.00     0.012 A 
HETATM   31  C14 UNL     1       1.584  53.785 -20.916  1.00  0.00     0.004 A 
HETATM   32  C15 UNL     1       1.149  52.994 -19.855  1.00  0.00     0.037 A 
HETATM   33  C16 UNL     1       0.166  52.023 -20.048  1.00  0.00     0.069 A 
HETATM   34  C18 UNL     1      -0.388  51.855 -21.318  1.00  0.00     0.049 A 
BRANCH  33  35
HETATM   35  O3  UNL     1      -0.163  51.311 -18.927  1.00  0.00    -0.356 OA
HETATM   36  C17 UNL     1       0.329  51.807 -17.687  1.00  0.00     0.210 C 
ENDBRANCH  33  35
ENDBRANCH   3  29
BRANCH   5  37
HETATM   37  N4  UNL     1       0.973  55.197 -24.426  1.00  0.00    -0.288 NA
HETATM   38  H22 UNL     1       0.580  55.210 -23.495  1.00  0.00     0.125 HD
HETATM   39  H23 UNL     1       1.088  56.111 -24.853  1.00  0.00     0.125 HD
ENDBRANCH   5  37
TORSDOF 10
ENDMDL
MODEL 4
REMARK minimizedAffinity -8.91837978
REMARK  10 active torsions:
REMARK  status: ('A' for Active; 'I' for Inactive)
REMARK       I    between atoms: N1_2  and  C2_3 
REMARK    1  A    between atoms: C2_3  and  C3_5 
REMARK    2  A    between atoms: C3_5  and  N2_6 
REMARK    3  A    between atoms: N2_6  and  C4_7 
REMARK    4  A    between atoms: C4_7  and  C5_8 
REMARK    5  A    between atoms: C5_8  and  O2_9 
REMARK    6  A    between atoms: O2_9  and  C6_10 
REMARK    7  A    between atoms: C9_13  and  N3_14 
REMARK    8  A    between atoms: C11_16  and  C12_17 
REMARK    9  A    between atoms: C16_21  and  O3_22 
REMARK   10  A    between atoms: C20_26  and  N4_27 
ROOT
HETATM    1  N3  UNL     1      -1.504  51.578 -25.401  1.00  0.00    -0.307 N 
HETATM    2  C10 UNL     1      -1.192  51.493 -24.052  1.00  0.00     0.112 A 
HETATM    3  C11 UNL     1      -0.436  52.582 -23.670  1.00  0.00     0.007 A 
HETATM    4  C19 UNL     1      -0.249  53.387 -24.830  1.00  0.00     0.059 A 
HETATM    5  C20 UNL     1       0.381  54.608 -25.126  1.00  0.00     0.093 A 
HETATM    6  N5  UNL     1       0.372  55.067 -26.389  1.00  0.00    -0.343 N 
ATOM      7  H5  UNL     1       0.833  55.946 -26.630  1.00  0.00     0.167 HD
HETATM    8  C21 UNL     1      -0.257  54.343 -27.325  1.00  0.00     0.183 A 
HETATM    9  N6  UNL     1      -0.916  53.193 -27.161  1.00  0.00    -0.337 N 
ATOM     10  H6  UNL     1      -1.391  52.706 -27.921  1.00  0.00     0.168 HD
HETATM   11  C22 UNL     1      -0.890  52.739 -25.887  1.00  0.00     0.127 A 
ENDROOT
BRANCH   1  12
HETATM   12  C9  UNL     1      -2.320  50.630 -26.118  1.00  0.00     0.040 A 
HETATM   13  C8  UNL     1      -2.812  50.930 -27.403  1.00  0.00     0.033 A 
HETATM   14  C7  UNL     1      -3.589  50.006 -28.123  1.00  0.00     0.039 A 
HETATM   15  C6  UNL     1      -3.886  48.765 -27.575  1.00  0.00     0.069 A 
HETATM   16  C24 UNL     1      -3.416  48.467 -26.297  1.00  0.00     0.039 A 
HETATM   17  C23 UNL     1      -2.641  49.382 -25.575  1.00  0.00     0.033 A 
BRANCH  15  18
HETATM   18  O2  UNL     1      -4.618  47.770 -28.149  1.00  0.00    -0.349 OA
BRANCH  18  19
HETATM   19  C5  UNL     1      -5.684  48.096 -29.047  1.00  0.00     0.205 C 
BRANCH  19  20
HETATM   20  C4  UNL     1      -5.582  47.308 -30.367  1.00  0.00     0.296 C 
BRANCH  20  21
HETATM   21  N2  UNL     1      -6.436  46.113 -30.473  1.00  0.00     0.094 N 
HETATM   22  H7  UNL     1      -5.968  45.359 -29.953  1.00  0.00     0.316 HD
BRANCH  21  23
HETATM   23  C3  UNL     1      -6.568  45.638 -31.870  1.00  0.00     0.371 C 
BRANCH  23  24
HETATM   24  C2  UNL     1      -6.007  44.213 -31.969  1.00  0.00     0.245 C 
HETATM   25  N1  UNL     1      -4.778  44.163 -32.597  1.00  0.00    -0.364 N 
HETATM   26  C1  UNL     1      -4.138  42.917 -32.924  1.00  0.00     0.149 C 
HETATM   27  H4  UNL     1      -4.551  44.999 -33.131  1.00  0.00     0.161 HD
HETATM   28  O1  UNL     1      -6.599  43.233 -31.523  1.00  0.00    -0.272 OA
ENDBRANCH  23  24
ENDBRANCH  21  23
ENDBRANCH  20  21
ENDBRANCH  19  20
ENDBRANCH  18  19
ENDBRANCH  15  18
ENDBRANCH   1  12
BRANCH   3  29
HETATM   29  C12 UNL     1       0.058  52.746 -22.309  1.00  0.00    -0.021 A 
HETATM   30  C13 UNL     1       1.151  53.575 -22.043  1.00  0.00     0.012 A 
HETATM   31  C14 UNL     1       1.624  53.718 -20.741  1.00  0.00     0.004 A 
HETATM   32  C15 UNL     1       1.008  53.025 -19.700  1.00  0.00     0.037 A 
HETATM   33  C16 UNL     1      -0.085  52.196 -19.947  1.00  0.00     0.069 A 
HETATM   34  C18 UNL     1      -0.567  52.071 -21.251  1.00  0.00     0.049 A 
BRANCH  33  35
HETATM   35  O3  UNL     1      -0.588  51.568 -18.841  1.00  0.00    -0.356 OA
HETATM   36  C17 UNL     1      -1.997  51.643 -18.648  1.00  0.00     0.210 C 
ENDBRANCH  33  35
ENDBRANCH   3  29
BRANCH   5  37
HETATM   37  N4  UNL     1       1.005  55.418 -24.182  1.00  0.00    -0.288 NA
HETATM   38  H22 UNL     1       0.567  55.382 -23.272  1.00  0.00     0.125 HD
HETATM   39  H23 UNL     1       1.117  56.352 -24.564  1.00  0.00     0.125 HD
ENDBRANCH   5  37
TORSDOF 10
ENDMDL
MODEL 5
REMARK minimizedAffinity -8.88207722
REMARK  10 active torsions:
REMARK  status: ('A' for Active; 'I' for Inactive)
REMARK       I    between atoms: N1_2  and  C2_3 
REMARK    1  A    between atoms: C2_3  and  C3_5 
REMARK    2  A    between atoms: C3_5  and  N2_6 
REMARK    3  A    between atoms: N2_6  and  C4_7 
REMARK    4  A    between atoms: C4_7  and  C5_8 
REMARK    5  A    between atoms: C5_8  and  O2_9 
REMARK    6  A    between atoms: O2_9  and  C6_10 
REMARK    7  A    between atoms: C9_13  and  N3_14 
REMARK    8  A    between atoms: C11_16  and  C12_17 
REMARK    9  A    between atoms: C16_21  and  O3_22 
REMARK   10  A    between atoms: C20_26  and  N4_27 
ROOT
HETATM    1  N3  UNL     1      -0.861  50.998 -22.818  1.00  0.00    -0.307 N 
HETATM    2  C10 UNL     1      -0.873  50.574 -21.497  1.00  0.00     0.112 A 
HETATM    3  C11 UNL     1      -0.180  51.467 -20.705  1.00  0.00     0.007 A 
HETATM    4  C19 UNL     1       0.304  52.495 -21.564  1.00  0.00     0.059 A 
HETATM    5  C20 UNL     1       1.037  53.684 -21.408  1.00  0.00     0.093 A 
HETATM    6  N5  UNL     1       1.340  54.421 -22.490  1.00  0.00    -0.343 N 
ATOM      7  H5  UNL     1       1.881  55.282 -22.403  1.00  0.00     0.167 HD
HETATM    8  C21 UNL     1       0.914  53.997 -23.688  1.00  0.00     0.183 A 
HETATM    9  N6  UNL     1       0.186  52.910 -23.957  1.00  0.00    -0.337 N 
ATOM     10  H6  UNL     1      -0.121  52.659 -24.897  1.00  0.00     0.168 HD
HETATM   11  C22 UNL     1      -0.102  52.174 -22.860  1.00  0.00     0.127 A 
ENDROOT
BRANCH   1  12
HETATM   12  C9  UNL     1      -1.529  50.324 -23.903  1.00  0.00     0.040 A 
HETATM   13  C8  UNL     1      -1.205  50.620 -25.242  1.00  0.00     0.033 A 
HETATM   14  C7  UNL     1      -1.831  49.954 -26.311  1.00  0.00     0.039 A 
HETATM   15  C6  UNL     1      -2.789  48.980 -26.062  1.00  0.00     0.069 A 
HETATM   16  C24 UNL     1      -3.127  48.694 -24.740  1.00  0.00     0.039 A 
HETATM   17  C23 UNL     1      -2.507  49.352 -23.672  1.00  0.00     0.033 A 
BRANCH  15  18
HETATM   18  O2  UNL     1      -3.475  48.251 -26.986  1.00  0.00    -0.349 OA
BRANCH  18  19
HETATM   19  C5  UNL     1      -4.286  48.916 -27.960  1.00  0.00     0.205 C 
BRANCH  19  20
HETATM   20  C4  UNL     1      -5.490  48.054 -28.388  1.00  0.00     0.296 C 
BRANCH  20  21
HETATM   21  N2  UNL     1      -6.110  48.405 -29.676  1.00  0.00     0.094 N 
HETATM   22  H7  UNL     1      -6.499  47.540 -30.072  1.00  0.00     0.316 HD
BRANCH  21  23
HETATM   23  C3  UNL     1      -5.119  48.907 -30.658  1.00  0.00     0.371 C 
BRANCH  23  24
HETATM   24  C2  UNL     1      -5.199  48.052 -31.929  1.00  0.00     0.245 C 
HETATM   25  N1  UNL     1      -4.435  48.556 -32.964  1.00  0.00    -0.364 N 
HETATM   26  C1  UNL     1      -4.476  47.995 -34.287  1.00  0.00     0.149 C 
HETATM   27  H4  UNL     1      -4.158  49.527 -32.839  1.00  0.00     0.161 HD
HETATM   28  O1  UNL     1      -5.871  47.025 -31.999  1.00  0.00    -0.272 OA
ENDBRANCH  23  24
ENDBRANCH  21  23
ENDBRANCH  20  21
ENDBRANCH  19  20
ENDBRANCH  18  19
ENDBRANCH  15  18
ENDBRANCH   1  12
BRANCH   3  29
HETATM   29  C12 UNL     1      -0.009  51.265 -19.273  1.00  0.00    -0.021 A 
HETATM   30  C13 UNL     1      -0.601  50.173 -18.632  1.00  0.00     0.012 A 
HETATM   31  C14 UNL     1      -0.441  49.992 -17.260  1.00  0.00     0.004 A 
HETATM   32  C15 UNL     1       0.306  50.909 -16.523  1.00  0.00     0.037 A 
HETATM   33  C16 UNL     1       0.906  52.003 -17.147  1.00  0.00     0.069 A 
HETATM   34  C18 UNL     1       0.758  52.169 -18.524  1.00  0.00     0.049 A 
BRANCH  33  35
HETATM   35  O3  UNL     1       1.601  52.829 -16.308  1.00  0.00    -0.356 OA
HETATM   36  C17 UNL     1       3.018  52.835 -16.445  1.00  0.00     0.210 C 
ENDBRANCH  33  35
ENDBRANCH   3  29
BRANCH   5  37
HETATM   37  N4  UNL     1       1.460  54.190 -20.182  1.00  0.00    -0.288 NA
HETATM   38  H22 UNL     1       0.822  53.989 -19.424  1.00  0.00     0.125 HD
HETATM   39  H23 UNL     1       1.697  55.172 -20.289  1.00  0.00     0.125 HD
ENDBRANCH   5  37
TORSDOF 10
ENDMDL
MODEL 6
REMARK minimizedAffinity -8.83044338
REMARK  10 active torsions:
REMARK  status: ('A' for Active; 'I' for Inactive)
REMARK       I    between atoms: N1_2  and  C2_3 
REMARK    1  A    between atoms: C2_3  and  C3_5 
REMARK    2  A    between atoms: C3_5  and  N2_6 
REMARK    3  A    between atoms: N2_6  and  C4_7 
REMARK    4  A    between atoms: C4_7  and  C5_8 
REMARK    5  A    between atoms: C5_8  and  O2_9 
REMARK    6  A    between atoms: O2_9  and  C6_10 
REMARK    7  A    between atoms: C9_13  and  N3_14 
REMARK    8  A    between atoms: C11_16  and  C12_17 
REMARK    9  A    between atoms: C16_21  and  O3_22 
REMARK   10  A    between atoms: C20_26  and  N4_27 
ROOT
HETATM    1  N3  UNL     1      -1.832  51.214 -25.508  1.00  0.00    -0.307 N 
HETATM    2  C10 UNL     1      -1.530  51.163 -24.155  1.00  0.00     0.112 A 
HETATM    3  C11 UNL     1      -0.717  52.222 -23.809  1.00  0.00     0.007 A 
HETATM    4  C19 UNL     1      -0.482  52.971 -24.998  1.00  0.00     0.059 A 
HETATM    5  C20 UNL     1       0.217  54.144 -25.335  1.00  0.00     0.093 A 
HETATM    6  N5  UNL     1       0.238  54.555 -26.614  1.00  0.00    -0.343 N 
ATOM      7  H5  UNL     1       0.747  55.397 -26.884  1.00  0.00     0.167 HD
HETATM    8  C21 UNL     1      -0.427  53.832 -27.526  1.00  0.00     0.183 A 
HETATM    9  N6  UNL     1      -1.149  52.728 -27.323  1.00  0.00    -0.337 N 
ATOM     10  H6  UNL     1      -1.647  52.239 -28.067  1.00  0.00     0.168 HD
HETATM   11  C22 UNL     1      -1.153  52.321 -26.033  1.00  0.00     0.127 A 
ENDROOT
BRANCH   1  12
HETATM   12  C9  UNL     1      -2.696  50.286 -26.194  1.00  0.00     0.040 A 
HETATM   13  C8  UNL     1      -3.278  49.202 -25.508  1.00  0.00     0.033 A 
HETATM   14  C7  UNL     1      -4.141  48.303 -26.158  1.00  0.00     0.039 A 
HETATM   15  C6  UNL     1      -4.442  48.471 -27.503  1.00  0.00     0.069 A 
HETATM   16  C24 UNL     1      -3.857  49.532 -28.193  1.00  0.00     0.039 A 
HETATM   17  C23 UNL     1      -2.997  50.432 -27.552  1.00  0.00     0.033 A 
BRANCH  15  18
HETATM   18  O2  UNL     1      -5.259  47.691 -28.264  1.00  0.00    -0.349 OA
BRANCH  18  19
HETATM   19  C5  UNL     1      -5.162  47.739 -29.692  1.00  0.00     0.205 C 
BRANCH  19  20
HETATM   20  C4  UNL     1      -6.507  48.112 -30.345  1.00  0.00     0.296 C 
BRANCH  20  21
HETATM   21  N2  UNL     1      -7.700  47.450 -29.790  1.00  0.00     0.094 N 
HETATM   22  H7  UNL     1      -8.084  46.847 -30.529  1.00  0.00     0.316 HD
BRANCH  21  23
HETATM   23  C3  UNL     1      -8.768  48.416 -29.441  1.00  0.00     0.371 C 
BRANCH  23  24
HETATM   24  C2  UNL     1      -9.282  48.104 -28.030  1.00  0.00     0.245 C 
HETATM   25  N1  UNL     1      -9.077  49.142 -27.142  1.00  0.00    -0.364 N 
HETATM   26  C1  UNL     1      -9.350  49.010 -25.737  1.00  0.00     0.149 C 
HETATM   27  H4  UNL     1      -8.396  49.828 -27.458  1.00  0.00     0.161 HD
HETATM   28  O1  UNL     1      -9.825  47.040 -27.740  1.00  0.00    -0.272 OA
ENDBRANCH  23  24
ENDBRANCH  21  23
ENDBRANCH  20  21
ENDBRANCH  19  20
ENDBRANCH  18  19
ENDBRANCH  15  18
ENDBRANCH   1  12
BRANCH   3  29
HETATM   29  C12 UNL     1      -0.221  52.410 -22.452  1.00  0.00    -0.021 A 
HETATM   30  C13 UNL     1       1.004  53.044 -22.223  1.00  0.00     0.012 A 
HETATM   31  C14 UNL     1       1.477  53.211 -20.923  1.00  0.00     0.004 A 
HETATM   32  C15 UNL     1       0.729  52.734 -19.848  1.00  0.00     0.037 A 
HETATM   33  C16 UNL     1      -0.496  52.100 -20.059  1.00  0.00     0.069 A 
HETATM   34  C18 UNL     1      -0.974  51.953 -21.361  1.00  0.00     0.049 A 
BRANCH  33  35
HETATM   35  O3  UNL     1      -1.121  51.672 -18.920  1.00  0.00    -0.356 OA
HETATM   36  C17 UNL     1      -0.312  51.542 -17.755  1.00  0.00     0.210 C 
ENDBRANCH  33  35
ENDBRANCH   3  29
BRANCH   5  37
HETATM   37  N4  UNL     1       0.880  54.953 -24.417  1.00  0.00    -0.288 NA
HETATM   38  H22 UNL     1       0.437  54.976 -23.509  1.00  0.00     0.125 HD
HETATM   39  H23 UNL     1       1.045  55.865 -24.834  1.00  0.00     0.125 HD
ENDBRANCH   5  37
TORSDOF 10
ENDMDL
MODEL 7
REMARK minimizedAffinity -8.65538597
REMARK  10 active torsions:
REMARK  status: ('A' for Active; 'I' for Inactive)
REMARK       I    between atoms: N1_2  and  C2_3 
REMARK    1  A    between atoms: C2_3  and  C3_5 
REMARK    2  A    between atoms: C3_5  and  N2_6 
REMARK    3  A    between atoms: N2_6  and  C4_7 
REMARK    4  A    between atoms: C4_7  and  C5_8 
REMARK    5  A    between atoms: C5_8  and  O2_9 
REMARK    6  A    between atoms: O2_9  and  C6_10 
REMARK    7  A    between atoms: C9_13  and  N3_14 
REMARK    8  A    between atoms: C11_16  and  C12_17 
REMARK    9  A    between atoms: C16_21  and  O3_22 
REMARK   10  A    between atoms: C20_26  and  N4_27 
ROOT
HETATM    1  N3  UNL     1       0.026  51.802 -20.935  1.00  0.00    -0.307 N 
HETATM    2  C10 UNL     1      -0.642  50.978 -21.829  1.00  0.00     0.112 A 
HETATM    3  C11 UNL     1      -0.525  51.475 -23.111  1.00  0.00     0.007 A 
HETATM    4  C19 UNL     1       0.239  52.674 -23.024  1.00  0.00     0.059 A 
HETATM    5  C20 UNL     1       0.731  53.630 -23.930  1.00  0.00     0.093 A 
HETATM    6  N5  UNL     1       1.423  54.685 -23.467  1.00  0.00    -0.343 N 
ATOM      7  H5  UNL     1       1.780  55.397 -24.104  1.00  0.00     0.167 HD
HETATM    8  C21 UNL     1       1.632  54.777 -22.147  1.00  0.00     0.183 A 
HETATM    9  N6  UNL     1       1.247  53.922 -21.197  1.00  0.00    -0.337 N 
ATOM     10  H6  UNL     1       1.461  54.048 -20.207  1.00  0.00     0.168 HD
HETATM   11  C22 UNL     1       0.544  52.871 -21.677  1.00  0.00     0.127 A 
ENDROOT
BRANCH   1  12
HETATM   12  C9  UNL     1       0.144  51.555 -19.519  1.00  0.00     0.040 A 
HETATM   13  C8  UNL     1      -0.392  50.386 -18.945  1.00  0.00     0.033 A 
HETATM   14  C7  UNL     1      -0.263  50.120 -17.571  1.00  0.00     0.039 A 
HETATM   15  C6  UNL     1       0.405  51.015 -16.745  1.00  0.00     0.069 A 
HETATM   16  C24 UNL     1       0.924  52.183 -17.303  1.00  0.00     0.039 A 
HETATM   17  C23 UNL     1       0.800  52.453 -18.671  1.00  0.00     0.033 A 
BRANCH  15  18
HETATM   18  O2  UNL     1       0.613  50.895 -15.405  1.00  0.00    -0.349 OA
BRANCH  18  19
HETATM   19  C5  UNL     1       0.313  51.992 -14.536  1.00  0.00     0.205 C 
BRANCH  19  20
HETATM   20  C4  UNL     1      -0.627  51.573 -13.389  1.00  0.00     0.296 C 
BRANCH  20  21
HETATM   21  N2  UNL     1      -1.576  52.599 -12.924  1.00  0.00     0.094 N 
HETATM   22  H7  UNL     1      -1.020  53.393 -12.580  1.00  0.00     0.316 HD
BRANCH  21  23
HETATM   23  C3  UNL     1      -2.392  52.132 -11.779  1.00  0.00     0.371 C 
BRANCH  23  24
HETATM   24  C2  UNL     1      -2.358  53.197 -10.674  1.00  0.00     0.245 C 
HETATM   25  N1  UNL     1      -1.672  54.336 -11.049  1.00  0.00    -0.364 N 
HETATM   26  C1  UNL     1      -1.394  55.399 -10.121  1.00  0.00     0.149 C 
HETATM   27  H4  UNL     1      -1.074  54.211 -11.862  1.00  0.00     0.161 HD
HETATM   28  O1  UNL     1      -2.897  53.039  -9.581  1.00  0.00    -0.272 OA
ENDBRANCH  23  24
ENDBRANCH  21  23
ENDBRANCH  20  21
ENDBRANCH  19  20
ENDBRANCH  18  19
ENDBRANCH  15  18
ENDBRANCH   1  12
BRANCH   3  29
HETATM   29  C12 UNL     1      -1.148  50.825 -24.255  1.00  0.00    -0.021 A 
HETATM   30  C13 UNL     1      -0.691  51.074 -25.553  1.00  0.00     0.012 A 
HETATM   31  C14 UNL     1      -1.300  50.457 -26.644  1.00  0.00     0.004 A 
HETATM   32  C15 UNL     1      -2.375  49.594 -26.440  1.00  0.00     0.037 A 
HETATM   33  C16 UNL     1      -2.843  49.332 -25.152  1.00  0.00     0.069 A 
HETATM   34  C18 UNL     1      -2.218  49.938 -24.062  1.00  0.00     0.049 A 
BRANCH  33  35
HETATM   35  O3  UNL     1      -3.908  48.476 -25.094  1.00  0.00    -0.356 OA
HETATM   36  C17 UNL     1      -4.725  48.391 -26.257  1.00  0.00     0.210 C 
ENDBRANCH  33  35
ENDBRANCH   3  29
BRANCH   5  37
HETATM   37  N4  UNL     1       0.581  53.551 -25.312  1.00  0.00    -0.288 NA
HETATM   38  H22 UNL     1       0.581  52.603 -25.662  1.00  0.00     0.125 HD
HETATM   39  H23 UNL     1       1.252  54.170 -25.756  1.00  0.00     0.125 HD
ENDBRANCH   5  37
TORSDOF 10
ENDMDL
MODEL 8
REMARK minimizedAffinity -8.5725317
REMARK  10 active torsions:
REMARK  status: ('A' for Active; 'I' for Inactive)
REMARK       I    between atoms: N1_2  and  C2_3 
REMARK    1  A    between atoms: C2_3  and  C3_5 
REMARK    2  A    between atoms: C3_5  and  N2_6 
REMARK    3  A    between atoms: N2_6  and  C4_7 
REMARK    4  A    between atoms: C4_7  and  C5_8 
REMARK    5  A    between atoms: C5_8  and  O2_9 
REMARK    6  A    between atoms: O2_9  and  C6_10 
REMARK    7  A    between atoms: C9_13  and  N3_14 
REMARK    8  A    between atoms: C11_16  and  C12_17 
REMARK    9  A    between atoms: C16_21  and  O3_22 
REMARK   10  A    between atoms: C20_26  and  N4_27 
ROOT
HETATM    1  N3  UNL     1      -2.147  49.748 -23.769  1.00  0.00    -0.307 N 
HETATM    2  C10 UNL     1      -1.415  50.865 -23.393  1.00  0.00     0.112 A 
HETATM    3  C11 UNL     1      -0.982  50.733 -22.090  1.00  0.00     0.007 A 
HETATM    4  C19 UNL     1      -1.472  49.483 -21.614  1.00  0.00     0.059 A 
HETATM    5  C20 UNL     1      -1.378  48.746 -20.420  1.00  0.00     0.093 A 
HETATM    6  N5  UNL     1      -2.014  47.567 -20.320  1.00  0.00    -0.343 N 
ATOM      7  H5  UNL     1      -1.969  47.019 -19.460  1.00  0.00     0.167 HD
HETATM    8  C21 UNL     1      -2.709  47.127 -21.378  1.00  0.00     0.183 A 
HETATM    9  N6  UNL     1      -2.845  47.717 -22.568  1.00  0.00    -0.337 N 
ATOM     10  H6  UNL     1      -3.376  47.311 -23.338  1.00  0.00     0.168 HD
HETATM   11  C22 UNL     1      -2.206  48.907 -22.651  1.00  0.00     0.127 A 
ENDROOT
BRANCH   1  12
HETATM   12  C9  UNL     1      -2.709  49.535 -25.079  1.00  0.00     0.040 A 
HETATM   13  C8  UNL     1      -3.578  48.454 -25.324  1.00  0.00     0.033 A 
HETATM   14  C7  UNL     1      -4.153  48.248 -26.590  1.00  0.00     0.039 A 
HETATM   15  C6  UNL     1      -3.872  49.119 -27.634  1.00  0.00     0.069 A 
HETATM   16  C24 UNL     1      -3.000  50.182 -27.405  1.00  0.00     0.039 A 
HETATM   17  C23 UNL     1      -2.425  50.394 -26.146  1.00  0.00     0.033 A 
BRANCH  15  18
HETATM   18  O2  UNL     1      -4.353  49.054 -28.907  1.00  0.00    -0.349 OA
BRANCH  18  19
HETATM   19  C5  UNL     1      -5.078  47.896 -29.336  1.00  0.00     0.205 C 
BRANCH  19  20
HETATM   20  C4  UNL     1      -6.564  47.969 -28.934  1.00  0.00     0.296 C 
BRANCH  20  21
HETATM   21  N2  UNL     1      -7.411  48.853 -29.752  1.00  0.00     0.094 N 
HETATM   22  H7  UNL     1      -7.332  49.799 -29.358  1.00  0.00     0.316 HD
BRANCH  21  23
HETATM   23  C3  UNL     1      -8.845  48.486 -29.673  1.00  0.00     0.371 C 
BRANCH  23  24
HETATM   24  C2  UNL     1      -9.182  48.097 -28.228  1.00  0.00     0.245 C 
HETATM   25  N1  UNL     1      -9.218  49.182 -27.374  1.00  0.00    -0.364 N 
HETATM   26  C1  UNL     1      -9.373  49.031 -25.953  1.00  0.00     0.149 C 
HETATM   27  H4  UNL     1      -8.765  50.015 -27.744  1.00  0.00     0.161 HD
HETATM   28  O1  UNL     1      -9.402  46.937 -27.885  1.00  0.00    -0.272 OA
ENDBRANCH  23  24
ENDBRANCH  21  23
ENDBRANCH  20  21
ENDBRANCH  19  20
ENDBRANCH  18  19
ENDBRANCH  15  18
ENDBRANCH   1  12
BRANCH   3  29
HETATM   29  C12 UNL     1      -0.208  51.769 -21.420  1.00  0.00    -0.021 A 
HETATM   30  C13 UNL     1       0.546  52.685 -22.159  1.00  0.00     0.012 A 
HETATM   31  C14 UNL     1       1.293  53.666 -21.511  1.00  0.00     0.004 A 
HETATM   32  C15 UNL     1       1.295  53.728 -20.119  1.00  0.00     0.037 A 
HETATM   33  C16 UNL     1       0.547  52.823 -19.365  1.00  0.00     0.069 A 
HETATM   34  C18 UNL     1      -0.214  51.854 -20.020  1.00  0.00     0.049 A 
BRANCH  33  35
HETATM   35  O3  UNL     1       0.644  52.988 -18.011  1.00  0.00    -0.356 OA
HETATM   36  C17 UNL     1       0.818  51.809 -17.233  1.00  0.00     0.210 C 
ENDBRANCH  33  35
ENDBRANCH   3  29
BRANCH   5  37
HETATM   37  N4  UNL     1      -0.629  49.137 -19.314  1.00  0.00    -0.288 NA
HETATM   38  H22 UNL     1       0.207  49.650 -19.556  1.00  0.00     0.125 HD
HETATM   39  H23 UNL     1      -0.477  48.333 -18.712  1.00  0.00     0.125 HD
ENDBRANCH   5  37
TORSDOF 10
ENDMDL
MODEL 9
REMARK minimizedAffinity -8.53814507
REMARK  10 active torsions:
REMARK  status: ('A' for Active; 'I' for Inactive)
REMARK       I    between atoms: N1_2  and  C2_3 
REMARK    1  A    between atoms: C2_3  and  C3_5 
REMARK    2  A    between atoms: C3_5  and  N2_6 
REMARK    3  A    between atoms: N2_6  and  C4_7 
REMARK    4  A    between atoms: C4_7  and  C5_8 
REMARK    5  A    between atoms: C5_8  and  O2_9 
REMARK    6  A    between atoms: O2_9  and  C6_10 
REMARK    7  A    between atoms: C9_13  and  N3_14 
REMARK    8  A    between atoms: C11_16  and  C12_17 
REMARK    9  A    between atoms: C16_21  and  O3_22 
REMARK   10  A    between atoms: C20_26  and  N4_27 
ROOT
HETATM    1  N3  UNL     1      -0.775  51.342 -23.303  1.00  0.00    -0.307 N 
HETATM    2  C10 UNL     1      -0.840  50.863 -22.003  1.00  0.00     0.112 A 
HETATM    3  C11 UNL     1      -0.145  51.699 -21.153  1.00  0.00     0.007 A 
HETATM    4  C19 UNL     1       0.396  52.747 -21.951  1.00  0.00     0.059 A 
HETATM    5  C20 UNL     1       1.161  53.904 -21.721  1.00  0.00     0.093 A 
HETATM    6  N5  UNL     1       1.519  54.677 -22.761  1.00  0.00    -0.343 N 
ATOM      7  H5  UNL     1       2.083  55.515 -22.620  1.00  0.00     0.167 HD
HETATM    8  C21 UNL     1       1.117  54.318 -23.988  1.00  0.00     0.183 A 
HETATM    9  N6  UNL     1       0.365  53.267 -24.326  1.00  0.00    -0.337 N 
ATOM     10  H6  UNL     1       0.080  53.067 -25.285  1.00  0.00     0.168 HD
HETATM   11  C22 UNL     1       0.021  52.495 -23.271  1.00  0.00     0.127 A 
ENDROOT
BRANCH   1  12
HETATM   12  C9  UNL     1      -1.429  50.738 -24.436  1.00  0.00     0.040 A 
HETATM   13  C8  UNL     1      -2.489  49.828 -24.255  1.00  0.00     0.033 A 
HETATM   14  C7  UNL     1      -3.153  49.249 -25.351  1.00  0.00     0.039 A 
HETATM   15  C6  UNL     1      -2.771  49.569 -26.647  1.00  0.00     0.069 A 
HETATM   16  C24 UNL     1      -1.712  50.456 -26.835  1.00  0.00     0.039 A 
HETATM   17  C23 UNL     1      -1.048  51.037 -25.748  1.00  0.00     0.033 A 
BRANCH  15  18
HETATM   18  O2  UNL     1      -3.317  49.097 -27.802  1.00  0.00    -0.349 OA
BRANCH  18  19
HETATM   19  C5  UNL     1      -4.421  48.188 -27.749  1.00  0.00     0.205 C 
BRANCH  19  20
HETATM   20  C4  UNL     1      -5.346  48.337 -28.972  1.00  0.00     0.296 C 
BRANCH  20  21
HETATM   21  N2  UNL     1      -5.277  47.255 -29.969  1.00  0.00     0.094 N 
HETATM   22  H7  UNL     1      -4.292  47.164 -30.250  1.00  0.00     0.316 HD
BRANCH  21  23
HETATM   23  C3  UNL     1      -6.035  47.578 -31.201  1.00  0.00     0.371 C 
BRANCH  23  24
HETATM   24  C2  UNL     1      -5.059  47.650 -32.383  1.00  0.00     0.245 C 
HETATM   25  N1  UNL     1      -5.650  48.124 -33.538  1.00  0.00    -0.364 N 
HETATM   26  C1  UNL     1      -4.959  48.138 -34.799  1.00  0.00     0.149 C 
HETATM   27  H4  UNL     1      -6.667  48.098 -33.524  1.00  0.00     0.161 HD
HETATM   28  O1  UNL     1      -3.878  47.325 -32.291  1.00  0.00    -0.272 OA
ENDBRANCH  23  24
ENDBRANCH  21  23
ENDBRANCH  20  21
ENDBRANCH  19  20
ENDBRANCH  18  19
ENDBRANCH  15  18
ENDBRANCH   1  12
BRANCH   3  29
HETATM   29  C12 UNL     1      -0.024  51.430 -19.726  1.00  0.00    -0.021 A 
HETATM   30  C13 UNL     1       0.622  52.338 -18.883  1.00  0.00     0.012 A 
HETATM   31  C14 UNL     1       0.744  52.069 -17.521  1.00  0.00     0.004 A 
HETATM   32  C15 UNL     1       0.226  50.884 -17.001  1.00  0.00     0.037 A 
HETATM   33  C16 UNL     1      -0.423  49.968 -17.828  1.00  0.00     0.069 A 
HETATM   34  C18 UNL     1      -0.559  50.251 -19.187  1.00  0.00     0.049 A 
BRANCH  33  35
HETATM   35  O3  UNL     1      -0.874  48.844 -17.193  1.00  0.00    -0.356 OA
HETATM   36  C17 UNL     1      -2.035  48.224 -17.736  1.00  0.00     0.210 C 
ENDBRANCH  33  35
ENDBRANCH   3  29
BRANCH   5  37
HETATM   37  N4  UNL     1       1.560  54.344 -20.463  1.00  0.00    -0.288 NA
HETATM   38  H22 UNL     1       0.894  54.130 -19.734  1.00  0.00     0.125 HD
HETATM   39  H23 UNL     1       1.831  55.321 -20.520  1.00  0.00     0.125 HD
ENDBRANCH   5  37
TORSDOF 10
ENDMDL
