MODEL 1
REMARK minimizedAffinity -9.07747936
REMARK CNNscore 0.785214782
REMARK CNNaffinity 7.56887579
REMARK  10 active torsions:
REMARK  status: ('A' for Active; 'I' for Inactive)
REMARK    1  A    between atoms: C3_5  and  C4_6 
REMARK    2  A    between atoms: C13_19  and  N3_20 
REMARK    3  A    between atoms: N3_20  and  C14_21 
REMARK    4  A    between atoms: C18_25  and  C19_26 
REMARK    5  A    between atoms: C19_26  and  O2_27 
REMARK    6  A    between atoms: O2_27  and  C20_28 
REMARK    7  A    between atoms: C20_28  and  C21_29 
REMARK    8  A    between atoms: C21_29  and  O3_30 
REMARK    9  A    between atoms: C21_29  and  C22_31 
REMARK   10  A    between atoms: C22_31  and  O4_32 
ROOT
HETATM    1  C1  UNL     1      -1.293  49.753 -20.777  1.00  0.00     0.161 C 
HETATM    2  N1  UNL     1      -0.744  50.806 -21.614  1.00  0.00    -0.303 N 
HETATM    3  C2  UNL     1      -0.909  50.753 -22.988  1.00  0.00     0.260 A 
HETATM    4  O1  UNL     1      -1.505  49.848 -23.571  1.00  0.00    -0.267 OA
HETATM    5  C3  UNL     1      -0.319  51.878 -23.790  1.00  0.00     0.047 A 
HETATM    6  C10 UNL     1       0.338  52.881 -23.187  1.00  0.00     0.034 A 
HETATM    7  C11 UNL     1       0.476  52.876 -21.740  1.00  0.00     0.026 A 
HETATM    8  C12 UNL     1       1.130  53.861 -21.041  1.00  0.00     0.121 A 
HETATM    9  N2  UNL     1       1.261  53.864 -19.700  1.00  0.00    -0.201 N 
ATOM     10  H2  UNL     1       1.756  54.614 -19.217  1.00  0.00     0.183 HD
HETATM   11  C13 UNL     1       0.716  52.840 -19.025  1.00  0.00     0.684 A 
HETATM   12  N4  UNL     1       0.061  51.836 -19.623  1.00  0.00    -0.175 N 
ATOM     13  H4  UNL     1      -0.340  51.073 -19.078  1.00  0.00     0.186 HD
HETATM   14  C24 UNL     1      -0.053  51.862 -20.967  1.00  0.00     0.137 A 
ENDROOT
BRANCH  11  15
HETATM   15  N3  UNL     1       0.883  52.897 -17.645  1.00  0.00    -0.192 N 
HETATM   16  H9  UNL     1       0.066  53.328 -17.235  1.00  0.00     0.184 HD
BRANCH  15  17
HETATM   17  C14 UNL     1       1.867  52.447 -16.760  1.00  0.00     0.049 A 
HETATM   18  C15 UNL     1       3.207  52.837 -16.817  1.00  0.00     0.030 A 
HETATM   19  C16 UNL     1       4.142  52.357 -15.894  1.00  0.00     0.003 A 
HETATM   20  C17 UNL     1       3.751  51.473 -14.891  1.00  0.00     0.009 A 
HETATM   21  C18 UNL     1       2.419  51.057 -14.806  1.00  0.00    -0.032 A 
HETATM   22  C23 UNL     1       1.492  51.559 -15.737  1.00  0.00     0.039 A 
BRANCH  21  23
HETATM   23  C19 UNL     1       1.977  50.120 -13.710  1.00  0.00     0.206 C 
BRANCH  23  24
HETATM   24  O2  UNL     1       1.778  48.792 -14.198  1.00  0.00    -0.384 OA
BRANCH  24  25
HETATM   25  C20 UNL     1       2.896  47.930 -13.968  1.00  0.00     0.201 C 
BRANCH  25  26
HETATM   26  C21 UNL     1       2.505  46.705 -13.130  1.00  0.00     0.165 C 
BRANCH  26  27
HETATM   27  O3  UNL     1       3.307  46.663 -11.943  1.00  0.00    -0.391 OA
HETATM   28  H18 UNL     1       4.160  46.276 -12.232  1.00  0.00     0.210 HD
ENDBRANCH  26  27
BRANCH  26  29
HETATM   29  C22 UNL     1       2.702  45.392 -13.898  1.00  0.00     0.198 C 
BRANCH  29  30
HETATM   30  O4  UNL     1       2.117  45.516 -15.198  1.00  0.00    -0.398 OA
HETATM   31  H21 UNL     1       2.211  44.647 -15.628  1.00  0.00     0.209 HD
ENDBRANCH  29  30
ENDBRANCH  26  29
ENDBRANCH  25  26
ENDBRANCH  24  25
ENDBRANCH  23  24
ENDBRANCH  21  23
ENDBRANCH  15  17
ENDBRANCH  11  15
BRANCH   5  32
HETATM   32  C4  UNL     1      -0.464  51.878 -25.260  1.00  0.00     0.023 A 
HETATM   33  C5  UNL     1      -1.697  52.179 -25.865  1.00  0.00     0.046 A 
HETATM   34 CL1  UNL     1      -3.113  52.531 -24.931  1.00  0.00    -0.083 Cl
HETATM   35  C6  UNL     1      -1.827  52.195 -27.259  1.00  0.00     0.025 A 
HETATM   36  C7  UNL     1      -0.729  51.913 -28.069  1.00  0.00     0.003 A 
HETATM   37  C8  UNL     1       0.500  51.612 -27.486  1.00  0.00     0.025 A 
HETATM   38  C9  UNL     1       0.634  51.595 -26.093  1.00  0.00     0.046 A 
HETATM   39 CL2  UNL     1       2.192  51.199 -25.451  1.00  0.00    -0.083 Cl
ENDBRANCH   5  32
TORSDOF 10
ENDMDL
MODEL 2
REMARK minimizedAffinity -9.03477287
REMARK CNNscore 0.684920251
REMARK CNNaffinity 7.4977088
REMARK  10 active torsions:
REMARK  status: ('A' for Active; 'I' for Inactive)
REMARK    1  A    between atoms: C3_5  and  C4_6 
REMARK    2  A    between atoms: C13_19  and  N3_20 
REMARK    3  A    between atoms: N3_20  and  C14_21 
REMARK    4  A    between atoms: C18_25  and  C19_26 
REMARK    5  A    between atoms: C19_26  and  O2_27 
REMARK    6  A    between atoms: O2_27  and  C20_28 
REMARK    7  A    between atoms: C20_28  and  C21_29 
REMARK    8  A    between atoms: C21_29  and  O3_30 
REMARK    9  A    between atoms: C21_29  and  C22_31 
REMARK   10  A    between atoms: C22_31  and  O4_32 
ROOT
HETATM    1  C1  UNL     1      -1.312  49.820 -20.765  1.00  0.00     0.161 C 
HETATM    2  N1  UNL     1      -0.756  50.861 -21.612  1.00  0.00    -0.303 N 
HETATM    3  C2  UNL     1      -0.935  50.804 -22.985  1.00  0.00     0.260 A 
HETATM    4  O1  UNL     1      -1.549  49.904 -23.557  1.00  0.00    -0.267 OA
HETATM    5  C3  UNL     1      -0.336  51.916 -23.799  1.00  0.00     0.047 A 
HETATM    6  C10 UNL     1       0.341  52.912 -23.207  1.00  0.00     0.034 A 
HETATM    7  C11 UNL     1       0.493  52.913 -21.761  1.00  0.00     0.026 A 
HETATM    8  C12 UNL     1       1.167  53.892 -21.073  1.00  0.00     0.121 A 
HETATM    9  N2  UNL     1       1.311  53.900 -19.733  1.00  0.00    -0.201 N 
ATOM     10  H2  UNL     1       1.821  54.645 -19.259  1.00  0.00     0.183 HD
HETATM   11  C13 UNL     1       0.757  52.887 -19.048  1.00  0.00     0.684 A 
HETATM   12  N4  UNL     1       0.082  51.890 -19.635  1.00  0.00    -0.175 N 
ATOM     13  H4  UNL     1      -0.325  51.136 -19.082  1.00  0.00     0.186 HD
HETATM   14  C24 UNL     1      -0.044  51.911 -20.978  1.00  0.00     0.137 A 
ENDROOT
BRANCH  11  15
HETATM   15  N3  UNL     1       0.937  52.950 -17.670  1.00  0.00    -0.192 N 
HETATM   16  H9  UNL     1       0.118  53.366 -17.251  1.00  0.00     0.184 HD
BRANCH  15  17
HETATM   17  C14 UNL     1       1.939  52.519 -16.795  1.00  0.00     0.049 A 
HETATM   18  C15 UNL     1       3.283  52.881 -16.906  1.00  0.00     0.030 A 
HETATM   19  C16 UNL     1       4.236  52.423 -15.990  1.00  0.00     0.003 A 
HETATM   20  C17 UNL     1       3.859  51.588 -14.941  1.00  0.00     0.009 A 
HETATM   21  C18 UNL     1       2.524  51.200 -14.801  1.00  0.00    -0.032 A 
HETATM   22  C23 UNL     1       1.579  51.680 -15.726  1.00  0.00     0.039 A 
BRANCH  21  23
HETATM   23  C19 UNL     1       2.097  50.317 -13.656  1.00  0.00     0.206 C 
BRANCH  23  24
HETATM   24  O2  UNL     1       0.686  50.090 -13.660  1.00  0.00    -0.384 OA
BRANCH  24  25
HETATM   25  C20 UNL     1       0.335  48.709 -13.781  1.00  0.00     0.201 C 
BRANCH  25  26
HETATM   26  C21 UNL     1       1.095  48.029 -14.929  1.00  0.00     0.165 C 
BRANCH  26  27
HETATM   27  O3  UNL     1       0.273  48.016 -16.103  1.00  0.00    -0.391 OA
HETATM   28  H18 UNL     1      -0.337  47.260 -15.971  1.00  0.00     0.210 HD
ENDBRANCH  26  27
BRANCH  26  29
HETATM   29  C22 UNL     1       1.484  46.586 -14.590  1.00  0.00     0.198 C 
BRANCH  29  30
HETATM   30  O4  UNL     1       0.355  45.732 -14.801  1.00  0.00    -0.398 OA
HETATM   31  H21 UNL     1       0.625  44.840 -14.519  1.00  0.00     0.209 HD
ENDBRANCH  29  30
ENDBRANCH  26  29
ENDBRANCH  25  26
ENDBRANCH  24  25
ENDBRANCH  23  24
ENDBRANCH  21  23
ENDBRANCH  15  17
ENDBRANCH  11  15
BRANCH   5  32
HETATM   32  C4  UNL     1      -0.494  51.910 -25.266  1.00  0.00     0.023 A 
HETATM   33  C5  UNL     1       0.593  51.623 -26.111  1.00  0.00     0.046 A 
HETATM   34 CL1  UNL     1       2.176  51.298 -25.485  1.00  0.00    -0.083 Cl
HETATM   35  C6  UNL     1       0.436  51.601 -27.502  1.00  0.00     0.025 A 
HETATM   36  C7  UNL     1      -0.809  51.862 -28.071  1.00  0.00     0.003 A 
HETATM   37  C8  UNL     1      -1.897  52.149 -27.250  1.00  0.00     0.025 A 
HETATM   38  C9  UNL     1      -1.743  52.172 -25.858  1.00  0.00     0.046 A 
HETATM   39 CL2  UNL     1      -3.143  52.549 -24.912  1.00  0.00    -0.083 Cl
ENDBRANCH   5  32
TORSDOF 10
ENDMDL
MODEL 3
REMARK minimizedAffinity -9.27693748
REMARK CNNscore 0.662850797
REMARK CNNaffinity 7.27369881
REMARK  10 active torsions:
REMARK  status: ('A' for Active; 'I' for Inactive)
REMARK    1  A    between atoms: C3_5  and  C4_6 
REMARK    2  A    between atoms: C13_19  and  N3_20 
REMARK    3  A    between atoms: N3_20  and  C14_21 
REMARK    4  A    between atoms: C18_25  and  C19_26 
REMARK    5  A    between atoms: C19_26  and  O2_27 
REMARK    6  A    between atoms: O2_27  and  C20_28 
REMARK    7  A    between atoms: C20_28  and  C21_29 
REMARK    8  A    between atoms: C21_29  and  O3_30 
REMARK    9  A    between atoms: C21_29  and  C22_31 
REMARK   10  A    between atoms: C22_31  and  O4_32 
ROOT
HETATM    1  C1  UNL     1      -1.320  49.818 -20.734  1.00  0.00     0.161 C 
HETATM    2  N1  UNL     1      -0.765  50.851 -21.590  1.00  0.00    -0.303 N 
HETATM    3  C2  UNL     1      -0.937  50.778 -22.963  1.00  0.00     0.260 A 
HETATM    4  O1  UNL     1      -1.545  49.869 -23.527  1.00  0.00    -0.267 OA
HETATM    5  C3  UNL     1      -0.339  51.883 -23.787  1.00  0.00     0.047 A 
HETATM    6  C10 UNL     1       0.331  52.889 -23.203  1.00  0.00     0.034 A 
HETATM    7  C11 UNL     1       0.476  52.907 -21.757  1.00  0.00     0.026 A 
HETATM    8  C12 UNL     1       1.143  53.897 -21.077  1.00  0.00     0.121 A 
HETATM    9  N2  UNL     1       1.281  53.920 -19.737  1.00  0.00    -0.201 N 
ATOM     10  H2  UNL     1       1.785  54.673 -19.269  1.00  0.00     0.183 HD
HETATM   11  C13 UNL     1       0.728  52.913 -19.043  1.00  0.00     0.684 A 
HETATM   12  N4  UNL     1       0.060  51.907 -19.621  1.00  0.00    -0.175 N 
ATOM     13  H4  UNL     1      -0.346  51.157 -19.061  1.00  0.00     0.186 HD
HETATM   14  C24 UNL     1      -0.060  51.912 -20.965  1.00  0.00     0.137 A 
ENDROOT
BRANCH  11  15
HETATM   15  N3  UNL     1       0.902  52.992 -17.665  1.00  0.00    -0.192 N 
HETATM   16  H9  UNL     1       0.103  53.460 -17.260  1.00  0.00     0.184 HD
BRANCH  15  17
HETATM   17  C14 UNL     1       1.873  52.525 -16.774  1.00  0.00     0.049 A 
HETATM   18  C15 UNL     1       3.236  52.811 -16.882  1.00  0.00     0.030 A 
HETATM   19  C16 UNL     1       4.156  52.320 -15.950  1.00  0.00     0.003 A 
HETATM   20  C17 UNL     1       3.728  51.528 -14.888  1.00  0.00     0.009 A 
HETATM   21  C18 UNL     1       2.372  51.216 -14.751  1.00  0.00    -0.032 A 
HETATM   22  C23 UNL     1       1.461  51.728 -15.691  1.00  0.00     0.039 A 
BRANCH  21  23
HETATM   23  C19 UNL     1       1.891  50.381 -13.591  1.00  0.00     0.206 C 
BRANCH  23  24
HETATM   24  O2  UNL     1       0.772  50.982 -12.935  1.00  0.00    -0.384 OA
BRANCH  24  25
HETATM   25  C20 UNL     1       1.044  52.297 -12.443  1.00  0.00     0.201 C 
BRANCH  25  26
HETATM   26  C21 UNL     1      -0.067  52.793 -11.505  1.00  0.00     0.165 C 
BRANCH  26  27
HETATM   27  O3  UNL     1      -1.292  52.911 -12.239  1.00  0.00    -0.391 OA
HETATM   28  H18 UNL     1      -1.219  53.767 -12.712  1.00  0.00     0.210 HD
ENDBRANCH  26  27
BRANCH  26  29
HETATM   29  C22 UNL     1       0.265  54.156 -10.887  1.00  0.00     0.198 C 
BRANCH  29  30
HETATM   30  O4  UNL     1      -0.917  54.963 -10.868  1.00  0.00    -0.398 OA
HETATM   31  H21 UNL     1      -0.652  55.836 -10.525  1.00  0.00     0.209 HD
ENDBRANCH  29  30
ENDBRANCH  26  29
ENDBRANCH  25  26
ENDBRANCH  24  25
ENDBRANCH  23  24
ENDBRANCH  21  23
ENDBRANCH  15  17
ENDBRANCH  11  15
BRANCH   5  32
HETATM   32  C4  UNL     1      -0.491  51.860 -25.255  1.00  0.00     0.023 A 
HETATM   33  C5  UNL     1       0.596  51.543 -26.090  1.00  0.00     0.046 A 
HETATM   34 CL1  UNL     1       2.170  51.201 -25.453  1.00  0.00    -0.083 Cl
HETATM   35  C6  UNL     1       0.444  51.505 -27.482  1.00  0.00     0.025 A 
HETATM   36  C7  UNL     1      -0.794  51.779 -28.060  1.00  0.00     0.003 A 
HETATM   37  C8  UNL     1      -1.881  52.094 -27.248  1.00  0.00     0.025 A 
HETATM   38  C9  UNL     1      -1.733  52.134 -25.856  1.00  0.00     0.046 A 
HETATM   39 CL2  UNL     1      -3.131  52.547 -24.922  1.00  0.00    -0.083 Cl
ENDBRANCH   5  32
TORSDOF 10
ENDMDL
MODEL 4
REMARK minimizedAffinity -9.258008
REMARK CNNscore 0.651697278
REMARK CNNaffinity 7.26251841
REMARK  10 active torsions:
REMARK  status: ('A' for Active; 'I' for Inactive)
REMARK    1  A    between atoms: C3_5  and  C4_6 
REMARK    2  A    between atoms: C13_19  and  N3_20 
REMARK    3  A    between atoms: N3_20  and  C14_21 
REMARK    4  A    between atoms: C18_25  and  C19_26 
REMARK    5  A    between atoms: C19_26  and  O2_27 
REMARK    6  A    between atoms: O2_27  and  C20_28 
REMARK    7  A    between atoms: C20_28  and  C21_29 
REMARK    8  A    between atoms: C21_29  and  O3_30 
REMARK    9  A    between atoms: C21_29  and  C22_31 
REMARK   10  A    between atoms: C22_31  and  O4_32 
ROOT
HETATM    1  C1  UNL     1       1.840  55.000 -22.541  1.00  0.00     0.161 C 
HETATM    2  N1  UNL     1       0.987  53.825 -22.591  1.00  0.00    -0.303 N 
HETATM    3  C2  UNL     1       0.418  53.436 -23.793  1.00  0.00     0.260 A 
HETATM    4  O1  UNL     1       0.587  54.033 -24.855  1.00  0.00    -0.267 OA
HETATM    5  C3  UNL     1      -0.451  52.209 -23.771  1.00  0.00     0.047 A 
HETATM    6  C10 UNL     1      -0.657  51.534 -22.630  1.00  0.00     0.034 A 
HETATM    7  C11 UNL     1      -0.030  51.996 -21.403  1.00  0.00     0.026 A 
HETATM    8  C12 UNL     1      -0.185  51.366 -20.192  1.00  0.00     0.121 A 
HETATM    9  N2  UNL     1       0.393  51.789 -19.050  1.00  0.00    -0.201 N 
ATOM     10  H2  UNL     1       0.252  51.294 -18.170  1.00  0.00     0.183 HD
HETATM   11  C13 UNL     1       1.162  52.887 -19.119  1.00  0.00     0.684 A 
HETATM   12  N4  UNL     1       1.369  53.565 -20.255  1.00  0.00    -0.175 N 
ATOM     13  H4  UNL     1       1.959  54.397 -20.269  1.00  0.00     0.186 HD
HETATM   14  C24 UNL     1       0.775  53.117 -21.381  1.00  0.00     0.137 A 
ENDROOT
BRANCH  11  15
HETATM   15  N3  UNL     1       1.732  53.274 -17.911  1.00  0.00    -0.192 N 
HETATM   16  H9  UNL     1       1.848  54.277 -17.910  1.00  0.00     0.184 HD
BRANCH  15  17
HETATM   17  C14 UNL     1       2.097  52.599 -16.741  1.00  0.00     0.049 A 
HETATM   18  C15 UNL     1       3.415  52.313 -16.382  1.00  0.00     0.030 A 
HETATM   19  C16 UNL     1       3.713  51.643 -15.191  1.00  0.00     0.003 A 
HETATM   20  C17 UNL     1       2.691  51.244 -14.333  1.00  0.00     0.009 A 
HETATM   21  C18 UNL     1       1.359  51.509 -14.662  1.00  0.00    -0.032 A 
HETATM   22  C23 UNL     1       1.080  52.193 -15.858  1.00  0.00     0.039 A 
BRANCH  21  23
HETATM   23  C19 UNL     1       0.244  51.106 -13.730  1.00  0.00     0.206 C 
BRANCH  23  24
HETATM   24  O2  UNL     1      -0.726  52.145 -13.585  1.00  0.00    -0.384 OA
BRANCH  24  25
HETATM   25  C20 UNL     1      -1.524  52.015 -12.405  1.00  0.00     0.201 C 
BRANCH  25  26
HETATM   26  C21 UNL     1      -3.017  51.895 -12.741  1.00  0.00     0.165 C 
BRANCH  26  27
HETATM   27  O3  UNL     1      -3.184  51.837 -14.163  1.00  0.00    -0.391 OA
HETATM   28  H18 UNL     1      -3.125  52.769 -14.460  1.00  0.00     0.210 HD
ENDBRANCH  26  27
BRANCH  26  29
HETATM   29  C22 UNL     1      -3.828  53.081 -12.203  1.00  0.00     0.198 C 
BRANCH  29  30
HETATM   30  O4  UNL     1      -4.271  53.884 -13.302  1.00  0.00    -0.398 OA
HETATM   31  H21 UNL     1      -4.727  54.653 -12.917  1.00  0.00     0.209 HD
ENDBRANCH  29  30
ENDBRANCH  26  29
ENDBRANCH  25  26
ENDBRANCH  24  25
ENDBRANCH  23  24
ENDBRANCH  21  23
ENDBRANCH  15  17
ENDBRANCH  11  15
BRANCH   5  32
HETATM   32  C4  UNL     1      -1.083  51.744 -25.021  1.00  0.00     0.023 A 
HETATM   33  C5  UNL     1      -0.313  51.187 -26.058  1.00  0.00     0.046 A 
HETATM   34 CL1  UNL     1       1.410  51.047 -25.945  1.00  0.00    -0.083 Cl
HETATM   35  C6  UNL     1      -0.918  50.731 -27.236  1.00  0.00     0.025 A 
HETATM   36  C7  UNL     1      -2.299  50.822 -27.395  1.00  0.00     0.003 A 
HETATM   37  C8  UNL     1      -3.077  51.372 -26.379  1.00  0.00     0.025 A 
HETATM   38  C9  UNL     1      -2.476  51.828 -25.200  1.00  0.00     0.046 A 
HETATM   39 CL2  UNL     1      -3.514  52.510 -23.993  1.00  0.00    -0.083 Cl
ENDBRANCH   5  32
TORSDOF 10
ENDMDL
MODEL 5
REMARK minimizedAffinity -9.27575684
REMARK CNNscore 0.581163704
REMARK CNNaffinity 7.22669649
REMARK  10 active torsions:
REMARK  status: ('A' for Active; 'I' for Inactive)
REMARK    1  A    between atoms: C3_5  and  C4_6 
REMARK    2  A    between atoms: C13_19  and  N3_20 
REMARK    3  A    between atoms: N3_20  and  C14_21 
REMARK    4  A    between atoms: C18_25  and  C19_26 
REMARK    5  A    between atoms: C19_26  and  O2_27 
REMARK    6  A    between atoms: O2_27  and  C20_28 
REMARK    7  A    between atoms: C20_28  and  C21_29 
REMARK    8  A    between atoms: C21_29  and  O3_30 
REMARK    9  A    between atoms: C21_29  and  C22_31 
REMARK   10  A    between atoms: C22_31  and  O4_32 
ROOT
HETATM    1  C1  UNL     1      -1.341  49.905 -20.833  1.00  0.00     0.161 C 
HETATM    2  N1  UNL     1      -0.738  50.926 -21.672  1.00  0.00    -0.303 N 
HETATM    3  C2  UNL     1      -0.870  50.856 -23.050  1.00  0.00     0.260 A 
HETATM    4  O1  UNL     1      -1.480  49.961 -23.633  1.00  0.00    -0.267 OA
HETATM    5  C3  UNL     1      -0.222  51.947 -23.854  1.00  0.00     0.047 A 
HETATM    6  C10 UNL     1       0.452  52.938 -23.250  1.00  0.00     0.034 A 
HETATM    7  C11 UNL     1       0.553  52.953 -21.800  1.00  0.00     0.026 A 
HETATM    8  C12 UNL     1       1.222  53.928 -21.100  1.00  0.00     0.121 A 
HETATM    9  N2  UNL     1       1.320  53.948 -19.756  1.00  0.00    -0.201 N 
ATOM     10  H2  UNL     1       1.826  54.690 -19.273  1.00  0.00     0.183 HD
HETATM   11  C13 UNL     1       0.724  52.954 -19.080  1.00  0.00     0.684 A 
HETATM   12  N4  UNL     1       0.051  51.963 -19.679  1.00  0.00    -0.175 N 
ATOM     13  H4  UNL     1      -0.388  51.222 -19.132  1.00  0.00     0.186 HD
HETATM   14  C24 UNL     1      -0.028  51.970 -21.025  1.00  0.00     0.137 A 
ENDROOT
BRANCH  11  15
HETATM   15  N3  UNL     1       0.858  53.029 -17.697  1.00  0.00    -0.192 N 
HETATM   16  H9  UNL     1       0.026  53.452 -17.310  1.00  0.00     0.184 HD
BRANCH  15  17
HETATM   17  C14 UNL     1       1.829  52.604 -16.785  1.00  0.00     0.049 A 
HETATM   18  C15 UNL     1       3.204  52.703 -17.004  1.00  0.00     0.030 A 
HETATM   19  C16 UNL     1       4.124  52.267 -16.045  1.00  0.00     0.003 A 
HETATM   20  C17 UNL     1       3.683  51.721 -14.842  1.00  0.00     0.009 A 
HETATM   21  C18 UNL     1       2.313  51.602 -14.590  1.00  0.00    -0.032 A 
HETATM   22  C23 UNL     1       1.404  52.055 -15.562  1.00  0.00     0.039 A 
BRANCH  21  23
HETATM   23  C19 UNL     1       1.821  51.037 -13.281  1.00  0.00     0.206 C 
BRANCH  23  24
HETATM   24  O2  UNL     1       0.432  51.306 -13.078  1.00  0.00    -0.384 OA
BRANCH  24  25
HETATM   25  C20 UNL     1       0.177  52.625 -12.586  1.00  0.00     0.201 C 
BRANCH  25  26
HETATM   26  C21 UNL     1      -1.022  52.650 -11.627  1.00  0.00     0.165 C 
BRANCH  26  27
HETATM   27  O3  UNL     1      -2.206  53.006 -12.352  1.00  0.00    -0.391 OA
HETATM   28  H18 UNL     1      -2.166  53.982 -12.432  1.00  0.00     0.210 HD
ENDBRANCH  26  27
BRANCH  26  29
HETATM   29  C22 UNL     1      -0.828  53.656 -10.486  1.00  0.00     0.198 C 
BRANCH  29  30
HETATM   30  O4  UNL     1      -1.330  54.933 -10.895  1.00  0.00    -0.398 OA
HETATM   31  H21 UNL     1      -1.134  55.553 -10.169  1.00  0.00     0.209 HD
ENDBRANCH  29  30
ENDBRANCH  26  29
ENDBRANCH  25  26
ENDBRANCH  24  25
ENDBRANCH  23  24
ENDBRANCH  21  23
ENDBRANCH  15  17
ENDBRANCH  11  15
BRANCH   5  32
HETATM   32  C4  UNL     1      -0.331  51.927 -25.326  1.00  0.00     0.023 A 
HETATM   33  C5  UNL     1      -1.544  52.235 -25.967  1.00  0.00     0.046 A 
HETATM   34 CL1  UNL     1      -2.979  52.619 -25.074  1.00  0.00    -0.083 Cl
HETATM   35  C6  UNL     1      -1.639  52.232 -27.364  1.00  0.00     0.025 A 
HETATM   36  C7  UNL     1      -0.525  51.925 -28.142  1.00  0.00     0.003 A 
HETATM   37  C8  UNL     1       0.685  51.616 -27.524  1.00  0.00     0.025 A 
HETATM   38  C9  UNL     1       0.784  51.618 -26.128  1.00  0.00     0.046 A 
HETATM   39 CL2  UNL     1       2.320  51.211 -25.441  1.00  0.00    -0.083 Cl
ENDBRANCH   5  32
TORSDOF 10
ENDMDL
MODEL 6
REMARK minimizedAffinity -9.15841103
REMARK CNNscore 0.565827131
REMARK CNNaffinity 7.1140933
REMARK  10 active torsions:
REMARK  status: ('A' for Active; 'I' for Inactive)
REMARK    1  A    between atoms: C3_5  and  C4_6 
REMARK    2  A    between atoms: C13_19  and  N3_20 
REMARK    3  A    between atoms: N3_20  and  C14_21 
REMARK    4  A    between atoms: C18_25  and  C19_26 
REMARK    5  A    between atoms: C19_26  and  O2_27 
REMARK    6  A    between atoms: O2_27  and  C20_28 
REMARK    7  A    between atoms: C20_28  and  C21_29 
REMARK    8  A    between atoms: C21_29  and  O3_30 
REMARK    9  A    between atoms: C21_29  and  C22_31 
REMARK   10  A    between atoms: C22_31  and  O4_32 
ROOT
HETATM    1  C1  UNL     1       1.819  54.912 -22.083  1.00  0.00     0.161 C 
HETATM    2  N1  UNL     1       0.967  53.755 -22.291  1.00  0.00    -0.303 N 
HETATM    3  C2  UNL     1       0.550  53.425 -23.571  1.00  0.00     0.260 A 
HETATM    4  O1  UNL     1       0.857  54.064 -24.576  1.00  0.00    -0.267 OA
HETATM    5  C3  UNL     1      -0.327  52.212 -23.711  1.00  0.00     0.047 A 
HETATM    6  C10 UNL     1      -0.682  51.493 -22.635  1.00  0.00     0.034 A 
HETATM    7  C11 UNL     1      -0.210  51.893 -21.320  1.00  0.00     0.026 A 
HETATM    8  C12 UNL     1      -0.522  51.215 -20.167  1.00  0.00     0.121 A 
HETATM    9  N2  UNL     1      -0.087  51.580 -18.945  1.00  0.00    -0.201 N 
ATOM     10  H2  UNL     1      -0.343  51.051 -18.112  1.00  0.00     0.183 HD
HETATM   11  C13 UNL     1       0.695  52.668 -18.869  1.00  0.00     0.684 A 
HETATM   12  N4  UNL     1       1.050  53.390 -19.939  1.00  0.00    -0.175 N 
ATOM     13  H4  UNL     1       1.646  54.212 -19.843  1.00  0.00     0.186 HD
HETATM   14  C24 UNL     1       0.598  52.999 -21.149  1.00  0.00     0.137 A 
ENDROOT
BRANCH  11  15
HETATM   15  N3  UNL     1       1.113  52.995 -17.583  1.00  0.00    -0.192 N 
HETATM   16  H9  UNL     1       0.552  53.762 -17.241  1.00  0.00     0.184 HD
BRANCH  15  17
HETATM   17  C14 UNL     1       2.056  52.464 -16.697  1.00  0.00     0.049 A 
HETATM   18  C15 UNL     1       3.420  52.760 -16.737  1.00  0.00     0.030 A 
HETATM   19  C16 UNL     1       4.311  52.202 -15.814  1.00  0.00     0.003 A 
HETATM   20  C17 UNL     1       3.850  51.333 -14.828  1.00  0.00     0.009 A 
HETATM   21  C18 UNL     1       2.492  51.010 -14.760  1.00  0.00    -0.032 A 
HETATM   22  C23 UNL     1       1.611  51.589 -15.690  1.00  0.00     0.039 A 
BRANCH  21  23
HETATM   23  C19 UNL     1       1.975  50.091 -13.682  1.00  0.00     0.206 C 
BRANCH  23  24
HETATM   24  O2  UNL     1       0.803  50.617 -13.055  1.00  0.00    -0.384 OA
BRANCH  24  25
HETATM   25  C20 UNL     1       1.084  51.649 -12.104  1.00  0.00     0.201 C 
BRANCH  25  26
HETATM   26  C21 UNL     1       0.092  52.814 -12.222  1.00  0.00     0.165 C 
BRANCH  26  27
HETATM   27  O3  UNL     1       0.688  54.004 -11.689  1.00  0.00    -0.391 OA
HETATM   28  H18 UNL     1       0.579  53.923 -10.718  1.00  0.00     0.210 HD
ENDBRANCH  26  27
BRANCH  26  29
HETATM   29  C22 UNL     1      -1.213  52.541 -11.466  1.00  0.00     0.198 C 
BRANCH  29  30
HETATM   30  O4  UNL     1      -2.288  53.223 -12.121  1.00  0.00    -0.398 OA
HETATM   31  H21 UNL     1      -3.083  53.074 -11.578  1.00  0.00     0.209 HD
ENDBRANCH  29  30
ENDBRANCH  26  29
ENDBRANCH  25  26
ENDBRANCH  24  25
ENDBRANCH  23  24
ENDBRANCH  21  23
ENDBRANCH  15  17
ENDBRANCH  11  15
BRANCH   5  32
HETATM   32  C4  UNL     1      -0.803  51.811 -25.050  1.00  0.00     0.023 A 
HETATM   33  C5  UNL     1      -2.168  51.872 -25.381  1.00  0.00     0.046 A 
HETATM   34 CL1  UNL     1      -3.365  52.384 -24.238  1.00  0.00    -0.083 Cl
HETATM   35  C6  UNL     1      -2.614  51.507 -26.658  1.00  0.00     0.025 A 
HETATM   36  C7  UNL     1      -1.705  51.078 -27.622  1.00  0.00     0.003 A 
HETATM   37  C8  UNL     1      -0.348  51.010 -27.310  1.00  0.00     0.025 A 
HETATM   38  C9  UNL     1       0.101  51.374 -26.036  1.00  0.00     0.046 A 
HETATM   39 CL2  UNL     1       1.801  51.249 -25.728  1.00  0.00    -0.083 Cl
ENDBRANCH   5  32
TORSDOF 10
ENDMDL
MODEL 7
REMARK minimizedAffinity -8.55269527
REMARK CNNscore 0.233865127
REMARK CNNaffinity 6.86797953
REMARK  10 active torsions:
REMARK  status: ('A' for Active; 'I' for Inactive)
REMARK    1  A    between atoms: C3_5  and  C4_6 
REMARK    2  A    between atoms: C13_19  and  N3_20 
REMARK    3  A    between atoms: N3_20  and  C14_21 
REMARK    4  A    between atoms: C18_25  and  C19_26 
REMARK    5  A    between atoms: C19_26  and  O2_27 
REMARK    6  A    between atoms: O2_27  and  C20_28 
REMARK    7  A    between atoms: C20_28  and  C21_29 
REMARK    8  A    between atoms: C21_29  and  O3_30 
REMARK    9  A    between atoms: C21_29  and  C22_31 
REMARK   10  A    between atoms: C22_31  and  O4_32 
ROOT
HETATM    1  C1  UNL     1      -3.167  51.114 -18.846  1.00  0.00     0.161 C 
HETATM    2  N1  UNL     1      -2.401  51.163 -20.079  1.00  0.00    -0.303 N 
HETATM    3  C2  UNL     1      -2.957  50.694 -21.258  1.00  0.00     0.260 A 
HETATM    4  O1  UNL     1      -4.090  50.222 -21.339  1.00  0.00    -0.267 OA
HETATM    5  C3  UNL     1      -2.108  50.779 -22.495  1.00  0.00     0.047 A 
HETATM    6  C10 UNL     1      -0.867  51.288 -22.443  1.00  0.00     0.034 A 
HETATM    7  C11 UNL     1      -0.342  51.763 -21.173  1.00  0.00     0.026 A 
HETATM    8  C12 UNL     1       0.914  52.298 -21.028  1.00  0.00     0.121 A 
HETATM    9  N2  UNL     1       1.407  52.741 -19.855  1.00  0.00    -0.201 N 
ATOM     10  H2  UNL     1       2.347  53.132 -19.788  1.00  0.00     0.183 HD
HETATM   11  C13 UNL     1       0.612  52.647 -18.778  1.00  0.00     0.684 A 
HETATM   12  N4  UNL     1      -0.626  52.139 -18.825  1.00  0.00    -0.175 N 
ATOM     13  H4  UNL     1      -1.203  52.082 -17.985  1.00  0.00     0.186 HD
HETATM   14  C24 UNL     1      -1.091  51.703 -20.015  1.00  0.00     0.137 A 
ENDROOT
BRANCH  11  15
HETATM   15  N3  UNL     1       1.174  53.120 -17.596  1.00  0.00    -0.192 N 
HETATM   16  H9  UNL     1       0.841  54.059 -17.428  1.00  0.00     0.184 HD
BRANCH  15  17
HETATM   17  C14 UNL     1       2.008  52.566 -16.620  1.00  0.00     0.049 A 
HETATM   18  C15 UNL     1       3.392  52.746 -16.580  1.00  0.00     0.030 A 
HETATM   19  C16 UNL     1       4.169  52.171 -15.569  1.00  0.00     0.003 A 
HETATM   20  C17 UNL     1       3.572  51.401 -14.574  1.00  0.00     0.009 A 
HETATM   21  C18 UNL     1       2.190  51.195 -14.585  1.00  0.00    -0.032 A 
HETATM   22  C23 UNL     1       1.424  51.790 -15.603  1.00  0.00     0.039 A 
BRANCH  21  23
HETATM   23  C19 UNL     1       1.527  50.385 -13.499  1.00  0.00     0.206 C 
BRANCH  23  24
HETATM   24  O2  UNL     1       0.542  51.147 -12.797  1.00  0.00    -0.384 OA
BRANCH  24  25
HETATM   25  C20 UNL     1       1.104  52.101 -11.892  1.00  0.00     0.201 C 
BRANCH  25  26
HETATM   26  C21 UNL     1       0.253  53.377 -11.812  1.00  0.00     0.165 C 
BRANCH  26  27
HETATM   27  O3  UNL     1       1.054  54.453 -11.307  1.00  0.00    -0.391 OA
HETATM   28  H18 UNL     1       1.065  54.321 -10.336  1.00  0.00     0.210 HD
ENDBRANCH  26  27
BRANCH  26  29
HETATM   29  C22 UNL     1      -0.964  53.203 -10.896  1.00  0.00     0.198 C 
BRANCH  29  30
HETATM   30  O4  UNL     1      -1.888  54.270 -11.136  1.00  0.00    -0.398 OA
HETATM   31  H21 UNL     1      -2.614  54.156 -10.496  1.00  0.00     0.209 HD
ENDBRANCH  29  30
ENDBRANCH  26  29
ENDBRANCH  25  26
ENDBRANCH  24  25
ENDBRANCH  23  24
ENDBRANCH  21  23
ENDBRANCH  15  17
ENDBRANCH  11  15
BRANCH   5  32
HETATM   32  C4  UNL     1      -2.647  50.297 -23.782  1.00  0.00     0.023 A 
HETATM   33  C5  UNL     1      -2.886  48.928 -23.998  1.00  0.00     0.046 A 
HETATM   34 CL1  UNL     1      -2.531  47.735 -22.793  1.00  0.00    -0.083 Cl
HETATM   35  C6  UNL     1      -3.414  48.475 -25.214  1.00  0.00     0.025 A 
HETATM   36  C7  UNL     1      -3.714  49.380 -26.229  1.00  0.00     0.003 A 
HETATM   37  C8  UNL     1      -3.483  50.740 -26.032  1.00  0.00     0.025 A 
HETATM   38  C9  UNL     1      -2.956  51.197 -24.818  1.00  0.00     0.046 A 
HETATM   39 CL2  UNL     1      -2.688  52.900 -24.661  1.00  0.00    -0.083 Cl
ENDBRANCH   5  32
TORSDOF 10
ENDMDL
MODEL 8
REMARK minimizedAffinity -7.66960049
REMARK CNNscore 0.152635545
REMARK CNNaffinity 5.45284653
REMARK  10 active torsions:
REMARK  status: ('A' for Active; 'I' for Inactive)
REMARK    1  A    between atoms: C3_5  and  C4_6 
REMARK    2  A    between atoms: C13_19  and  N3_20 
REMARK    3  A    between atoms: N3_20  and  C14_21 
REMARK    4  A    between atoms: C18_25  and  C19_26 
REMARK    5  A    between atoms: C19_26  and  O2_27 
REMARK    6  A    between atoms: O2_27  and  C20_28 
REMARK    7  A    between atoms: C20_28  and  C21_29 
REMARK    8  A    between atoms: C21_29  and  O3_30 
REMARK    9  A    between atoms: C21_29  and  C22_31 
REMARK   10  A    between atoms: C22_31  and  O4_32 
ROOT
HETATM    1  C1  UNL     1      -5.263  50.660 -22.526  1.00  0.00     0.161 C 
HETATM    2  N1  UNL     1      -3.890  50.394 -22.135  1.00  0.00    -0.303 N 
HETATM    3  C2  UNL     1      -2.953  51.414 -22.160  1.00  0.00     0.260 A 
HETATM    4  O1  UNL     1      -3.209  52.568 -22.503  1.00  0.00    -0.267 OA
HETATM    5  C3  UNL     1      -1.553  51.067 -21.740  1.00  0.00     0.047 A 
HETATM    6  C10 UNL     1      -1.240  49.818 -21.362  1.00  0.00     0.034 A 
HETATM    7  C11 UNL     1      -2.270  48.793 -21.358  1.00  0.00     0.026 A 
HETATM    8  C12 UNL     1      -2.038  47.491 -20.984  1.00  0.00     0.121 A 
HETATM    9  N2  UNL     1      -2.988  46.535 -20.977  1.00  0.00    -0.201 N 
ATOM     10  H2  UNL     1      -2.776  45.579 -20.694  1.00  0.00     0.183 HD
HETATM   11  C13 UNL     1      -4.225  46.893 -21.358  1.00  0.00     0.684 A 
HETATM   12  N4  UNL     1      -4.541  48.137 -21.738  1.00  0.00    -0.175 N 
ATOM     13  H4  UNL     1      -5.492  48.373 -22.023  1.00  0.00     0.186 HD
HETATM   14  C24 UNL     1      -3.568  49.071 -21.735  1.00  0.00     0.137 A 
ENDROOT
BRANCH  11  15
HETATM   15  N3  UNL     1      -5.162  45.865 -21.330  1.00  0.00    -0.192 N 
HETATM   16  H9  UNL     1      -4.764  45.073 -20.846  1.00  0.00     0.184 HD
BRANCH  15  17
HETATM   17  C14 UNL     1      -6.488  45.740 -21.757  1.00  0.00     0.049 A 
HETATM   18  C15 UNL     1      -7.470  45.035 -21.058  1.00  0.00     0.030 A 
HETATM   19  C16 UNL     1      -8.783  44.955 -21.536  1.00  0.00     0.003 A 
HETATM   20  C17 UNL     1      -9.138  45.583 -22.727  1.00  0.00     0.009 A 
HETATM   21  C18 UNL     1      -8.180  46.294 -23.455  1.00  0.00    -0.032 A 
HETATM   22  C23 UNL     1      -6.868  46.371 -22.954  1.00  0.00     0.039 A 
BRANCH  21  23
HETATM   23  C19 UNL     1      -8.556  47.000 -24.734  1.00  0.00     0.206 C 
BRANCH  23  24
HETATM   24  O2  UNL     1      -9.972  47.152 -24.857  1.00  0.00    -0.384 OA
BRANCH  24  25
HETATM   25  C20 UNL     1     -10.365  47.866 -26.032  1.00  0.00     0.201 C 
BRANCH  25  26
HETATM   26  C21 UNL     1      -9.183  48.619 -26.660  1.00  0.00     0.165 C 
BRANCH  26  27
HETATM   27  O3  UNL     1      -9.384  50.031 -26.512  1.00  0.00    -0.391 OA
HETATM   28  H18 UNL     1     -10.005  50.271 -27.232  1.00  0.00     0.210 HD
ENDBRANCH  26  27
BRANCH  26  29
HETATM   29  C22 UNL     1      -9.022  48.303 -28.151  1.00  0.00     0.198 C 
BRANCH  29  30
HETATM   30  O4  UNL     1      -8.802  49.522 -28.869  1.00  0.00    -0.398 OA
HETATM   31  H21 UNL     1      -8.765  49.285 -29.813  1.00  0.00     0.209 HD
ENDBRANCH  29  30
ENDBRANCH  26  29
ENDBRANCH  25  26
ENDBRANCH  24  25
ENDBRANCH  23  24
ENDBRANCH  21  23
ENDBRANCH  15  17
ENDBRANCH  11  15
BRANCH   5  32
HETATM   32  C4  UNL     1      -0.512  52.113 -21.745  1.00  0.00     0.023 A 
HETATM   33  C5  UNL     1       0.135  52.485 -22.937  1.00  0.00     0.046 A 
HETATM   34 CL1  UNL     1      -0.223  51.719 -24.450  1.00  0.00    -0.083 Cl
HETATM   35  C6  UNL     1       1.110  53.490 -22.942  1.00  0.00     0.025 A 
HETATM   36  C7  UNL     1       1.452  54.140 -21.758  1.00  0.00     0.003 A 
HETATM   37  C8  UNL     1       0.822  53.785 -20.568  1.00  0.00     0.025 A 
HETATM   38  C9  UNL     1      -0.154  52.781 -20.560  1.00  0.00     0.046 A 
HETATM   39 CL2  UNL     1      -0.878  52.391 -19.036  1.00  0.00    -0.083 Cl
ENDBRANCH   5  32
TORSDOF 10
ENDMDL
MODEL 9
REMARK minimizedAffinity -8.21144772
REMARK CNNscore 0.127129868
REMARK CNNaffinity 5.47453833
REMARK  10 active torsions:
REMARK  status: ('A' for Active; 'I' for Inactive)
REMARK    1  A    between atoms: C3_5  and  C4_6 
REMARK    2  A    between atoms: C13_19  and  N3_20 
REMARK    3  A    between atoms: N3_20  and  C14_21 
REMARK    4  A    between atoms: C18_25  and  C19_26 
REMARK    5  A    between atoms: C19_26  and  O2_27 
REMARK    6  A    between atoms: O2_27  and  C20_28 
REMARK    7  A    between atoms: C20_28  and  C21_29 
REMARK    8  A    between atoms: C21_29  and  O3_30 
REMARK    9  A    between atoms: C21_29  and  C22_31 
REMARK   10  A    between atoms: C22_31  and  O4_32 
ROOT
HETATM    1  C1  UNL     1      -2.003  47.404 -21.846  1.00  0.00     0.161 C 
HETATM    2  N1  UNL     1      -2.174  48.828 -22.077  1.00  0.00    -0.303 N 
HETATM    3  C2  UNL     1      -1.223  49.722 -21.615  1.00  0.00     0.260 A 
HETATM    4  O1  UNL     1      -0.211  49.387 -21.001  1.00  0.00    -0.267 OA
HETATM    5  C3  UNL     1      -1.464  51.180 -21.892  1.00  0.00     0.047 A 
HETATM    6  C10 UNL     1      -2.558  51.580 -22.558  1.00  0.00     0.034 A 
HETATM    7  C11 UNL     1      -3.518  50.590 -23.017  1.00  0.00     0.026 A 
HETATM    8  C12 UNL     1      -4.662  50.910 -23.707  1.00  0.00     0.121 A 
HETATM    9  N2  UNL     1      -5.556  49.997 -24.135  1.00  0.00    -0.201 N 
ATOM     10  H2  UNL     1      -6.395  50.275 -24.644  1.00  0.00     0.183 HD
HETATM   11  C13 UNL     1      -5.298  48.708 -23.866  1.00  0.00     0.684 A 
HETATM   12  N4  UNL     1      -4.209  48.304 -23.200  1.00  0.00    -0.175 N 
ATOM     13  H4  UNL     1      -4.045  47.315 -23.012  1.00  0.00     0.186 HD
HETATM   14  C24 UNL     1      -3.333  49.242 -22.784  1.00  0.00     0.137 A 
ENDROOT
BRANCH  11  15
HETATM   15  N3  UNL     1      -6.255  47.813 -24.334  1.00  0.00    -0.192 N 
HETATM   16  H9  UNL     1      -6.180  47.750 -25.339  1.00  0.00     0.184 HD
BRANCH  15  17
HETATM   17  C14 UNL     1      -7.201  46.985 -23.721  1.00  0.00     0.049 A 
HETATM   18  C15 UNL     1      -6.982  46.301 -22.523  1.00  0.00     0.030 A 
HETATM   19  C16 UNL     1      -7.976  45.495 -21.958  1.00  0.00     0.003 A 
HETATM   20  C17 UNL     1      -9.212  45.358 -22.583  1.00  0.00     0.009 A 
HETATM   21  C18 UNL     1      -9.465  46.024 -23.785  1.00  0.00    -0.032 A 
HETATM   22  C23 UNL     1      -8.458  46.838 -24.333  1.00  0.00     0.039 A 
BRANCH  21  23
HETATM   23  C19 UNL     1     -10.808  45.905 -24.460  1.00  0.00     0.206 C 
BRANCH  23  24
HETATM   24  O2  UNL     1     -11.374  47.187 -24.743  1.00  0.00    -0.384 OA
BRANCH  24  25
HETATM   25  C20 UNL     1     -11.945  47.278 -26.051  1.00  0.00     0.201 C 
BRANCH  25  26
HETATM   26  C21 UNL     1     -11.393  48.481 -26.829  1.00  0.00     0.165 C 
BRANCH  26  27
HETATM   27  O3  UNL     1     -11.550  48.253 -28.235  1.00  0.00    -0.391 OA
HETATM   28  H18 UNL     1     -10.802  47.668 -28.478  1.00  0.00     0.210 HD
ENDBRANCH  26  27
BRANCH  26  29
HETATM   29  C22 UNL     1      -9.908  48.725 -26.538  1.00  0.00     0.198 C 
BRANCH  29  30
HETATM   30  O4  UNL     1      -9.737  50.060 -26.052  1.00  0.00    -0.398 OA
HETATM   31  H21 UNL     1      -8.778  50.193 -25.938  1.00  0.00     0.209 HD
ENDBRANCH  29  30
ENDBRANCH  26  29
ENDBRANCH  25  26
ENDBRANCH  24  25
ENDBRANCH  23  24
ENDBRANCH  21  23
ENDBRANCH  15  17
ENDBRANCH  11  15
BRANCH   5  32
HETATM   32  C4  UNL     1      -0.484  52.180 -21.425  1.00  0.00     0.023 A 
HETATM   33  C5  UNL     1       0.448  52.748 -22.311  1.00  0.00     0.046 A 
HETATM   34 CL1  UNL     1       0.525  52.286 -23.979  1.00  0.00    -0.083 Cl
HETATM   35  C6  UNL     1       1.365  53.710 -21.869  1.00  0.00     0.025 A 
HETATM   36  C7  UNL     1       1.363  54.121 -20.538  1.00  0.00     0.003 A 
HETATM   37  C8  UNL     1       0.447  53.568 -19.646  1.00  0.00     0.025 A 
HETATM   38  C9  UNL     1      -0.471  52.606 -20.084  1.00  0.00     0.046 A 
HETATM   39 CL2  UNL     1      -1.567  51.961 -18.909  1.00  0.00    -0.083 Cl
ENDBRANCH   5  32
TORSDOF 10
ENDMDL
