MODEL 1
REMARK minimizedAffinity -7.63846874
REMARK  5 active torsions:
REMARK  status: ('A' for Active; 'I' for Inactive)
REMARK    1  A    between atoms: O1_2  and  C2_3 
REMARK    2  A    between atoms: C6_7  and  N1_8 
REMARK    3  A    between atoms: N1_8  and  C7_9 
REMARK    4  A    between atoms: C11_17  and  O2_18 
REMARK    5  A    between atoms: C13_20  and  O3_21 
ROOT
HETATM    1  C7  UNL     1       5.957  62.544 -34.829  1.00  0.00     0.119 A 
HETATM    2  N2  UNL     1       5.225  62.059 -33.811  1.00  0.00    -0.338 N 
ATOM      3  H2  UNL     1       5.514  61.228 -33.294  1.00  0.00     0.168 HD
HETATM    4  C8  UNL     1       4.103  62.713 -33.507  1.00  0.00     0.182 A 
HETATM    5  N3  UNL     1       3.633  63.802 -34.122  1.00  0.00    -0.351 N 
ATOM      6  H3  UNL     1       2.756  64.239 -33.840  1.00  0.00     0.166 HD
HETATM    7  C9  UNL     1       4.369  64.290 -35.125  1.00  0.00     0.050 A 
HETATM    8  C10 UNL     1       3.914  65.425 -35.783  1.00  0.00     0.070 A 
HETATM    9  C11 UNL     1       4.627  66.009 -36.836  1.00  0.00     0.103 A 
HETATM   10  C13 UNL     1       5.846  65.443 -37.242  1.00  0.00     0.102 A 
HETATM   11  C15 UNL     1       6.310  64.296 -36.593  1.00  0.00     0.057 A 
HETATM   12  C16 UNL     1       5.572  63.703 -35.536  1.00  0.00     0.038 A 
ENDROOT
BRANCH   1  13
HETATM   13  N1  UNL     1       7.137  61.859 -35.227  1.00  0.00    -0.342 N 
HETATM   14  H7  UNL     1       6.936  60.865 -35.257  1.00  0.00     0.167 HD
BRANCH  13  15
HETATM   15  C6  UNL     1       8.468  62.103 -34.819  1.00  0.00     0.036 A 
HETATM   16  C5  UNL     1       9.414  62.494 -35.778  1.00  0.00     0.029 A 
HETATM   17  C4  UNL     1      10.723  62.810 -35.410  1.00  0.00     0.005 A 
HETATM   18  C3  UNL     1      11.105  62.766 -34.069  1.00  0.00     0.037 A 
HETATM   19  C2  UNL     1      10.173  62.416 -33.093  1.00  0.00     0.070 A 
HETATM   20  C17 UNL     1       8.863  62.101 -33.475  1.00  0.00     0.066 A 
BRANCH  19  21
HETATM   21  O1  UNL     1      10.407  62.356 -31.746  1.00  0.00    -0.356 OA
HETATM   22  C1  UNL     1      11.078  61.202 -31.258  1.00  0.00     0.210 C 
ENDBRANCH  19  21
ENDBRANCH  13  15
ENDBRANCH   1  13
BRANCH  10  23
HETATM   23  O3  UNL     1       6.496  66.070 -38.273  1.00  0.00    -0.353 OA
HETATM   24  C14 UNL     1       7.612  66.888 -37.952  1.00  0.00     0.210 C 
ENDBRANCH  10  23
BRANCH   9  25
HETATM   25  O2  UNL     1       4.224  67.128 -37.521  1.00  0.00    -0.353 OA
HETATM   26  C12 UNL     1       3.058  67.026 -38.328  1.00  0.00     0.210 C 
ENDBRANCH   9  25
TORSDOF 5
ENDMDL
MODEL 2
REMARK minimizedAffinity -7.45251656
REMARK  5 active torsions:
REMARK  status: ('A' for Active; 'I' for Inactive)
REMARK    1  A    between atoms: O1_2  and  C2_3 
REMARK    2  A    between atoms: C6_7  and  N1_8 
REMARK    3  A    between atoms: N1_8  and  C7_9 
REMARK    4  A    between atoms: C11_17  and  O2_18 
REMARK    5  A    between atoms: C13_20  and  O3_21 
ROOT
HETATM    1  C7  UNL     1      -1.798  52.505 -26.793  1.00  0.00     0.119 A 
HETATM    2  N2  UNL     1      -1.471  53.313 -27.817  1.00  0.00    -0.338 N 
ATOM      3  H2  UNL     1      -1.977  53.283 -28.702  1.00  0.00     0.168 HD
HETATM    4  C8  UNL     1      -0.456  54.155 -27.622  1.00  0.00     0.182 A 
HETATM    5  N3  UNL     1       0.272  54.269 -26.508  1.00  0.00    -0.351 N 
ATOM      6  H3  UNL     1       1.047  54.930 -26.439  1.00  0.00     0.166 HD
HETATM    7  C9  UNL     1      -0.062  53.473 -25.487  1.00  0.00     0.050 A 
HETATM    8  C10 UNL     1       0.669  53.569 -24.311  1.00  0.00     0.070 A 
HETATM    9  C11 UNL     1       0.380  52.782 -23.190  1.00  0.00     0.103 A 
HETATM   10  C13 UNL     1      -0.687  51.872 -23.243  1.00  0.00     0.102 A 
HETATM   11  C15 UNL     1      -1.425  51.761 -24.423  1.00  0.00     0.057 A 
HETATM   12  C16 UNL     1      -1.114  52.553 -25.559  1.00  0.00     0.038 A 
ENDROOT
BRANCH   1  13
HETATM   13  N1  UNL     1      -2.841  51.553 -26.961  1.00  0.00    -0.342 N 
HETATM   14  H7  UNL     1      -3.553  51.962 -27.559  1.00  0.00     0.167 HD
BRANCH  13  15
HETATM   15  C6  UNL     1      -3.412  50.702 -25.989  1.00  0.00     0.036 A 
HETATM   16  C5  UNL     1      -3.002  49.362 -25.932  1.00  0.00     0.029 A 
HETATM   17  C4  UNL     1      -3.490  48.503 -24.945  1.00  0.00     0.005 A 
HETATM   18  C3  UNL     1      -4.378  48.975 -23.979  1.00  0.00     0.037 A 
HETATM   19  C2  UNL     1      -4.771  50.313 -23.992  1.00  0.00     0.070 A 
HETATM   20  C17 UNL     1      -4.276  51.165 -24.987  1.00  0.00     0.066 A 
BRANCH  19  21
HETATM   21  O1  UNL     1      -5.615  50.909 -23.095  1.00  0.00    -0.356 OA
HETATM   22  C1  UNL     1      -6.180  50.078 -22.089  1.00  0.00     0.210 C 
ENDBRANCH  19  21
ENDBRANCH  13  15
ENDBRANCH   1  13
BRANCH  10  23
HETATM   23  O3  UNL     1      -0.921  51.140 -22.108  1.00  0.00    -0.353 OA
HETATM   24  C14 UNL     1      -1.326  49.788 -22.263  1.00  0.00     0.210 C 
ENDBRANCH  10  23
BRANCH   9  25
HETATM   25  O2  UNL     1       1.071  52.835 -22.005  1.00  0.00    -0.353 OA
HETATM   26  C12 UNL     1       1.383  54.117 -21.477  1.00  0.00     0.210 C 
ENDBRANCH   9  25
TORSDOF 5
ENDMDL
MODEL 3
REMARK minimizedAffinity -7.42166662
REMARK  5 active torsions:
REMARK  status: ('A' for Active; 'I' for Inactive)
REMARK    1  A    between atoms: O1_2  and  C2_3 
REMARK    2  A    between atoms: C6_7  and  N1_8 
REMARK    3  A    between atoms: N1_8  and  C7_9 
REMARK    4  A    between atoms: C11_17  and  O2_18 
REMARK    5  A    between atoms: C13_20  and  O3_21 
ROOT
HETATM    1  C7  UNL     1      -1.824  52.718 -25.959  1.00  0.00     0.119 A 
HETATM    2  N2  UNL     1      -1.252  53.211 -27.072  1.00  0.00    -0.338 N 
ATOM      3  H2  UNL     1      -1.749  53.233 -27.963  1.00  0.00     0.168 HD
HETATM    4  C8  UNL     1      -0.005  53.669 -26.958  1.00  0.00     0.182 A 
HETATM    5  N3  UNL     1       0.733  53.679 -25.844  1.00  0.00    -0.351 N 
ATOM      6  H3  UNL     1       1.690  54.035 -25.838  1.00  0.00     0.166 HD
HETATM    7  C9  UNL     1       0.157  53.200 -24.737  1.00  0.00     0.050 A 
HETATM    8  C10 UNL     1       0.893  53.202 -23.559  1.00  0.00     0.070 A 
HETATM    9  C11 UNL     1       0.365  52.730 -22.352  1.00  0.00     0.103 A 
HETATM   10  C13 UNL     1      -0.953  52.247 -22.319  1.00  0.00     0.102 A 
HETATM   11  C15 UNL     1      -1.700  52.233 -23.498  1.00  0.00     0.057 A 
HETATM   12  C16 UNL     1      -1.149  52.700 -24.720  1.00  0.00     0.038 A 
ENDROOT
BRANCH   1  13
HETATM   13  N1  UNL     1      -3.135  52.172 -26.033  1.00  0.00    -0.342 N 
HETATM   14  H7  UNL     1      -3.730  52.680 -25.387  1.00  0.00     0.167 HD
BRANCH  13  15
HETATM   15  C6  UNL     1      -3.511  50.812 -26.119  1.00  0.00     0.036 A 
HETATM   16  C5  UNL     1      -4.025  50.176 -24.979  1.00  0.00     0.029 A 
HETATM   17  C4  UNL     1      -4.471  48.854 -25.034  1.00  0.00     0.005 A 
HETATM   18  C3  UNL     1      -4.438  48.151 -26.238  1.00  0.00     0.037 A 
HETATM   19  C2  UNL     1      -3.967  48.775 -27.393  1.00  0.00     0.070 A 
HETATM   20  C17 UNL     1      -3.521  50.100 -27.325  1.00  0.00     0.066 A 
BRANCH  19  21
HETATM   21  O1  UNL     1      -3.902  48.211 -28.638  1.00  0.00    -0.356 OA
HETATM   22  C1  UNL     1      -5.117  48.114 -29.368  1.00  0.00     0.210 C 
ENDBRANCH  19  21
ENDBRANCH  13  15
ENDBRANCH   1  13
BRANCH  10  23
HETATM   23  O3  UNL     1      -1.410  51.808 -21.103  1.00  0.00    -0.353 OA
HETATM   24  C14 UNL     1      -2.521  50.923 -21.093  1.00  0.00     0.210 C 
ENDBRANCH  10  23
BRANCH   9  25
HETATM   25  O2  UNL     1       1.047  52.707 -21.161  1.00  0.00    -0.353 OA
HETATM   26  C12 UNL     1       1.255  53.945 -20.494  1.00  0.00     0.210 C 
ENDBRANCH   9  25
TORSDOF 5
ENDMDL
MODEL 4
REMARK minimizedAffinity -7.34287453
REMARK  5 active torsions:
REMARK  status: ('A' for Active; 'I' for Inactive)
REMARK    1  A    between atoms: O1_2  and  C2_3 
REMARK    2  A    between atoms: C6_7  and  N1_8 
REMARK    3  A    between atoms: N1_8  and  C7_9 
REMARK    4  A    between atoms: C11_17  and  O2_18 
REMARK    5  A    between atoms: C13_20  and  O3_21 
ROOT
HETATM    1  C7  UNL     1       0.558  52.555 -22.647  1.00  0.00     0.119 A 
HETATM    2  N2  UNL     1       1.150  53.743 -22.864  1.00  0.00    -0.338 N 
ATOM      3  H2  UNL     1       1.321  54.090 -23.808  1.00  0.00     0.168 HD
HETATM    4  C8  UNL     1       1.502  54.448 -21.787  1.00  0.00     0.182 A 
HETATM    5  N3  UNL     1       1.328  54.082 -20.514  1.00  0.00    -0.351 N 
ATOM      6  H3  UNL     1       1.638  54.672 -19.741  1.00  0.00     0.166 HD
HETATM    7  C9  UNL     1       0.728  52.907 -20.302  1.00  0.00     0.050 A 
HETATM    8  C10 UNL     1       0.525  52.500 -18.990  1.00  0.00     0.070 A 
HETATM    9  C11 UNL     1      -0.105  51.289 -18.677  1.00  0.00     0.103 A 
HETATM   10  C13 UNL     1      -0.558  50.460 -19.715  1.00  0.00     0.102 A 
HETATM   11  C15 UNL     1      -0.353  50.855 -21.038  1.00  0.00     0.057 A 
HETATM   12  C16 UNL     1       0.301  52.077 -21.345  1.00  0.00     0.038 A 
ENDROOT
BRANCH   1  13
HETATM   13  N1  UNL     1       0.205  51.740 -23.758  1.00  0.00    -0.342 N 
HETATM   14  H7  UNL     1       0.497  50.788 -23.562  1.00  0.00     0.167 HD
BRANCH  13  15
HETATM   15  C6  UNL     1       0.321  52.041 -25.134  1.00  0.00     0.036 A 
HETATM   16  C5  UNL     1       0.678  51.019 -26.026  1.00  0.00     0.029 A 
HETATM   17  C4  UNL     1       0.740  51.255 -27.401  1.00  0.00     0.005 A 
HETATM   18  C3  UNL     1       0.417  52.512 -27.913  1.00  0.00     0.037 A 
HETATM   19  C2  UNL     1       0.021  53.532 -27.049  1.00  0.00     0.070 A 
HETATM   20  C17 UNL     1      -0.035  53.285 -25.672  1.00  0.00     0.066 A 
BRANCH  19  21
HETATM   21  O1  UNL     1      -0.342  54.799 -27.419  1.00  0.00    -0.356 OA
HETATM   22  C1  UNL     1       0.138  55.869 -26.616  1.00  0.00     0.210 C 
ENDBRANCH  19  21
ENDBRANCH  13  15
ENDBRANCH   1  13
BRANCH  10  23
HETATM   23  O3  UNL     1      -1.174  49.294 -19.338  1.00  0.00    -0.353 OA
HETATM   24  C14 UNL     1      -1.336  48.283 -20.322  1.00  0.00     0.210 C 
ENDBRANCH  10  23
BRANCH   9  25
HETATM   25  O2  UNL     1      -0.329  50.837 -17.401  1.00  0.00    -0.353 OA
HETATM   26  C12 UNL     1       0.765  50.846 -16.494  1.00  0.00     0.210 C 
ENDBRANCH   9  25
TORSDOF 5
ENDMDL
MODEL 5
REMARK minimizedAffinity -7.29961872
REMARK  5 active torsions:
REMARK  status: ('A' for Active; 'I' for Inactive)
REMARK    1  A    between atoms: O1_2  and  C2_3 
REMARK    2  A    between atoms: C6_7  and  N1_8 
REMARK    3  A    between atoms: N1_8  and  C7_9 
REMARK    4  A    between atoms: C11_17  and  O2_18 
REMARK    5  A    between atoms: C13_20  and  O3_21 
ROOT
HETATM    1  C7  UNL     1      -1.842  50.716 -22.982  1.00  0.00     0.119 A 
HETATM    2  N2  UNL     1      -3.138  50.474 -22.716  1.00  0.00    -0.338 N 
ATOM      3  H2  UNL     1      -3.437  50.096 -21.816  1.00  0.00     0.168 HD
HETATM    4  C8  UNL     1      -4.015  50.751 -23.682  1.00  0.00     0.182 A 
HETATM    5  N3  UNL     1      -3.728  51.240 -24.891  1.00  0.00    -0.351 N 
ATOM      6  H3  UNL     1      -4.456  51.413 -25.585  1.00  0.00     0.166 HD
HETATM    7  C9  UNL     1      -2.440  51.492 -25.148  1.00  0.00     0.050 A 
HETATM    8  C10 UNL     1      -2.107  52.007 -26.393  1.00  0.00     0.070 A 
HETATM    9  C11 UNL     1      -0.786  52.310 -26.743  1.00  0.00     0.103 A 
HETATM   10  C13 UNL     1       0.240  52.099 -25.808  1.00  0.00     0.102 A 
HETATM   11  C15 UNL     1      -0.082  51.574 -24.555  1.00  0.00     0.057 A 
HETATM   12  C16 UNL     1      -1.423  51.256 -24.217  1.00  0.00     0.038 A 
ENDROOT
BRANCH   1  13
HETATM   13  N1  UNL     1      -0.859  50.395 -22.006  1.00  0.00    -0.342 N 
HETATM   14  H7  UNL     1      -0.991  49.429 -21.724  1.00  0.00     0.167 HD
BRANCH  13  15
HETATM   15  C6  UNL     1      -0.408  51.189 -20.926  1.00  0.00     0.036 A 
HETATM   16  C5  UNL     1      -0.573  50.713 -19.617  1.00  0.00     0.029 A 
HETATM   17  C4  UNL     1      -0.083  51.431 -18.525  1.00  0.00     0.005 A 
HETATM   18  C3  UNL     1       0.606  52.628 -18.724  1.00  0.00     0.037 A 
HETATM   19  C2  UNL     1       0.816  53.102 -20.018  1.00  0.00     0.070 A 
HETATM   20  C17 UNL     1       0.319  52.373 -21.105  1.00  0.00     0.066 A 
BRANCH  19  21
HETATM   21  O1  UNL     1       1.491  54.243 -20.353  1.00  0.00    -0.356 OA
HETATM   22  C1  UNL     1       1.636  54.525 -21.739  1.00  0.00     0.210 C 
ENDBRANCH  19  21
ENDBRANCH  13  15
ENDBRANCH   1  13
BRANCH  10  23
HETATM   23  O3  UNL     1       1.509  52.425 -26.212  1.00  0.00    -0.353 OA
HETATM   24  C14 UNL     1       2.434  51.366 -26.407  1.00  0.00     0.210 C 
ENDBRANCH  10  23
BRANCH   9  25
HETATM   25  O2  UNL     1      -0.400  52.819 -27.958  1.00  0.00    -0.353 OA
HETATM   26  C12 UNL     1      -0.630  54.200 -28.199  1.00  0.00     0.210 C 
ENDBRANCH   9  25
TORSDOF 5
ENDMDL
MODEL 6
REMARK minimizedAffinity -7.26240396
REMARK  5 active torsions:
REMARK  status: ('A' for Active; 'I' for Inactive)
REMARK    1  A    between atoms: O1_2  and  C2_3 
REMARK    2  A    between atoms: C6_7  and  N1_8 
REMARK    3  A    between atoms: N1_8  and  C7_9 
REMARK    4  A    between atoms: C11_17  and  O2_18 
REMARK    5  A    between atoms: C13_20  and  O3_21 
ROOT
HETATM    1  C7  UNL     1      -1.713  52.743 -25.470  1.00  0.00     0.119 A 
HETATM    2  N2  UNL     1      -1.011  53.263 -26.493  1.00  0.00    -0.338 N 
ATOM      3  H2  UNL     1      -1.422  53.375 -27.420  1.00  0.00     0.168 HD
HETATM    4  C8  UNL     1       0.247  53.626 -26.239  1.00  0.00     0.182 A 
HETATM    5  N3  UNL     1       0.878  53.517 -25.067  1.00  0.00    -0.351 N 
ATOM      6  H3  UNL     1       1.851  53.805 -24.954  1.00  0.00     0.166 HD
HETATM    7  C9  UNL     1       0.174  53.012 -24.049  1.00  0.00     0.050 A 
HETATM    8  C10 UNL     1       0.798  52.890 -22.815  1.00  0.00     0.070 A 
HETATM    9  C11 UNL     1       0.132  52.382 -21.693  1.00  0.00     0.103 A 
HETATM   10  C13 UNL     1      -1.211  51.990 -21.808  1.00  0.00     0.102 A 
HETATM   11  C15 UNL     1      -1.846  52.100 -23.046  1.00  0.00     0.057 A 
HETATM   12  C16 UNL     1      -1.157  52.602 -24.181  1.00  0.00     0.038 A 
ENDROOT
BRANCH   1  13
HETATM   13  N1  UNL     1      -3.043  52.295 -25.695  1.00  0.00    -0.342 N 
HETATM   14  H7  UNL     1      -3.653  52.752 -25.025  1.00  0.00     0.167 HD
BRANCH  13  15
HETATM   15  C6  UNL     1      -3.486  50.983 -25.982  1.00  0.00     0.036 A 
HETATM   16  C5  UNL     1      -3.183  50.420 -27.230  1.00  0.00     0.029 A 
HETATM   17  C4  UNL     1      -3.542  49.105 -27.532  1.00  0.00     0.005 A 
HETATM   18  C3  UNL     1      -4.188  48.318 -26.579  1.00  0.00     0.037 A 
HETATM   19  C2  UNL     1      -4.467  48.843 -25.318  1.00  0.00     0.070 A 
HETATM   20  C17 UNL     1      -4.103  50.164 -25.028  1.00  0.00     0.066 A 
BRANCH  19  21
HETATM   21  O1  UNL     1      -5.073  48.176 -24.288  1.00  0.00    -0.356 OA
HETATM   22  C1  UNL     1      -4.587  48.432 -22.978  1.00  0.00     0.210 C 
ENDBRANCH  19  21
ENDBRANCH  13  15
ENDBRANCH   1  13
BRANCH  10  23
HETATM   23  O3  UNL     1      -1.804  51.510 -20.669  1.00  0.00    -0.353 OA
HETATM   24  C14 UNL     1      -3.187  51.188 -20.728  1.00  0.00     0.210 C 
ENDBRANCH  10  23
BRANCH   9  25
HETATM   25  O2  UNL     1       0.699  52.239 -20.451  1.00  0.00    -0.353 OA
HETATM   26  C12 UNL     1       1.227  53.401 -19.827  1.00  0.00     0.210 C 
ENDBRANCH   9  25
TORSDOF 5
ENDMDL
MODEL 7
REMARK minimizedAffinity -7.20825768
REMARK  5 active torsions:
REMARK  status: ('A' for Active; 'I' for Inactive)
REMARK    1  A    between atoms: O1_2  and  C2_3 
REMARK    2  A    between atoms: C6_7  and  N1_8 
REMARK    3  A    between atoms: N1_8  and  C7_9 
REMARK    4  A    between atoms: C11_17  and  O2_18 
REMARK    5  A    between atoms: C13_20  and  O3_21 
ROOT
HETATM    1  C7  UNL     1      -0.162  52.497 -21.529  1.00  0.00     0.119 A 
HETATM    2  N2  UNL     1       0.611  53.528 -21.913  1.00  0.00    -0.338 N 
ATOM      3  H2  UNL     1       0.627  53.852 -22.881  1.00  0.00     0.168 HD
HETATM    4  C8  UNL     1       1.356  54.108 -20.971  1.00  0.00     0.182 A 
HETATM    5  N3  UNL     1       1.412  53.758 -19.683  1.00  0.00    -0.351 N 
ATOM      6  H3  UNL     1       2.020  54.244 -19.023  1.00  0.00     0.166 HD
HETATM    7  C9  UNL     1       0.633  52.741 -19.302  1.00  0.00     0.050 A 
HETATM    8  C10 UNL     1       0.662  52.355 -17.969  1.00  0.00     0.070 A 
HETATM    9  C11 UNL     1      -0.129  51.308 -17.481  1.00  0.00     0.103 A 
HETATM   10  C13 UNL     1      -0.988  50.627 -18.358  1.00  0.00     0.102 A 
HETATM   11  C15 UNL     1      -1.019  51.001 -19.703  1.00  0.00     0.057 A 
HETATM   12  C16 UNL     1      -0.202  52.055 -20.190  1.00  0.00     0.038 A 
ENDROOT
BRANCH   1  13
HETATM   13  N1  UNL     1      -0.940  51.810 -22.501  1.00  0.00    -0.342 N 
HETATM   14  H7  UNL     1      -1.381  51.012 -22.053  1.00  0.00     0.167 HD
BRANCH  13  15
HETATM   15  C6  UNL     1      -0.607  51.526 -23.845  1.00  0.00     0.036 A 
HETATM   16  C5  UNL     1      -1.507  50.785 -24.626  1.00  0.00     0.029 A 
HETATM   17  C4  UNL     1      -1.250  50.538 -25.976  1.00  0.00     0.005 A 
HETATM   18  C3  UNL     1      -0.101  51.051 -26.578  1.00  0.00     0.037 A 
HETATM   19  C2  UNL     1       0.788  51.822 -25.832  1.00  0.00     0.070 A 
HETATM   20  C17 UNL     1       0.521  52.062 -24.478  1.00  0.00     0.066 A 
BRANCH  19  21
HETATM   21  O1  UNL     1       1.936  52.401 -26.301  1.00  0.00    -0.356 OA
HETATM   22  C1  UNL     1       2.689  51.663 -27.254  1.00  0.00     0.210 C 
ENDBRANCH  19  21
ENDBRANCH  13  15
ENDBRANCH   1  13
BRANCH  10  23
HETATM   23  O3  UNL     1      -1.740  49.619 -17.813  1.00  0.00    -0.353 OA
HETATM   24  C14 UNL     1      -3.149  49.675 -17.989  1.00  0.00     0.210 C 
ENDBRANCH  10  23
BRANCH   9  25
HETATM   25  O2  UNL     1      -0.139  50.884 -16.176  1.00  0.00    -0.353 OA
HETATM   26  C12 UNL     1       0.883  51.369 -15.315  1.00  0.00     0.210 C 
ENDBRANCH   9  25
TORSDOF 5
ENDMDL
MODEL 8
REMARK minimizedAffinity -7.14338064
REMARK  5 active torsions:
REMARK  status: ('A' for Active; 'I' for Inactive)
REMARK    1  A    between atoms: O1_2  and  C2_3 
REMARK    2  A    between atoms: C6_7  and  N1_8 
REMARK    3  A    between atoms: N1_8  and  C7_9 
REMARK    4  A    between atoms: C11_17  and  O2_18 
REMARK    5  A    between atoms: C13_20  and  O3_21 
ROOT
HETATM    1  C7  UNL     1      -1.910  50.235 -25.469  1.00  0.00     0.119 A 
HETATM    2  N2  UNL     1      -1.755  50.617 -26.749  1.00  0.00    -0.338 N 
ATOM      3  H2  UNL     1      -2.292  50.189 -27.503  1.00  0.00     0.168 HD
HETATM    4  C8  UNL     1      -0.866  51.582 -26.988  1.00  0.00     0.182 A 
HETATM    5  N3  UNL     1      -0.110  52.201 -26.077  1.00  0.00    -0.351 N 
ATOM      6  H3  UNL     1       0.561  52.924 -26.340  1.00  0.00     0.166 HD
HETATM    7  C9  UNL     1      -0.276  51.828 -24.804  1.00  0.00     0.050 A 
HETATM    8  C10 UNL     1       0.489  52.456 -23.830  1.00  0.00     0.070 A 
HETATM    9  C11 UNL     1       0.372  52.136 -22.472  1.00  0.00     0.103 A 
HETATM   10  C13 UNL     1      -0.551  51.157 -22.072  1.00  0.00     0.102 A 
HETATM   11  C15 UNL     1      -1.320  50.513 -23.044  1.00  0.00     0.057 A 
HETATM   12  C16 UNL     1      -1.183  50.835 -24.419  1.00  0.00     0.038 A 
ENDROOT
BRANCH   1  13
HETATM   13  N1  UNL     1      -2.809  49.177 -25.162  1.00  0.00    -0.342 N 
HETATM   14  H7  UNL     1      -2.288  48.437 -24.702  1.00  0.00     0.167 HD
BRANCH  13  15
HETATM   15  C6  UNL     1      -3.848  48.653 -25.965  1.00  0.00     0.036 A 
HETATM   16  C5  UNL     1      -5.081  48.350 -25.369  1.00  0.00     0.029 A 
HETATM   17  C4  UNL     1      -6.155  47.893 -26.135  1.00  0.00     0.005 A 
HETATM   18  C3  UNL     1      -6.025  47.757 -27.517  1.00  0.00     0.037 A 
HETATM   19  C2  UNL     1      -4.821  48.088 -28.137  1.00  0.00     0.070 A 
HETATM   20  C17 UNL     1      -3.750  48.543 -27.358  1.00  0.00     0.066 A 
BRANCH  19  21
HETATM   21  O1  UNL     1      -4.566  48.022 -29.479  1.00  0.00    -0.356 OA
HETATM   22  C1  UNL     1      -5.661  48.253 -30.356  1.00  0.00     0.210 C 
ENDBRANCH  19  21
ENDBRANCH  13  15
ENDBRANCH   1  13
BRANCH  10  23
HETATM   23  O3  UNL     1      -0.621  50.899 -20.728  1.00  0.00    -0.353 OA
HETATM   24  C14 UNL     1      -0.763  49.546 -20.320  1.00  0.00     0.210 C 
ENDBRANCH  10  23
BRANCH   9  25
HETATM   25  O2  UNL     1       1.103  52.722 -21.469  1.00  0.00    -0.353 OA
HETATM   26  C12 UNL     1       1.344  54.120 -21.557  1.00  0.00     0.210 C 
ENDBRANCH   9  25
TORSDOF 5
ENDMDL
MODEL 9
REMARK minimizedAffinity -7.12940168
REMARK  5 active torsions:
REMARK  status: ('A' for Active; 'I' for Inactive)
REMARK    1  A    between atoms: O1_2  and  C2_3 
REMARK    2  A    between atoms: C6_7  and  N1_8 
REMARK    3  A    between atoms: N1_8  and  C7_9 
REMARK    4  A    between atoms: C11_17  and  O2_18 
REMARK    5  A    between atoms: C13_20  and  O3_21 
ROOT
HETATM    1  C7  UNL     1      -2.474  49.619 -24.249  1.00  0.00     0.119 A 
HETATM    2  N2  UNL     1      -3.290  49.111 -23.309  1.00  0.00    -0.338 N 
ATOM      3  H2  UNL     1      -3.948  48.361 -23.522  1.00  0.00     0.168 HD
HETATM    4  C8  UNL     1      -3.201  49.632 -22.084  1.00  0.00     0.182 A 
HETATM    5  N3  UNL     1      -2.380  50.616 -21.704  1.00  0.00    -0.351 N 
ATOM      6  H3  UNL     1      -2.380  50.973 -20.748  1.00  0.00     0.166 HD
HETATM    7  C9  UNL     1      -1.562  51.110 -22.638  1.00  0.00     0.050 A 
HETATM    8  C10 UNL     1      -0.691  52.129 -22.275  1.00  0.00     0.070 A 
HETATM    9  C11 UNL     1       0.208  52.697 -23.186  1.00  0.00     0.103 A 
HETATM   10  C13 UNL     1       0.245  52.222 -24.506  1.00  0.00     0.102 A 
HETATM   11  C15 UNL     1      -0.631  51.202 -24.884  1.00  0.00     0.057 A 
HETATM   12  C16 UNL     1      -1.549  50.644 -23.957  1.00  0.00     0.038 A 
ENDROOT
BRANCH   1  13
HETATM   13  N1  UNL     1      -2.561  49.134 -25.583  1.00  0.00    -0.342 N 
HETATM   14  H7  UNL     1      -2.010  49.742 -26.181  1.00  0.00     0.167 HD
BRANCH  13  15
HETATM   15  C6  UNL     1      -3.698  48.639 -26.260  1.00  0.00     0.036 A 
HETATM   16  C5  UNL     1      -4.859  48.356 -25.524  1.00  0.00     0.029 A 
HETATM   17  C4  UNL     1      -6.026  47.930 -26.160  1.00  0.00     0.005 A 
HETATM   18  C3  UNL     1      -6.063  47.804 -27.549  1.00  0.00     0.037 A 
HETATM   19  C2  UNL     1      -4.934  48.116 -28.305  1.00  0.00     0.070 A 
HETATM   20  C17 UNL     1      -3.769  48.542 -27.656  1.00  0.00     0.066 A 
BRANCH  19  21
HETATM   21  O1  UNL     1      -4.842  48.058 -29.669  1.00  0.00    -0.356 OA
HETATM   22  C1  UNL     1      -5.684  47.126 -30.334  1.00  0.00     0.210 C 
ENDBRANCH  19  21
ENDBRANCH  13  15
ENDBRANCH   1  13
BRANCH  10  23
HETATM   23  O3  UNL     1       1.154  52.816 -25.342  1.00  0.00    -0.353 OA
HETATM   24  C14 UNL     1       1.354  52.235 -26.623  1.00  0.00     0.210 C 
ENDBRANCH  10  23
BRANCH   9  25
HETATM   25  O2  UNL     1       1.088  53.707 -22.882  1.00  0.00    -0.353 OA
HETATM   26  C12 UNL     1       1.375  53.944 -21.511  1.00  0.00     0.210 C 
ENDBRANCH   9  25
TORSDOF 5
ENDMDL
