MODEL 1
REMARK minimizedAffinity -9.8597393
REMARK CNNscore 0.625585139
REMARK CNNaffinity 7.47450447
REMARK  5 active torsions:
REMARK  status: ('A' for Active; 'I' for Inactive)
REMARK    1  A    between atoms: O1_2  and  C2_3 
REMARK    2  A    between atoms: C6_7  and  N1_8 
REMARK    3  A    between atoms: C10_15  and  N3_16 
REMARK    4  A    between atoms: N3_16  and  C11_17 
REMARK    5  A    between atoms: C14_20  and  N4_21 
ROOT
HETATM    1  N1  UNL     1       0.010  51.945 -22.606  1.00  0.00    -0.110 N 
HETATM    2  C7  UNL     1       0.613  52.757 -21.632  1.00  0.00     0.282 A 
HETATM    3  O2  UNL     1       1.277  53.770 -21.839  1.00  0.00    -0.266 OA
HETATM    4  C8  UNL     1       0.491  52.345 -20.225  1.00  0.00     0.095 A 
HETATM    5  C9  UNL     1       1.066  53.058 -19.203  1.00  0.00     0.127 A 
HETATM    6  N2  UNL     1       0.985  52.692 -17.903  1.00  0.00    -0.201 N 
ATOM      7  H2  UNL     1       1.429  53.247 -17.172  1.00  0.00     0.183 HD
HETATM    8  C10 UNL     1       0.302  51.576 -17.605  1.00  0.00     0.684 A 
HETATM    9  N6  UNL     1      -0.297  50.823 -18.542  1.00  0.00    -0.174 N 
ATOM     10  H6  UNL     1      -0.818  49.984 -18.291  1.00  0.00     0.186 HD
HETATM   11  C22 UNL     1      -0.185  51.219 -19.833  1.00  0.00     0.162 A 
HETATM   12  N7  UNL     1      -0.778  50.458 -20.853  1.00  0.00    -0.128 N 
HETATM   13  C23 UNL     1      -1.527  49.300 -20.753  1.00  0.00     0.086 A 
HETATM   14  C24 UNL     1      -1.935  48.490 -19.682  1.00  0.00     0.033 A 
HETATM   15  C25 UNL     1      -2.713  47.366 -19.983  1.00  0.00     0.002 A 
HETATM   16  C26 UNL     1      -3.069  47.063 -21.296  1.00  0.00     0.002 A 
HETATM   17  C27 UNL     1      -2.657  47.882 -22.353  1.00  0.00     0.032 A 
HETATM   18  C28 UNL     1      -1.877  49.014 -22.069  1.00  0.00     0.077 A 
HETATM   19  N8  UNL     1      -1.367  49.947 -22.929  1.00  0.00    -0.188 N 
ATOM     20  H8  UNL     1      -1.489  49.976 -23.942  1.00  0.00     0.184 HD
HETATM   21  C29 UNL     1      -0.687  50.803 -22.192  1.00  0.00     0.701 A 
ENDROOT
BRANCH   8  22
HETATM   22  N3  UNL     1       0.154  51.118 -16.303  1.00  0.00    -0.192 N 
HETATM   23  H8  UNL     1      -0.394  50.270 -16.305  1.00  0.00     0.184 HD
BRANCH  22  24
HETATM   24  C11 UNL     1       0.688  51.504 -15.071  1.00  0.00     0.049 A 
HETATM   25  C12 UNL     1       2.055  51.314 -14.841  1.00  0.00     0.032 A 
HETATM   26  C13 UNL     1       2.650  51.671 -13.621  1.00  0.00     0.031 A 
HETATM   27  C14 UNL     1       1.913  52.224 -12.567  1.00  0.00     0.030 A 
HETATM   28  C20 UNL     1       0.542  52.394 -12.804  1.00  0.00     0.031 A 
HETATM   29  C21 UNL     1      -0.059  52.040 -14.025  1.00  0.00     0.032 A 
BRANCH  27  30
HETATM   30  N4  UNL     1       2.500  52.582 -11.366  1.00  0.00    -0.378 N 
HETATM   31  C15 UNL     1       2.140  53.830 -10.673  1.00  0.00     0.153 C 
HETATM   32  C16 UNL     1       2.397  53.723  -9.151  1.00  0.00     0.291 C 
HETATM   33  N5  UNL     1       3.766  53.332  -8.751  1.00  0.00     0.087 N 
HETATM   34  C17 UNL     1       4.564  54.487  -8.352  1.00  0.00     0.310 C 
HETATM   35  C18 UNL     1       4.444  52.576  -9.826  1.00  0.00     0.291 C 
HETATM   36  C19 UNL     1       3.491  51.724 -10.696  1.00  0.00     0.153 C 
ENDBRANCH  27  30
ENDBRANCH  22  24
ENDBRANCH   8  22
BRANCH   1  37
HETATM   37  C6  UNL     1       0.059  52.260 -24.009  1.00  0.00     0.063 A 
HETATM   38  C5  UNL     1       0.095  51.263 -24.998  1.00  0.00     0.031 A 
HETATM   39  C4  UNL     1       0.150  51.585 -26.358  1.00  0.00     0.005 A 
HETATM   40  C3  UNL     1       0.175  52.917 -26.765  1.00  0.00     0.037 A 
HETATM   41  C2  UNL     1       0.151  53.929 -25.811  1.00  0.00     0.070 A 
HETATM   42  C30 UNL     1       0.097  53.596 -24.448  1.00  0.00     0.067 A 
BRANCH  41  43
HETATM   43  O1  UNL     1       0.164  55.275 -26.069  1.00  0.00    -0.356 OA
HETATM   44  C1  UNL     1       0.684  56.119 -25.051  1.00  0.00     0.210 C 
ENDBRANCH  41  43
ENDBRANCH   1  37
TORSDOF 5
ENDMDL
MODEL 2
REMARK minimizedAffinity -10.3056965
REMARK CNNscore 0.519587517
REMARK CNNaffinity 7.76324797
REMARK  5 active torsions:
REMARK  status: ('A' for Active; 'I' for Inactive)
REMARK    1  A    between atoms: O1_2  and  C2_3 
REMARK    2  A    between atoms: C6_7  and  N1_8 
REMARK    3  A    between atoms: C10_15  and  N3_16 
REMARK    4  A    between atoms: N3_16  and  C11_17 
REMARK    5  A    between atoms: C14_20  and  N4_21 
ROOT
HETATM    1  N1  UNL     1      -0.360  51.980 -23.653  1.00  0.00    -0.110 N 
HETATM    2  C7  UNL     1       0.312  53.039 -23.024  1.00  0.00     0.282 A 
HETATM    3  O2  UNL     1       0.804  54.020 -23.578  1.00  0.00    -0.266 OA
HETATM    4  C8  UNL     1       0.501  52.962 -21.567  1.00  0.00     0.095 A 
HETATM    5  C9  UNL     1       1.168  53.936 -20.864  1.00  0.00     0.127 A 
HETATM    6  N2  UNL     1       1.371  53.881 -19.528  1.00  0.00    -0.201 N 
ATOM      7  H2  UNL     1       1.874  54.623 -19.043  1.00  0.00     0.183 HD
HETATM    8  C10 UNL     1       0.890  52.822 -18.861  1.00  0.00     0.684 A 
HETATM    9  N6  UNL     1       0.220  51.828 -19.469  1.00  0.00    -0.174 N 
ATOM     10  H6  UNL     1      -0.144  51.036 -18.940  1.00  0.00     0.186 HD
HETATM   11  C22 UNL     1       0.046  51.915 -20.810  1.00  0.00     0.162 A 
HETATM   12  N7  UNL     1      -0.633  50.895 -21.496  1.00  0.00    -0.128 N 
HETATM   13  C23 UNL     1      -1.210  49.743 -20.995  1.00  0.00     0.086 A 
HETATM   14  C24 UNL     1      -1.316  49.181 -19.713  1.00  0.00     0.033 A 
HETATM   15  C25 UNL     1      -2.000  47.965 -19.595  1.00  0.00     0.002 A 
HETATM   16  C26 UNL     1      -2.554  47.336 -20.710  1.00  0.00     0.002 A 
HETATM   17  C27 UNL     1      -2.442  47.911 -21.981  1.00  0.00     0.032 A 
HETATM   18  C28 UNL     1      -1.760  49.130 -22.116  1.00  0.00     0.077 A 
HETATM   19  N8  UNL     1      -1.531  49.868 -23.244  1.00  0.00    -0.188 N 
ATOM     20  H8  UNL     1      -1.840  49.649 -24.191  1.00  0.00     0.184 HD
HETATM   21  C29 UNL     1      -0.831  50.921 -22.866  1.00  0.00     0.701 A 
ENDROOT
BRANCH   8  22
HETATM   22  N3  UNL     1       1.038  52.674 -17.489  1.00  0.00    -0.192 N 
HETATM   23  H8  UNL     1       1.029  53.583 -17.050  1.00  0.00     0.184 HD
BRANCH  22  24
HETATM   24  C11 UNL     1       1.068  51.573 -16.628  1.00  0.00     0.049 A 
HETATM   25  C12 UNL     1       1.914  51.612 -15.515  1.00  0.00     0.032 A 
HETATM   26  C13 UNL     1       1.998  50.535 -14.619  1.00  0.00     0.031 A 
HETATM   27  C14 UNL     1       1.252  49.363 -14.792  1.00  0.00     0.030 A 
HETATM   28  C20 UNL     1       0.420  49.331 -15.921  1.00  0.00     0.031 A 
HETATM   29  C21 UNL     1       0.332  50.407 -16.821  1.00  0.00     0.032 A 
BRANCH  27  30
HETATM   30  N4  UNL     1       1.328  48.303 -13.907  1.00  0.00    -0.378 N 
HETATM   31  C15 UNL     1       2.571  47.533 -13.730  1.00  0.00     0.153 C 
HETATM   32  C16 UNL     1       2.632  46.877 -12.330  1.00  0.00     0.291 C 
HETATM   33  N5  UNL     1       1.483  46.020 -11.966  1.00  0.00     0.087 N 
HETATM   34  C17 UNL     1       1.784  44.604 -12.151  1.00  0.00     0.310 C 
HETATM   35  C18 UNL     1       0.270  46.398 -12.721  1.00  0.00     0.291 C 
HETATM   36  C19 UNL     1       0.186  47.904 -13.068  1.00  0.00     0.153 C 
ENDBRANCH  27  30
ENDBRANCH  22  24
ENDBRANCH   8  22
BRANCH   1  37
HETATM   37  C6  UNL     1      -0.608  51.958 -25.070  1.00  0.00     0.063 A 
HETATM   38  C5  UNL     1      -1.884  52.189 -25.610  1.00  0.00     0.031 A 
HETATM   39  C4  UNL     1      -2.111  52.157 -26.989  1.00  0.00     0.005 A 
HETATM   40  C3  UNL     1      -1.065  51.886 -27.867  1.00  0.00     0.037 A 
HETATM   41  C2  UNL     1       0.209  51.642 -27.366  1.00  0.00     0.070 A 
HETATM   42  C30 UNL     1       0.426  51.676 -25.980  1.00  0.00     0.067 A 
BRANCH  41  43
HETATM   43  O1  UNL     1       1.326  51.371 -28.112  1.00  0.00    -0.356 OA
HETATM   44  C1  UNL     1       2.580  51.720 -27.542  1.00  0.00     0.210 C 
ENDBRANCH  41  43
ENDBRANCH   1  37
TORSDOF 5
ENDMDL
MODEL 3
REMARK minimizedAffinity -10.4112616
REMARK CNNscore 0.277767807
REMARK CNNaffinity 7.40898848
REMARK  5 active torsions:
REMARK  status: ('A' for Active; 'I' for Inactive)
REMARK    1  A    between atoms: O1_2  and  C2_3 
REMARK    2  A    between atoms: C6_7  and  N1_8 
REMARK    3  A    between atoms: C10_15  and  N3_16 
REMARK    4  A    between atoms: N3_16  and  C11_17 
REMARK    5  A    between atoms: C14_20  and  N4_21 
ROOT
HETATM    1  N1  UNL     1      -0.033  51.968 -23.924  1.00  0.00    -0.110 N 
HETATM    2  C7  UNL     1       0.627  53.026 -23.280  1.00  0.00     0.282 A 
HETATM    3  O2  UNL     1       1.227  53.950 -23.826  1.00  0.00    -0.266 OA
HETATM    4  C8  UNL     1       0.658  53.021 -21.809  1.00  0.00     0.095 A 
HETATM    5  C9  UNL     1       1.300  53.998 -21.088  1.00  0.00     0.127 A 
HETATM    6  N2  UNL     1       1.359  54.007 -19.737  1.00  0.00    -0.201 N 
ATOM      7  H2  UNL     1       1.849  54.749 -19.237  1.00  0.00     0.183 HD
HETATM    8  C10 UNL     1       0.754  53.010 -19.074  1.00  0.00     0.684 A 
HETATM    9  N6  UNL     1       0.098  52.019 -19.699  1.00  0.00    -0.174 N 
ATOM     10  H6  UNL     1      -0.362  51.276 -19.174  1.00  0.00     0.186 HD
HETATM   11  C22 UNL     1       0.070  52.041 -21.054  1.00  0.00     0.162 A 
HETATM   12  N7  UNL     1      -0.588  51.018 -21.757  1.00  0.00    -0.128 N 
HETATM   13  C23 UNL     1      -1.276  49.925 -21.264  1.00  0.00     0.086 A 
HETATM   14  C24 UNL     1      -1.546  49.441 -19.975  1.00  0.00     0.033 A 
HETATM   15  C25 UNL     1      -2.304  48.268 -19.871  1.00  0.00     0.002 A 
HETATM   16  C26 UNL     1      -2.772  47.606 -21.006  1.00  0.00     0.002 A 
HETATM   17  C27 UNL     1      -2.497  48.104 -22.285  1.00  0.00     0.032 A 
HETATM   18  C28 UNL     1      -1.739  49.280 -22.407  1.00  0.00     0.077 A 
HETATM   19  N8  UNL     1      -1.353  49.942 -23.539  1.00  0.00    -0.188 N 
ATOM     20  H8  UNL     1      -1.573  49.686 -24.502  1.00  0.00     0.184 HD
HETATM   21  C29 UNL     1      -0.641  50.978 -23.141  1.00  0.00     0.701 A 
ENDROOT
BRANCH   8  22
HETATM   22  N3  UNL     1       0.750  52.932 -17.688  1.00  0.00    -0.192 N 
HETATM   23  H8  UNL     1       0.404  53.798 -17.302  1.00  0.00     0.184 HD
BRANCH  22  24
HETATM   24  C11 UNL     1       0.995  51.904 -16.773  1.00  0.00     0.049 A 
HETATM   25  C12 UNL     1       0.265  50.715 -16.884  1.00  0.00     0.032 A 
HETATM   26  C13 UNL     1       0.456  49.650 -15.990  1.00  0.00     0.031 A 
HETATM   27  C14 UNL     1       1.375  49.720 -14.936  1.00  0.00     0.030 A 
HETATM   28  C20 UNL     1       2.088  50.922 -14.826  1.00  0.00     0.031 A 
HETATM   29  C21 UNL     1       1.901  51.991 -15.719  1.00  0.00     0.032 A 
BRANCH  27  30
HETATM   30  N4  UNL     1       1.569  48.669 -14.058  1.00  0.00    -0.378 N 
HETATM   31  C15 UNL     1       1.521  48.862 -12.599  1.00  0.00     0.153 C 
HETATM   32  C16 UNL     1       1.132  47.554 -11.870  1.00  0.00     0.291 C 
HETATM   33  N5  UNL     1       1.970  46.373 -12.168  1.00  0.00     0.087 N 
HETATM   34  C17 UNL     1       2.961  46.135 -11.122  1.00  0.00     0.310 C 
HETATM   35  C18 UNL     1       2.625  46.498 -13.487  1.00  0.00     0.291 C 
HETATM   36  C19 UNL     1       1.801  47.293 -14.528  1.00  0.00     0.153 C 
ENDBRANCH  27  30
ENDBRANCH  22  24
ENDBRANCH   8  22
BRANCH   1  37
HETATM   37  C6  UNL     1      -0.132  51.880 -25.357  1.00  0.00     0.063 A 
HETATM   38  C5  UNL     1       1.000  51.898 -26.187  1.00  0.00     0.031 A 
HETATM   39  C4  UNL     1       0.887  51.820 -27.579  1.00  0.00     0.005 A 
HETATM   40  C3  UNL     1      -0.367  51.725 -28.178  1.00  0.00     0.037 A 
HETATM   41  C2  UNL     1      -1.509  51.714 -27.385  1.00  0.00     0.070 A 
HETATM   42  C30 UNL     1      -1.385  51.795 -25.990  1.00  0.00     0.067 A 
BRANCH  41  43
HETATM   43  O1  UNL     1      -2.799  51.619 -27.839  1.00  0.00    -0.356 OA
HETATM   44  C1  UNL     1      -3.376  50.321 -27.868  1.00  0.00     0.210 C 
ENDBRANCH  41  43
ENDBRANCH   1  37
TORSDOF 5
ENDMDL
MODEL 4
REMARK minimizedAffinity -9.71565056
REMARK CNNscore 0.277516663
REMARK CNNaffinity 7.20955229
REMARK  5 active torsions:
REMARK  status: ('A' for Active; 'I' for Inactive)
REMARK    1  A    between atoms: O1_2  and  C2_3 
REMARK    2  A    between atoms: C6_7  and  N1_8 
REMARK    3  A    between atoms: C10_15  and  N3_16 
REMARK    4  A    between atoms: N3_16  and  C11_17 
REMARK    5  A    between atoms: C14_20  and  N4_21 
ROOT
HETATM    1  N1  UNL     1      -1.909  50.144 -23.058  1.00  0.00    -0.110 N 
HETATM    2  C7  UNL     1      -1.106  51.289 -23.178  1.00  0.00     0.282 A 
HETATM    3  O2  UNL     1      -0.859  51.899 -24.216  1.00  0.00    -0.266 OA
HETATM    4  C8  UNL     1      -0.449  51.795 -21.963  1.00  0.00     0.095 A 
HETATM    5  C9  UNL     1       0.376  52.893 -21.983  1.00  0.00     0.127 A 
HETATM    6  N2  UNL     1       1.007  53.368 -20.885  1.00  0.00    -0.201 N 
ATOM      7  H2  UNL     1       1.615  54.185 -20.940  1.00  0.00     0.183 HD
HETATM    8  C10 UNL     1       0.810  52.732 -19.721  1.00  0.00     0.684 A 
HETATM    9  N6  UNL     1       0.015  51.655 -19.611  1.00  0.00    -0.174 N 
ATOM     10  H6  UNL     1      -0.128  51.193 -18.713  1.00  0.00     0.186 HD
HETATM   11  C22 UNL     1      -0.593  51.205 -20.735  1.00  0.00     0.162 A 
HETATM   12  N7  UNL     1      -1.421  50.072 -20.678  1.00  0.00    -0.128 N 
HETATM   13  C23 UNL     1      -1.760  49.295 -19.587  1.00  0.00     0.086 A 
HETATM   14  C24 UNL     1      -1.421  49.321 -18.225  1.00  0.00     0.033 A 
HETATM   15  C25 UNL     1      -1.984  48.341 -17.400  1.00  0.00     0.002 A 
HETATM   16  C26 UNL     1      -2.849  47.374 -17.911  1.00  0.00     0.002 A 
HETATM   17  C27 UNL     1      -3.181  47.364 -19.271  1.00  0.00     0.032 A 
HETATM   18  C28 UNL     1      -2.625  48.341 -20.113  1.00  0.00     0.077 A 
HETATM   19  N8  UNL     1      -2.805  48.523 -21.456  1.00  0.00    -0.188 N 
ATOM     20  H8  UNL     1      -3.399  47.970 -22.074  1.00  0.00     0.184 HD
HETATM   21  C29 UNL     1      -2.058  49.556 -21.795  1.00  0.00     0.701 A 
ENDROOT
BRANCH   8  22
HETATM   22  N3  UNL     1       1.405  53.144 -18.536  1.00  0.00    -0.192 N 
HETATM   23  H8  UNL     1       1.569  54.139 -18.569  1.00  0.00     0.184 HD
BRANCH  22  24
HETATM   24  C11 UNL     1       1.689  52.513 -17.321  1.00  0.00     0.049 A 
HETATM   25  C12 UNL     1       2.945  52.712 -16.738  1.00  0.00     0.032 A 
HETATM   26  C13 UNL     1       3.296  52.098 -15.525  1.00  0.00     0.031 A 
HETATM   27  C14 UNL     1       2.419  51.248 -14.840  1.00  0.00     0.030 A 
HETATM   28  C20 UNL     1       1.171  51.045 -15.444  1.00  0.00     0.031 A 
HETATM   29  C21 UNL     1       0.814  51.658 -16.658  1.00  0.00     0.032 A 
BRANCH  27  30
HETATM   30  N4  UNL     1       2.761  50.648 -13.642  1.00  0.00    -0.378 N 
HETATM   31  C15 UNL     1       1.830  50.611 -12.503  1.00  0.00     0.153 C 
HETATM   32  C16 UNL     1       2.128  49.413 -11.570  1.00  0.00     0.291 C 
HETATM   33  N5  UNL     1       3.512  49.321 -11.058  1.00  0.00     0.087 N 
HETATM   34  C17 UNL     1       3.621  49.835  -9.696  1.00  0.00     0.310 C 
HETATM   35  C18 UNL     1       4.463  50.013 -11.953  1.00  0.00     0.291 C 
HETATM   36  C19 UNL     1       4.061  49.983 -13.446  1.00  0.00     0.153 C 
ENDBRANCH  27  30
ENDBRANCH  22  24
ENDBRANCH   8  22
BRANCH   1  37
HETATM   37  C6  UNL     1      -2.607  49.571 -24.179  1.00  0.00     0.063 A 
HETATM   38  C5  UNL     1      -2.032  49.495 -25.458  1.00  0.00     0.031 A 
HETATM   39  C4  UNL     1      -2.725  48.943 -26.539  1.00  0.00     0.005 A 
HETATM   40  C3  UNL     1      -4.018  48.453 -26.368  1.00  0.00     0.037 A 
HETATM   41  C2  UNL     1      -4.621  48.522 -25.117  1.00  0.00     0.070 A 
HETATM   42  C30 UNL     1      -3.917  49.080 -24.039  1.00  0.00     0.067 A 
BRANCH  41  43
HETATM   43  O1  UNL     1      -5.879  48.075 -24.808  1.00  0.00    -0.356 OA
HETATM   44  C1  UNL     1      -6.777  49.022 -24.244  1.00  0.00     0.210 C 
ENDBRANCH  41  43
ENDBRANCH   1  37
TORSDOF 5
ENDMDL
MODEL 5
REMARK minimizedAffinity -9.00184345
REMARK CNNscore 0.26821655
REMARK CNNaffinity 7.23132324
REMARK  5 active torsions:
REMARK  status: ('A' for Active; 'I' for Inactive)
REMARK    1  A    between atoms: O1_2  and  C2_3 
REMARK    2  A    between atoms: C6_7  and  N1_8 
REMARK    3  A    between atoms: C10_15  and  N3_16 
REMARK    4  A    between atoms: N3_16  and  C11_17 
REMARK    5  A    between atoms: C14_20  and  N4_21 
ROOT
HETATM    1  N1  UNL     1       0.031  51.993 -22.381  1.00  0.00    -0.110 N 
HETATM    2  C7  UNL     1       0.638  52.830 -21.432  1.00  0.00     0.282 A 
HETATM    3  O2  UNL     1       1.264  53.862 -21.666  1.00  0.00    -0.266 OA
HETATM    4  C8  UNL     1       0.571  52.426 -20.019  1.00  0.00     0.095 A 
HETATM    5  C9  UNL     1       1.155  53.164 -19.019  1.00  0.00     0.127 A 
HETATM    6  N2  UNL     1       1.125  52.805 -17.716  1.00  0.00    -0.201 N 
ATOM      7  H2  UNL     1       1.573  53.379 -17.002  1.00  0.00     0.183 HD
HETATM    8  C10 UNL     1       0.486  51.672 -17.389  1.00  0.00     0.684 A 
HETATM    9  N6  UNL     1      -0.118  50.893 -18.303  1.00  0.00    -0.174 N 
ATOM     10  H6  UNL     1      -0.605  50.040 -18.030  1.00  0.00     0.186 HD
HETATM   11  C22 UNL     1      -0.057  51.283 -19.599  1.00  0.00     0.162 A 
HETATM   12  N7  UNL     1      -0.657  50.496 -20.596  1.00  0.00    -0.128 N 
HETATM   13  C23 UNL     1      -1.366  49.316 -20.465  1.00  0.00     0.086 A 
HETATM   14  C24 UNL     1      -1.717  48.502 -19.377  1.00  0.00     0.033 A 
HETATM   15  C25 UNL     1      -2.468  47.352 -19.646  1.00  0.00     0.002 A 
HETATM   16  C26 UNL     1      -2.854  47.028 -20.946  1.00  0.00     0.002 A 
HETATM   17  C27 UNL     1      -2.500  47.852 -22.020  1.00  0.00     0.032 A 
HETATM   18  C28 UNL     1      -1.747  49.010 -21.768  1.00  0.00     0.077 A 
HETATM   19  N8  UNL     1      -1.293  49.951 -22.649  1.00  0.00    -0.188 N 
ATOM     20  H8  UNL     1      -1.446  49.969 -23.658  1.00  0.00     0.184 HD
HETATM   21  C29 UNL     1      -0.618  50.833 -21.939  1.00  0.00     0.701 A 
ENDROOT
BRANCH   8  22
HETATM   22  N3  UNL     1       0.391  51.219 -16.080  1.00  0.00    -0.192 N 
HETATM   23  H8  UNL     1       1.178  51.561 -15.548  1.00  0.00     0.184 HD
BRANCH  22  24
HETATM   24  C11 UNL     1      -0.587  50.529 -15.360  1.00  0.00     0.049 A 
HETATM   25  C12 UNL     1      -0.280  49.263 -14.849  1.00  0.00     0.032 A 
HETATM   26  C13 UNL     1      -1.222  48.515 -14.127  1.00  0.00     0.031 A 
HETATM   27  C14 UNL     1      -2.519  48.985 -13.886  1.00  0.00     0.030 A 
HETATM   28  C20 UNL     1      -2.819  50.247 -14.417  1.00  0.00     0.031 A 
HETATM   29  C21 UNL     1      -1.878  51.001 -15.141  1.00  0.00     0.032 A 
BRANCH  27  30
HETATM   30  N4  UNL     1      -3.447  48.251 -13.169  1.00  0.00    -0.378 N 
HETATM   31  C15 UNL     1      -3.923  46.940 -13.638  1.00  0.00     0.153 C 
HETATM   32  C16 UNL     1      -4.410  46.063 -12.459  1.00  0.00     0.291 C 
HETATM   33  N5  UNL     1      -5.444  46.663 -11.590  1.00  0.00     0.087 N 
HETATM   34  C17 UNL     1      -6.779  46.175 -11.921  1.00  0.00     0.310 C 
HETATM   35  C18 UNL     1      -5.402  48.140 -11.646  1.00  0.00     0.291 C 
HETATM   36  C19 UNL     1      -3.988  48.722 -11.883  1.00  0.00     0.153 C 
ENDBRANCH  27  30
ENDBRANCH  22  24
ENDBRANCH   8  22
BRANCH   1  37
HETATM   37  C6  UNL     1       0.028  52.299 -23.788  1.00  0.00     0.063 A 
HETATM   38  C5  UNL     1      -0.025  51.296 -24.770  1.00  0.00     0.031 A 
HETATM   39  C4  UNL     1      -0.020  51.609 -26.134  1.00  0.00     0.005 A 
HETATM   40  C3  UNL     1       0.043  52.936 -26.550  1.00  0.00     0.037 A 
HETATM   41  C2  UNL     1       0.107  53.953 -25.603  1.00  0.00     0.070 A 
HETATM   42  C30 UNL     1       0.102  53.629 -24.238  1.00  0.00     0.067 A 
BRANCH  41  43
HETATM   43  O1  UNL     1       0.165  55.295 -25.871  1.00  0.00    -0.356 OA
HETATM   44  C1  UNL     1      -0.066  55.693 -27.216  1.00  0.00     0.210 C 
ENDBRANCH  41  43
ENDBRANCH   1  37
TORSDOF 5
ENDMDL
MODEL 6
REMARK minimizedAffinity -9.32552528
REMARK CNNscore 0.243832469
REMARK CNNaffinity 7.25599289
REMARK  5 active torsions:
REMARK  status: ('A' for Active; 'I' for Inactive)
REMARK    1  A    between atoms: O1_2  and  C2_3 
REMARK    2  A    between atoms: C6_7  and  N1_8 
REMARK    3  A    between atoms: C10_15  and  N3_16 
REMARK    4  A    between atoms: N3_16  and  C11_17 
REMARK    5  A    between atoms: C14_20  and  N4_21 
ROOT
HETATM    1  N1  UNL     1      -0.149  52.142 -23.094  1.00  0.00    -0.110 N 
HETATM    2  C7  UNL     1       0.490  53.069 -22.256  1.00  0.00     0.282 A 
HETATM    3  O2  UNL     1       1.054  54.102 -22.611  1.00  0.00    -0.266 OA
HETATM    4  C8  UNL     1       0.543  52.770 -20.817  1.00  0.00     0.095 A 
HETATM    5  C9  UNL     1       1.167  53.601 -19.920  1.00  0.00     0.127 A 
HETATM    6  N2  UNL     1       1.246  53.341 -18.595  1.00  0.00    -0.201 N 
ATOM      7  H2  UNL     1       1.722  53.982 -17.961  1.00  0.00     0.183 HD
HETATM    8  C10 UNL     1       0.680  52.213 -18.140  1.00  0.00     0.684 A 
HETATM    9  N6  UNL     1       0.044  51.347 -18.947  1.00  0.00    -0.174 N 
ATOM     10  H6  UNL     1      -0.387  50.500 -18.578  1.00  0.00     0.186 HD
HETATM   11  C22 UNL     1      -0.006  51.640 -20.269  1.00  0.00     0.162 A 
HETATM   12  N7  UNL     1      -0.644  50.760 -21.158  1.00  0.00    -0.128 N 
HETATM   13  C23 UNL     1      -1.294  49.569 -20.889  1.00  0.00     0.086 A 
HETATM   14  C24 UNL     1      -1.530  48.827 -19.721  1.00  0.00     0.033 A 
HETATM   15  C25 UNL     1      -2.252  47.635 -19.849  1.00  0.00     0.002 A 
HETATM   16  C26 UNL     1      -2.718  47.200 -21.089  1.00  0.00     0.002 A 
HETATM   17  C27 UNL     1      -2.477  47.953 -22.244  1.00  0.00     0.032 A 
HETATM   18  C28 UNL     1      -1.755  49.152 -22.134  1.00  0.00     0.077 A 
HETATM   19  N8  UNL     1      -1.405  50.040 -23.113  1.00  0.00    -0.188 N 
ATOM     20  H8  UNL     1      -1.632  49.976 -24.105  1.00  0.00     0.184 HD
HETATM   21  C29 UNL     1      -0.717  50.997 -22.521  1.00  0.00     0.701 A 
ENDROOT
BRANCH   8  22
HETATM   22  N3  UNL     1       0.699  51.857 -16.799  1.00  0.00    -0.192 N 
HETATM   23  H8  UNL     1       1.183  52.567 -16.269  1.00  0.00     0.184 HD
BRANCH  22  24
HETATM   24  C11 UNL     1       0.104  50.833 -16.057  1.00  0.00     0.049 A 
HETATM   25  C12 UNL     1       0.441  49.507 -16.351  1.00  0.00     0.032 A 
HETATM   26  C13 UNL     1      -0.129  48.433 -15.650  1.00  0.00     0.031 A 
HETATM   27  C14 UNL     1      -1.070  48.625 -14.630  1.00  0.00     0.030 A 
HETATM   28  C20 UNL     1      -1.410  49.957 -14.358  1.00  0.00     0.031 A 
HETATM   29  C21 UNL     1      -0.841  51.037 -15.056  1.00  0.00     0.032 A 
BRANCH  27  30
HETATM   30  N4  UNL     1      -1.628  47.568 -13.935  1.00  0.00    -0.378 N 
HETATM   31  C15 UNL     1      -1.417  47.398 -12.488  1.00  0.00     0.153 C 
HETATM   32  C16 UNL     1      -2.574  46.601 -11.840  1.00  0.00     0.291 C 
HETATM   33  N5  UNL     1      -2.864  45.280 -12.437  1.00  0.00     0.087 N 
HETATM   34  C17 UNL     1      -2.275  44.193 -11.661  1.00  0.00     0.310 C 
HETATM   35  C18 UNL     1      -2.416  45.217 -13.845  1.00  0.00     0.291 C 
HETATM   36  C19 UNL     1      -2.489  46.570 -14.592  1.00  0.00     0.153 C 
ENDBRANCH  27  30
ENDBRANCH  22  24
ENDBRANCH   8  22
BRANCH   1  37
HETATM   37  C6  UNL     1      -0.268  52.341 -24.515  1.00  0.00     0.063 A 
HETATM   38  C5  UNL     1       0.257  53.474 -25.157  1.00  0.00     0.031 A 
HETATM   39  C4  UNL     1       0.127  53.656 -26.538  1.00  0.00     0.005 A 
HETATM   40  C3  UNL     1      -0.537  52.709 -27.313  1.00  0.00     0.037 A 
HETATM   41  C2  UNL     1      -1.077  51.580 -26.706  1.00  0.00     0.070 A 
HETATM   42  C30 UNL     1      -0.943  51.407 -25.320  1.00  0.00     0.067 A 
BRANCH  41  43
HETATM   43  O1  UNL     1      -1.747  50.570 -27.345  1.00  0.00    -0.356 OA
HETATM   44  C1  UNL     1      -3.083  50.838 -27.748  1.00  0.00     0.210 C 
ENDBRANCH  41  43
ENDBRANCH   1  37
TORSDOF 5
ENDMDL
MODEL 7
REMARK minimizedAffinity -10.7201767
REMARK CNNscore 0.224767342
REMARK CNNaffinity 7.18915606
REMARK  5 active torsions:
REMARK  status: ('A' for Active; 'I' for Inactive)
REMARK    1  A    between atoms: O1_2  and  C2_3 
REMARK    2  A    between atoms: C6_7  and  N1_8 
REMARK    3  A    between atoms: C10_15  and  N3_16 
REMARK    4  A    between atoms: N3_16  and  C11_17 
REMARK    5  A    between atoms: C14_20  and  N4_21 
ROOT
HETATM    1  N1  UNL     1      -1.386  50.837 -22.150  1.00  0.00    -0.110 N 
HETATM    2  C7  UNL     1      -2.545  50.054 -22.034  1.00  0.00     0.282 A 
HETATM    3  O2  UNL     1      -3.091  49.713 -20.987  1.00  0.00    -0.266 OA
HETATM    4  C8  UNL     1      -3.152  49.541 -23.272  1.00  0.00     0.095 A 
HETATM    5  C9  UNL     1      -4.272  48.745 -23.261  1.00  0.00     0.127 A 
HETATM    6  N2  UNL     1      -4.840  48.246 -24.382  1.00  0.00    -0.201 N 
ATOM      7  H2  UNL     1      -5.670  47.656 -24.333  1.00  0.00     0.183 HD
HETATM    8  C10 UNL     1      -4.278  48.550 -25.562  1.00  0.00     0.684 A 
HETATM    9  N6  UNL     1      -3.186  49.326 -25.664  1.00  0.00    -0.174 N 
ATOM     10  H6  UNL     1      -2.781  49.551 -26.572  1.00  0.00     0.186 HD
HETATM   11  C22 UNL     1      -2.642  49.800 -24.517  1.00  0.00     0.162 A 
HETATM   12  N7  UNL     1      -1.490  50.602 -24.566  1.00  0.00    -0.128 N 
HETATM   13  C23 UNL     1      -0.778  51.036 -25.669  1.00  0.00     0.086 A 
HETATM   14  C24 UNL     1      -0.907  50.843 -27.053  1.00  0.00     0.033 A 
HETATM   15  C25 UNL     1       0.033  51.466 -27.883  1.00  0.00     0.002 A 
HETATM   16  C26 UNL     1       1.059  52.249 -27.353  1.00  0.00     0.002 A 
HETATM   17  C27 UNL     1       1.171  52.435 -25.971  1.00  0.00     0.032 A 
HETATM   18  C28 UNL     1       0.236  51.817 -25.125  1.00  0.00     0.077 A 
HETATM   19  N8  UNL     1       0.150  51.857 -23.761  1.00  0.00    -0.188 N 
ATOM     20  H8  UNL     1       0.762  52.369 -23.124  1.00  0.00     0.184 HD
HETATM   21  C29 UNL     1      -0.881  51.105 -23.429  1.00  0.00     0.701 A 
ENDROOT
BRANCH   8  22
HETATM   22  N3  UNL     1      -4.787  48.094 -26.770  1.00  0.00    -0.192 N 
HETATM   23  H8  UNL     1      -4.026  47.815 -27.372  1.00  0.00     0.184 HD
BRANCH  22  24
HETATM   24  C11 UNL     1      -6.075  47.838 -27.246  1.00  0.00     0.049 A 
HETATM   25  C12 UNL     1      -7.086  47.540 -26.326  1.00  0.00     0.032 A 
HETATM   26  C13 UNL     1      -8.398  47.263 -26.741  1.00  0.00     0.031 A 
HETATM   27  C14 UNL     1      -8.766  47.259 -28.092  1.00  0.00     0.030 A 
HETATM   28  C20 UNL     1      -7.740  47.543 -29.005  1.00  0.00     0.031 A 
HETATM   29  C21 UNL     1      -6.424  47.822 -28.594  1.00  0.00     0.032 A 
BRANCH  27  30
HETATM   30  N4  UNL     1     -10.059  46.992 -28.503  1.00  0.00    -0.378 N 
HETATM   31  C15 UNL     1     -11.214  47.697 -27.922  1.00  0.00     0.153 C 
HETATM   32  C16 UNL     1     -12.408  47.728 -28.907  1.00  0.00     0.291 C 
HETATM   33  N5  UNL     1     -12.858  46.417 -29.420  1.00  0.00     0.087 N 
HETATM   34  C17 UNL     1     -14.035  45.932 -28.706  1.00  0.00     0.310 C 
HETATM   35  C18 UNL     1     -11.770  45.418 -29.368  1.00  0.00     0.291 C 
HETATM   36  C19 UNL     1     -10.355  46.014 -29.563  1.00  0.00     0.153 C 
ENDBRANCH  27  30
ENDBRANCH  22  24
ENDBRANCH   8  22
BRANCH   1  37
HETATM   37  C6  UNL     1      -0.717  51.398 -21.006  1.00  0.00     0.063 A 
HETATM   38  C5  UNL     1      -0.773  50.796 -19.738  1.00  0.00     0.031 A 
HETATM   39  C4  UNL     1      -0.123  51.358 -18.634  1.00  0.00     0.005 A 
HETATM   40  C3  UNL     1       0.597  52.542 -18.770  1.00  0.00     0.037 A 
HETATM   41  C2  UNL     1       0.663  53.170 -20.009  1.00  0.00     0.070 A 
HETATM   42  C30 UNL     1       0.007  52.599 -21.111  1.00  0.00     0.067 A 
BRANCH  41  43
HETATM   43  O1  UNL     1       1.339  54.330 -20.285  1.00  0.00    -0.356 OA
HETATM   44  C1  UNL     1       1.672  54.571 -21.645  1.00  0.00     0.210 C 
ENDBRANCH  41  43
ENDBRANCH   1  37
TORSDOF 5
ENDMDL
MODEL 8
REMARK minimizedAffinity -8.93786812
REMARK CNNscore 0.182327077
REMARK CNNaffinity 7.04842567
REMARK  5 active torsions:
REMARK  status: ('A' for Active; 'I' for Inactive)
REMARK    1  A    between atoms: O1_2  and  C2_3 
REMARK    2  A    between atoms: C6_7  and  N1_8 
REMARK    3  A    between atoms: C10_15  and  N3_16 
REMARK    4  A    between atoms: N3_16  and  C11_17 
REMARK    5  A    between atoms: C14_20  and  N4_21 
ROOT
HETATM    1  N1  UNL     1      -0.583  51.956 -23.091  1.00  0.00    -0.110 N 
HETATM    2  C7  UNL     1       0.152  52.592 -22.079  1.00  0.00     0.282 A 
HETATM    3  O2  UNL     1       0.971  53.496 -22.233  1.00  0.00    -0.266 OA
HETATM    4  C8  UNL     1      -0.023  52.112 -20.699  1.00  0.00     0.095 A 
HETATM    5  C9  UNL     1       0.670  52.652 -19.644  1.00  0.00     0.127 A 
HETATM    6  N2  UNL     1       0.542  52.218 -18.370  1.00  0.00    -0.201 N 
ATOM      7  H2  UNL     1       1.077  52.643 -17.613  1.00  0.00     0.183 HD
HETATM    8  C10 UNL     1      -0.311  51.210 -18.131  1.00  0.00     0.684 A 
HETATM    9  N6  UNL     1      -1.033  50.629 -19.103  1.00  0.00    -0.174 N 
ATOM     10  H6  UNL     1      -1.682  49.870 -18.897  1.00  0.00     0.186 HD
HETATM   11  C22 UNL     1      -0.869  51.087 -20.368  1.00  0.00     0.162 A 
HETATM   12  N7  UNL     1      -1.588  50.502 -21.423  1.00  0.00    -0.128 N 
HETATM   13  C23 UNL     1      -2.515  49.477 -21.383  1.00  0.00     0.086 A 
HETATM   14  C24 UNL     1      -3.040  48.674 -20.359  1.00  0.00     0.033 A 
HETATM   15  C25 UNL     1      -3.994  47.713 -20.716  1.00  0.00     0.002 A 
HETATM   16  C26 UNL     1      -4.406  47.560 -22.039  1.00  0.00     0.002 A 
HETATM   17  C27 UNL     1      -3.875  48.371 -23.049  1.00  0.00     0.032 A 
HETATM   18  C28 UNL     1      -2.918  49.340 -22.708  1.00  0.00     0.077 A 
HETATM   19  N8  UNL     1      -2.271  50.234 -23.516  1.00  0.00    -0.188 N 
ATOM     20  H8  UNL     1      -2.396  50.349 -24.522  1.00  0.00     0.184 HD
HETATM   21  C29 UNL     1      -1.454  50.917 -22.738  1.00  0.00     0.701 A 
ENDROOT
BRANCH   8  22
HETATM   22  N3  UNL     1      -0.520  50.697 -16.859  1.00  0.00    -0.192 N 
HETATM   23  H8  UNL     1      -1.096  49.870 -16.920  1.00  0.00     0.184 HD
BRANCH  22  24
HETATM   24  C11 UNL     1      -0.017  51.004 -15.592  1.00  0.00     0.049 A 
HETATM   25  C12 UNL     1       1.319  50.700 -15.306  1.00  0.00     0.032 A 
HETATM   26  C13 UNL     1       1.882  50.973 -14.050  1.00  0.00     0.031 A 
HETATM   27  C14 UNL     1       1.141  51.554 -13.013  1.00  0.00     0.030 A 
HETATM   28  C20 UNL     1      -0.200  51.839 -13.307  1.00  0.00     0.031 A 
HETATM   29  C21 UNL     1      -0.769  51.567 -14.565  1.00  0.00     0.032 A 
BRANCH  27  30
HETATM   30  N4  UNL     1       1.695  51.830 -11.777  1.00  0.00    -0.378 N 
HETATM   31  C15 UNL     1       1.116  51.294 -10.534  1.00  0.00     0.153 C 
HETATM   32  C16 UNL     1       2.183  51.181  -9.419  1.00  0.00     0.291 C 
HETATM   33  N5  UNL     1       2.924  52.421  -9.104  1.00  0.00     0.087 N 
HETATM   34  C17 UNL     1       2.395  53.081  -7.914  1.00  0.00     0.310 C 
HETATM   35  C18 UNL     1       2.931  53.349 -10.255  1.00  0.00     0.291 C 
HETATM   36  C19 UNL     1       2.912  52.647 -11.633  1.00  0.00     0.153 C 
ENDBRANCH  27  30
ENDBRANCH  22  24
ENDBRANCH   8  22
BRANCH   1  37
HETATM   37  C6  UNL     1      -0.497  52.352 -24.472  1.00  0.00     0.063 A 
HETATM   38  C5  UNL     1       0.081  53.570 -24.865  1.00  0.00     0.031 A 
HETATM   39  C4  UNL     1       0.151  53.944 -26.211  1.00  0.00     0.005 A 
HETATM   40  C3  UNL     1      -0.361  53.108 -27.201  1.00  0.00     0.037 A 
HETATM   41  C2  UNL     1      -0.948  51.899 -26.845  1.00  0.00     0.070 A 
HETATM   42  C30 UNL     1      -1.015  51.533 -25.491  1.00  0.00     0.067 A 
BRANCH  41  43
HETATM   43  O1  UNL     1      -1.483  50.982 -27.711  1.00  0.00    -0.356 OA
HETATM   44  C1  UNL     1      -2.858  50.662 -27.540  1.00  0.00     0.210 C 
ENDBRANCH  41  43
ENDBRANCH   1  37
TORSDOF 5
ENDMDL
MODEL 9
REMARK minimizedAffinity -9.8476038
REMARK CNNscore 0.148529842
REMARK CNNaffinity 7.15455389
REMARK  5 active torsions:
REMARK  status: ('A' for Active; 'I' for Inactive)
REMARK    1  A    between atoms: O1_2  and  C2_3 
REMARK    2  A    between atoms: C6_7  and  N1_8 
REMARK    3  A    between atoms: C10_15  and  N3_16 
REMARK    4  A    between atoms: N3_16  and  C11_17 
REMARK    5  A    between atoms: C14_20  and  N4_21 
ROOT
HETATM    1  N1  UNL     1      -1.021  51.727 -23.301  1.00  0.00    -0.110 N 
HETATM    2  C7  UNL     1       0.078  52.531 -22.963  1.00  0.00     0.282 A 
HETATM    3  O2  UNL     1       0.847  53.080 -23.748  1.00  0.00    -0.266 OA
HETATM    4  C8  UNL     1       0.386  52.705 -21.535  1.00  0.00     0.095 A 
HETATM    5  C9  UNL     1       1.455  53.452 -21.104  1.00  0.00     0.127 A 
HETATM    6  N2  UNL     1       1.771  53.613 -19.798  1.00  0.00    -0.201 N 
ATOM      7  H2  UNL     1       2.576  54.174 -19.518  1.00  0.00     0.183 HD
HETATM    8  C10 UNL     1       0.994  53.014 -18.884  1.00  0.00     0.684 A 
HETATM    9  N6  UNL     1      -0.074  52.272 -19.218  1.00  0.00    -0.174 N 
ATOM     10  H6  UNL     1      -0.656  51.833 -18.505  1.00  0.00     0.186 HD
HETATM   11  C22 UNL     1      -0.352  52.127 -20.536  1.00  0.00     0.162 A 
HETATM   12  N7  UNL     1      -1.448  51.347 -20.939  1.00  0.00    -0.128 N 
HETATM   13  C23 UNL     1      -2.368  50.668 -20.162  1.00  0.00     0.086 A 
HETATM   14  C24 UNL     1      -2.539  50.493 -18.780  1.00  0.00     0.033 A 
HETATM   15  C25 UNL     1      -3.624  49.718 -18.356  1.00  0.00     0.002 A 
HETATM   16  C26 UNL     1      -4.502  49.141 -19.272  1.00  0.00     0.002 A 
HETATM   17  C27 UNL     1      -4.321  49.328 -20.647  1.00  0.00     0.032 A 
HETATM   18  C28 UNL     1      -3.237  50.103 -21.089  1.00  0.00     0.077 A 
HETATM   19  N8  UNL     1      -2.868  50.418 -22.368  1.00  0.00    -0.188 N 
ATOM     20  H8  UNL     1      -3.343  50.142 -23.227  1.00  0.00     0.184 HD
HETATM   21  C29 UNL     1      -1.775  51.150 -22.271  1.00  0.00     0.701 A 
ENDROOT
BRANCH   8  22
HETATM   22  N3  UNL     1       1.228  53.123 -17.520  1.00  0.00    -0.192 N 
HETATM   23  H8  UNL     1       1.104  54.083 -17.233  1.00  0.00     0.184 HD
BRANCH  22  24
HETATM   24  C11 UNL     1       1.463  52.199 -16.498  1.00  0.00     0.049 A 
HETATM   25  C12 UNL     1       2.677  52.256 -15.805  1.00  0.00     0.032 A 
HETATM   26  C13 UNL     1       2.977  51.350 -14.776  1.00  0.00     0.031 A 
HETATM   27  C14 UNL     1       2.089  50.337 -14.393  1.00  0.00     0.030 A 
HETATM   28  C20 UNL     1       0.884  50.282 -15.106  1.00  0.00     0.031 A 
HETATM   29  C21 UNL     1       0.577  51.188 -16.137  1.00  0.00     0.032 A 
BRANCH  27  30
HETATM   30  N4  UNL     1       2.381  49.448 -13.375  1.00  0.00    -0.378 N 
HETATM   31  C15 UNL     1       1.688  48.154 -13.258  1.00  0.00     0.153 C 
HETATM   32  C16 UNL     1       2.558  47.115 -12.510  1.00  0.00     0.291 C 
HETATM   33  N5  UNL     1       3.043  47.520 -11.173  1.00  0.00     0.087 N 
HETATM   34  C17 UNL     1       2.230  46.946 -10.106  1.00  0.00     0.310 C 
HETATM   35  C18 UNL     1       3.104  48.992 -11.047  1.00  0.00     0.291 C 
HETATM   36  C19 UNL     1       3.421  49.726 -12.371  1.00  0.00     0.153 C 
ENDBRANCH  27  30
ENDBRANCH  22  24
ENDBRANCH   8  22
BRANCH   1  37
HETATM   37  C6  UNL     1      -1.417  51.498 -24.666  1.00  0.00     0.063 A 
HETATM   38  C5  UNL     1      -1.786  50.226 -25.133  1.00  0.00     0.031 A 
HETATM   39  C4  UNL     1      -2.161  50.017 -26.465  1.00  0.00     0.005 A 
HETATM   40  C3  UNL     1      -2.173  51.079 -27.366  1.00  0.00     0.037 A 
HETATM   41  C2  UNL     1      -1.803  52.350 -26.938  1.00  0.00     0.070 A 
HETATM   42  C30 UNL     1      -1.427  52.548 -25.600  1.00  0.00     0.067 A 
BRANCH  41  43
HETATM   43  O1  UNL     1      -1.776  53.480 -27.712  1.00  0.00    -0.356 OA
HETATM   44  C1  UNL     1      -0.587  54.258 -27.671  1.00  0.00     0.210 C 
ENDBRANCH  41  43
ENDBRANCH   1  37
TORSDOF 5
ENDMDL
