MODEL 1
REMARK minimizedAffinity -7.32803869
REMARK  5 active torsions:
REMARK  status: ('A' for Active; 'I' for Inactive)
REMARK       I    between atoms: N1_1  and  C1_2 
REMARK    1  A    between atoms: C1_2  and  C2_4 
REMARK    2  A    between atoms: C3_5  and  N2_6 
REMARK    3  A    between atoms: N2_6  and  C4_7 
REMARK    4  A    between atoms: C10_16  and  N5_17 
REMARK    5  A    between atoms: C12_19  and  C13_20 
ROOT
HETATM    1  C2  UNL     1      13.312  34.749  19.131  1.00  0.00     0.122 A 
HETATM    2  C3  UNL     1      11.996  35.158  18.768  1.00  0.00     0.140 A 
HETATM    3  N3  UNL     1      11.972  35.702  17.550  1.00  0.00    -0.275 N 
ATOM      4  H3  UNL     1      11.166  36.089  17.061  1.00  0.00     0.189 HD
HETATM    5  N4  UNL     1      13.248  35.630  17.101  1.00  0.00    -0.226 N 
HETATM    6  C10 UNL     1      13.735  36.088  15.850  1.00  0.00     0.104 A 
HETATM    7  C11 UNL     1      15.049  35.980  15.595  1.00  0.00     0.069 A 
HETATM    8  C12 UNL     1      15.883  35.355  16.663  1.00  0.00     0.018 A 
HETATM    9  N6  UNL     1      15.450  34.926  17.812  1.00  0.00    -0.343 N 
ATOM     10  H6  UNL     1      16.075  34.506  18.501  1.00  0.00     0.167 HD
HETATM   11  C16 UNL     1      14.106  35.069  18.044  1.00  0.00     0.148 A 
ENDROOT
BRANCH   2  12
HETATM   12  N2  UNL     1      10.948  34.997  19.618  1.00  0.00    -0.341 N 
HETATM   13  H3  UNL     1      11.150  34.489  20.481  1.00  0.00     0.167 HD
BRANCH  12  14
HETATM   14  C4  UNL     1       9.587  35.358  19.531  1.00  0.00     0.033 A 
HETATM   15  C5  UNL     1       8.564  34.723  20.244  1.00  0.00     0.029 A 
HETATM   16  C6  UNL     1       7.228  35.119  20.103  1.00  0.00     0.002 A 
HETATM   17  C7  UNL     1       6.892  36.156  19.238  1.00  0.00     0.000 A 
HETATM   18  C8  UNL     1       7.892  36.798  18.514  1.00  0.00     0.002 A 
HETATM   19  C9  UNL     1       9.224  36.400  18.660  1.00  0.00     0.029 A 
ENDBRANCH  12  14
ENDBRANCH   2  12
BRANCH   1  20
HETATM   20  C1  UNL     1      13.725  34.133  20.376  1.00  0.00     0.257 C 
HETATM   21  N1  UNL     1      15.070  34.032  20.578  1.00  0.00    -0.366 N 
HETATM   22  H1  UNL     1      15.411  33.609  21.427  1.00  0.00     0.159 HD
HETATM   23  H2  UNL     1      15.724  34.374  19.879  1.00  0.00     0.159 HD
HETATM   24  O1  UNL     1      12.928  33.722  21.215  1.00  0.00    -0.268 OA
ENDBRANCH   1  20
BRANCH   6  25
HETATM   25  N5  UNL     1      12.822  36.640  14.955  1.00  0.00    -0.287 NA
HETATM   26  H9  UNL     1      11.943  36.869  15.433  1.00  0.00     0.125 HD
HETATM   27  H10 UNL     1      13.188  37.421  14.420  1.00  0.00     0.125 HD
ENDBRANCH   6  25
BRANCH   8  28
HETATM   28  C13 UNL     1      17.345  35.191  16.430  1.00  0.00     0.036 A 
HETATM   29  C14 UNL     1      17.903  34.216  15.421  1.00  0.00     0.011 A 
HETATM   30  C15 UNL     1      18.036  35.696  15.188  1.00  0.00     0.011 A 
ENDBRANCH   8  28
TORSDOF 5
ENDMDL
MODEL 2
REMARK minimizedAffinity -7.26338339
REMARK  5 active torsions:
REMARK  status: ('A' for Active; 'I' for Inactive)
REMARK       I    between atoms: N1_1  and  C1_2 
REMARK    1  A    between atoms: C1_2  and  C2_4 
REMARK    2  A    between atoms: C3_5  and  N2_6 
REMARK    3  A    between atoms: N2_6  and  C4_7 
REMARK    4  A    between atoms: C10_16  and  N5_17 
REMARK    5  A    between atoms: C12_19  and  C13_20 
ROOT
HETATM    1  C2  UNL     1      10.592  35.496  18.518  1.00  0.00     0.122 A 
HETATM    2  C3  UNL     1      10.650  34.641  19.657  1.00  0.00     0.140 A 
HETATM    3  N3  UNL     1      11.900  34.257  19.917  1.00  0.00    -0.275 N 
ATOM      4  H3  UNL     1      12.215  33.635  20.661  1.00  0.00     0.189 HD
HETATM    5  N4  UNL     1      12.664  34.869  18.980  1.00  0.00    -0.226 N 
HETATM    6  C10 UNL     1      14.072  34.767  18.834  1.00  0.00     0.104 A 
HETATM    7  C11 UNL     1      14.657  35.408  17.809  1.00  0.00     0.069 A 
HETATM    8  C12 UNL     1      13.758  36.199  16.920  1.00  0.00     0.018 A 
HETATM    9  N6  UNL     1      12.467  36.306  17.045  1.00  0.00    -0.343 N 
ATOM     10  H6  UNL     1      11.908  36.866  16.401  1.00  0.00     0.167 HD
HETATM   11  C16 UNL     1      11.902  35.624  18.093  1.00  0.00     0.148 A 
ENDROOT
BRANCH   2  12
HETATM   12  N2  UNL     1       9.524  34.291  20.333  1.00  0.00    -0.341 N 
HETATM   13  H3  UNL     1       8.864  33.700  19.823  1.00  0.00     0.167 HD
BRANCH  12  14
HETATM   14  C4  UNL     1       9.041  34.623  21.617  1.00  0.00     0.033 A 
HETATM   15  C5  UNL     1       9.515  34.051  22.802  1.00  0.00     0.029 A 
HETATM   16  C6  UNL     1       8.983  34.412  24.045  1.00  0.00     0.002 A 
HETATM   17  C7  UNL     1       7.959  35.351  24.123  1.00  0.00     0.000 A 
HETATM   18  C8  UNL     1       7.467  35.930  22.957  1.00  0.00     0.002 A 
HETATM   19  C9  UNL     1       8.003  35.566  21.718  1.00  0.00     0.029 A 
ENDBRANCH  12  14
ENDBRANCH   2  12
BRANCH   1  20
HETATM   20  C1  UNL     1       9.410  36.095  17.932  1.00  0.00     0.257 C 
HETATM   21  N1  UNL     1       9.117  35.719  16.654  1.00  0.00    -0.366 N 
HETATM   22  H1  UNL     1       8.306  36.109  16.199  1.00  0.00     0.159 HD
HETATM   23  H2  UNL     1       9.711  35.057  16.163  1.00  0.00     0.159 HD
HETATM   24  O1  UNL     1       8.699  36.896  18.533  1.00  0.00    -0.268 OA
ENDBRANCH   1  20
BRANCH   6  25
HETATM   25  N5  UNL     1      14.771  33.994  19.757  1.00  0.00    -0.287 NA
HETATM   26  H9  UNL     1      14.128  33.392  20.282  1.00  0.00     0.125 HD
HETATM   27  H10 UNL     1      15.549  33.477  19.358  1.00  0.00     0.125 HD
ENDBRANCH   6  25
BRANCH   8  28
HETATM   28  C13 UNL     1      14.352  36.947  15.777  1.00  0.00     0.036 A 
HETATM   29  C14 UNL     1      14.797  38.384  15.890  1.00  0.00     0.011 A 
HETATM   30  C15 UNL     1      15.818  37.296  15.703  1.00  0.00     0.011 A 
ENDBRANCH   8  28
TORSDOF 5
ENDMDL
MODEL 3
REMARK minimizedAffinity -7.14149618
REMARK  5 active torsions:
REMARK  status: ('A' for Active; 'I' for Inactive)
REMARK       I    between atoms: N1_1  and  C1_2 
REMARK    1  A    between atoms: C1_2  and  C2_4 
REMARK    2  A    between atoms: C3_5  and  N2_6 
REMARK    3  A    between atoms: N2_6  and  C4_7 
REMARK    4  A    between atoms: C10_16  and  N5_17 
REMARK    5  A    between atoms: C12_19  and  C13_20 
ROOT
HETATM    1  C2  UNL     1      12.215  34.704  19.269  1.00  0.00     0.122 A 
HETATM    2  C3  UNL     1      12.597  34.870  17.906  1.00  0.00     0.140 A 
HETATM    3  N3  UNL     1      11.562  35.240  17.150  1.00  0.00    -0.275 N 
ATOM      4  H3  UNL     1      11.559  35.408  16.145  1.00  0.00     0.189 HD
HETATM    5  N4  UNL     1      10.515  35.344  18.004  1.00  0.00    -0.226 N 
HETATM    6  C10 UNL     1       9.183  35.705  17.673  1.00  0.00     0.104 A 
HETATM    7  C11 UNL     1       8.259  35.706  18.648  1.00  0.00     0.069 A 
HETATM    8  C12 UNL     1       8.736  35.343  20.014  1.00  0.00     0.018 A 
HETATM    9  N6  UNL     1       9.953  35.015  20.333  1.00  0.00    -0.343 N 
ATOM     10  H6  UNL     1      10.215  34.777  21.290  1.00  0.00     0.167 HD
HETATM   11  C16 UNL     1      10.866  35.008  19.309  1.00  0.00     0.148 A 
ENDROOT
BRANCH   2  12
HETATM   12  N2  UNL     1      13.873  34.643  17.499  1.00  0.00    -0.341 N 
HETATM   13  H3  UNL     1      14.261  33.729  17.740  1.00  0.00     0.167 HD
BRANCH  12  14
HETATM   14  C4  UNL     1      14.819  35.451  16.833  1.00  0.00     0.033 A 
HETATM   15  C5  UNL     1      16.137  35.059  16.574  1.00  0.00     0.029 A 
HETATM   16  C6  UNL     1      17.033  35.914  15.922  1.00  0.00     0.002 A 
HETATM   17  C7  UNL     1      16.625  37.183  15.521  1.00  0.00     0.000 A 
HETATM   18  C8  UNL     1      15.321  37.597  15.773  1.00  0.00     0.002 A 
HETATM   19  C9  UNL     1      14.430  36.739  16.424  1.00  0.00     0.029 A 
ENDBRANCH  12  14
ENDBRANCH   2  12
BRANCH   1  20
HETATM   20  C1  UNL     1      13.062  34.298  20.373  1.00  0.00     0.257 C 
HETATM   21  N1  UNL     1      14.178  35.053  20.581  1.00  0.00    -0.366 N 
HETATM   22  H1  UNL     1      14.803  34.812  21.335  1.00  0.00     0.159 HD
HETATM   23  H2  UNL     1      14.382  35.848  19.981  1.00  0.00     0.159 HD
HETATM   24  O1  UNL     1      12.807  33.335  21.091  1.00  0.00    -0.268 OA
ENDBRANCH   1  20
BRANCH   6  25
HETATM   25  N5  UNL     1       8.903  36.028  16.348  1.00  0.00    -0.287 NA
HETATM   26  H9  UNL     1       9.662  35.714  15.733  1.00  0.00     0.125 HD
HETATM   27  H10 UNL     1       7.991  35.714  16.031  1.00  0.00     0.125 HD
ENDBRANCH   6  25
BRANCH   8  28
HETATM   28  C13 UNL     1       7.760  35.345  21.140  1.00  0.00     0.036 A 
HETATM   29  C14 UNL     1       7.854  34.383  22.299  1.00  0.00     0.011 A 
HETATM   30  C15 UNL     1       8.105  35.849  22.520  1.00  0.00     0.011 A 
ENDBRANCH   8  28
TORSDOF 5
ENDMDL
MODEL 4
REMARK minimizedAffinity -7.12494993
REMARK  5 active torsions:
REMARK  status: ('A' for Active; 'I' for Inactive)
REMARK       I    between atoms: N1_1  and  C1_2 
REMARK    1  A    between atoms: C1_2  and  C2_4 
REMARK    2  A    between atoms: C3_5  and  N2_6 
REMARK    3  A    between atoms: N2_6  and  C4_7 
REMARK    4  A    between atoms: C10_16  and  N5_17 
REMARK    5  A    between atoms: C12_19  and  C13_20 
ROOT
HETATM    1  C2  UNL     1      18.052  50.684   6.607  1.00  0.00     0.122 A 
HETATM    2  C3  UNL     1      17.236  51.393   5.677  1.00  0.00     0.140 A 
HETATM    3  N3  UNL     1      16.608  50.561   4.845  1.00  0.00    -0.275 N 
ATOM      4  H3  UNL     1      15.981  50.807   4.079  1.00  0.00     0.189 HD
HETATM    5  N4  UNL     1      16.980  49.317   5.234  1.00  0.00    -0.226 N 
HETATM    6  C10 UNL     1      16.578  48.089   4.648  1.00  0.00     0.104 A 
HETATM    7  C11 UNL     1      17.092  46.949   5.137  1.00  0.00     0.069 A 
HETATM    8  C12 UNL     1      18.035  47.083   6.284  1.00  0.00     0.018 A 
HETATM    9  N6  UNL     1      18.408  48.201   6.835  1.00  0.00    -0.343 N 
ATOM     10  H6  UNL     1      19.059  48.225   7.620  1.00  0.00     0.167 HD
HETATM   11  C16 UNL     1      17.877  49.347   6.298  1.00  0.00     0.148 A 
ENDROOT
BRANCH   2  12
HETATM   12  N2  UNL     1      17.171  52.750   5.688  1.00  0.00    -0.341 N 
HETATM   13  H3  UNL     1      17.907  53.226   6.214  1.00  0.00     0.167 HD
BRANCH  12  14
HETATM   14  C4  UNL     1      16.244  53.664   5.145  1.00  0.00     0.033 A 
HETATM   15  C5  UNL     1      14.862  53.587   5.346  1.00  0.00     0.029 A 
HETATM   16  C6  UNL     1      13.992  54.518   4.767  1.00  0.00     0.002 A 
HETATM   17  C7  UNL     1      14.491  55.542   3.969  1.00  0.00     0.000 A 
HETATM   18  C8  UNL     1      15.862  55.636   3.750  1.00  0.00     0.002 A 
HETATM   19  C9  UNL     1      16.727  54.704   4.332  1.00  0.00     0.029 A 
ENDBRANCH  12  14
ENDBRANCH   2  12
BRANCH   1  20
HETATM   20  C1  UNL     1      18.887  51.249   7.647  1.00  0.00     0.257 C 
HETATM   21  N1  UNL     1      18.702  52.574   7.912  1.00  0.00    -0.366 N 
HETATM   22  H1  UNL     1      19.260  53.017   8.625  1.00  0.00     0.159 HD
HETATM   23  H2  UNL     1      18.013  53.112   7.393  1.00  0.00     0.159 HD
HETATM   24  O1  UNL     1      19.718  50.591   8.268  1.00  0.00    -0.268 OA
ENDBRANCH   1  20
BRANCH   6  25
HETATM   25  N5  UNL     1      15.679  48.134   3.586  1.00  0.00    -0.287 NA
HETATM   26  H9  UNL     1      15.620  49.085   3.205  1.00  0.00     0.125 HD
HETATM   27  H10 UNL     1      15.853  47.438   2.868  1.00  0.00     0.125 HD
ENDBRANCH   6  25
BRANCH   8  28
HETATM   28  C13 UNL     1      18.623  45.851   6.881  1.00  0.00     0.036 A 
HETATM   29  C14 UNL     1      17.784  44.801   7.567  1.00  0.00     0.011 A 
HETATM   30  C15 UNL     1      18.460  44.485   6.261  1.00  0.00     0.011 A 
ENDBRANCH   8  28
TORSDOF 5
ENDMDL
MODEL 5
REMARK minimizedAffinity -7.07286263
REMARK  5 active torsions:
REMARK  status: ('A' for Active; 'I' for Inactive)
REMARK       I    between atoms: N1_1  and  C1_2 
REMARK    1  A    between atoms: C1_2  and  C2_4 
REMARK    2  A    between atoms: C3_5  and  N2_6 
REMARK    3  A    between atoms: N2_6  and  C4_7 
REMARK    4  A    between atoms: C10_16  and  N5_17 
REMARK    5  A    between atoms: C12_19  and  C13_20 
ROOT
HETATM    1  C2  UNL     1      10.356  35.888  19.074  1.00  0.00     0.122 A 
HETATM    2  C3  UNL     1      11.292  36.355  20.042  1.00  0.00     0.140 A 
HETATM    3  N3  UNL     1      10.764  36.366  21.267  1.00  0.00    -0.275 N 
ATOM      4  H3  UNL     1      11.212  36.670  22.131  1.00  0.00     0.189 HD
HETATM    5  N4  UNL     1       9.506  35.887  21.118  1.00  0.00    -0.226 N 
HETATM    6  C10 UNL     1       8.537  35.713  22.140  1.00  0.00     0.104 A 
HETATM    7  C11 UNL     1       7.316  35.271  21.797  1.00  0.00     0.069 A 
HETATM    8  C12 UNL     1       7.099  34.979  20.351  1.00  0.00     0.018 A 
HETATM    9  N6  UNL     1       7.978  35.128  19.404  1.00  0.00    -0.343 N 
ATOM     10  H6  UNL     1       7.765  34.908  18.430  1.00  0.00     0.167 HD
HETATM   11  C16 UNL     1       9.208  35.598  19.789  1.00  0.00     0.148 A 
ENDROOT
BRANCH   2  12
HETATM   12  N2  UNL     1      12.544  36.742  19.682  1.00  0.00    -0.341 N 
HETATM   13  H3  UNL     1      12.607  37.623  19.168  1.00  0.00     0.167 HD
BRANCH  12  14
HETATM   14  C4  UNL     1      13.810  36.137  19.835  1.00  0.00     0.033 A 
HETATM   15  C5  UNL     1      15.017  36.844  19.852  1.00  0.00     0.029 A 
HETATM   16  C6  UNL     1      16.242  36.183  19.992  1.00  0.00     0.002 A 
HETATM   17  C7  UNL     1      16.282  34.797  20.113  1.00  0.00     0.000 A 
HETATM   18  C8  UNL     1      15.094  34.072  20.093  1.00  0.00     0.002 A 
HETATM   19  C9  UNL     1      13.872  34.737  19.954  1.00  0.00     0.029 A 
ENDBRANCH  12  14
ENDBRANCH   2  12
BRANCH   1  20
HETATM   20  C1  UNL     1      10.567  35.752  17.647  1.00  0.00     0.257 C 
HETATM   21  N1  UNL     1       9.456  35.860  16.863  1.00  0.00    -0.366 N 
HETATM   22  H1  UNL     1       9.547  35.770  15.863  1.00  0.00     0.159 HD
HETATM   23  H2  UNL     1       8.544  36.025  17.281  1.00  0.00     0.159 HD
HETATM   24  O1  UNL     1      11.672  35.551  17.150  1.00  0.00    -0.268 OA
ENDBRANCH   1  20
BRANCH   6  25
HETATM   25  N5  UNL     1       8.903  36.024  23.447  1.00  0.00    -0.287 NA
HETATM   26  H9  UNL     1       9.764  36.581  23.457  1.00  0.00     0.125 HD
HETATM   27  H10 UNL     1       8.160  36.446  23.995  1.00  0.00     0.125 HD
ENDBRANCH   6  25
BRANCH   8  28
HETATM   28  C13 UNL     1       5.769  34.468  19.912  1.00  0.00     0.036 A 
HETATM   29  C14 UNL     1       5.519  33.945  18.519  1.00  0.00     0.011 A 
HETATM   30  C15 UNL     1       5.490  33.002  19.691  1.00  0.00     0.011 A 
ENDBRANCH   8  28
TORSDOF 5
ENDMDL
MODEL 6
REMARK minimizedAffinity -6.9115696
REMARK  5 active torsions:
REMARK  status: ('A' for Active; 'I' for Inactive)
REMARK       I    between atoms: N1_1  and  C1_2 
REMARK    1  A    between atoms: C1_2  and  C2_4 
REMARK    2  A    between atoms: C3_5  and  N2_6 
REMARK    3  A    between atoms: N2_6  and  C4_7 
REMARK    4  A    between atoms: C10_16  and  N5_17 
REMARK    5  A    between atoms: C12_19  and  C13_20 
ROOT
HETATM    1  C2  UNL     1      13.739  35.193  17.176  1.00  0.00     0.122 A 
HETATM    2  C3  UNL     1      14.631  34.530  18.068  1.00  0.00     0.140 A 
HETATM    3  N3  UNL     1      13.999  34.094  19.159  1.00  0.00    -0.275 N 
ATOM      4  H3  UNL     1      14.405  33.606  19.957  1.00  0.00     0.189 HD
HETATM    5  N4  UNL     1      12.701  34.439  18.981  1.00  0.00    -0.226 N 
HETATM    6  C10 UNL     1      11.628  34.197  19.877  1.00  0.00     0.104 A 
HETATM    7  C11 UNL     1      10.409  34.659  19.556  1.00  0.00     0.069 A 
HETATM    8  C12 UNL     1      10.292  35.375  18.253  1.00  0.00     0.018 A 
HETATM    9  N6  UNL     1      11.265  35.600  17.419  1.00  0.00    -0.343 N 
ATOM     10  H6  UNL     1      11.118  36.097  16.540  1.00  0.00     0.167 HD
HETATM   11  C16 UNL     1      12.499  35.129  17.788  1.00  0.00     0.148 A 
ENDROOT
BRANCH   2  12
HETATM   12  N2  UNL     1      15.955  34.412  17.782  1.00  0.00    -0.341 N 
HETATM   13  H3  UNL     1      16.198  33.697  17.093  1.00  0.00     0.167 HD
BRANCH  12  14
HETATM   14  C4  UNL     1      17.101  35.060  18.289  1.00  0.00     0.033 A 
HETATM   15  C5  UNL     1      17.081  35.953  19.365  1.00  0.00     0.029 A 
HETATM   16  C6  UNL     1      18.252  36.576  19.812  1.00  0.00     0.002 A 
HETATM   17  C7  UNL     1      19.467  36.318  19.184  1.00  0.00     0.000 A 
HETATM   18  C8  UNL     1      19.510  35.437  18.108  1.00  0.00     0.002 A 
HETATM   19  C9  UNL     1      18.337  34.817  17.666  1.00  0.00     0.029 A 
ENDBRANCH  12  14
ENDBRANCH   2  12
BRANCH   1  20
HETATM   20  C1  UNL     1      14.065  35.806  15.905  1.00  0.00     0.257 C 
HETATM   21  N1  UNL     1      13.065  36.511  15.304  1.00  0.00    -0.366 N 
HETATM   22  H1  UNL     1      13.239  36.954  14.415  1.00  0.00     0.159 HD
HETATM   23  H2  UNL     1      12.151  36.585  15.742  1.00  0.00     0.159 HD
HETATM   24  O1  UNL     1      15.173  35.709  15.382  1.00  0.00    -0.268 OA
ENDBRANCH   1  20
BRANCH   6  25
HETATM   25  N5  UNL     1      11.902  33.503  21.052  1.00  0.00    -0.287 NA
HETATM   26  H9  UNL     1      12.912  33.476  21.227  1.00  0.00     0.125 HD
HETATM   27  H10 UNL     1      11.376  33.829  21.858  1.00  0.00     0.125 HD
ENDBRANCH   6  25
BRANCH   8  28
HETATM   28  C13 UNL     1       8.960  35.894  17.834  1.00  0.00     0.036 A 
HETATM   29  C14 UNL     1       7.722  35.733  18.681  1.00  0.00     0.011 A 
HETATM   30  C15 UNL     1       8.315  37.099  18.472  1.00  0.00     0.011 A 
ENDBRANCH   8  28
TORSDOF 5
ENDMDL
MODEL 7
REMARK minimizedAffinity -6.79079199
REMARK  5 active torsions:
REMARK  status: ('A' for Active; 'I' for Inactive)
REMARK       I    between atoms: N1_1  and  C1_2 
REMARK    1  A    between atoms: C1_2  and  C2_4 
REMARK    2  A    between atoms: C3_5  and  N2_6 
REMARK    3  A    between atoms: N2_6  and  C4_7 
REMARK    4  A    between atoms: C10_16  and  N5_17 
REMARK    5  A    between atoms: C12_19  and  C13_20 
ROOT
HETATM    1  C2  UNL     1      12.983  58.097   0.345  1.00  0.00     0.122 A 
HETATM    2  C3  UNL     1      13.588  56.936   0.910  1.00  0.00     0.140 A 
HETATM    3  N3  UNL     1      13.244  55.833   0.243  1.00  0.00    -0.275 N 
ATOM      4  H3  UNL     1      13.523  54.873   0.448  1.00  0.00     0.189 HD
HETATM    5  N4  UNL     1      12.446  56.259  -0.766  1.00  0.00    -0.226 N 
HETATM    6  C10 UNL     1      11.821  55.452  -1.751  1.00  0.00     0.104 A 
HETATM    7  C11 UNL     1      11.017  56.046  -2.649  1.00  0.00     0.069 A 
HETATM    8  C12 UNL     1      10.876  57.526  -2.536  1.00  0.00     0.018 A 
HETATM    9  N6  UNL     1      11.447  58.279  -1.642  1.00  0.00    -0.343 N 
ATOM     10  H6  UNL     1      11.308  59.289  -1.619  1.00  0.00     0.167 HD
HETATM   11  C16 UNL     1      12.246  57.636  -0.731  1.00  0.00     0.148 A 
ENDROOT
BRANCH   2  12
HETATM   12  N2  UNL     1      14.388  57.019   2.005  1.00  0.00    -0.341 N 
HETATM   13  H3  UNL     1      14.899  57.898   2.116  1.00  0.00     0.167 HD
BRANCH  12  14
HETATM   14  C4  UNL     1      14.706  56.099   3.026  1.00  0.00     0.033 A 
HETATM   15  C5  UNL     1      16.005  55.663   3.308  1.00  0.00     0.029 A 
HETATM   16  C6  UNL     1      16.253  54.735   4.326  1.00  0.00     0.002 A 
HETATM   17  C7  UNL     1      15.202  54.221   5.078  1.00  0.00     0.000 A 
HETATM   18  C8  UNL     1      13.900  54.636   4.812  1.00  0.00     0.002 A 
HETATM   19  C9  UNL     1      13.658  55.564   3.794  1.00  0.00     0.029 A 
ENDBRANCH  12  14
ENDBRANCH   2  12
BRANCH   1  20
HETATM   20  C1  UNL     1      13.114  59.464   0.807  1.00  0.00     0.257 C 
HETATM   21  N1  UNL     1      12.139  60.328   0.404  1.00  0.00    -0.366 N 
HETATM   22  H1  UNL     1      12.184  61.293   0.695  1.00  0.00     0.159 HD
HETATM   23  H2  UNL     1      11.377  60.008  -0.187  1.00  0.00     0.159 HD
HETATM   24  O1  UNL     1      14.039  59.843   1.520  1.00  0.00    -0.268 OA
ENDBRANCH   1  20
BRANCH   6  25
HETATM   25  N5  UNL     1      12.064  54.082  -1.726  1.00  0.00    -0.287 NA
HETATM   26  H9  UNL     1      12.476  53.806  -0.828  1.00  0.00     0.125 HD
HETATM   27  H10 UNL     1      11.260  53.514  -1.975  1.00  0.00     0.125 HD
ENDBRANCH   6  25
BRANCH   8  28
HETATM   28  C13 UNL     1      10.012  58.243  -3.516  1.00  0.00     0.036 A 
HETATM   29  C14 UNL     1      10.500  58.646  -4.886  1.00  0.00     0.011 A 
HETATM   30  C15 UNL     1       9.449  57.579  -4.748  1.00  0.00     0.011 A 
ENDBRANCH   8  28
TORSDOF 5
ENDMDL
MODEL 8
REMARK minimizedAffinity -6.75779772
REMARK  5 active torsions:
REMARK  status: ('A' for Active; 'I' for Inactive)
REMARK       I    between atoms: N1_1  and  C1_2 
REMARK    1  A    between atoms: C1_2  and  C2_4 
REMARK    2  A    between atoms: C3_5  and  N2_6 
REMARK    3  A    between atoms: N2_6  and  C4_7 
REMARK    4  A    between atoms: C10_16  and  N5_17 
REMARK    5  A    between atoms: C12_19  and  C13_20 
ROOT
HETATM    1  C2  UNL     1      12.707  35.937  19.354  1.00  0.00     0.122 A 
HETATM    2  C3  UNL     1      11.650  35.333  18.613  1.00  0.00     0.140 A 
HETATM    3  N3  UNL     1      11.763  35.585  17.307  1.00  0.00    -0.275 N 
ATOM      4  H3  UNL     1      11.132  35.287  16.563  1.00  0.00     0.189 HD
HETATM    5  N4  UNL     1      12.893  36.321  17.181  1.00  0.00    -0.226 N 
HETATM    6  C10 UNL     1      13.436  36.841  15.979  1.00  0.00     0.104 A 
HETATM    7  C11 UNL     1      14.544  37.598  16.051  1.00  0.00     0.069 A 
HETATM    8  C12 UNL     1      15.120  37.802  17.412  1.00  0.00     0.018 A 
HETATM    9  N6  UNL     1      14.635  37.328  18.522  1.00  0.00    -0.343 N 
ATOM     10  H6  UNL     1      15.079  37.505  19.423  1.00  0.00     0.167 HD
HETATM   11  C16 UNL     1      13.494  36.575  18.411  1.00  0.00     0.148 A 
ENDROOT
BRANCH   2  12
HETATM   12  N2  UNL     1      10.673  34.619  19.232  1.00  0.00    -0.341 N 
HETATM   13  H3  UNL     1      10.828  33.610  19.288  1.00  0.00     0.167 HD
BRANCH  12  14
HETATM   14  C4  UNL     1       9.430  34.989  19.788  1.00  0.00     0.033 A 
HETATM   15  C5  UNL     1       8.496  35.804  19.141  1.00  0.00     0.029 A 
HETATM   16  C6  UNL     1       7.285  36.147  19.753  1.00  0.00     0.002 A 
HETATM   17  C7  UNL     1       6.990  35.683  21.032  1.00  0.00     0.000 A 
HETATM   18  C8  UNL     1       7.907  34.876  21.698  1.00  0.00     0.002 A 
HETATM   19  C9  UNL     1       9.115  34.535  21.081  1.00  0.00     0.029 A 
ENDBRANCH  12  14
ENDBRANCH   2  12
BRANCH   1  20
HETATM   20  C1  UNL     1      12.908  35.892  20.788  1.00  0.00     0.257 C 
HETATM   21  N1  UNL     1      12.302  36.877  21.510  1.00  0.00    -0.366 N 
HETATM   22  H1  UNL     1      12.413  36.894  22.512  1.00  0.00     0.159 HD
HETATM   23  H2  UNL     1      11.749  37.591  21.044  1.00  0.00     0.159 HD
HETATM   24  O1  UNL     1      13.580  35.025  21.342  1.00  0.00    -0.268 OA
ENDBRANCH   1  20
BRANCH   6  25
HETATM   25  N5  UNL     1      12.782  36.549  14.785  1.00  0.00    -0.287 NA
HETATM   26  H9  UNL     1      11.838  36.195  14.970  1.00  0.00     0.125 HD
HETATM   27  H10 UNL     1      12.787  37.312  14.114  1.00  0.00     0.125 HD
ENDBRANCH   6  25
BRANCH   8  28
HETATM   28  C13 UNL     1      16.359  38.617  17.554  1.00  0.00     0.036 A 
HETATM   29  C14 UNL     1      17.740  38.023  17.426  1.00  0.00     0.011 A 
HETATM   30  C15 UNL     1      17.236  38.981  16.381  1.00  0.00     0.011 A 
ENDBRANCH   8  28
TORSDOF 5
ENDMDL
MODEL 9
REMARK minimizedAffinity -6.69083977
REMARK  5 active torsions:
REMARK  status: ('A' for Active; 'I' for Inactive)
REMARK       I    between atoms: N1_1  and  C1_2 
REMARK    1  A    between atoms: C1_2  and  C2_4 
REMARK    2  A    between atoms: C3_5  and  N2_6 
REMARK    3  A    between atoms: N2_6  and  C4_7 
REMARK    4  A    between atoms: C10_16  and  N5_17 
REMARK    5  A    between atoms: C12_19  and  C13_20 
ROOT
HETATM    1  C2  UNL     1       1.828  66.234  -3.246  1.00  0.00     0.122 A 
HETATM    2  C3  UNL     1       2.748  65.156  -3.399  1.00  0.00     0.140 A 
HETATM    3  N3  UNL     1       2.150  63.975  -3.234  1.00  0.00    -0.275 N 
ATOM      4  H3  UNL     1       2.581  63.052  -3.274  1.00  0.00     0.189 HD
HETATM    5  N4  UNL     1       0.847  64.264  -3.002  1.00  0.00    -0.226 N 
HETATM    6  C10 UNL     1      -0.197  63.336  -2.757  1.00  0.00     0.104 A 
HETATM    7  C11 UNL     1      -1.427  63.809  -2.494  1.00  0.00     0.069 A 
HETATM    8  C12 UNL     1      -1.584  65.292  -2.509  1.00  0.00     0.018 A 
HETATM    9  N6  UNL     1      -0.637  66.155  -2.737  1.00  0.00    -0.343 N 
ATOM     10  H6  UNL     1      -0.812  67.160  -2.733  1.00  0.00     0.167 HD
HETATM   11  C16 UNL     1       0.608  65.636  -2.984  1.00  0.00     0.148 A 
ENDROOT
BRANCH   2  12
HETATM   12  N2  UNL     1       4.062  65.383  -3.662  1.00  0.00    -0.341 N 
HETATM   13  H3  UNL     1       4.616  65.742  -2.882  1.00  0.00     0.167 HD
BRANCH  12  14
HETATM   14  C4  UNL     1       4.833  65.266  -4.838  1.00  0.00     0.033 A 
HETATM   15  C5  UNL     1       4.442  65.776  -6.082  1.00  0.00     0.029 A 
HETATM   16  C6  UNL     1       5.246  65.614  -7.216  1.00  0.00     0.002 A 
HETATM   17  C7  UNL     1       6.456  64.932  -7.127  1.00  0.00     0.000 A 
HETATM   18  C8  UNL     1       6.862  64.412  -5.902  1.00  0.00     0.002 A 
HETATM   19  C9  UNL     1       6.056  64.577  -4.771  1.00  0.00     0.029 A 
ENDBRANCH  12  14
ENDBRANCH   2  12
BRANCH   1  20
HETATM   20  C1  UNL     1       2.115  67.651  -3.342  1.00  0.00     0.257 C 
HETATM   21  N1  UNL     1       1.698  68.419  -2.296  1.00  0.00    -0.366 N 
HETATM   22  H1  UNL     1       1.870  69.413  -2.314  1.00  0.00     0.159 HD
HETATM   23  H2  UNL     1       1.214  67.998  -1.507  1.00  0.00     0.159 HD
HETATM   24  O1  UNL     1       2.699  68.151  -4.300  1.00  0.00    -0.268 OA
ENDBRANCH   1  20
BRANCH   6  25
HETATM   25  N5  UNL     1       0.113  61.979  -2.789  1.00  0.00    -0.287 NA
HETATM   26  H9  UNL     1       1.128  61.841  -2.741  1.00  0.00     0.125 HD
HETATM   27  H10 UNL     1      -0.388  61.424  -2.101  1.00  0.00     0.125 HD
ENDBRANCH   6  25
BRANCH   8  28
HETATM   28  C13 UNL     1      -2.929  65.876  -2.243  1.00  0.00     0.036 A 
HETATM   29  C14 UNL     1      -4.078  65.742  -3.211  1.00  0.00     0.011 A 
HETATM   30  C15 UNL     1      -4.128  65.034  -1.885  1.00  0.00     0.011 A 
ENDBRANCH   8  28
TORSDOF 5
ENDMDL
