MODEL 1
REMARK minimizedAffinity -9.56054497
REMARK  5 active torsions:
REMARK  status: ('A' for Active; 'I' for Inactive)
REMARK    1  A    between atoms: C2_2  and  S1_3 
REMARK    2  A    between atoms: S1_3  and  C3_6 
REMARK    3  A    between atoms: C10_13  and  C11_14 
REMARK    4  A    between atoms: C14_18  and  C15_19 
REMARK    5  A    between atoms: C15_19  and  N2_20 
ROOT
HETATM    1  C11 UNL     1      -0.717   5.643  12.078  1.00  0.00     0.042 A 
HETATM    2  N1  UNL     1      -0.094   5.605  10.853  1.00  0.00    -0.359 N 
HETATM    3  C12 UNL     1       1.174   6.096  10.975  1.00  0.00     0.016 A 
HETATM    4  C13 UNL     1       1.375   6.463  12.288  1.00  0.00    -0.025 A 
HETATM    5  C14 UNL     1       0.169   6.182  13.004  1.00  0.00     0.005 A 
HETATM    6  C20 UNL     1       2.676   7.016  12.767  1.00  0.00     0.041 C 
HETATM    7  C21 UNL     1       3.552   7.481  11.588  1.00  0.00     0.005 C 
HETATM    8  C22 UNL     1       3.561   6.461  10.434  1.00  0.00     0.006 C 
HETATM    9  C23 UNL     1       2.152   6.222   9.862  1.00  0.00     0.057 C 
HETATM   10  H10 UNL     1      -0.505   5.253   9.998  1.00  0.00     0.166 HD
ENDROOT
BRANCH   1  11
HETATM   11  C10 UNL     1      -2.059   5.209  12.141  1.00  0.00     0.048 C 
HETATM   12  C9  UNL     1      -2.459   3.967  11.833  1.00  0.00     0.047 A 
HETATM   13  C7  UNL     1      -3.848   3.494  11.937  1.00  0.00     0.008 A 
HETATM   14  C24 UNL     1      -1.641   2.805  11.316  1.00  0.00     0.257 A 
HETATM   15  C6  UNL     1      -3.839   2.159  11.520  1.00  0.00     0.046 A 
HETATM   16  C8  UNL     1      -5.026   4.097  12.339  1.00  0.00     0.038 A 
HETATM   17  C5  UNL     1      -4.981   1.382  11.479  1.00  0.00     0.032 A 
HETATM   18  N3  UNL     1      -2.554   1.768  11.165  1.00  0.00    -0.322 N 
HETATM   19  C4  UNL     1      -6.179   1.977  11.880  1.00  0.00     0.026 A 
HETATM   20  C3  UNL     1      -6.191   3.318  12.319  1.00  0.00     0.060 A 
HETATM   21  H29 UNL     1      -2.281   0.862  10.818  1.00  0.00     0.169 HD
HETATM   22  O4  UNL     1      -0.455   2.745  11.063  1.00  0.00    -0.267 OA
BRANCH  20  23
HETATM   23  S1  UNL     1      -7.740   4.053  12.799  1.00  0.00     0.175 S 
HETATM   24  O1  UNL     1      -7.986   5.175  11.911  1.00  0.00    -0.223 OA
HETATM   25  O2  UNL     1      -8.700   2.970  12.897  1.00  0.00    -0.223 OA
BRANCH  23  26
HETATM   26  C2  UNL     1      -7.451   4.680  14.440  1.00  0.00     0.141 C 
HETATM   27  C1  UNL     1      -7.313   6.187  14.499  1.00  0.00     0.021 C 
ENDBRANCH  23  26
ENDBRANCH  20  23
ENDBRANCH   1  11
BRANCH   5  28
HETATM   28  C15 UNL     1      -0.075   6.416  14.468  1.00  0.00     0.314 C 
BRANCH  28  29
HETATM   29  N2  UNL     1      -0.443   7.821  14.724  1.00  0.00     0.096 N 
HETATM   30  C16 UNL     1       0.239   8.354  15.926  1.00  0.00     0.299 C 
HETATM   31  C17 UNL     1      -0.531   9.531  16.544  1.00  0.00     0.198 C 
HETATM   32  O3  UNL     1      -1.831   9.155  17.022  1.00  0.00    -0.388 OA
HETATM   33  C18 UNL     1      -2.395   8.052  16.300  1.00  0.00     0.198 C 
HETATM   34  C19 UNL     1      -1.908   7.977  14.846  1.00  0.00     0.299 C 
ENDBRANCH  28  29
ENDBRANCH   5  28
TORSDOF 5
ENDMDL
MODEL 2
REMARK minimizedAffinity -9.13721275
REMARK  5 active torsions:
REMARK  status: ('A' for Active; 'I' for Inactive)
REMARK    1  A    between atoms: C2_2  and  S1_3 
REMARK    2  A    between atoms: S1_3  and  C3_6 
REMARK    3  A    between atoms: C10_13  and  C11_14 
REMARK    4  A    between atoms: C14_18  and  C15_19 
REMARK    5  A    between atoms: C15_19  and  N2_20 
ROOT
HETATM    1  C11 UNL     1      -0.383   6.222  11.944  1.00  0.00     0.042 A 
HETATM    2  N1  UNL     1      -0.168   6.284  10.588  1.00  0.00    -0.359 N 
HETATM    3  C12 UNL     1       1.160   6.493  10.349  1.00  0.00     0.016 A 
HETATM    4  C13 UNL     1       1.812   6.576  11.561  1.00  0.00    -0.025 A 
HETATM    5  C14 UNL     1       0.834   6.409  12.590  1.00  0.00     0.005 A 
HETATM    6  C20 UNL     1       3.289   6.776  11.654  1.00  0.00     0.041 C 
HETATM    7  C21 UNL     1       3.871   7.266  10.314  1.00  0.00     0.005 C 
HETATM    8  C22 UNL     1       3.304   6.485   9.114  1.00  0.00     0.006 C 
HETATM    9  C23 UNL     1       1.775   6.625   9.002  1.00  0.00     0.057 C 
HETATM   10  H10 UNL     1      -0.879   6.175   9.878  1.00  0.00     0.166 HD
ENDROOT
BRANCH   1  11
HETATM   11  C10 UNL     1      -1.713   6.049  12.387  1.00  0.00     0.048 C 
HETATM   12  C9  UNL     1      -2.463   4.976  12.099  1.00  0.00     0.047 A 
HETATM   13  C7  UNL     1      -3.833   4.768  12.592  1.00  0.00     0.008 A 
HETATM   14  C24 UNL     1      -2.124   3.784  11.234  1.00  0.00     0.257 A 
HETATM   15  C6  UNL     1      -4.258   3.545  12.060  1.00  0.00     0.046 A 
HETATM   16  C8  UNL     1      -4.670   5.509  13.406  1.00  0.00     0.038 A 
HETATM   17  C5  UNL     1      -5.512   3.020  12.306  1.00  0.00     0.032 A 
HETATM   18  N3  UNL     1      -3.258   2.981  11.277  1.00  0.00    -0.322 N 
HETATM   19  C4  UNL     1      -6.369   3.757  13.126  1.00  0.00     0.026 A 
HETATM   20  C3  UNL     1      -5.940   4.982  13.679  1.00  0.00     0.060 A 
HETATM   21  H29 UNL     1      -3.318   2.111  10.772  1.00  0.00     0.169 HD
HETATM   22  O4  UNL     1      -1.110   3.541  10.611  1.00  0.00    -0.267 OA
BRANCH  20  23
HETATM   23  S1  UNL     1      -7.067   5.909  14.699  1.00  0.00     0.175 S 
HETATM   24  O1  UNL     1      -7.486   5.043  15.786  1.00  0.00    -0.223 OA
HETATM   25  O2  UNL     1      -6.425   7.179  14.979  1.00  0.00    -0.223 OA
BRANCH  23  26
HETATM   26  C2  UNL     1      -8.470   6.223  13.650  1.00  0.00     0.141 C 
HETATM   27  C1  UNL     1      -8.308   5.685  12.243  1.00  0.00     0.021 C 
ENDBRANCH  23  26
ENDBRANCH  20  23
ENDBRANCH   1  11
BRANCH   5  28
HETATM   28  C15 UNL     1       1.087   6.422  14.071  1.00  0.00     0.314 C 
BRANCH  28  29
HETATM   29  N2  UNL     1       1.477   7.768  14.529  1.00  0.00     0.096 N 
HETATM   30  C16 UNL     1       2.297   7.710  15.761  1.00  0.00     0.299 C 
HETATM   31  C17 UNL     1       2.215   9.017  16.563  1.00  0.00     0.198 C 
HETATM   32  O3  UNL     1       0.891   9.293  17.043  1.00  0.00    -0.388 OA
HETATM   33  C18 UNL     1      -0.133   8.740  16.205  1.00  0.00     0.198 C 
HETATM   34  C19 UNL     1       0.293   8.629  14.734  1.00  0.00     0.299 C 
ENDBRANCH  28  29
ENDBRANCH   5  28
TORSDOF 5
ENDMDL
MODEL 3
REMARK minimizedAffinity -9.07342815
REMARK  5 active torsions:
REMARK  status: ('A' for Active; 'I' for Inactive)
REMARK    1  A    between atoms: C2_2  and  S1_3 
REMARK    2  A    between atoms: S1_3  and  C3_6 
REMARK    3  A    between atoms: C10_13  and  C11_14 
REMARK    4  A    between atoms: C14_18  and  C15_19 
REMARK    5  A    between atoms: C15_19  and  N2_20 
ROOT
HETATM    1  C11 UNL     1      -3.185   4.362  11.656  1.00  0.00     0.042 A 
HETATM    2  N1  UNL     1      -3.373   3.042  11.324  1.00  0.00    -0.359 N 
HETATM    3  C12 UNL     1      -4.614   2.645  11.729  1.00  0.00     0.016 A 
HETATM    4  C13 UNL     1      -5.236   3.714  12.339  1.00  0.00    -0.025 A 
HETATM    5  C14 UNL     1      -4.328   4.819  12.302  1.00  0.00     0.005 A 
HETATM    6  C20 UNL     1      -6.626   3.622  12.875  1.00  0.00     0.041 C 
HETATM    7  C21 UNL     1      -7.071   2.155  13.023  1.00  0.00     0.005 C 
HETATM    8  C22 UNL     1      -6.694   1.307  11.794  1.00  0.00     0.006 C 
HETATM    9  C23 UNL     1      -5.175   1.279  11.552  1.00  0.00     0.057 C 
HETATM   10  H10 UNL     1      -2.703   2.460  10.839  1.00  0.00     0.166 HD
ENDROOT
BRANCH   1  11
HETATM   11  C10 UNL     1      -1.934   4.942  11.348  1.00  0.00     0.048 C 
HETATM   12  C9  UNL     1      -1.043   5.332  12.270  1.00  0.00     0.047 A 
HETATM   13  C7  UNL     1       0.279   5.895  11.958  1.00  0.00     0.008 A 
HETATM   14  C24 UNL     1      -1.163   5.310  13.777  1.00  0.00     0.257 A 
HETATM   15  C6  UNL     1       0.885   6.175  13.188  1.00  0.00     0.046 A 
HETATM   16  C8  UNL     1       0.939   6.162  10.772  1.00  0.00     0.038 A 
HETATM   17  C5  UNL     1       2.148   6.726  13.289  1.00  0.00     0.032 A 
HETATM   18  N3  UNL     1       0.042   5.828  14.236  1.00  0.00    -0.322 N 
HETATM   19  C4  UNL     1       2.827   7.001  12.100  1.00  0.00     0.026 A 
HETATM   20  C3  UNL     1       2.228   6.706  10.857  1.00  0.00     0.060 A 
HETATM   21  H29 UNL     1       0.236   5.942  15.218  1.00  0.00     0.169 HD
HETATM   22  O4  UNL     1      -2.086   4.943  14.476  1.00  0.00    -0.267 OA
BRANCH  20  23
HETATM   23  S1  UNL     1       3.111   7.093   9.360  1.00  0.00     0.175 S 
HETATM   24  O1  UNL     1       4.093   8.112   9.683  1.00  0.00    -0.223 OA
HETATM   25  O2  UNL     1       3.529   5.828   8.786  1.00  0.00    -0.223 OA
BRANCH  23  26
HETATM   26  C2  UNL     1       1.884   7.806   8.285  1.00  0.00     0.141 C 
HETATM   27  C1  UNL     1       1.934   7.268   6.869  1.00  0.00     0.021 C 
ENDBRANCH  23  26
ENDBRANCH  20  23
ENDBRANCH   1  11
BRANCH   5  28
HETATM   28  C15 UNL     1      -4.579   6.197  12.846  1.00  0.00     0.314 C 
BRANCH  28  29
HETATM   29  N2  UNL     1      -5.519   6.154  13.981  1.00  0.00     0.096 N 
HETATM   30  C16 UNL     1      -6.802   6.818  13.654  1.00  0.00     0.299 C 
HETATM   31  C17 UNL     1      -7.529   7.306  14.915  1.00  0.00     0.198 C 
HETATM   32  O3  UNL     1      -6.793   8.310  15.628  1.00  0.00    -0.388 OA
HETATM   33  C18 UNL     1      -5.374   8.193  15.454  1.00  0.00     0.198 C 
HETATM   34  C19 UNL     1      -4.921   6.749  15.195  1.00  0.00     0.299 C 
ENDBRANCH  28  29
ENDBRANCH   5  28
TORSDOF 5
ENDMDL
MODEL 4
REMARK minimizedAffinity -8.91440582
REMARK  5 active torsions:
REMARK  status: ('A' for Active; 'I' for Inactive)
REMARK    1  A    between atoms: C2_2  and  S1_3 
REMARK    2  A    between atoms: S1_3  and  C3_6 
REMARK    3  A    between atoms: C10_13  and  C11_14 
REMARK    4  A    between atoms: C14_18  and  C15_19 
REMARK    5  A    between atoms: C15_19  and  N2_20 
ROOT
HETATM    1  C11 UNL     1      -6.748   4.901  12.863  1.00  0.00     0.042 A 
HETATM    2  N1  UNL     1      -6.925   3.721  12.179  1.00  0.00    -0.359 N 
HETATM    3  C12 UNL     1      -5.723   3.085  12.056  1.00  0.00     0.016 A 
HETATM    4  C13 UNL     1      -4.755   3.862  12.657  1.00  0.00    -0.025 A 
HETATM    5  C14 UNL     1      -5.399   5.030  13.174  1.00  0.00     0.005 A 
HETATM    6  C20 UNL     1      -3.325   3.437  12.722  1.00  0.00     0.041 C 
HETATM    7  C21 UNL     1      -3.036   2.301  11.723  1.00  0.00     0.005 C 
HETATM    8  C22 UNL     1      -4.131   1.218  11.742  1.00  0.00     0.006 C 
HETATM    9  C23 UNL     1      -5.512   1.784  11.367  1.00  0.00     0.057 C 
HETATM   10  H10 UNL     1      -7.809   3.371  11.837  1.00  0.00     0.166 HD
ENDROOT
BRANCH   1  11
HETATM   11  C10 UNL     1      -7.882   5.720  13.055  1.00  0.00     0.048 C 
HETATM   12  C9  UNL     1      -8.245   6.229  14.241  1.00  0.00     0.047 A 
HETATM   13  C7  UNL     1      -9.398   7.118  14.442  1.00  0.00     0.008 A 
HETATM   14  C24 UNL     1      -7.611   6.023  15.598  1.00  0.00     0.257 A 
HETATM   15  C6  UNL     1      -9.432   7.413  15.810  1.00  0.00     0.046 A 
HETATM   16  C8  UNL     1     -10.347   7.648  13.586  1.00  0.00     0.038 A 
HETATM   17  C5  UNL     1     -10.395   8.226  16.375  1.00  0.00     0.032 A 
HETATM   18  N3  UNL     1      -8.389   6.776  16.470  1.00  0.00    -0.322 N 
HETATM   19  C4  UNL     1     -11.361   8.767  15.523  1.00  0.00     0.026 A 
HETATM   20  C3  UNL     1     -11.322   8.488  14.140  1.00  0.00     0.060 A 
HETATM   21  H29 UNL     1      -8.200   6.813  17.460  1.00  0.00     0.169 HD
HETATM   22  O4  UNL     1      -6.648   5.352  15.910  1.00  0.00    -0.267 OA
BRANCH  20  23
HETATM   23  S1  UNL     1     -12.583   9.174  13.087  1.00  0.00     0.175 S 
HETATM   24  O1  UNL     1     -13.245  10.232  13.829  1.00  0.00    -0.223 OA
HETATM   25  O2  UNL     1     -11.951   9.457  11.813  1.00  0.00    -0.223 OA
BRANCH  23  26
HETATM   26  C2  UNL     1     -13.739   7.842  12.842  1.00  0.00     0.141 C 
HETATM   27  C1  UNL     1     -13.855   6.913  14.033  1.00  0.00     0.021 C 
ENDBRANCH  23  26
ENDBRANCH  20  23
ENDBRANCH   1  11
BRANCH   5  28
HETATM   28  C15 UNL     1      -4.738   6.158  13.915  1.00  0.00     0.314 C 
BRANCH  28  29
HETATM   29  N2  UNL     1      -4.158   7.137  12.977  1.00  0.00     0.096 N 
HETATM   30  C16 UNL     1      -2.677   7.103  12.999  1.00  0.00     0.299 C 
HETATM   31  C17 UNL     1      -2.069   8.433  12.530  1.00  0.00     0.198 C 
HETATM   32  O3  UNL     1      -2.402   9.531  13.392  1.00  0.00    -0.388 OA
HETATM   33  C18 UNL     1      -3.659   9.356  14.059  1.00  0.00     0.198 C 
HETATM   34  C19 UNL     1      -4.650   8.502  13.256  1.00  0.00     0.299 C 
ENDBRANCH  28  29
ENDBRANCH   5  28
TORSDOF 5
ENDMDL
MODEL 5
REMARK minimizedAffinity -8.86147594
REMARK  5 active torsions:
REMARK  status: ('A' for Active; 'I' for Inactive)
REMARK    1  A    between atoms: C2_2  and  S1_3 
REMARK    2  A    between atoms: S1_3  and  C3_6 
REMARK    3  A    between atoms: C10_13  and  C11_14 
REMARK    4  A    between atoms: C14_18  and  C15_19 
REMARK    5  A    between atoms: C15_19  and  N2_20 
ROOT
HETATM    1  C11 UNL     1      -0.679   6.813  13.178  1.00  0.00     0.042 A 
HETATM    2  N1  UNL     1       0.079   6.564  14.298  1.00  0.00    -0.359 N 
HETATM    3  C12 UNL     1       1.260   7.243  14.205  1.00  0.00     0.016 A 
HETATM    4  C13 UNL     1       1.273   7.932  13.011  1.00  0.00    -0.025 A 
HETATM    5  C14 UNL     1       0.039   7.661  12.342  1.00  0.00     0.005 A 
HETATM    6  C20 UNL     1       2.419   8.802  12.611  1.00  0.00     0.041 C 
HETATM    7  C21 UNL     1       3.669   8.504  13.460  1.00  0.00     0.005 C 
HETATM    8  C22 UNL     1       3.335   8.362  14.957  1.00  0.00     0.006 C 
HETATM    9  C23 UNL     1       2.343   7.215  15.223  1.00  0.00     0.057 C 
HETATM   10  H10 UNL     1      -0.202   5.984  15.077  1.00  0.00     0.166 HD
ENDROOT
BRANCH   1  11
HETATM   11  C10 UNL     1      -1.927   6.160  13.077  1.00  0.00     0.048 C 
HETATM   12  C9  UNL     1      -2.110   4.989  12.451  1.00  0.00     0.047 A 
HETATM   13  C7  UNL     1      -3.397   4.282  12.379  1.00  0.00     0.008 A 
HETATM   14  C24 UNL     1      -1.108   4.150  11.691  1.00  0.00     0.257 A 
HETATM   15  C6  UNL     1      -3.163   3.117  11.639  1.00  0.00     0.046 A 
HETATM   16  C8  UNL     1      -4.659   4.558  12.872  1.00  0.00     0.038 A 
HETATM   17  C5  UNL     1      -4.156   2.198  11.359  1.00  0.00     0.032 A 
HETATM   18  N3  UNL     1      -1.831   3.049  11.248  1.00  0.00    -0.322 N 
HETATM   19  C4  UNL     1      -5.436   2.464  11.849  1.00  0.00     0.026 A 
HETATM   20  C3  UNL     1      -5.675   3.628  12.610  1.00  0.00     0.060 A 
HETATM   21  H29 UNL     1      -1.410   2.319  10.696  1.00  0.00     0.169 HD
HETATM   22  O4  UNL     1       0.070   4.354  11.478  1.00  0.00    -0.267 OA
BRANCH  20  23
HETATM   23  S1  UNL     1      -7.325   3.949  13.199  1.00  0.00     0.175 S 
HETATM   24  O1  UNL     1      -8.107   2.745  12.987  1.00  0.00    -0.223 OA
HETATM   25  O2  UNL     1      -7.188   4.510  14.530  1.00  0.00    -0.223 OA
BRANCH  23  26
HETATM   26  C2  UNL     1      -7.945   5.227  12.126  1.00  0.00     0.141 C 
HETATM   27  C1  UNL     1      -9.054   6.053  12.745  1.00  0.00     0.021 C 
ENDBRANCH  23  26
ENDBRANCH  20  23
ENDBRANCH   1  11
BRANCH   5  28
HETATM   28  C15 UNL     1      -0.389   8.201  11.007  1.00  0.00     0.314 C 
BRANCH  28  29
HETATM   29  N2  UNL     1       0.077   7.331   9.911  1.00  0.00     0.096 N 
HETATM   30  C16 UNL     1       1.407   6.751  10.202  1.00  0.00     0.299 C 
HETATM   31  C17 UNL     1       2.153   6.360   8.917  1.00  0.00     0.198 C 
HETATM   32  O3  UNL     1       2.444   7.488   8.079  1.00  0.00    -0.388 OA
HETATM   33  C18 UNL     1       1.493   8.552   8.223  1.00  0.00     0.198 C 
HETATM   34  C19 UNL     1       0.096   8.056   8.623  1.00  0.00     0.299 C 
ENDBRANCH  28  29
ENDBRANCH   5  28
TORSDOF 5
ENDMDL
MODEL 6
REMARK minimizedAffinity -8.84337807
REMARK  5 active torsions:
REMARK  status: ('A' for Active; 'I' for Inactive)
REMARK    1  A    between atoms: C2_2  and  S1_3 
REMARK    2  A    between atoms: S1_3  and  C3_6 
REMARK    3  A    between atoms: C10_13  and  C11_14 
REMARK    4  A    between atoms: C14_18  and  C15_19 
REMARK    5  A    between atoms: C15_19  and  N2_20 
ROOT
HETATM    1  C11 UNL     1      -3.022   4.625  12.098  1.00  0.00     0.042 A 
HETATM    2  N1  UNL     1      -3.014   3.297  11.742  1.00  0.00    -0.359 N 
HETATM    3  C12 UNL     1      -4.276   2.790  11.862  1.00  0.00     0.016 A 
HETATM    4  C13 UNL     1      -5.109   3.794  12.307  1.00  0.00    -0.025 A 
HETATM    5  C14 UNL     1      -4.316   4.974  12.466  1.00  0.00     0.005 A 
HETATM    6  C20 UNL     1      -6.571   3.577  12.518  1.00  0.00     0.041 C 
HETATM    7  C21 UNL     1      -6.909   2.075  12.573  1.00  0.00     0.005 C 
HETATM    8  C22 UNL     1      -6.194   1.277  11.467  1.00  0.00     0.006 C 
HETATM    9  C23 UNL     1      -4.662   1.383  11.574  1.00  0.00     0.057 C 
HETATM   10  H10 UNL     1      -2.205   2.781  11.425  1.00  0.00     0.166 HD
ENDROOT
BRANCH   1  11
HETATM   11  C10 UNL     1      -1.789   5.314  12.075  1.00  0.00     0.048 C 
HETATM   12  C9  UNL     1      -1.121   5.689  13.175  1.00  0.00     0.047 A 
HETATM   13  C7  UNL     1       0.184   6.368  13.160  1.00  0.00     0.008 A 
HETATM   14  C24 UNL     1      -1.517   5.537  14.626  1.00  0.00     0.257 A 
HETATM   15  C6  UNL     1       0.525   6.589  14.499  1.00  0.00     0.046 A 
HETATM   16  C8  UNL     1       1.028   6.774  12.143  1.00  0.00     0.038 A 
HETATM   17  C5  UNL     1       1.696   7.217  14.877  1.00  0.00     0.032 A 
HETATM   18  N3  UNL     1      -0.466   6.100  15.341  1.00  0.00    -0.322 N 
HETATM   19  C4  UNL     1       2.559   7.634  13.861  1.00  0.00     0.026 A 
HETATM   20  C3  UNL     1       2.229   7.399  12.509  1.00  0.00     0.060 A 
HETATM   21  H29 UNL     1      -0.468   6.147  16.347  1.00  0.00     0.169 HD
HETATM   22  O4  UNL     1      -2.520   5.052  15.109  1.00  0.00    -0.267 OA
BRANCH  20  23
HETATM   23  S1  UNL     1       3.339   7.967  11.239  1.00  0.00     0.175 S 
HETATM   24  O1  UNL     1       2.579   8.071  10.008  1.00  0.00    -0.223 OA
HETATM   25  O2  UNL     1       4.027   9.126  11.777  1.00  0.00    -0.223 OA
BRANCH  23  26
HETATM   26  C2  UNL     1       4.531   6.656  11.063  1.00  0.00     0.141 C 
HETATM   27  C1  UNL     1       5.961   7.145  10.961  1.00  0.00     0.021 C 
ENDBRANCH  23  26
ENDBRANCH  20  23
ENDBRANCH   1  11
BRANCH   5  28
HETATM   28  C15 UNL     1      -4.801   6.318  12.929  1.00  0.00     0.314 C 
BRANCH  28  29
HETATM   29  N2  UNL     1      -5.739   6.182  14.059  1.00  0.00     0.096 N 
HETATM   30  C16 UNL     1      -7.101   6.636  13.696  1.00  0.00     0.299 C 
HETATM   31  C17 UNL     1      -7.908   7.061  14.931  1.00  0.00     0.198 C 
HETATM   32  O3  UNL     1      -7.337   8.190  15.608  1.00  0.00    -0.388 OA
HETATM   33  C18 UNL     1      -5.914   8.276  15.448  1.00  0.00     0.198 C 
HETATM   34  C19 UNL     1      -5.250   6.905  15.252  1.00  0.00     0.299 C 
ENDBRANCH  28  29
ENDBRANCH   5  28
TORSDOF 5
ENDMDL
MODEL 7
REMARK minimizedAffinity -8.67726612
REMARK  5 active torsions:
REMARK  status: ('A' for Active; 'I' for Inactive)
REMARK    1  A    between atoms: C2_2  and  S1_3 
REMARK    2  A    between atoms: S1_3  and  C3_6 
REMARK    3  A    between atoms: C10_13  and  C11_14 
REMARK    4  A    between atoms: C14_18  and  C15_19 
REMARK    5  A    between atoms: C15_19  and  N2_20 
ROOT
HETATM    1  C11 UNL     1      -3.014   6.722  13.256  1.00  0.00     0.042 A 
HETATM    2  N1  UNL     1      -3.608   7.926  13.552  1.00  0.00    -0.359 N 
HETATM    3  C12 UNL     1      -4.852   7.702  14.069  1.00  0.00     0.016 A 
HETATM    4  C13 UNL     1      -5.072   6.342  14.101  1.00  0.00    -0.025 A 
HETATM    5  C14 UNL     1      -3.903   5.703  13.579  1.00  0.00     0.005 A 
HETATM    6  C20 UNL     1      -6.335   5.755  14.640  1.00  0.00     0.041 C 
HETATM    7  C21 UNL     1      -7.442   6.820  14.747  1.00  0.00     0.005 C 
HETATM    8  C22 UNL     1      -6.923   8.140  15.349  1.00  0.00     0.006 C 
HETATM    9  C23 UNL     1      -5.801   8.763  14.499  1.00  0.00     0.057 C 
HETATM   10  H10 UNL     1      -3.184   8.835  13.423  1.00  0.00     0.166 HD
ENDROOT
BRANCH   1  11
HETATM   11  C10 UNL     1      -1.729   6.754  12.671  1.00  0.00     0.048 C 
HETATM   12  C9  UNL     1      -0.616   7.106  13.331  1.00  0.00     0.047 A 
HETATM   13  C7  UNL     1       0.731   7.101  12.742  1.00  0.00     0.008 A 
HETATM   14  C24 UNL     1      -0.467   7.584  14.757  1.00  0.00     0.257 A 
HETATM   15  C6  UNL     1       1.600   7.536  13.749  1.00  0.00     0.046 A 
HETATM   16  C8  UNL     1       1.217   6.770  11.490  1.00  0.00     0.038 A 
HETATM   17  C5  UNL     1       2.962   7.664  13.556  1.00  0.00     0.032 A 
HETATM   18  N3  UNL     1       0.895   7.810  14.915  1.00  0.00    -0.322 N 
HETATM   19  C4  UNL     1       3.467   7.335  12.296  1.00  0.00     0.026 A 
HETATM   20  C3  UNL     1       2.599   6.879  11.282  1.00  0.00     0.060 A 
HETATM   21  H29 UNL     1       1.285   8.151  15.779  1.00  0.00     0.169 HD
HETATM   22  O4  UNL     1      -1.315   7.759  15.609  1.00  0.00    -0.267 OA
BRANCH  20  23
HETATM   23  S1  UNL     1       3.273   6.491   9.680  1.00  0.00     0.175 S 
HETATM   24  O1  UNL     1       4.674   6.161   9.864  1.00  0.00    -0.223 OA
HETATM   25  O2  UNL     1       2.368   5.536   9.070  1.00  0.00    -0.223 OA
BRANCH  23  26
HETATM   26  C2  UNL     1       3.162   8.014   8.765  1.00  0.00     0.141 C 
HETATM   27  C1  UNL     1       2.310   7.910   7.516  1.00  0.00     0.021 C 
ENDBRANCH  23  26
ENDBRANCH  20  23
ENDBRANCH   1  11
BRANCH   5  28
HETATM   28  C15 UNL     1      -3.688   4.224  13.427  1.00  0.00     0.314 C 
BRANCH  28  29
HETATM   29  N2  UNL     1      -4.228   3.740  12.143  1.00  0.00     0.096 N 
HETATM   30  C16 UNL     1      -5.598   3.200  12.295  1.00  0.00     0.299 C 
HETATM   31  C17 UNL     1      -5.941   2.194  11.186  1.00  0.00     0.198 C 
HETATM   32  O3  UNL     1      -5.104   1.028  11.215  1.00  0.00    -0.388 OA
HETATM   33  C18 UNL     1      -3.803   1.288  11.759  1.00  0.00     0.198 C 
HETATM   34  C19 UNL     1      -3.337   2.733  11.532  1.00  0.00     0.299 C 
ENDBRANCH  28  29
ENDBRANCH   5  28
TORSDOF 5
ENDMDL
MODEL 8
REMARK minimizedAffinity -8.62340927
REMARK  5 active torsions:
REMARK  status: ('A' for Active; 'I' for Inactive)
REMARK    1  A    between atoms: C2_2  and  S1_3 
REMARK    2  A    between atoms: S1_3  and  C3_6 
REMARK    3  A    between atoms: C10_13  and  C11_14 
REMARK    4  A    between atoms: C14_18  and  C15_19 
REMARK    5  A    between atoms: C15_19  and  N2_20 
ROOT
HETATM    1  C11 UNL     1      -3.199   4.562  12.993  1.00  0.00     0.042 A 
HETATM    2  N1  UNL     1      -3.019   3.264  12.575  1.00  0.00    -0.359 N 
HETATM    3  C12 UNL     1      -4.227   2.726  12.237  1.00  0.00     0.016 A 
HETATM    4  C13 UNL     1      -5.201   3.678  12.444  1.00  0.00    -0.025 A 
HETATM    5  C14 UNL     1      -4.556   4.858  12.933  1.00  0.00     0.005 A 
HETATM    6  C20 UNL     1      -6.641   3.418  12.144  1.00  0.00     0.041 C 
HETATM    7  C21 UNL     1      -6.914   1.910  11.989  1.00  0.00     0.005 C 
HETATM    8  C22 UNL     1      -5.841   1.210  11.134  1.00  0.00     0.006 C 
HETATM    9  C23 UNL     1      -4.436   1.337  11.749  1.00  0.00     0.057 C 
HETATM   10  H10 UNL     1      -2.128   2.789  12.512  1.00  0.00     0.166 HD
ENDROOT
BRANCH   1  11
HETATM   11  C10 UNL     1      -2.057   5.273  13.423  1.00  0.00     0.048 C 
HETATM   12  C9  UNL     1      -0.961   5.453  12.673  1.00  0.00     0.047 A 
HETATM   13  C7  UNL     1       0.214   6.229  13.096  1.00  0.00     0.008 A 
HETATM   14  C24 UNL     1      -0.659   4.926  11.288  1.00  0.00     0.257 A 
HETATM   15  C6  UNL     1       1.128   6.165  12.039  1.00  0.00     0.046 A 
HETATM   16  C8  UNL     1       0.520   6.932  14.247  1.00  0.00     0.038 A 
HETATM   17  C5  UNL     1       2.364   6.780  12.081  1.00  0.00     0.032 A 
HETATM   18  N3  UNL     1       0.610   5.410  10.994  1.00  0.00    -0.322 N 
HETATM   19  C4  UNL     1       2.688   7.493  13.238  1.00  0.00     0.026 A 
HETATM   20  C3  UNL     1       1.764   7.576  14.301  1.00  0.00     0.060 A 
HETATM   21  H29 UNL     1       1.074   5.200  10.124  1.00  0.00     0.169 HD
HETATM   22  O4  UNL     1      -1.335   4.225  10.562  1.00  0.00    -0.267 OA
BRANCH  20  23
HETATM   23  S1  UNL     1       2.220   8.472  15.771  1.00  0.00     0.175 S 
HETATM   24  O1  UNL     1       2.358   7.507  16.846  1.00  0.00    -0.223 OA
HETATM   25  O2  UNL     1       3.333   9.328  15.406  1.00  0.00    -0.223 OA
BRANCH  23  26
HETATM   26  C2  UNL     1       0.818   9.513  16.116  1.00  0.00     0.141 C 
HETATM   27  C1  UNL     1       0.971  10.337  17.378  1.00  0.00     0.021 C 
ENDBRANCH  23  26
ENDBRANCH  20  23
ENDBRANCH   1  11
BRANCH   5  28
HETATM   28  C15 UNL     1      -5.222   6.155  13.293  1.00  0.00     0.314 C 
BRANCH  28  29
HETATM   29  N2  UNL     1      -6.284   5.943  14.294  1.00  0.00     0.096 N 
HETATM   30  C16 UNL     1      -7.598   6.421  13.807  1.00  0.00     0.299 C 
HETATM   31  C17 UNL     1      -8.547   6.763  14.965  1.00  0.00     0.198 C 
HETATM   32  O3  UNL     1      -8.066   7.843  15.778  1.00  0.00    -0.388 OA
HETATM   33  C18 UNL     1      -6.635   7.939  15.791  1.00  0.00     0.198 C 
HETATM   34  C19 UNL     1      -5.943   6.584  15.581  1.00  0.00     0.299 C 
ENDBRANCH  28  29
ENDBRANCH   5  28
TORSDOF 5
ENDMDL
MODEL 9
REMARK minimizedAffinity -8.59567261
REMARK  5 active torsions:
REMARK  status: ('A' for Active; 'I' for Inactive)
REMARK    1  A    between atoms: C2_2  and  S1_3 
REMARK    2  A    between atoms: S1_3  and  C3_6 
REMARK    3  A    between atoms: C10_13  and  C11_14 
REMARK    4  A    between atoms: C14_18  and  C15_19 
REMARK    5  A    between atoms: C15_19  and  N2_20 
ROOT
HETATM    1  C11 UNL     1      -2.992   4.574  13.039  1.00  0.00     0.042 A 
HETATM    2  N1  UNL     1      -2.883   3.316  12.497  1.00  0.00    -0.359 N 
HETATM    3  C12 UNL     1      -4.130   2.831  12.224  1.00  0.00     0.016 A 
HETATM    4  C13 UNL     1      -5.058   3.780  12.599  1.00  0.00    -0.025 A 
HETATM    5  C14 UNL     1      -4.341   4.899  13.127  1.00  0.00     0.005 A 
HETATM    6  C20 UNL     1      -6.524   3.573  12.409  1.00  0.00     0.041 C 
HETATM    7  C21 UNL     1      -6.849   2.090  12.150  1.00  0.00     0.005 C 
HETATM    8  C22 UNL     1      -5.875   1.449  11.144  1.00  0.00     0.006 C 
HETATM    9  C23 UNL     1      -4.418   1.495  11.638  1.00  0.00     0.057 C 
HETATM   10  H10 UNL     1      -2.015   2.831  12.313  1.00  0.00     0.166 HD
ENDROOT
BRANCH   1  11
HETATM   11  C10 UNL     1      -1.799   5.224  13.424  1.00  0.00     0.048 C 
HETATM   12  C9  UNL     1      -0.770   5.451  12.596  1.00  0.00     0.047 A 
HETATM   13  C7  UNL     1       0.458   6.165  12.977  1.00  0.00     0.008 A 
HETATM   14  C24 UNL     1      -0.606   5.044  11.149  1.00  0.00     0.257 A 
HETATM   15  C6  UNL     1       1.272   6.179  11.839  1.00  0.00     0.046 A 
HETATM   16  C8  UNL     1       0.884   6.757  14.153  1.00  0.00     0.038 A 
HETATM   17  C5  UNL     1       2.523   6.766  11.824  1.00  0.00     0.032 A 
HETATM   18  N3  UNL     1       0.644   5.530  10.784  1.00  0.00    -0.322 N 
HETATM   19  C4  UNL     1       2.967   7.367  13.004  1.00  0.00     0.026 A 
HETATM   20  C3  UNL     1       2.143   7.371  14.149  1.00  0.00     0.060 A 
HETATM   21  H29 UNL     1       1.024   5.390   9.861  1.00  0.00     0.169 HD
HETATM   22  O4  UNL     1      -1.361   4.424  10.428  1.00  0.00    -0.267 OA
BRANCH  20  23
HETATM   23  S1  UNL     1       2.751   8.124  15.644  1.00  0.00     0.175 S 
HETATM   24  O1  UNL     1       2.010   7.553  16.754  1.00  0.00    -0.223 OA
HETATM   25  O2  UNL     1       4.198   8.025  15.600  1.00  0.00    -0.223 OA
BRANCH  23  26
HETATM   26  C2  UNL     1       2.314   9.843  15.493  1.00  0.00     0.141 C 
HETATM   27  C1  UNL     1       3.129  10.586  14.454  1.00  0.00     0.021 C 
ENDBRANCH  23  26
ENDBRANCH  20  23
ENDBRANCH   1  11
BRANCH   5  28
HETATM   28  C15 UNL     1      -4.939   6.172  13.656  1.00  0.00     0.314 C 
BRANCH  28  29
HETATM   29  N2  UNL     1      -3.887   7.121  14.063  1.00  0.00     0.096 N 
HETATM   30  C16 UNL     1      -3.651   7.083  15.525  1.00  0.00     0.299 C 
HETATM   31  C17 UNL     1      -3.045   8.396  16.039  1.00  0.00     0.198 C 
HETATM   32  O3  UNL     1      -3.919   9.520  15.860  1.00  0.00    -0.388 OA
HETATM   33  C18 UNL     1      -4.800   9.369  14.739  1.00  0.00     0.198 C 
HETATM   34  C19 UNL     1      -4.206   8.496  13.624  1.00  0.00     0.299 C 
ENDBRANCH  28  29
ENDBRANCH   5  28
TORSDOF 5
ENDMDL
