MODEL 1
REMARK minimizedAffinity -7.65934896
REMARK  8 active torsions:
REMARK  status: ('A' for Active; 'I' for Inactive)
REMARK    1  A    between atoms: C4_4  and  N1_5 
REMARK    2  A    between atoms: N1_5  and  C5_6 
REMARK    3  A    between atoms: C5_6  and  C6_7 
REMARK    4  A    between atoms: C6_7  and  N2_8 
REMARK    5  A    between atoms: C10_15  and  C11_16 
REMARK       I    between atoms: C11_16  and  N4_18 
REMARK    6  A    between atoms: N4_18  and  N5_19 
REMARK    7  A    between atoms: C12_21  and  C13_22 
REMARK    8  A    between atoms: C18_28  and  N7_29 
ROOT
HETATM    1  C1  UNL     1      -3.594  48.676 -27.263  1.00  0.00     0.049 C 
HETATM    2  C2  UNL     1      -3.337  50.062 -26.744  1.00  0.00    -0.044 A 
HETATM    3  C3  UNL     1      -2.783  51.020 -27.612  1.00  0.00     0.050 A 
HETATM    4  C4  UNL     1      -2.515  52.311 -27.174  1.00  0.00     0.081 A 
HETATM    5  N3  UNL     1      -2.740  52.721 -25.922  1.00  0.00    -0.341 N 
ATOM      6  H3  UNL     1      -2.518  53.667 -25.609  1.00  0.00     0.167 HD
HETATM    7  C9  UNL     1      -3.280  51.798 -25.104  1.00  0.00     0.089 A 
HETATM    8  S1  UNL     1      -3.609  52.213 -23.489  1.00  0.00    -0.064 SA
HETATM    9  C10 UNL     1      -4.245  50.662 -23.141  1.00  0.00     0.103 A 
HETATM   10  C18 UNL     1      -4.195  49.846 -24.259  1.00  0.00     0.062 A 
HETATM   11  C19 UNL     1      -3.621  50.487 -25.417  1.00  0.00     0.032 A 
ENDROOT
BRANCH   9  12
HETATM   12  C11 UNL     1      -4.775  50.336 -21.817  1.00  0.00     0.279 C 
HETATM   13  O1  UNL     1      -4.063  49.893 -20.914  1.00  0.00    -0.265 OA
HETATM   14  N4  UNL     1      -6.139  50.564 -21.654  1.00  0.00    -0.266 N 
HETATM   15  H16 UNL     1      -6.675  50.937 -22.429  1.00  0.00     0.190 HD
BRANCH  14  16
HETATM   16  N5  UNL     1      -6.749  50.294 -20.463  1.00  0.00    -0.307 N 
HETATM   17  C12 UNL     1      -7.169  49.080 -20.305  1.00  0.00     0.136 C 
ATOM     18  H5  UNL     1      -6.867  51.006 -19.743  1.00  0.00     0.186 HD
BRANCH  17  19
HETATM   19  C13 UNL     1      -7.832  48.659 -19.094  1.00  0.00     0.050 A 
HETATM   20  C14 UNL     1      -9.025  49.161 -18.592  1.00  0.00     0.032 A 
HETATM   21  C15 UNL     1      -9.325  48.482 -17.389  1.00  0.00     0.019 A 
HETATM   22  C16 UNL     1      -8.314  47.576 -17.175  1.00  0.00     0.091 A 
HETATM   23  N6  UNL     1      -7.413  47.684 -18.207  1.00  0.00    -0.360 N 
HETATM   24  C17 UNL     1      -6.214  46.879 -18.318  1.00  0.00     0.155 C 
ENDBRANCH  17  19
ENDBRANCH  14  16
ENDBRANCH   9  12
BRANCH  10  25
HETATM   25  N7  UNL     1      -4.646  48.567 -24.240  1.00  0.00    -0.397 N 
HETATM   26  H24 UNL     1      -4.923  48.084 -25.087  1.00  0.00     0.156 HD
HETATM   27  H25 UNL     1      -5.170  48.241 -23.421  1.00  0.00     0.156 HD
ENDBRANCH  10  25
BRANCH   4  28
HETATM   28  N1  UNL     1      -1.954  53.258 -28.034  1.00  0.00    -0.277 NA
HETATM   29  H5  UNL     1      -1.909  52.800 -28.950  1.00  0.00     0.129 HD
BRANCH  28  30
HETATM   30  C5  UNL     1      -0.602  53.680 -27.656  1.00  0.00     0.124 C 
BRANCH  30  31
HETATM   31  C6  UNL     1       0.373  52.487 -27.799  1.00  0.00     0.286 C 
BRANCH  31  32
HETATM   32  N2  UNL     1       1.372  52.389 -26.709  1.00  0.00     0.081 N 
HETATM   33  C7  UNL     1       2.568  51.655 -27.126  1.00  0.00     0.309 C 
HETATM   34  C8  UNL     1       0.772  51.740 -25.541  1.00  0.00     0.309 C 
ENDBRANCH  31  32
ENDBRANCH  30  31
ENDBRANCH  28  30
ENDBRANCH   4  28
TORSDOF 8
ENDMDL
MODEL 2
REMARK minimizedAffinity -7.42147875
REMARK  8 active torsions:
REMARK  status: ('A' for Active; 'I' for Inactive)
REMARK    1  A    between atoms: C4_4  and  N1_5 
REMARK    2  A    between atoms: N1_5  and  C5_6 
REMARK    3  A    between atoms: C5_6  and  C6_7 
REMARK    4  A    between atoms: C6_7  and  N2_8 
REMARK    5  A    between atoms: C10_15  and  C11_16 
REMARK       I    between atoms: C11_16  and  N4_18 
REMARK    6  A    between atoms: N4_18  and  N5_19 
REMARK    7  A    between atoms: C12_21  and  C13_22 
REMARK    8  A    between atoms: C18_28  and  N7_29 
ROOT
HETATM    1  C1  UNL     1      -0.888  49.109 -17.045  1.00  0.00     0.049 C 
HETATM    2  C2  UNL     1      -0.138  50.406 -17.153  1.00  0.00    -0.044 A 
HETATM    3  C3  UNL     1       0.540  50.894 -16.021  1.00  0.00     0.050 A 
HETATM    4  C4  UNL     1       1.237  52.095 -16.068  1.00  0.00     0.081 A 
HETATM    5  N3  UNL     1       1.297  52.865 -17.159  1.00  0.00    -0.341 N 
ATOM      6  H3  UNL     1       1.795  53.755 -17.173  1.00  0.00     0.167 HD
HETATM    7  C9  UNL     1       0.653  52.382 -18.239  1.00  0.00     0.089 A 
HETATM    8  S1  UNL     1       0.665  53.280 -19.682  1.00  0.00    -0.064 SA
HETATM    9  C10 UNL     1      -0.260  52.101 -20.512  1.00  0.00     0.103 A 
HETATM   10  C18 UNL     1      -0.569  51.039 -19.677  1.00  0.00     0.062 A 
HETATM   11  C19 UNL     1      -0.056  51.189 -18.336  1.00  0.00     0.032 A 
ENDROOT
BRANCH   9  12
HETATM   12  C11 UNL     1      -0.608  52.262 -21.923  1.00  0.00     0.279 C 
HETATM   13  O1  UNL     1      -1.681  51.870 -22.385  1.00  0.00    -0.265 OA
HETATM   14  N4  UNL     1       0.360  52.890 -22.702  1.00  0.00    -0.266 N 
HETATM   15  H16 UNL     1       1.221  53.200 -22.268  1.00  0.00     0.190 HD
BRANCH  14  16
HETATM   16  N5  UNL     1       0.151  53.094 -24.035  1.00  0.00    -0.307 N 
HETATM   17  C12 UNL     1       0.659  52.208 -24.830  1.00  0.00     0.136 C 
ATOM     18  H5  UNL     1      -0.374  53.896 -24.384  1.00  0.00     0.186 HD
BRANCH  17  19
HETATM   19  C13 UNL     1       0.513  52.302 -26.263  1.00  0.00     0.050 A 
HETATM   20  C14 UNL     1       0.613  51.255 -27.169  1.00  0.00     0.032 A 
HETATM   21  C15 UNL     1       0.408  51.769 -28.470  1.00  0.00     0.019 A 
HETATM   22  C16 UNL     1       0.184  53.119 -28.340  1.00  0.00     0.091 A 
HETATM   23  N6  UNL     1       0.248  53.438 -27.005  1.00  0.00    -0.360 N 
HETATM   24  C17 UNL     1       0.058  54.778 -26.486  1.00  0.00     0.155 C 
ENDBRANCH  17  19
ENDBRANCH  14  16
ENDBRANCH   9  12
BRANCH  10  25
HETATM   25  N7  UNL     1      -1.292  49.974 -20.102  1.00  0.00    -0.397 N 
HETATM   26  H24 UNL     1      -1.243  49.074 -19.639  1.00  0.00     0.156 HD
HETATM   27  H25 UNL     1      -1.489  49.881 -21.105  1.00  0.00     0.156 HD
ENDBRANCH  10  25
BRANCH   4  28
HETATM   28  N1  UNL     1       1.900  52.584 -14.940  1.00  0.00    -0.277 NA
HETATM   29  H5  UNL     1       2.230  53.519 -15.204  1.00  0.00     0.129 HD
BRANCH  28  30
HETATM   30  C5  UNL     1       3.054  51.780 -14.531  1.00  0.00     0.124 C 
BRANCH  30  31
HETATM   31  C6  UNL     1       2.880  51.331 -13.060  1.00  0.00     0.286 C 
BRANCH  31  32
HETATM   32  N2  UNL     1       3.686  50.144 -12.691  1.00  0.00     0.081 N 
HETATM   33  C7  UNL     1       4.418  49.602 -13.836  1.00  0.00     0.309 C 
HETATM   34  C8  UNL     1       2.818  49.111 -12.119  1.00  0.00     0.309 C 
ENDBRANCH  31  32
ENDBRANCH  30  31
ENDBRANCH  28  30
ENDBRANCH   4  28
TORSDOF 8
ENDMDL
MODEL 3
REMARK minimizedAffinity -7.41884279
REMARK  8 active torsions:
REMARK  status: ('A' for Active; 'I' for Inactive)
REMARK    1  A    between atoms: C4_4  and  N1_5 
REMARK    2  A    between atoms: N1_5  and  C5_6 
REMARK    3  A    between atoms: C5_6  and  C6_7 
REMARK    4  A    between atoms: C6_7  and  N2_8 
REMARK    5  A    between atoms: C10_15  and  C11_16 
REMARK       I    between atoms: C11_16  and  N4_18 
REMARK    6  A    between atoms: N4_18  and  N5_19 
REMARK    7  A    between atoms: C12_21  and  C13_22 
REMARK    8  A    between atoms: C18_28  and  N7_29 
ROOT
HETATM    1  C1  UNL     1      -1.254  52.727 -27.333  1.00  0.00     0.049 C 
HETATM    2  C2  UNL     1      -1.636  51.719 -26.287  1.00  0.00    -0.044 A 
HETATM    3  C3  UNL     1      -1.079  51.833 -25.000  1.00  0.00     0.050 A 
HETATM    4  C4  UNL     1      -1.392  50.918 -24.003  1.00  0.00     0.081 A 
HETATM    5  N3  UNL     1      -2.209  49.876 -24.194  1.00  0.00    -0.341 N 
ATOM      6  H3  UNL     1      -2.412  49.200 -23.458  1.00  0.00     0.167 HD
HETATM    7  C9  UNL     1      -2.742  49.784 -25.426  1.00  0.00     0.089 A 
HETATM    8  S1  UNL     1      -3.796  48.498 -25.780  1.00  0.00    -0.064 SA
HETATM    9  C10 UNL     1      -4.044  49.043 -27.384  1.00  0.00     0.103 A 
HETATM   10  C18 UNL     1      -3.318  50.197 -27.631  1.00  0.00     0.062 A 
HETATM   11  C19 UNL     1      -2.537  50.641 -26.503  1.00  0.00     0.032 A 
ENDROOT
BRANCH   9  12
HETATM   12  C11 UNL     1      -4.943  48.337 -28.297  1.00  0.00     0.279 C 
HETATM   13  O1  UNL     1      -4.581  47.951 -29.410  1.00  0.00    -0.265 OA
HETATM   14  N4  UNL     1      -6.234  48.135 -27.815  1.00  0.00    -0.266 N 
HETATM   15  H16 UNL     1      -6.475  48.467 -26.889  1.00  0.00     0.190 HD
BRANCH  14  16
HETATM   16  N5  UNL     1      -7.165  47.491 -28.578  1.00  0.00    -0.307 N 
HETATM   17  C12 UNL     1      -8.163  48.211 -28.979  1.00  0.00     0.136 C 
ATOM     18  H5  UNL     1      -7.079  46.504 -28.817  1.00  0.00     0.186 HD
BRANCH  17  19
HETATM   19  C13 UNL     1      -9.219  47.656 -29.793  1.00  0.00     0.050 A 
HETATM   20  C14 UNL     1      -9.371  47.816 -31.163  1.00  0.00     0.032 A 
HETATM   21  C15 UNL     1     -10.530  47.116 -31.569  1.00  0.00     0.019 A 
HETATM   22  C16 UNL     1     -11.068  46.540 -30.443  1.00  0.00     0.091 A 
HETATM   23  N6  UNL     1     -10.273  46.867 -29.371  1.00  0.00    -0.360 N 
HETATM   24  C17 UNL     1     -10.530  46.430 -28.014  1.00  0.00     0.155 C 
ENDBRANCH  17  19
ENDBRANCH  14  16
ENDBRANCH   9  12
BRANCH  10  25
HETATM   25  N7  UNL     1      -3.351  50.827 -28.832  1.00  0.00    -0.397 N 
HETATM   26  H24 UNL     1      -3.114  51.807 -28.929  1.00  0.00     0.156 HD
HETATM   27  H25 UNL     1      -4.043  50.526 -29.527  1.00  0.00     0.156 HD
ENDBRANCH  10  25
BRANCH   4  28
HETATM   28  N1  UNL     1      -0.830  51.025 -22.728  1.00  0.00    -0.277 NA
HETATM   29  H5  UNL     1      -1.616  50.924 -22.076  1.00  0.00     0.129 HD
BRANCH  28  30
HETATM   30  C5  UNL     1      -0.174  52.310 -22.472  1.00  0.00     0.124 C 
BRANCH  30  31
HETATM   31  C6  UNL     1       1.074  52.088 -21.584  1.00  0.00     0.286 C 
BRANCH  31  32
HETATM   32  N2  UNL     1       1.429  53.252 -20.739  1.00  0.00     0.081 N 
HETATM   33  C7  UNL     1       0.426  53.504 -19.704  1.00  0.00     0.309 C 
HETATM   34  C8  UNL     1       1.591  54.443 -21.577  1.00  0.00     0.309 C 
ENDBRANCH  31  32
ENDBRANCH  30  31
ENDBRANCH  28  30
ENDBRANCH   4  28
TORSDOF 8
ENDMDL
MODEL 4
REMARK minimizedAffinity -7.38997459
REMARK  8 active torsions:
REMARK  status: ('A' for Active; 'I' for Inactive)
REMARK    1  A    between atoms: C4_4  and  N1_5 
REMARK    2  A    between atoms: N1_5  and  C5_6 
REMARK    3  A    between atoms: C5_6  and  C6_7 
REMARK    4  A    between atoms: C6_7  and  N2_8 
REMARK    5  A    between atoms: C10_15  and  C11_16 
REMARK       I    between atoms: C11_16  and  N4_18 
REMARK    6  A    between atoms: N4_18  and  N5_19 
REMARK    7  A    between atoms: C12_21  and  C13_22 
REMARK    8  A    between atoms: C18_28  and  N7_29 
ROOT
HETATM    1  C1  UNL     1      -0.684  48.933 -17.060  1.00  0.00     0.049 C 
HETATM    2  C2  UNL     1      -0.021  50.281 -17.076  1.00  0.00    -0.044 A 
HETATM    3  C3  UNL     1       0.557  50.767 -15.890  1.00  0.00     0.050 A 
HETATM    4  C4  UNL     1       1.171  52.014 -15.853  1.00  0.00     0.081 A 
HETATM    5  N3  UNL     1       1.237  52.830 -16.910  1.00  0.00    -0.341 N 
ATOM      6  H3  UNL     1       1.672  53.751 -16.862  1.00  0.00     0.167 HD
HETATM    7  C9  UNL     1       0.689  52.348 -18.041  1.00  0.00     0.089 A 
HETATM    8  S1  UNL     1       0.718  53.302 -19.448  1.00  0.00    -0.064 SA
HETATM    9  C10 UNL     1      -0.075  52.098 -20.372  1.00  0.00     0.103 A 
HETATM   10  C18 UNL     1      -0.355  50.985 -19.596  1.00  0.00     0.062 A 
HETATM   11  C19 UNL     1       0.071  51.115 -18.224  1.00  0.00     0.032 A 
ENDROOT
BRANCH   9  12
HETATM   12  C11 UNL     1      -0.355  52.293 -21.794  1.00  0.00     0.279 C 
HETATM   13  O1  UNL     1      -1.491  52.189 -22.261  1.00  0.00    -0.265 OA
HETATM   14  N4  UNL     1       0.753  52.603 -22.578  1.00  0.00    -0.266 N 
HETATM   15  H16 UNL     1       1.663  52.684 -22.139  1.00  0.00     0.190 HD
BRANCH  14  16
HETATM   16  N5  UNL     1       0.618  52.803 -23.921  1.00  0.00    -0.307 N 
HETATM   17  C12 UNL     1       0.844  51.774 -24.672  1.00  0.00     0.136 C 
ATOM     18  H5  UNL     1       0.355  53.709 -24.309  1.00  0.00     0.186 HD
BRANCH  17  19
HETATM   19  C13 UNL     1       0.737  51.846 -26.110  1.00  0.00     0.050 A 
HETATM   20  C14 UNL     1       1.787  51.798 -27.016  1.00  0.00     0.032 A 
HETATM   21  C15 UNL     1       1.256  51.902 -28.322  1.00  0.00     0.019 A 
HETATM   22  C16 UNL     1      -0.108  52.009 -28.195  1.00  0.00     0.091 A 
HETATM   23  N6  UNL     1      -0.419  51.975 -26.857  1.00  0.00    -0.360 N 
HETATM   24  C17 UNL     1      -1.770  52.061 -26.341  1.00  0.00     0.155 C 
ENDBRANCH  17  19
ENDBRANCH  14  16
ENDBRANCH   9  12
BRANCH  10  25
HETATM   25  N7  UNL     1      -0.977  49.892 -20.101  1.00  0.00    -0.397 N 
HETATM   26  H24 UNL     1      -0.891  48.979 -19.669  1.00  0.00     0.156 HD
HETATM   27  H25 UNL     1      -1.112  49.826 -21.116  1.00  0.00     0.156 HD
ENDBRANCH  10  25
BRANCH   4  28
HETATM   28  N1  UNL     1       1.735  52.501 -14.671  1.00  0.00    -0.277 NA
HETATM   29  H5  UNL     1       2.736  52.291 -14.742  1.00  0.00     0.129 HD
BRANCH  28  30
HETATM   30  C5  UNL     1       1.210  51.872 -13.456  1.00  0.00     0.124 C 
BRANCH  30  31
HETATM   31  C6  UNL     1      -0.043  52.641 -12.973  1.00  0.00     0.286 C 
BRANCH  31  32
HETATM   32  N2  UNL     1      -0.099  52.843 -11.506  1.00  0.00     0.081 N 
HETATM   33  C7  UNL     1      -1.473  53.009 -11.028  1.00  0.00     0.309 C 
HETATM   34  C8  UNL     1       0.702  54.011 -11.133  1.00  0.00     0.309 C 
ENDBRANCH  31  32
ENDBRANCH  30  31
ENDBRANCH  28  30
ENDBRANCH   4  28
TORSDOF 8
ENDMDL
MODEL 5
REMARK minimizedAffinity -7.3400979
REMARK  8 active torsions:
REMARK  status: ('A' for Active; 'I' for Inactive)
REMARK    1  A    between atoms: C4_4  and  N1_5 
REMARK    2  A    between atoms: N1_5  and  C5_6 
REMARK    3  A    between atoms: C5_6  and  C6_7 
REMARK    4  A    between atoms: C6_7  and  N2_8 
REMARK    5  A    between atoms: C10_15  and  C11_16 
REMARK       I    between atoms: C11_16  and  N4_18 
REMARK    6  A    between atoms: N4_18  and  N5_19 
REMARK    7  A    between atoms: C12_21  and  C13_22 
REMARK    8  A    between atoms: C18_28  and  N7_29 
ROOT
HETATM    1  C1  UNL     1       1.346  54.402 -22.712  1.00  0.00     0.049 C 
HETATM    2  C2  UNL     1       0.553  53.136 -22.551  1.00  0.00    -0.044 A 
HETATM    3  C3  UNL     1       0.039  52.507 -23.699  1.00  0.00     0.050 A 
HETATM    4  C4  UNL     1      -0.711  51.342 -23.600  1.00  0.00     0.081 A 
HETATM    5  N3  UNL     1      -1.009  50.759 -22.434  1.00  0.00    -0.341 N 
ATOM      6  H3  UNL     1      -1.579  49.915 -22.375  1.00  0.00     0.167 HD
HETATM    7  C9  UNL     1      -0.502  51.365 -21.344  1.00  0.00     0.089 A 
HETATM    8  S1  UNL     1      -0.818  50.708 -19.808  1.00  0.00    -0.064 SA
HETATM    9  C10 UNL     1       0.101  51.918 -19.018  1.00  0.00     0.103 A 
HETATM   10  C18 UNL     1       0.634  52.810 -19.935  1.00  0.00     0.062 A 
HETATM   11  C19 UNL     1       0.281  52.513 -21.302  1.00  0.00     0.032 A 
ENDROOT
BRANCH   9  12
HETATM   12  C11 UNL     1       0.270  51.917 -17.566  1.00  0.00     0.279 C 
HETATM   13  O1  UNL     1      -0.505  51.324 -16.813  1.00  0.00    -0.265 OA
HETATM   14  N4  UNL     1       1.369  52.634 -17.099  1.00  0.00    -0.266 N 
HETATM   15  H16 UNL     1       1.978  53.096 -17.764  1.00  0.00     0.190 HD
BRANCH  14  16
HETATM   16  N5  UNL     1       1.629  52.711 -15.761  1.00  0.00    -0.307 N 
HETATM   17  C12 UNL     1       1.851  51.585 -15.163  1.00  0.00     0.136 C 
ATOM     18  H5  UNL     1       1.648  53.601 -15.264  1.00  0.00     0.186 HD
BRANCH  17  19
HETATM   19  C13 UNL     1       2.139  51.521 -13.750  1.00  0.00     0.050 A 
HETATM   20  C14 UNL     1       3.293  51.014 -13.169  1.00  0.00     0.032 A 
HETATM   21  C15 UNL     1       3.177  51.135 -11.765  1.00  0.00     0.019 A 
HETATM   22  C16 UNL     1       1.958  51.714 -11.510  1.00  0.00     0.091 A 
HETATM   23  N6  UNL     1       1.333  51.947 -12.711  1.00  0.00    -0.360 N 
HETATM   24  C17 UNL     1       0.022  52.553 -12.834  1.00  0.00     0.155 C 
ENDBRANCH  17  19
ENDBRANCH  14  16
ENDBRANCH   9  12
BRANCH  10  25
HETATM   25  N7  UNL     1       1.406  53.858 -19.557  1.00  0.00    -0.397 N 
HETATM   26  H24 UNL     1       2.056  54.302 -20.194  1.00  0.00     0.156 HD
HETATM   27  H25 UNL     1       1.726  53.909 -18.583  1.00  0.00     0.156 HD
ENDBRANCH  10  25
BRANCH   4  28
HETATM   28  N1  UNL     1      -1.231  50.723 -24.740  1.00  0.00    -0.277 NA
HETATM   29  H5  UNL     1      -0.784  49.801 -24.775  1.00  0.00     0.129 HD
BRANCH  28  30
HETATM   30  C5  UNL     1      -0.938  51.432 -25.989  1.00  0.00     0.124 C 
BRANCH  30  31
HETATM   31  C6  UNL     1       0.223  50.724 -26.728  1.00  0.00     0.286 C 
BRANCH  31  32
HETATM   32  N2  UNL     1       1.018  51.619 -27.601  1.00  0.00     0.081 N 
HETATM   33  C7  UNL     1       2.408  51.726 -27.154  1.00  0.00     0.309 C 
HETATM   34  C8  UNL     1       0.404  52.949 -27.642  1.00  0.00     0.309 C 
ENDBRANCH  31  32
ENDBRANCH  30  31
ENDBRANCH  28  30
ENDBRANCH   4  28
TORSDOF 8
ENDMDL
MODEL 6
REMARK minimizedAffinity -7.33374691
REMARK  8 active torsions:
REMARK  status: ('A' for Active; 'I' for Inactive)
REMARK    1  A    between atoms: C4_4  and  N1_5 
REMARK    2  A    between atoms: N1_5  and  C5_6 
REMARK    3  A    between atoms: C5_6  and  C6_7 
REMARK    4  A    between atoms: C6_7  and  N2_8 
REMARK    5  A    between atoms: C10_15  and  C11_16 
REMARK       I    between atoms: C11_16  and  N4_18 
REMARK    6  A    between atoms: N4_18  and  N5_19 
REMARK    7  A    between atoms: C12_21  and  C13_22 
REMARK    8  A    between atoms: C18_28  and  N7_29 
ROOT
HETATM    1  C1  UNL     1       1.619  54.525 -22.062  1.00  0.00     0.049 C 
HETATM    2  C2  UNL     1       0.889  53.389 -21.405  1.00  0.00    -0.044 A 
HETATM    3  C3  UNL     1       0.965  53.252 -20.007  1.00  0.00     0.050 A 
HETATM    4  C4  UNL     1       0.317  52.210 -19.355  1.00  0.00     0.081 A 
HETATM    5  N3  UNL     1      -0.392  51.274 -19.994  1.00  0.00    -0.341 N 
ATOM      6  H3  UNL     1      -0.845  50.502 -19.504  1.00  0.00     0.167 HD
HETATM    7  C9  UNL     1      -0.466  51.423 -21.330  1.00  0.00     0.089 A 
HETATM    8  S1  UNL     1      -1.343  50.289 -22.243  1.00  0.00    -0.064 SA
HETATM    9  C10 UNL     1      -1.015  51.104 -23.712  1.00  0.00     0.103 A 
HETATM   10  C18 UNL     1      -0.237  52.229 -23.489  1.00  0.00     0.062 A 
HETATM   11  C19 UNL     1       0.109  52.427 -22.102  1.00  0.00     0.032 A 
ENDROOT
BRANCH   9  12
HETATM   12  C11 UNL     1      -1.548  50.622 -24.986  1.00  0.00     0.279 C 
HETATM   13  O1  UNL     1      -1.142  51.043 -26.071  1.00  0.00    -0.265 OA
HETATM   14  N4  UNL     1      -2.545  49.656 -24.881  1.00  0.00    -0.266 N 
HETATM   15  H16 UNL     1      -2.834  49.340 -23.963  1.00  0.00     0.190 HD
BRANCH  14  16
HETATM   16  N5  UNL     1      -3.123  49.132 -26.001  1.00  0.00    -0.307 N 
HETATM   17  C12 UNL     1      -4.366  48.791 -25.889  1.00  0.00     0.136 C 
ATOM     18  H5  UNL     1      -2.606  49.016 -26.873  1.00  0.00     0.186 HD
BRANCH  17  19
HETATM   19  C13 UNL     1      -5.100  48.224 -26.996  1.00  0.00     0.050 A 
HETATM   20  C14 UNL     1      -4.682  48.174 -28.319  1.00  0.00     0.032 A 
HETATM   21  C15 UNL     1      -5.691  47.542 -29.082  1.00  0.00     0.019 A 
HETATM   22  C16 UNL     1      -6.706  47.215 -28.216  1.00  0.00     0.091 A 
HETATM   23  N6  UNL     1      -6.346  47.628 -26.956  1.00  0.00    -0.360 N 
HETATM   24  C17 UNL     1      -7.174  47.446 -25.781  1.00  0.00     0.155 C 
ENDBRANCH  17  19
ENDBRANCH  14  16
ENDBRANCH   9  12
BRANCH  10  25
HETATM   25  N7  UNL     1       0.155  53.047 -24.497  1.00  0.00    -0.397 N 
HETATM   26  H24 UNL     1       0.419  54.011 -24.332  1.00  0.00     0.156 HD
HETATM   27  H25 UNL     1      -0.256  52.914 -25.428  1.00  0.00     0.156 HD
ENDBRANCH  10  25
BRANCH   4  28
HETATM   28  N1  UNL     1       0.403  52.068 -17.968  1.00  0.00    -0.277 NA
HETATM   29  H5  UNL     1       1.348  52.381 -17.721  1.00  0.00     0.129 HD
BRANCH  28  30
HETATM   30  C5  UNL     1       0.230  50.691 -17.498  1.00  0.00     0.124 C 
BRANCH  30  31
HETATM   31  C6  UNL     1       0.692  50.583 -16.025  1.00  0.00     0.286 C 
BRANCH  31  32
HETATM   32  N2  UNL     1       1.203  51.852 -15.458  1.00  0.00     0.081 N 
HETATM   33  C7  UNL     1       2.652  51.819 -15.259  1.00  0.00     0.309 C 
HETATM   34  C8  UNL     1       0.532  52.136 -14.186  1.00  0.00     0.309 C 
ENDBRANCH  31  32
ENDBRANCH  30  31
ENDBRANCH  28  30
ENDBRANCH   4  28
TORSDOF 8
ENDMDL
MODEL 7
REMARK minimizedAffinity -7.32462358
REMARK  8 active torsions:
REMARK  status: ('A' for Active; 'I' for Inactive)
REMARK    1  A    between atoms: C4_4  and  N1_5 
REMARK    2  A    between atoms: N1_5  and  C5_6 
REMARK    3  A    between atoms: C5_6  and  C6_7 
REMARK    4  A    between atoms: C6_7  and  N2_8 
REMARK    5  A    between atoms: C10_15  and  C11_16 
REMARK       I    between atoms: C11_16  and  N4_18 
REMARK    6  A    between atoms: N4_18  and  N5_19 
REMARK    7  A    between atoms: C12_21  and  C13_22 
REMARK    8  A    between atoms: C18_28  and  N7_29 
ROOT
HETATM    1  C1  UNL     1      -7.882  47.355 -25.054  1.00  0.00     0.049 C 
HETATM    2  C2  UNL     1      -6.808  47.700 -26.045  1.00  0.00    -0.044 A 
HETATM    3  C3  UNL     1      -7.095  47.601 -27.419  1.00  0.00     0.050 A 
HETATM    4  C4  UNL     1      -6.130  47.898 -28.373  1.00  0.00     0.081 A 
HETATM    5  N3  UNL     1      -4.884  48.271 -28.064  1.00  0.00    -0.341 N 
ATOM      6  H3  UNL     1      -4.179  48.464 -28.776  1.00  0.00     0.167 HD
HETATM    7  C9  UNL     1      -4.625  48.371 -26.747  1.00  0.00     0.089 A 
HETATM    8  S1  UNL     1      -3.071  48.839 -26.241  1.00  0.00    -0.064 SA
HETATM    9  C10 UNL     1      -3.505  48.765 -24.586  1.00  0.00     0.103 A 
HETATM   10  C18 UNL     1      -4.829  48.381 -24.440  1.00  0.00     0.062 A 
HETATM   11  C19 UNL     1      -5.500  48.132 -25.693  1.00  0.00     0.032 A 
ENDROOT
BRANCH   9  12
HETATM   12  C11 UNL     1      -2.550  49.105 -23.532  1.00  0.00     0.279 C 
HETATM   13  O1  UNL     1      -2.331  48.359 -22.576  1.00  0.00    -0.265 OA
HETATM   14  N4  UNL     1      -1.909  50.331 -23.690  1.00  0.00    -0.266 N 
HETATM   15  H16 UNL     1      -2.122  50.901 -24.500  1.00  0.00     0.190 HD
BRANCH  14  16
HETATM   16  N5  UNL     1      -0.998  50.760 -22.768  1.00  0.00    -0.307 N 
HETATM   17  C12 UNL     1      -1.296  51.855 -22.146  1.00  0.00     0.136 C 
ATOM     18  H5  UNL     1      -0.135  50.249 -22.582  1.00  0.00     0.186 HD
BRANCH  17  19
HETATM   19  C13 UNL     1      -0.422  52.420 -21.146  1.00  0.00     0.050 A 
HETATM   20  C14 UNL     1       0.734  53.152 -21.383  1.00  0.00     0.032 A 
HETATM   21  C15 UNL     1       1.294  53.519 -20.138  1.00  0.00     0.019 A 
HETATM   22  C16 UNL     1       0.474  53.009 -19.161  1.00  0.00     0.091 A 
HETATM   23  N6  UNL     1      -0.562  52.345 -19.772  1.00  0.00    -0.360 N 
HETATM   24  C17 UNL     1      -1.629  51.679 -19.053  1.00  0.00     0.155 C 
ENDBRANCH  17  19
ENDBRANCH  14  16
ENDBRANCH   9  12
BRANCH  10  25
HETATM   25  N7  UNL     1      -5.413  48.254 -23.223  1.00  0.00    -0.397 N 
HETATM   26  H24 UNL     1      -6.418  48.306 -23.103  1.00  0.00     0.156 HD
HETATM   27  H25 UNL     1      -4.909  48.591 -22.396  1.00  0.00     0.156 HD
ENDBRANCH  10  25
BRANCH   4  28
HETATM   28  N1  UNL     1      -6.412  47.788 -29.737  1.00  0.00    -0.277 NA
HETATM   29  H5  UNL     1      -7.178  47.109 -29.802  1.00  0.00     0.129 HD
BRANCH  28  30
HETATM   30  C5  UNL     1      -5.287  47.301 -30.541  1.00  0.00     0.124 C 
BRANCH  30  31
HETATM   31  C6  UNL     1      -5.135  48.179 -31.807  1.00  0.00     0.286 C 
BRANCH  31  32
HETATM   32  N2  UNL     1      -4.988  47.407 -33.063  1.00  0.00     0.081 N 
HETATM   33  C7  UNL     1      -3.727  47.702 -33.743  1.00  0.00     0.309 C 
HETATM   34  C8  UNL     1      -6.114  47.691 -33.957  1.00  0.00     0.309 C 
ENDBRANCH  31  32
ENDBRANCH  30  31
ENDBRANCH  28  30
ENDBRANCH   4  28
TORSDOF 8
ENDMDL
MODEL 8
REMARK minimizedAffinity -7.31977177
REMARK  8 active torsions:
REMARK  status: ('A' for Active; 'I' for Inactive)
REMARK    1  A    between atoms: C4_4  and  N1_5 
REMARK    2  A    between atoms: N1_5  and  C5_6 
REMARK    3  A    between atoms: C5_6  and  C6_7 
REMARK    4  A    between atoms: C6_7  and  N2_8 
REMARK    5  A    between atoms: C10_15  and  C11_16 
REMARK       I    between atoms: C11_16  and  N4_18 
REMARK    6  A    between atoms: N4_18  and  N5_19 
REMARK    7  A    between atoms: C12_21  and  C13_22 
REMARK    8  A    between atoms: C18_28  and  N7_29 
ROOT
HETATM    1  C1  UNL     1      -0.409  53.436 -27.816  1.00  0.00     0.049 C 
HETATM    2  C2  UNL     1      -0.564  52.871 -26.433  1.00  0.00    -0.044 A 
HETATM    3  C3  UNL     1       0.199  53.420 -25.387  1.00  0.00     0.050 A 
HETATM    4  C4  UNL     1       0.100  52.923 -24.093  1.00  0.00     0.081 A 
HETATM    5  N3  UNL     1      -0.692  51.899 -23.761  1.00  0.00    -0.341 N 
ATOM      6  H3  UNL     1      -0.738  51.530 -22.810  1.00  0.00     0.167 HD
HETATM    7  C9  UNL     1      -1.424  51.389 -24.769  1.00  0.00     0.089 A 
HETATM    8  S1  UNL     1      -2.467  50.083 -24.458  1.00  0.00    -0.064 SA
HETATM    9  C10 UNL     1      -3.009  50.031 -26.081  1.00  0.00     0.103 A 
HETATM   10  C18 UNL     1      -2.385  51.007 -26.841  1.00  0.00     0.062 A 
HETATM   11  C19 UNL     1      -1.442  51.805 -26.096  1.00  0.00     0.032 A 
ENDROOT
BRANCH   9  12
HETATM   12  C11 UNL     1      -4.020  49.067 -26.515  1.00  0.00     0.279 C 
HETATM   13  O1  UNL     1      -4.397  48.140 -25.797  1.00  0.00    -0.265 OA
HETATM   14  N4  UNL     1      -4.524  49.276 -27.797  1.00  0.00    -0.266 N 
HETATM   15  H16 UNL     1      -4.184  50.061 -28.341  1.00  0.00     0.190 HD
BRANCH  14  16
HETATM   16  N5  UNL     1      -5.470  48.440 -28.314  1.00  0.00    -0.307 N 
HETATM   17  C12 UNL     1      -5.168  47.870 -29.436  1.00  0.00     0.136 C 
ATOM     18  H5  UNL     1      -6.360  48.274 -27.845  1.00  0.00     0.186 HD
BRANCH  17  19
HETATM   19  C13 UNL     1      -6.077  46.962 -30.094  1.00  0.00     0.050 A 
HETATM   20  C14 UNL     1      -6.865  45.998 -29.479  1.00  0.00     0.032 A 
HETATM   21  C15 UNL     1      -7.606  45.324 -30.476  1.00  0.00     0.019 A 
HETATM   22  C16 UNL     1      -7.262  45.885 -31.683  1.00  0.00     0.091 A 
HETATM   23  N6  UNL     1      -6.338  46.875 -31.449  1.00  0.00    -0.360 N 
HETATM   24  C17 UNL     1      -5.747  47.689 -32.492  1.00  0.00     0.155 C 
ENDBRANCH  17  19
ENDBRANCH  14  16
ENDBRANCH   9  12
BRANCH  10  25
HETATM   25  N7  UNL     1      -2.649  51.173 -28.161  1.00  0.00    -0.397 N 
HETATM   26  H24 UNL     1      -2.474  52.051 -28.636  1.00  0.00     0.156 HD
HETATM   27  H25 UNL     1      -3.436  50.661 -28.574  1.00  0.00     0.156 HD
ENDBRANCH  10  25
BRANCH   4  28
HETATM   28  N1  UNL     1       0.866  53.462 -23.057  1.00  0.00    -0.277 NA
HETATM   29  H5  UNL     1       1.802  53.598 -23.454  1.00  0.00     0.129 HD
BRANCH  28  30
HETATM   30  C5  UNL     1       0.980  52.590 -21.884  1.00  0.00     0.124 C 
BRANCH  30  31
HETATM   31  C6  UNL     1       0.986  53.449 -20.597  1.00  0.00     0.286 C 
BRANCH  31  32
HETATM   32  N2  UNL     1       0.008  53.011 -19.574  1.00  0.00     0.081 N 
HETATM   33  C7  UNL     1       0.663  52.598 -18.332  1.00  0.00     0.309 C 
HETATM   34  C8  UNL     1      -0.803  51.910 -20.099  1.00  0.00     0.309 C 
ENDBRANCH  31  32
ENDBRANCH  30  31
ENDBRANCH  28  30
ENDBRANCH   4  28
TORSDOF 8
ENDMDL
MODEL 9
REMARK minimizedAffinity -7.31876659
REMARK  8 active torsions:
REMARK  status: ('A' for Active; 'I' for Inactive)
REMARK    1  A    between atoms: C4_4  and  N1_5 
REMARK    2  A    between atoms: N1_5  and  C5_6 
REMARK    3  A    between atoms: C5_6  and  C6_7 
REMARK    4  A    between atoms: C6_7  and  N2_8 
REMARK    5  A    between atoms: C10_15  and  C11_16 
REMARK       I    between atoms: C11_16  and  N4_18 
REMARK    6  A    between atoms: N4_18  and  N5_19 
REMARK    7  A    between atoms: C12_21  and  C13_22 
REMARK    8  A    between atoms: C18_28  and  N7_29 
ROOT
HETATM    1  C1  UNL     1       0.285  53.253 -26.903  1.00  0.00     0.049 C 
HETATM    2  C2  UNL     1      -0.183  52.527 -25.674  1.00  0.00    -0.044 A 
HETATM    3  C3  UNL     1       0.380  52.866 -24.430  1.00  0.00     0.050 A 
HETATM    4  C4  UNL     1      -0.011  52.213 -23.267  1.00  0.00     0.081 A 
HETATM    5  N3  UNL     1      -0.913  51.226 -23.248  1.00  0.00    -0.341 N 
ATOM      6  H3  UNL     1      -1.174  50.741 -22.390  1.00  0.00     0.167 HD
HETATM    7  C9  UNL     1      -1.451  50.918 -24.443  1.00  0.00     0.089 A 
HETATM    8  S1  UNL     1      -2.609  49.677 -24.536  1.00  0.00    -0.064 SA
HETATM    9  C10 UNL     1      -2.808  49.886 -26.224  1.00  0.00     0.103 A 
HETATM   10  C18 UNL     1      -1.986  50.896 -26.696  1.00  0.00     0.062 A 
HETATM   11  C19 UNL     1      -1.172  51.505 -25.673  1.00  0.00     0.032 A 
ENDROOT
BRANCH   9  12
HETATM   12  C11 UNL     1      -3.763  49.078 -26.983  1.00  0.00     0.279 C 
HETATM   13  O1  UNL     1      -3.521  48.670 -28.120  1.00  0.00    -0.265 OA
HETATM   14  N4  UNL     1      -4.960  48.806 -26.326  1.00  0.00    -0.266 N 
HETATM   15  H16 UNL     1      -5.102  49.161 -25.388  1.00  0.00     0.190 HD
BRANCH  14  16
HETATM   16  N5  UNL     1      -5.931  48.065 -26.935  1.00  0.00    -0.307 N 
HETATM   17  C12 UNL     1      -5.729  47.782 -28.181  1.00  0.00     0.136 C 
ATOM     18  H5  UNL     1      -6.765  47.753 -26.437  1.00  0.00     0.186 HD
BRANCH  17  19
HETATM   19  C13 UNL     1      -6.676  47.005 -28.945  1.00  0.00     0.050 A 
HETATM   20  C14 UNL     1      -7.218  45.780 -28.581  1.00  0.00     0.032 A 
HETATM   21  C15 UNL     1      -8.098  45.358 -29.604  1.00  0.00     0.019 A 
HETATM   22  C16 UNL     1      -8.081  46.330 -30.575  1.00  0.00     0.091 A 
HETATM   23  N6  UNL     1      -7.222  47.324 -30.174  1.00  0.00    -0.360 N 
HETATM   24  C17 UNL     1      -6.953  48.519 -30.950  1.00  0.00     0.155 C 
ENDBRANCH  17  19
ENDBRANCH  14  16
ENDBRANCH   9  12
BRANCH  10  25
HETATM   25  N7  UNL     1      -1.964  51.256 -28.004  1.00  0.00    -0.397 N 
HETATM   26  H24 UNL     1      -1.645  52.170 -28.302  1.00  0.00     0.156 HD
HETATM   27  H25 UNL     1      -2.678  50.872 -28.633  1.00  0.00     0.156 HD
ENDBRANCH  10  25
BRANCH   4  28
HETATM   28  N1  UNL     1       0.556  52.543 -22.034  1.00  0.00    -0.277 NA
HETATM   29  H5  UNL     1       1.570  52.492 -22.180  1.00  0.00     0.129 HD
BRANCH  28  30
HETATM   30  C5  UNL     1       0.194  51.629 -20.947  1.00  0.00     0.124 C 
BRANCH  30  31
HETATM   31  C6  UNL     1      -0.240  52.444 -19.705  1.00  0.00     0.286 C 
BRANCH  31  32
HETATM   32  N2  UNL     1      -0.956  51.649 -18.681  1.00  0.00     0.081 N 
HETATM   33  C7  UNL     1      -0.417  50.293 -18.564  1.00  0.00     0.309 C 
HETATM   34  C8  UNL     1      -2.384  51.591 -19.004  1.00  0.00     0.309 C 
ENDBRANCH  31  32
ENDBRANCH  30  31
ENDBRANCH  28  30
ENDBRANCH   4  28
TORSDOF 8
ENDMDL
