MODEL 1
REMARK minimizedAffinity -9.84532547
REMARK  8 active torsions:
REMARK  status: ('A' for Active; 'I' for Inactive)
REMARK    1  A    between atoms: O1_2  and  C2_3 
REMARK    2  A    between atoms: C6_7  and  C7_8 
REMARK    3  A    between atoms: N1_10  and  C9_11 
REMARK    4  A    between atoms: C12_14  and  O2_15 
REMARK    5  A    between atoms: O2_15  and  C13_16 
REMARK    6  A    between atoms: C13_16  and  C14_17 
REMARK    7  A    between atoms: C14_17  and  N2_18 
REMARK    8  A    between atoms: C22_32  and  N6_33 
ROOT
HETATM    1  C7  UNL     1      -0.568  52.480 -23.685  1.00  0.00     0.007 A 
HETATM    2  C8  UNL     1      -1.374  51.410 -24.012  1.00  0.00     0.112 A 
HETATM    3  N1  UNL     1      -1.704  51.460 -25.359  1.00  0.00    -0.307 N 
HETATM    4  C20 UNL     1      -1.087  52.600 -25.887  1.00  0.00     0.127 A 
HETATM    5  N4  UNL     1      -1.130  53.018 -27.169  1.00  0.00    -0.337 N 
ATOM      6  H4  UNL     1      -1.639  52.526 -27.904  1.00  0.00     0.168 HD
HETATM    7  C21 UNL     1      -0.438  54.142 -27.378  1.00  0.00     0.183 A 
HETATM    8  N5  UNL     1       0.253  54.864 -26.483  1.00  0.00    -0.343 N 
ATOM      9  H5  UNL     1       0.733  55.721 -26.759  1.00  0.00     0.167 HD
HETATM   10  C22 UNL     1       0.294  54.428 -25.213  1.00  0.00     0.093 A 
HETATM   11  C23 UNL     1      -0.386  53.245 -24.869  1.00  0.00     0.059 A 
ENDROOT
BRANCH   3  12
HETATM   12  C9  UNL     1      -2.524  50.492 -26.040  1.00  0.00     0.040 A 
HETATM   13  C10 UNL     1      -3.019  49.368 -25.357  1.00  0.00     0.033 A 
HETATM   14  C11 UNL     1      -3.816  48.413 -26.008  1.00  0.00     0.039 A 
HETATM   15  C12 UNL     1      -4.131  48.561 -27.355  1.00  0.00     0.069 A 
HETATM   16  C18 UNL     1      -3.651  49.677 -28.039  1.00  0.00     0.039 A 
HETATM   17  C19 UNL     1      -2.857  50.633 -27.393  1.00  0.00     0.033 A 
BRANCH  15  18
HETATM   18  O2  UNL     1      -4.887  47.708 -28.106  1.00  0.00    -0.350 OA
BRANCH  18  19
HETATM   19  C13 UNL     1      -5.312  48.170 -29.391  1.00  0.00     0.196 C 
BRANCH  19  20
HETATM   20  C14 UNL     1      -5.767  46.970 -30.219  1.00  0.00     0.156 C 
BRANCH  20  21
HETATM   21  N2  UNL     1      -5.263  47.016 -31.580  1.00  0.00    -0.350 N 
HETATM   22  C15 UNL     1      -5.227  48.111 -32.396  1.00  0.00     0.108 A 
HETATM   23  C16 UNL     1      -4.682  47.655 -33.575  1.00  0.00     0.106 A 
HETATM   24  N3  UNL     1      -4.397  46.314 -33.496  1.00  0.00    -0.361 N 
HETATM   25  C17 UNL     1      -4.760  45.957 -32.284  1.00  0.00     0.182 A 
ATOM     26  H3  UNL     1      -3.991  45.723 -34.221  1.00  0.00     0.166 HD
ENDBRANCH  20  21
ENDBRANCH  19  20
ENDBRANCH  18  19
ENDBRANCH  15  18
ENDBRANCH   3  12
BRANCH   1  27
HETATM   27  C6  UNL     1      -0.032  52.664 -22.347  1.00  0.00    -0.021 A 
HETATM   28  C5  UNL     1       1.046  53.528 -22.129  1.00  0.00     0.012 A 
HETATM   29  C4  UNL     1       1.557  53.697 -20.843  1.00  0.00     0.004 A 
HETATM   30  C3  UNL     1       0.993  52.997 -19.774  1.00  0.00     0.037 A 
HETATM   31  C2  UNL     1      -0.084  52.130 -19.978  1.00  0.00     0.069 A 
HETATM   32  C24 UNL     1      -0.599  51.972 -21.266  1.00  0.00     0.049 A 
BRANCH  31  33
HETATM   33  O1  UNL     1      -0.534  51.504 -18.849  1.00  0.00    -0.356 OA
HETATM   34  C1  UNL     1      -1.908  51.679 -18.523  1.00  0.00     0.210 C 
ENDBRANCH  31  33
ENDBRANCH   1  27
BRANCH  10  35
HETATM   35  N6  UNL     1       1.009  55.211 -24.318  1.00  0.00    -0.288 NA
HETATM   36  H20 UNL     1       0.689  55.158 -23.360  1.00  0.00     0.125 HD
HETATM   37  H21 UNL     1       1.145  56.145 -24.691  1.00  0.00     0.125 HD
ENDBRANCH  10  35
TORSDOF 8
ENDMDL
MODEL 2
REMARK minimizedAffinity -9.52285004
REMARK  8 active torsions:
REMARK  status: ('A' for Active; 'I' for Inactive)
REMARK    1  A    between atoms: O1_2  and  C2_3 
REMARK    2  A    between atoms: C6_7  and  C7_8 
REMARK    3  A    between atoms: N1_10  and  C9_11 
REMARK    4  A    between atoms: C12_14  and  O2_15 
REMARK    5  A    between atoms: O2_15  and  C13_16 
REMARK    6  A    between atoms: C13_16  and  C14_17 
REMARK    7  A    between atoms: C14_17  and  N2_18 
REMARK    8  A    between atoms: C22_32  and  N6_33 
ROOT
HETATM    1  C7  UNL     1      -0.604  52.398 -23.548  1.00  0.00     0.007 A 
HETATM    2  C8  UNL     1      -1.416  51.344 -23.914  1.00  0.00     0.112 A 
HETATM    3  N1  UNL     1      -1.699  51.415 -25.271  1.00  0.00    -0.307 N 
HETATM    4  C20 UNL     1      -1.048  52.551 -25.764  1.00  0.00     0.127 A 
HETATM    5  N4  UNL     1      -1.043  52.984 -27.041  1.00  0.00    -0.337 N 
ATOM      6  H4  UNL     1      -1.534  52.509 -27.798  1.00  0.00     0.168 HD
HETATM    7  C21 UNL     1      -0.327  54.100 -27.214  1.00  0.00     0.183 A 
HETATM    8  N5  UNL     1       0.345  54.801 -26.288  1.00  0.00    -0.343 N 
ATOM      9  H5  UNL     1       0.847  55.653 -26.538  1.00  0.00     0.167 HD
HETATM   10  C22 UNL     1       0.338  54.349 -25.023  1.00  0.00     0.093 A 
HETATM   11  C23 UNL     1      -0.371  53.174 -24.716  1.00  0.00     0.059 A 
ENDROOT
BRANCH   3  12
HETATM   12  C9  UNL     1      -2.511  50.468 -25.990  1.00  0.00     0.040 A 
HETATM   13  C10 UNL     1      -3.012  49.323 -25.347  1.00  0.00     0.033 A 
HETATM   14  C11 UNL     1      -3.801  48.388 -26.035  1.00  0.00     0.039 A 
HETATM   15  C12 UNL     1      -4.102  48.577 -27.381  1.00  0.00     0.069 A 
HETATM   16  C18 UNL     1      -3.616  49.714 -28.025  1.00  0.00     0.039 A 
HETATM   17  C19 UNL     1      -2.830  50.651 -27.341  1.00  0.00     0.033 A 
BRANCH  15  18
HETATM   18  O2  UNL     1      -4.850  47.748 -28.166  1.00  0.00    -0.350 OA
BRANCH  18  19
HETATM   19  C13 UNL     1      -5.250  48.243 -29.446  1.00  0.00     0.196 C 
BRANCH  19  20
HETATM   20  C14 UNL     1      -6.290  47.295 -30.038  1.00  0.00     0.156 C 
BRANCH  20  21
HETATM   21  N2  UNL     1      -7.640  47.821 -29.933  1.00  0.00    -0.350 N 
HETATM   22  C15 UNL     1      -8.545  47.941 -30.949  1.00  0.00     0.108 A 
HETATM   23  C16 UNL     1      -9.660  48.497 -30.364  1.00  0.00     0.106 A 
HETATM   24  N3  UNL     1      -9.450  48.723 -29.027  1.00  0.00    -0.361 N 
HETATM   25  C17 UNL     1      -8.223  48.308 -28.797  1.00  0.00     0.182 A 
ATOM     26  H3  UNL     1     -10.103  49.126 -28.356  1.00  0.00     0.166 HD
ENDBRANCH  20  21
ENDBRANCH  19  20
ENDBRANCH  18  19
ENDBRANCH  15  18
ENDBRANCH   3  12
BRANCH   1  27
HETATM   27  C6  UNL     1      -0.110  52.558 -22.191  1.00  0.00    -0.021 A 
HETATM   28  C5  UNL     1       1.121  53.180 -21.954  1.00  0.00     0.012 A 
HETATM   29  C4  UNL     1       1.589  53.326 -20.649  1.00  0.00     0.004 A 
HETATM   30  C3  UNL     1       0.830  52.846 -19.581  1.00  0.00     0.037 A 
HETATM   31  C2  UNL     1      -0.401  52.222 -19.802  1.00  0.00     0.069 A 
HETATM   32  C24 UNL     1      -0.872  52.086 -21.110  1.00  0.00     0.049 A 
BRANCH  31  33
HETATM   33  O1  UNL     1      -1.035  51.794 -18.670  1.00  0.00    -0.356 OA
HETATM   34  C1  UNL     1      -2.430  51.531 -18.777  1.00  0.00     0.210 C 
ENDBRANCH  31  33
ENDBRANCH   1  27
BRANCH  10  35
HETATM   35  N6  UNL     1       1.034  55.111 -24.095  1.00  0.00    -0.288 NA
HETATM   36  H20 UNL     1       0.682  55.052 -23.149  1.00  0.00     0.125 HD
HETATM   37  H21 UNL     1       1.197  56.047 -24.452  1.00  0.00     0.125 HD
ENDBRANCH  10  35
TORSDOF 8
ENDMDL
MODEL 3
REMARK minimizedAffinity -8.98172379
REMARK  8 active torsions:
REMARK  status: ('A' for Active; 'I' for Inactive)
REMARK    1  A    between atoms: O1_2  and  C2_3 
REMARK    2  A    between atoms: C6_7  and  C7_8 
REMARK    3  A    between atoms: N1_10  and  C9_11 
REMARK    4  A    between atoms: C12_14  and  O2_15 
REMARK    5  A    between atoms: O2_15  and  C13_16 
REMARK    6  A    between atoms: C13_16  and  C14_17 
REMARK    7  A    between atoms: C14_17  and  N2_18 
REMARK    8  A    between atoms: C22_32  and  N6_33 
ROOT
HETATM    1  C7  UNL     1      -0.125  51.710 -20.972  1.00  0.00     0.007 A 
HETATM    2  C8  UNL     1      -0.860  50.955 -21.863  1.00  0.00     0.112 A 
HETATM    3  N1  UNL     1      -0.764  51.499 -23.136  1.00  0.00    -0.307 N 
HETATM    4  C20 UNL     1       0.052  52.631 -23.035  1.00  0.00     0.127 A 
HETATM    5  N4  UNL     1       0.423  53.448 -24.041  1.00  0.00    -0.337 N 
ATOM      6  H4  UNL     1       0.131  53.317 -25.009  1.00  0.00     0.168 HD
HETATM    7  C21 UNL     1       1.215  54.449 -23.641  1.00  0.00     0.183 A 
HETATM    8  N5  UNL     1       1.647  54.712 -22.398  1.00  0.00    -0.343 N 
ATOM      9  H5  UNL     1       2.241  55.520 -22.210  1.00  0.00     0.167 HD
HETATM   10  C22 UNL     1       1.277  53.881 -21.409  1.00  0.00     0.093 A 
HETATM   11  C23 UNL     1       0.453  52.780 -21.707  1.00  0.00     0.059 A 
ENDROOT
BRANCH   3  12
HETATM   12  C9  UNL     1      -1.400  50.958 -24.310  1.00  0.00     0.040 A 
HETATM   13  C10 UNL     1      -2.522  50.120 -24.193  1.00  0.00     0.033 A 
HETATM   14  C11 UNL     1      -3.149  49.582 -25.327  1.00  0.00     0.039 A 
HETATM   15  C12 UNL     1      -2.666  49.867 -26.600  1.00  0.00     0.069 A 
HETATM   16  C18 UNL     1      -1.557  50.703 -26.726  1.00  0.00     0.039 A 
HETATM   17  C19 UNL     1      -0.929  51.245 -25.597  1.00  0.00     0.033 A 
BRANCH  15  18
HETATM   18  O2  UNL     1      -3.175  49.407 -27.780  1.00  0.00    -0.350 OA
BRANCH  18  19
HETATM   19  C13 UNL     1      -3.750  48.098 -27.778  1.00  0.00     0.196 C 
BRANCH  19  20
HETATM   20  C14 UNL     1      -5.267  48.226 -27.657  1.00  0.00     0.156 C 
BRANCH  20  21
HETATM   21  N2  UNL     1      -5.939  48.057 -28.934  1.00  0.00    -0.350 N 
HETATM   22  C15 UNL     1      -5.340  47.871 -30.147  1.00  0.00     0.108 A 
HETATM   23  C16 UNL     1      -6.382  47.777 -31.043  1.00  0.00     0.106 A 
HETATM   24  N3  UNL     1      -7.589  47.910 -30.405  1.00  0.00    -0.361 N 
HETATM   25  C17 UNL     1      -7.291  48.080 -29.136  1.00  0.00     0.182 A 
ATOM     26  H3  UNL     1      -8.519  47.884 -30.825  1.00  0.00     0.166 HD
ENDBRANCH  20  21
ENDBRANCH  19  20
ENDBRANCH  18  19
ENDBRANCH  15  18
ENDBRANCH   3  12
BRANCH   1  27
HETATM   27  C6  UNL     1      -0.008  51.352 -19.569  1.00  0.00    -0.021 A 
HETATM   28  C5  UNL     1      -0.544  50.149 -19.098  1.00  0.00     0.012 A 
HETATM   29  C4  UNL     1      -0.431  49.815 -17.749  1.00  0.00     0.004 A 
HETATM   30  C3  UNL     1       0.215  50.686 -16.870  1.00  0.00     0.037 A 
HETATM   31  C2  UNL     1       0.755  51.891 -17.326  1.00  0.00     0.069 A 
HETATM   32  C24 UNL     1       0.648  52.218 -18.680  1.00  0.00     0.049 A 
BRANCH  31  33
HETATM   33  O1  UNL     1       1.352  52.651 -16.360  1.00  0.00    -0.356 OA
HETATM   34  C1  UNL     1       2.768  52.778 -16.427  1.00  0.00     0.210 C 
ENDBRANCH  31  33
ENDBRANCH   1  27
BRANCH  10  35
HETATM   35  N6  UNL     1       1.735  54.197 -20.138  1.00  0.00    -0.288 NA
HETATM   36  H20 UNL     1       1.138  53.885 -19.383  1.00  0.00     0.125 HD
HETATM   37  H21 UNL     1       2.035  55.166 -20.098  1.00  0.00     0.125 HD
ENDBRANCH  10  35
TORSDOF 8
ENDMDL
MODEL 4
REMARK minimizedAffinity -8.94431877
REMARK  8 active torsions:
REMARK  status: ('A' for Active; 'I' for Inactive)
REMARK    1  A    between atoms: O1_2  and  C2_3 
REMARK    2  A    between atoms: C6_7  and  C7_8 
REMARK    3  A    between atoms: N1_10  and  C9_11 
REMARK    4  A    between atoms: C12_14  and  O2_15 
REMARK    5  A    between atoms: O2_15  and  C13_16 
REMARK    6  A    between atoms: C13_16  and  C14_17 
REMARK    7  A    between atoms: C14_17  and  N2_18 
REMARK    8  A    between atoms: C22_32  and  N6_33 
ROOT
HETATM    1  C7  UNL     1      -1.786  51.466 -22.123  1.00  0.00     0.007 A 
HETATM    2  C8  UNL     1      -1.729  51.080 -23.446  1.00  0.00     0.112 A 
HETATM    3  N1  UNL     1      -2.929  50.490 -23.819  1.00  0.00    -0.307 N 
HETATM    4  C20 UNL     1      -3.757  50.505 -22.691  1.00  0.00     0.127 A 
HETATM    5  N4  UNL     1      -5.024  50.046 -22.617  1.00  0.00    -0.337 N 
ATOM      6  H4  UNL     1      -5.517  49.626 -23.405  1.00  0.00     0.168 HD
HETATM    7  C21 UNL     1      -5.568  50.199 -21.406  1.00  0.00     0.183 A 
HETATM    8  N5  UNL     1      -5.004  50.729 -20.309  1.00  0.00    -0.343 N 
ATOM      9  H5  UNL     1      -5.517  50.780 -19.429  1.00  0.00     0.167 HD
HETATM   10  C22 UNL     1      -3.746  51.191 -20.404  1.00  0.00     0.093 A 
HETATM   11  C23 UNL     1      -3.069  51.098 -21.634  1.00  0.00     0.059 A 
ENDROOT
BRANCH   3  12
HETATM   12  C9  UNL     1      -3.220  49.981 -25.134  1.00  0.00     0.040 A 
HETATM   13  C10 UNL     1      -3.003  50.778 -26.272  1.00  0.00     0.033 A 
HETATM   14  C11 UNL     1      -3.286  50.298 -27.560  1.00  0.00     0.039 A 
HETATM   15  C12 UNL     1      -3.794  49.014 -27.737  1.00  0.00     0.069 A 
HETATM   16  C18 UNL     1      -4.004  48.214 -26.615  1.00  0.00     0.039 A 
HETATM   17  C19 UNL     1      -3.722  48.688 -25.327  1.00  0.00     0.033 A 
BRANCH  15  18
HETATM   18  O2  UNL     1      -4.115  48.429 -28.928  1.00  0.00    -0.350 OA
BRANCH  18  19
HETATM   19  C13 UNL     1      -5.504  48.302 -29.240  1.00  0.00     0.196 C 
BRANCH  19  20
HETATM   20  C14 UNL     1      -5.732  46.964 -29.940  1.00  0.00     0.156 C 
BRANCH  20  21
HETATM   21  N2  UNL     1      -5.404  47.017 -31.354  1.00  0.00    -0.350 N 
HETATM   22  C15 UNL     1      -5.971  47.836 -32.288  1.00  0.00     0.108 A 
HETATM   23  C16 UNL     1      -5.345  47.510 -33.471  1.00  0.00     0.106 A 
HETATM   24  N3  UNL     1      -4.423  46.512 -33.276  1.00  0.00    -0.361 N 
HETATM   25  C17 UNL     1      -4.483  46.234 -31.992  1.00  0.00     0.182 A 
ATOM     26  H3  UNL     1      -3.821  46.079 -33.977  1.00  0.00     0.166 HD
ENDBRANCH  20  21
ENDBRANCH  19  20
ENDBRANCH  18  19
ENDBRANCH  15  18
ENDBRANCH   3  12
BRANCH   1  27
HETATM   27  C6  UNL     1      -0.684  52.150 -21.469  1.00  0.00    -0.021 A 
HETATM   28  C5  UNL     1       0.173  52.976 -22.206  1.00  0.00     0.012 A 
HETATM   29  C4  UNL     1       1.231  53.626 -21.572  1.00  0.00     0.004 A 
HETATM   30  C3  UNL     1       1.436  53.448 -20.202  1.00  0.00     0.037 A 
HETATM   31  C2  UNL     1       0.588  52.626 -19.455  1.00  0.00     0.069 A 
HETATM   32  C24 UNL     1      -0.476  51.984 -20.091  1.00  0.00     0.049 A 
BRANCH  31  33
HETATM   33  O1  UNL     1       0.906  52.534 -18.129  1.00  0.00    -0.356 OA
HETATM   34  C1  UNL     1       0.364  51.429 -17.414  1.00  0.00     0.210 C 
ENDBRANCH  31  33
ENDBRANCH   1  27
BRANCH  10  35
HETATM   35  N6  UNL     1      -3.196  51.719 -19.244  1.00  0.00    -0.288 NA
HETATM   36  H20 UNL     1      -2.190  51.644 -19.180  1.00  0.00     0.125 HD
HETATM   37  H21 UNL     1      -3.718  51.409 -18.430  1.00  0.00     0.125 HD
ENDBRANCH  10  35
TORSDOF 8
ENDMDL
MODEL 5
REMARK minimizedAffinity -8.86982536
REMARK  8 active torsions:
REMARK  status: ('A' for Active; 'I' for Inactive)
REMARK    1  A    between atoms: O1_2  and  C2_3 
REMARK    2  A    between atoms: C6_7  and  C7_8 
REMARK    3  A    between atoms: N1_10  and  C9_11 
REMARK    4  A    between atoms: C12_14  and  O2_15 
REMARK    5  A    between atoms: O2_15  and  C13_16 
REMARK    6  A    between atoms: C13_16  and  C14_17 
REMARK    7  A    between atoms: C14_17  and  N2_18 
REMARK    8  A    between atoms: C22_32  and  N6_33 
ROOT
HETATM    1  C7  UNL     1      -1.292  51.095 -24.201  1.00  0.00     0.007 A 
HETATM    2  C8  UNL     1      -2.350  50.256 -24.488  1.00  0.00     0.112 A 
HETATM    3  N1  UNL     1      -2.546  50.195 -25.860  1.00  0.00    -0.307 N 
HETATM    4  C20 UNL     1      -1.584  51.025 -26.447  1.00  0.00     0.127 A 
HETATM    5  N4  UNL     1      -1.405  51.242 -27.766  1.00  0.00    -0.337 N 
ATOM      6  H4  UNL     1      -1.977  50.808 -28.490  1.00  0.00     0.168 HD
HETATM    7  C21 UNL     1      -0.400  52.084 -28.028  1.00  0.00     0.183 A 
HETATM    8  N5  UNL     1       0.402  52.709 -27.152  1.00  0.00    -0.343 N 
ATOM      9  H5  UNL     1       1.132  53.345 -27.472  1.00  0.00     0.167 HD
HETATM   10  C22 UNL     1       0.217  52.473 -25.843  1.00  0.00     0.093 A 
HETATM   11  C23 UNL     1      -0.804  51.592 -25.439  1.00  0.00     0.059 A 
ENDROOT
BRANCH   3  12
HETATM   12  C9  UNL     1      -3.559  49.404 -26.510  1.00  0.00     0.040 A 
HETATM   13  C10 UNL     1      -3.633  49.351 -27.913  1.00  0.00     0.033 A 
HETATM   14  C11 UNL     1      -4.618  48.589 -28.561  1.00  0.00     0.039 A 
HETATM   15  C12 UNL     1      -5.550  47.869 -27.821  1.00  0.00     0.069 A 
HETATM   16  C18 UNL     1      -5.480  47.910 -26.429  1.00  0.00     0.039 A 
HETATM   17  C19 UNL     1      -4.497  48.667 -25.778  1.00  0.00     0.033 A 
BRANCH  15  18
HETATM   18  O2  UNL     1      -6.558  47.096 -28.322  1.00  0.00    -0.350 OA
BRANCH  18  19
HETATM   19  C13 UNL     1      -6.917  47.298 -29.691  1.00  0.00     0.196 C 
BRANCH  19  20
HETATM   20  C14 UNL     1      -6.395  46.123 -30.515  1.00  0.00     0.156 C 
BRANCH  20  21
HETATM   21  N2  UNL     1      -5.769  46.553 -31.754  1.00  0.00    -0.350 N 
HETATM   22  C15 UNL     1      -6.080  47.670 -32.475  1.00  0.00     0.108 A 
HETATM   23  C16 UNL     1      -5.232  47.637 -33.560  1.00  0.00     0.106 A 
HETATM   24  N3  UNL     1      -4.426  46.527 -33.516  1.00  0.00    -0.361 N 
HETATM   25  C17 UNL     1      -4.774  45.892 -32.419  1.00  0.00     0.182 A 
ATOM     26  H3  UNL     1      -3.712  46.253 -34.191  1.00  0.00     0.166 HD
ENDBRANCH  20  21
ENDBRANCH  19  20
ENDBRANCH  18  19
ENDBRANCH  15  18
ENDBRANCH   3  12
BRANCH   1  27
HETATM   27  C6  UNL     1      -0.831  51.319 -22.842  1.00  0.00    -0.021 A 
HETATM   28  C5  UNL     1      -1.438  50.656 -21.769  1.00  0.00     0.012 A 
HETATM   29  C4  UNL     1      -0.992  50.880 -20.468  1.00  0.00     0.004 A 
HETATM   30  C3  UNL     1       0.059  51.770 -20.237  1.00  0.00     0.037 A 
HETATM   31  C2  UNL     1       0.675  52.438 -21.299  1.00  0.00     0.069 A 
HETATM   32  C24 UNL     1       0.232  52.205 -22.602  1.00  0.00     0.049 A 
BRANCH  31  33
HETATM   33  O1  UNL     1       1.684  53.284 -20.932  1.00  0.00    -0.356 OA
HETATM   34  C1  UNL     1       1.748  54.537 -21.605  1.00  0.00     0.210 C 
ENDBRANCH  31  33
ENDBRANCH   1  27
BRANCH  10  35
HETATM   35  N6  UNL     1       1.059  53.149 -24.971  1.00  0.00    -0.288 NA
HETATM   36  H20 UNL     1       0.665  53.332 -24.057  1.00  0.00     0.125 HD
HETATM   37  H21 UNL     1       1.490  53.941 -25.436  1.00  0.00     0.125 HD
ENDBRANCH  10  35
TORSDOF 8
ENDMDL
MODEL 6
REMARK minimizedAffinity -8.80322933
REMARK  8 active torsions:
REMARK  status: ('A' for Active; 'I' for Inactive)
REMARK    1  A    between atoms: O1_2  and  C2_3 
REMARK    2  A    between atoms: C6_7  and  C7_8 
REMARK    3  A    between atoms: N1_10  and  C9_11 
REMARK    4  A    between atoms: C12_14  and  O2_15 
REMARK    5  A    between atoms: O2_15  and  C13_16 
REMARK    6  A    between atoms: C13_16  and  C14_17 
REMARK    7  A    between atoms: C14_17  and  N2_18 
REMARK    8  A    between atoms: C22_32  and  N6_33 
ROOT
HETATM    1  C7  UNL     1      -4.207  48.717 -26.314  1.00  0.00     0.007 A 
HETATM    2  C8  UNL     1      -3.933  48.395 -25.001  1.00  0.00     0.112 A 
HETATM    3  N1  UNL     1      -2.866  49.153 -24.540  1.00  0.00    -0.307 N 
HETATM    4  C20 UNL     1      -2.458  49.969 -25.601  1.00  0.00     0.127 A 
HETATM    5  N4  UNL     1      -1.462  50.878 -25.580  1.00  0.00    -0.337 N 
ATOM      6  H4  UNL     1      -0.886  51.062 -24.759  1.00  0.00     0.168 HD
HETATM    7  C21 UNL     1      -1.306  51.514 -26.746  1.00  0.00     0.183 A 
HETATM    8  N5  UNL     1      -2.002  51.339 -27.880  1.00  0.00    -0.343 N 
ATOM      9  H5  UNL     1      -1.781  51.877 -28.718  1.00  0.00     0.167 HD
HETATM   10  C22 UNL     1      -2.998  50.438 -27.880  1.00  0.00     0.093 A 
HETATM   11  C23 UNL     1      -3.270  49.712 -26.705  1.00  0.00     0.059 A 
ENDROOT
BRANCH   3  12
HETATM   12  C9  UNL     1      -2.321  49.080 -23.209  1.00  0.00     0.040 A 
HETATM   13  C10 UNL     1      -1.694  50.198 -22.632  1.00  0.00     0.033 A 
HETATM   14  C11 UNL     1      -1.155  50.142 -21.337  1.00  0.00     0.039 A 
HETATM   15  C12 UNL     1      -1.228  48.967 -20.595  1.00  0.00     0.069 A 
HETATM   16  C18 UNL     1      -1.855  47.856 -21.156  1.00  0.00     0.039 A 
HETATM   17  C19 UNL     1      -2.397  47.908 -22.447  1.00  0.00     0.033 A 
BRANCH  15  18
HETATM   18  O2  UNL     1      -0.742  48.776 -19.334  1.00  0.00    -0.350 OA
BRANCH  18  19
HETATM   19  C13 UNL     1      -1.159  49.700 -18.325  1.00  0.00     0.196 C 
BRANCH  19  20
HETATM   20  C14 UNL     1      -0.141  49.677 -17.186  1.00  0.00     0.156 C 
BRANCH  20  21
HETATM   21  N2  UNL     1       0.563  50.940 -17.051  1.00  0.00    -0.350 N 
HETATM   22  C15 UNL     1       1.333  51.330 -15.992  1.00  0.00     0.108 A 
HETATM   23  C16 UNL     1       1.770  52.594 -16.320  1.00  0.00     0.106 A 
HETATM   24  N3  UNL     1       1.277  52.979 -17.542  1.00  0.00    -0.361 N 
HETATM   25  C17 UNL     1       0.552  51.964 -17.956  1.00  0.00     0.182 A 
ATOM     26  H3  UNL     1       1.438  53.864 -18.024  1.00  0.00     0.166 HD
ENDBRANCH  20  21
ENDBRANCH  19  20
ENDBRANCH  18  19
ENDBRANCH  15  18
ENDBRANCH   3  12
BRANCH   1  27
HETATM   27  C6  UNL     1      -5.304  48.109 -27.046  1.00  0.00    -0.021 A 
HETATM   28  C5  UNL     1      -6.484  47.750 -26.385  1.00  0.00     0.012 A 
HETATM   29  C4  UNL     1      -7.531  47.164 -27.094  1.00  0.00     0.004 A 
HETATM   30  C3  UNL     1      -7.397  46.931 -28.465  1.00  0.00     0.037 A 
HETATM   31  C2  UNL     1      -6.224  47.283 -29.138  1.00  0.00     0.069 A 
HETATM   32  C24 UNL     1      -5.181  47.880 -28.426  1.00  0.00     0.049 A 
BRANCH  31  33
HETATM   33  O1  UNL     1      -6.223  46.993 -30.473  1.00  0.00    -0.356 OA
HETATM   34  C1  UNL     1      -4.963  47.013 -31.134  1.00  0.00     0.210 C 
ENDBRANCH  31  33
ENDBRANCH   1  27
BRANCH  10  35
HETATM   35  N6  UNL     1      -3.684  50.280 -29.076  1.00  0.00    -0.288 NA
HETATM   36  H20 UNL     1      -4.084  49.361 -29.216  1.00  0.00     0.125 HD
HETATM   37  H21 UNL     1      -3.143  50.653 -29.849  1.00  0.00     0.125 HD
ENDBRANCH  10  35
TORSDOF 8
ENDMDL
MODEL 7
REMARK minimizedAffinity -8.77164268
REMARK  8 active torsions:
REMARK  status: ('A' for Active; 'I' for Inactive)
REMARK    1  A    between atoms: O1_2  and  C2_3 
REMARK    2  A    between atoms: C6_7  and  C7_8 
REMARK    3  A    between atoms: N1_10  and  C9_11 
REMARK    4  A    between atoms: C12_14  and  O2_15 
REMARK    5  A    between atoms: O2_15  and  C13_16 
REMARK    6  A    between atoms: C13_16  and  C14_17 
REMARK    7  A    between atoms: C14_17  and  N2_18 
REMARK    8  A    between atoms: C22_32  and  N6_33 
ROOT
HETATM    1  C7  UNL     1      -0.900  51.449 -22.520  1.00  0.00     0.007 A 
HETATM    2  C8  UNL     1      -1.787  50.605 -23.155  1.00  0.00     0.112 A 
HETATM    3  N1  UNL     1      -1.759  50.832 -24.524  1.00  0.00    -0.307 N 
HETATM    4  C20 UNL     1      -0.829  51.854 -24.748  1.00  0.00     0.127 A 
HETATM    5  N4  UNL     1      -0.477  52.373 -25.942  1.00  0.00    -0.337 N 
ATOM      6  H4  UNL     1      -0.871  52.061 -26.829  1.00  0.00     0.168 HD
HETATM    7  C21 UNL     1       0.443  53.338 -25.843  1.00  0.00     0.183 A 
HETATM    8  N5  UNL     1       1.015  53.823 -24.730  1.00  0.00    -0.343 N 
ATOM      9  H5  UNL     1       1.700  54.577 -24.779  1.00  0.00     0.167 HD
HETATM   10  C22 UNL     1       0.660  53.286 -23.551  1.00  0.00     0.093 A 
HETATM   11  C23 UNL     1      -0.292  52.251 -23.523  1.00  0.00     0.059 A 
ENDROOT
BRANCH   3  12
HETATM   12  C9  UNL     1      -2.552  50.118 -25.491  1.00  0.00     0.040 A 
HETATM   13  C10 UNL     1      -2.636  50.571 -26.819  1.00  0.00     0.033 A 
HETATM   14  C11 UNL     1      -3.409  49.889 -27.772  1.00  0.00     0.039 A 
HETATM   15  C12 UNL     1      -4.115  48.744 -27.416  1.00  0.00     0.069 A 
HETATM   16  C18 UNL     1      -4.031  48.284 -26.103  1.00  0.00     0.039 A 
HETATM   17  C19 UNL     1      -3.260  48.960 -25.149  1.00  0.00     0.033 A 
BRANCH  15  18
HETATM   18  O2  UNL     1      -4.905  47.993 -28.239  1.00  0.00    -0.350 OA
BRANCH  18  19
HETATM   19  C13 UNL     1      -6.195  47.623 -27.748  1.00  0.00     0.196 C 
BRANCH  19  20
HETATM   20  C14 UNL     1      -6.958  46.906 -28.860  1.00  0.00     0.156 C 
BRANCH  20  21
HETATM   21  N2  UNL     1      -7.765  47.817 -29.653  1.00  0.00    -0.350 N 
HETATM   22  C15 UNL     1      -7.426  48.360 -30.859  1.00  0.00     0.108 A 
HETATM   23  C16 UNL     1      -8.496  49.158 -31.200  1.00  0.00     0.106 A 
HETATM   24  N3  UNL     1      -9.464  49.117 -30.228  1.00  0.00    -0.361 N 
HETATM   25  C17 UNL     1      -8.995  48.303 -29.308  1.00  0.00     0.182 A 
ATOM     26  H3  UNL     1     -10.357  49.611 -30.221  1.00  0.00     0.166 HD
ENDBRANCH  20  21
ENDBRANCH  19  20
ENDBRANCH  18  19
ENDBRANCH  15  18
ENDBRANCH   3  12
BRANCH   1  27
HETATM   27  C6  UNL     1      -0.686  51.407 -21.084  1.00  0.00    -0.021 A 
HETATM   28  C5  UNL     1      -0.422  52.582 -20.372  1.00  0.00     0.012 A 
HETATM   29  C4  UNL     1      -0.214  52.533 -18.994  1.00  0.00     0.004 A 
HETATM   30  C3  UNL     1      -0.265  51.307 -18.328  1.00  0.00     0.037 A 
HETATM   31  C2  UNL     1      -0.527  50.125 -19.026  1.00  0.00     0.069 A 
HETATM   32  C24 UNL     1      -0.744  50.180 -20.404  1.00  0.00     0.049 A 
BRANCH  31  33
HETATM   33  O1  UNL     1      -0.540  48.998 -18.254  1.00  0.00    -0.356 OA
HETATM   34  C1  UNL     1      -0.157  49.148 -16.891  1.00  0.00     0.210 C 
ENDBRANCH  31  33
ENDBRANCH   1  27
BRANCH  10  35
HETATM   35  N6  UNL     1       1.265  53.825 -22.424  1.00  0.00    -0.288 NA
HETATM   36  H20 UNL     1       0.715  53.764 -21.577  1.00  0.00     0.125 HD
HETATM   37  H21 UNL     1       1.661  54.736 -22.633  1.00  0.00     0.125 HD
ENDBRANCH  10  35
TORSDOF 8
ENDMDL
MODEL 8
REMARK minimizedAffinity -8.75353527
REMARK  8 active torsions:
REMARK  status: ('A' for Active; 'I' for Inactive)
REMARK    1  A    between atoms: O1_2  and  C2_3 
REMARK    2  A    between atoms: C6_7  and  C7_8 
REMARK    3  A    between atoms: N1_10  and  C9_11 
REMARK    4  A    between atoms: C12_14  and  O2_15 
REMARK    5  A    between atoms: O2_15  and  C13_16 
REMARK    6  A    between atoms: C13_16  and  C14_17 
REMARK    7  A    between atoms: C14_17  and  N2_18 
REMARK    8  A    between atoms: C22_32  and  N6_33 
ROOT
HETATM    1  C7  UNL     1      -1.112  50.683 -22.455  1.00  0.00     0.007 A 
HETATM    2  C8  UNL     1      -1.733  50.563 -23.681  1.00  0.00     0.112 A 
HETATM    3  N1  UNL     1      -2.484  49.397 -23.718  1.00  0.00    -0.307 N 
HETATM    4  C20 UNL     1      -2.322  48.767 -22.479  1.00  0.00     0.127 A 
HETATM    5  N4  UNL     1      -2.895  47.613 -22.082  1.00  0.00    -0.337 N 
ATOM      6  H4  UNL     1      -3.523  47.065 -22.670  1.00  0.00     0.168 HD
HETATM    7  C21 UNL     1      -2.557  47.260 -20.837  1.00  0.00     0.183 A 
HETATM    8  N5  UNL     1      -1.739  47.904 -19.991  1.00  0.00    -0.343 N 
ATOM      9  H5  UNL     1      -1.542  47.527 -19.064  1.00  0.00     0.167 HD
HETATM   10  C22 UNL     1      -1.185  49.058 -20.399  1.00  0.00     0.093 A 
HETATM   11  C23 UNL     1      -1.475  49.543 -21.687  1.00  0.00     0.059 A 
ENDROOT
BRANCH   3  12
HETATM   12  C9  UNL     1      -3.272  48.963 -24.844  1.00  0.00     0.040 A 
HETATM   13  C10 UNL     1      -2.684  48.813 -26.112  1.00  0.00     0.033 A 
HETATM   14  C11 UNL     1      -3.439  48.396 -27.219  1.00  0.00     0.039 A 
HETATM   15  C12 UNL     1      -4.796  48.125 -27.082  1.00  0.00     0.069 A 
HETATM   16  C18 UNL     1      -5.387  48.264 -25.827  1.00  0.00     0.039 A 
HETATM   17  C19 UNL     1      -4.637  48.678 -24.718  1.00  0.00     0.033 A 
BRANCH  15  18
HETATM   18  O2  UNL     1      -5.644  47.720 -28.074  1.00  0.00    -0.350 OA
BRANCH  18  19
HETATM   19  C13 UNL     1      -5.312  48.096 -29.412  1.00  0.00     0.196 C 
BRANCH  19  20
HETATM   20  C14 UNL     1      -6.396  47.575 -30.353  1.00  0.00     0.156 C 
BRANCH  20  21
HETATM   21  N2  UNL     1      -5.911  46.520 -31.224  1.00  0.00    -0.350 N 
HETATM   22  C15 UNL     1      -6.203  45.189 -31.127  1.00  0.00     0.108 A 
HETATM   23  C16 UNL     1      -5.505  44.598 -32.157  1.00  0.00     0.106 A 
HETATM   24  N3  UNL     1      -4.794  45.535 -32.866  1.00  0.00    -0.361 N 
HETATM   25  C17 UNL     1      -5.056  46.682 -32.279  1.00  0.00     0.182 A 
ATOM     26  H3  UNL     1      -4.192  45.375 -33.673  1.00  0.00     0.166 HD
ENDBRANCH  20  21
ENDBRANCH  19  20
ENDBRANCH  18  19
ENDBRANCH  15  18
ENDBRANCH   3  12
BRANCH   1  27
HETATM   27  C6  UNL     1      -0.290  51.830 -22.114  1.00  0.00    -0.021 A 
HETATM   28  C5  UNL     1       0.047  52.089 -20.781  1.00  0.00     0.012 A 
HETATM   29  C4  UNL     1       0.833  53.195 -20.461  1.00  0.00     0.004 A 
HETATM   30  C3  UNL     1       1.279  54.046 -21.474  1.00  0.00     0.037 A 
HETATM   31  C2  UNL     1       0.950  53.801 -22.810  1.00  0.00     0.069 A 
HETATM   32  C24 UNL     1       0.171  52.686 -23.127  1.00  0.00     0.049 A 
BRANCH  31  33
HETATM   33  O1  UNL     1       1.445  54.715 -23.697  1.00  0.00    -0.356 OA
HETATM   34  C1  UNL     1       0.612  55.056 -24.799  1.00  0.00     0.210 C 
ENDBRANCH  31  33
ENDBRANCH   1  27
BRANCH  10  35
HETATM   35  N6  UNL     1      -0.336  49.684 -19.498  1.00  0.00    -0.288 NA
HETATM   36  H20 UNL     1       0.388  50.250 -19.921  1.00  0.00     0.125 HD
HETATM   37  H21 UNL     1      -0.030  49.031 -18.784  1.00  0.00     0.125 HD
ENDBRANCH  10  35
TORSDOF 8
ENDMDL
MODEL 9
REMARK minimizedAffinity -8.73765469
REMARK  8 active torsions:
REMARK  status: ('A' for Active; 'I' for Inactive)
REMARK    1  A    between atoms: O1_2  and  C2_3 
REMARK    2  A    between atoms: C6_7  and  C7_8 
REMARK    3  A    between atoms: N1_10  and  C9_11 
REMARK    4  A    between atoms: C12_14  and  O2_15 
REMARK    5  A    between atoms: O2_15  and  C13_16 
REMARK    6  A    between atoms: C13_16  and  C14_17 
REMARK    7  A    between atoms: C14_17  and  N2_18 
REMARK    8  A    between atoms: C22_32  and  N6_33 
ROOT
HETATM    1  C7  UNL     1      -1.751  51.915 -23.327  1.00  0.00     0.007 A 
HETATM    2  C8  UNL     1      -0.810  51.912 -22.319  1.00  0.00     0.112 A 
HETATM    3  N1  UNL     1      -1.420  51.640 -21.103  1.00  0.00    -0.307 N 
HETATM    4  C20 UNL     1      -2.785  51.474 -21.360  1.00  0.00     0.127 A 
HETATM    5  N4  UNL     1      -3.744  51.176 -20.459  1.00  0.00    -0.337 N 
ATOM      6  H4  UNL     1      -3.559  51.043 -19.465  1.00  0.00     0.168 HD
HETATM    7  C21 UNL     1      -4.961  51.074 -21.001  1.00  0.00     0.183 A 
HETATM    8  N5  UNL     1      -5.308  51.238 -22.287  1.00  0.00    -0.343 N 
ATOM      9  H5  UNL     1      -6.279  51.149 -22.584  1.00  0.00     0.167 HD
HETATM   10  C22 UNL     1      -4.339  51.523 -23.173  1.00  0.00     0.093 A 
HETATM   11  C23 UNL     1      -3.010  51.644 -22.726  1.00  0.00     0.059 A 
ENDROOT
BRANCH   3  12
HETATM   12  C9  UNL     1      -0.732  51.551 -19.840  1.00  0.00     0.040 A 
HETATM   13  C10 UNL     1       0.004  52.643 -19.349  1.00  0.00     0.033 A 
HETATM   14  C11 UNL     1       0.684  52.570 -18.123  1.00  0.00     0.039 A 
HETATM   15  C12 UNL     1       0.646  51.402 -17.367  1.00  0.00     0.069 A 
HETATM   16  C18 UNL     1      -0.087  50.316 -17.843  1.00  0.00     0.039 A 
HETATM   17  C19 UNL     1      -0.769  50.385 -19.065  1.00  0.00     0.033 A 
BRANCH  15  18
HETATM   18  O2  UNL     1       1.264  51.196 -16.167  1.00  0.00    -0.350 OA
BRANCH  18  19
HETATM   19  C13 UNL     1       0.818  51.981 -15.058  1.00  0.00     0.196 C 
BRANCH  19  20
HETATM   20  C14 UNL     1      -0.114  51.132 -14.197  1.00  0.00     0.156 C 
BRANCH  20  21
HETATM   21  N2  UNL     1      -0.769  51.910 -13.159  1.00  0.00    -0.350 N 
HETATM   22  C15 UNL     1      -2.091  51.860 -12.821  1.00  0.00     0.108 A 
HETATM   23  C16 UNL     1      -2.229  52.779 -11.804  1.00  0.00     0.106 A 
HETATM   24  N3  UNL     1      -1.030  53.386 -11.527  1.00  0.00    -0.361 N 
HETATM   25  C17 UNL     1      -0.169  52.844 -12.361  1.00  0.00     0.182 A 
ATOM     26  H3  UNL     1      -0.845  54.103 -10.826  1.00  0.00     0.166 HD
ENDBRANCH  20  21
ENDBRANCH  19  20
ENDBRANCH  18  19
ENDBRANCH  15  18
ENDBRANCH   3  12
BRANCH   1  27
HETATM   27  C6  UNL     1      -1.393  52.131 -24.718  1.00  0.00    -0.021 A 
HETATM   28  C5  UNL     1      -2.387  52.215 -25.700  1.00  0.00     0.012 A 
HETATM   29  C4  UNL     1      -2.035  52.418 -27.034  1.00  0.00     0.004 A 
HETATM   30  C3  UNL     1      -0.689  52.533 -27.387  1.00  0.00     0.037 A 
HETATM   31  C2  UNL     1       0.313  52.451 -26.417  1.00  0.00     0.069 A 
HETATM   32  C24 UNL     1      -0.043  52.257 -25.081  1.00  0.00     0.049 A 
BRANCH  31  33
HETATM   33  O1  UNL     1       1.586  52.572 -26.900  1.00  0.00    -0.356 OA
HETATM   34  C1  UNL     1       2.487  51.509 -26.610  1.00  0.00     0.210 C 
ENDBRANCH  31  33
ENDBRANCH   1  27
BRANCH  10  35
HETATM   35  N6  UNL     1      -4.742  51.697 -24.490  1.00  0.00    -0.288 NA
HETATM   36  H20 UNL     1      -4.156  52.317 -25.034  1.00  0.00     0.125 HD
HETATM   37  H21 UNL     1      -5.740  51.874 -24.536  1.00  0.00     0.125 HD
ENDBRANCH  10  35
TORSDOF 8
ENDMDL
