MODEL 1
REMARK minimizedAffinity -9.71147633
REMARK CNNscore 0.321717083
REMARK CNNaffinity 7.5452857
REMARK  9 active torsions:
REMARK  status: ('A' for Active; 'I' for Inactive)
REMARK    1  A    between atoms: N1_2  and  S1_3 
REMARK    2  A    between atoms: S1_3  and  C2_6 
REMARK    3  A    between atoms: C9_13  and  C10_14 
REMARK    4  A    between atoms: C13_18  and  C14_19 
REMARK    5  A    between atoms: C14_19  and  C15_20 
REMARK    6  A    between atoms: C15_20  and  C16_21 
REMARK    7  A    between atoms: C16_21  and  N3_22 
REMARK       I    between atoms: N4_25  and  C19_26 
REMARK    8  A    between atoms: C19_26  and  C20_28 
REMARK    9  A    between atoms: C20_28  and  O4_29 
ROOT
HETATM    1  C10 UNL     1      -0.988   5.791  11.796  1.00  0.00     0.040 A 
HETATM    2  N2  UNL     1       0.158   5.108  11.454  1.00  0.00    -0.359 N 
HETATM    3  C11 UNL     1       1.203   5.979  11.339  1.00  0.00     0.016 A 
HETATM    4  C12 UNL     1       0.743   7.250  11.590  1.00  0.00    -0.027 A 
HETATM    5  C13 UNL     1      -0.649   7.144  11.883  1.00  0.00    -0.023 A 
HETATM    6  C23 UNL     1       1.641   8.444  11.552  1.00  0.00     0.041 C 
HETATM    7  C24 UNL     1       2.966   8.120  10.832  1.00  0.00     0.005 C 
HETATM    8  C25 UNL     1       3.547   6.761  11.268  1.00  0.00     0.006 C 
HETATM    9  C26 UNL     1       2.589   5.595  10.961  1.00  0.00     0.057 C 
HETATM   10  H9  UNL     1       0.221   4.110  11.282  1.00  0.00     0.166 HD
ENDROOT
BRANCH   1  11
HETATM   11  C9  UNL     1      -2.231   5.129  12.012  1.00  0.00     0.048 C 
HETATM   12  C8  UNL     1      -2.593   3.871  11.714  1.00  0.00     0.047 A 
HETATM   13  C6  UNL     1      -3.953   3.347  11.958  1.00  0.00     0.008 A 
HETATM   14  C27 UNL     1      -1.824   2.743  11.064  1.00  0.00     0.257 A 
HETATM   15  C5  UNL     1      -3.973   2.043  11.450  1.00  0.00     0.046 A 
HETATM   16  C7  UNL     1      -5.090   3.882  12.540  1.00  0.00     0.040 A 
HETATM   17  C4  UNL     1      -5.096   1.239  11.480  1.00  0.00     0.032 A 
HETATM   18  N5  UNL     1      -2.730   1.704  10.932  1.00  0.00    -0.322 N 
HETATM   19  C3  UNL     1      -6.251   1.772  12.056  1.00  0.00     0.027 A 
HETATM   20  C2  UNL     1      -6.238   3.076  12.593  1.00  0.00     0.080 A 
HETATM   21  H35 UNL     1      -2.483   0.819  10.514  1.00  0.00     0.169 HD
HETATM   22  O5  UNL     1      -0.654   2.715  10.731  1.00  0.00    -0.267 OA
BRANCH  20  23
HETATM   23  S1  UNL     1      -7.726   3.742  13.301  1.00  0.00     0.258 S 
HETATM   24  O1  UNL     1      -7.592   3.752  14.740  1.00  0.00    -0.201 OA
HETATM   25  O2  UNL     1      -8.845   3.109  12.639  1.00  0.00    -0.201 OA
BRANCH  23  26
HETATM   26  N1  UNL     1      -7.687   5.325  12.753  1.00  0.00    -0.320 N 
HETATM   27  C1  UNL     1      -8.835   5.852  12.026  1.00  0.00     0.159 C 
HETATM   28  H4  UNL     1      -6.755   5.639  12.484  1.00  0.00     0.171 HD
ENDBRANCH  23  26
ENDBRANCH  20  23
ENDBRANCH   1  11
BRANCH   5  29
HETATM   29  C14 UNL     1      -1.558   8.292  12.215  1.00  0.00     0.043 C 
BRANCH  29  30
HETATM   30  C15 UNL     1      -2.713   7.864  13.125  1.00  0.00     0.035 C 
BRANCH  30  31
HETATM   31  C16 UNL     1      -2.405   8.078  14.613  1.00  0.00     0.273 C 
BRANCH  31  32
HETATM   32  N3  UNL     1      -3.526   7.788  15.518  1.00  0.00     0.091 N 
HETATM   33  C17 UNL     1      -4.348   8.991  15.778  1.00  0.00     0.292 C 
HETATM   34  C18 UNL     1      -5.722   9.013  15.085  1.00  0.00     0.156 C 
HETATM   35  N4  UNL     1      -6.513   7.826  15.406  1.00  0.00    -0.347 N 
HETATM   36  C19 UNL     1      -7.893   7.925  15.471  1.00  0.00     0.243 C 
HETATM   37  C21 UNL     1      -5.753   6.600  15.676  1.00  0.00     0.156 C 
HETATM   38  O3  UNL     1      -8.492   8.967  15.201  1.00  0.00    -0.271 OA
HETATM   39  C22 UNL     1      -4.343   6.645  15.057  1.00  0.00     0.292 C 
BRANCH  36  40
HETATM   40  C20 UNL     1      -8.678   6.673  15.890  1.00  0.00     0.267 C 
BRANCH  40  41
HETATM   41  O4  UNL     1     -10.022   6.642  15.442  1.00  0.00    -0.392 OA
HETATM   42  H22 UNL     1      -9.983   6.688  14.471  1.00  0.00     0.210 HD
ENDBRANCH  40  41
ENDBRANCH  36  40
ENDBRANCH  31  32
ENDBRANCH  30  31
ENDBRANCH  29  30
ENDBRANCH   5  29
TORSDOF 9
ENDMDL
MODEL 2
REMARK minimizedAffinity -9.25799751
REMARK CNNscore 0.201588064
REMARK CNNaffinity 6.9671154
REMARK  9 active torsions:
REMARK  status: ('A' for Active; 'I' for Inactive)
REMARK    1  A    between atoms: N1_2  and  S1_3 
REMARK    2  A    between atoms: S1_3  and  C2_6 
REMARK    3  A    between atoms: C9_13  and  C10_14 
REMARK    4  A    between atoms: C13_18  and  C14_19 
REMARK    5  A    between atoms: C14_19  and  C15_20 
REMARK    6  A    between atoms: C15_20  and  C16_21 
REMARK    7  A    between atoms: C16_21  and  N3_22 
REMARK       I    between atoms: N4_25  and  C19_26 
REMARK    8  A    between atoms: C19_26  and  C20_28 
REMARK    9  A    between atoms: C20_28  and  O4_29 
ROOT
HETATM    1  C10 UNL     1      -0.791   5.473  12.133  1.00  0.00     0.040 A 
HETATM    2  N2  UNL     1      -0.031   5.342  10.991  1.00  0.00    -0.359 N 
HETATM    3  C11 UNL     1       1.194   5.911  11.180  1.00  0.00     0.016 A 
HETATM    4  C12 UNL     1       1.242   6.438  12.450  1.00  0.00    -0.027 A 
HETATM    5  C13 UNL     1      -0.014   6.165  13.065  1.00  0.00    -0.023 A 
HETATM    6  C23 UNL     1       2.457   7.130  12.978  1.00  0.00     0.041 C 
HETATM    7  C24 UNL     1       3.422   7.509  11.837  1.00  0.00     0.005 C 
HETATM    8  C25 UNL     1       3.598   6.366  10.820  1.00  0.00     0.006 C 
HETATM    9  C26 UNL     1       2.267   5.974  10.152  1.00  0.00     0.057 C 
HETATM   10  H9  UNL     1      -0.339   4.913  10.124  1.00  0.00     0.166 HD
ENDROOT
BRANCH   1  11
HETATM   11  C9  UNL     1      -2.111   4.945  12.232  1.00  0.00     0.048 C 
HETATM   12  C8  UNL     1      -2.570   3.723  11.912  1.00  0.00     0.047 A 
HETATM   13  C6  UNL     1      -3.994   3.345  12.027  1.00  0.00     0.008 A 
HETATM   14  C27 UNL     1      -1.861   2.512  11.352  1.00  0.00     0.257 A 
HETATM   15  C5  UNL     1      -4.097   2.040  11.531  1.00  0.00     0.046 A 
HETATM   16  C7  UNL     1      -5.120   4.004  12.489  1.00  0.00     0.040 A 
HETATM   17  C4  UNL     1      -5.295   1.354  11.459  1.00  0.00     0.032 A 
HETATM   18  N5  UNL     1      -2.851   1.567  11.141  1.00  0.00    -0.322 N 
HETATM   19  C3  UNL     1      -6.440   2.012  11.914  1.00  0.00     0.027 A 
HETATM   20  C2  UNL     1      -6.345   3.319  12.437  1.00  0.00     0.080 A 
HETATM   21  H35 UNL     1      -2.657   0.653  10.757  1.00  0.00     0.169 HD
HETATM   22  O5  UNL     1      -0.673   2.359  11.135  1.00  0.00    -0.267 OA
BRANCH  20  23
HETATM   23  S1  UNL     1      -7.818   4.146  12.989  1.00  0.00     0.258 S 
HETATM   24  O1  UNL     1      -8.948   3.270  12.780  1.00  0.00    -0.201 OA
HETATM   25  O2  UNL     1      -7.783   5.493  12.466  1.00  0.00    -0.201 OA
BRANCH  23  26
HETATM   26  N1  UNL     1      -7.542   4.272  14.637  1.00  0.00    -0.320 N 
HETATM   27  C1  UNL     1      -7.325   5.590  15.220  1.00  0.00     0.159 C 
HETATM   28  H4  UNL     1      -7.032   3.478  15.025  1.00  0.00     0.171 HD
ENDBRANCH  23  26
ENDBRANCH  20  23
ENDBRANCH   1  11
BRANCH   5  29
HETATM   29  C14 UNL     1      -0.404   6.565  14.459  1.00  0.00     0.043 C 
BRANCH  29  30
HETATM   30  C15 UNL     1       0.534   7.629  15.035  1.00  0.00     0.035 C 
BRANCH  30  31
HETATM   31  C16 UNL     1       0.084   9.058  14.699  1.00  0.00     0.273 C 
BRANCH  31  32
HETATM   32  N3  UNL     1      -1.298   9.372  15.086  1.00  0.00     0.091 N 
HETATM   33  C17 UNL     1      -1.467   9.382  16.557  1.00  0.00     0.292 C 
HETATM   34  C18 UNL     1      -1.629  10.775  17.192  1.00  0.00     0.156 C 
HETATM   35  N4  UNL     1      -2.730  11.524  16.588  1.00  0.00    -0.347 N 
HETATM   36  C19 UNL     1      -3.451  12.418  17.362  1.00  0.00     0.243 C 
HETATM   37  C21 UNL     1      -3.009  11.231  15.177  1.00  0.00     0.156 C 
HETATM   38  O3  UNL     1      -3.157  12.660  18.534  1.00  0.00    -0.271 OA
HETATM   39  C22 UNL     1      -1.792  10.617  14.461  1.00  0.00     0.292 C 
BRANCH  36  40
HETATM   40  C20 UNL     1      -4.648  13.123  16.708  1.00  0.00     0.267 C 
BRANCH  40  41
HETATM   41  O4  UNL     1      -5.532  12.261  16.012  1.00  0.00    -0.392 OA
HETATM   42  H22 UNL     1      -5.856  11.621  16.670  1.00  0.00     0.210 HD
ENDBRANCH  40  41
ENDBRANCH  36  40
ENDBRANCH  31  32
ENDBRANCH  30  31
ENDBRANCH  29  30
ENDBRANCH   5  29
TORSDOF 9
ENDMDL
MODEL 3
REMARK minimizedAffinity -8.95634651
REMARK CNNscore 0.148335397
REMARK CNNaffinity 6.96064997
REMARK  9 active torsions:
REMARK  status: ('A' for Active; 'I' for Inactive)
REMARK    1  A    between atoms: N1_2  and  S1_3 
REMARK    2  A    between atoms: S1_3  and  C2_6 
REMARK    3  A    between atoms: C9_13  and  C10_14 
REMARK    4  A    between atoms: C13_18  and  C14_19 
REMARK    5  A    between atoms: C14_19  and  C15_20 
REMARK    6  A    between atoms: C15_20  and  C16_21 
REMARK    7  A    between atoms: C16_21  and  N3_22 
REMARK       I    between atoms: N4_25  and  C19_26 
REMARK    8  A    between atoms: C19_26  and  C20_28 
REMARK    9  A    between atoms: C20_28  and  O4_29 
ROOT
HETATM    1  C10 UNL     1      -0.533   5.717  11.924  1.00  0.00     0.040 A 
HETATM    2  N2  UNL     1       0.192   5.418  10.791  1.00  0.00    -0.359 N 
HETATM    3  C11 UNL     1       1.451   5.936  10.894  1.00  0.00     0.016 A 
HETATM    4  C12 UNL     1       1.556   6.596  12.096  1.00  0.00    -0.027 A 
HETATM    5  C13 UNL     1       0.302   6.464  12.760  1.00  0.00    -0.023 A 
HETATM    6  C23 UNL     1       2.818   7.274  12.523  1.00  0.00     0.041 C 
HETATM    7  C24 UNL     1       3.775   7.471  11.330  1.00  0.00     0.005 C 
HETATM    8  C25 UNL     1       3.866   6.214  10.443  1.00  0.00     0.006 C 
HETATM    9  C26 UNL     1       2.500   5.825   9.846  1.00  0.00     0.057 C 
HETATM   10  H9  UNL     1      -0.158   4.914   9.983  1.00  0.00     0.166 HD
ENDROOT
BRANCH   1  11
HETATM   11  C9  UNL     1      -1.876   5.277  12.105  1.00  0.00     0.048 C 
HETATM   12  C8  UNL     1      -2.427   4.081  11.841  1.00  0.00     0.047 A 
HETATM   13  C6  UNL     1      -3.864   3.797  12.039  1.00  0.00     0.008 A 
HETATM   14  C27 UNL     1      -1.827   2.814  11.276  1.00  0.00     0.257 A 
HETATM   15  C5  UNL     1      -4.076   2.491  11.583  1.00  0.00     0.046 A 
HETATM   16  C7  UNL     1      -4.921   4.538  12.541  1.00  0.00     0.040 A 
HETATM   17  C4  UNL     1      -5.317   1.882  11.591  1.00  0.00     0.032 A 
HETATM   18  N5  UNL     1      -2.885   1.930  11.141  1.00  0.00    -0.322 N 
HETATM   19  C3  UNL     1      -6.392   2.623  12.087  1.00  0.00     0.027 A 
HETATM   20  C2  UNL     1      -6.187   3.933  12.570  1.00  0.00     0.080 A 
HETATM   21  H35 UNL     1      -2.769   0.998  10.772  1.00  0.00     0.169 HD
HETATM   22  O5  UNL     1      -0.665   2.580  11.003  1.00  0.00    -0.267 OA
BRANCH  20  23
HETATM   23  S1  UNL     1      -7.574   4.865  13.176  1.00  0.00     0.258 S 
HETATM   24  O1  UNL     1      -8.764   4.430  12.483  1.00  0.00    -0.201 OA
HETATM   25  O2  UNL     1      -7.177   6.254  13.223  1.00  0.00    -0.201 OA
BRANCH  23  26
HETATM   26  N1  UNL     1      -7.665   4.345  14.766  1.00  0.00    -0.320 N 
HETATM   27  C1  UNL     1      -7.461   5.310  15.839  1.00  0.00     0.159 C 
HETATM   28  H4  UNL     1      -7.335   3.390  14.902  1.00  0.00     0.171 HD
ENDBRANCH  23  26
ENDBRANCH  20  23
ENDBRANCH   1  11
BRANCH   5  29
HETATM   29  C14 UNL     1      -0.033   7.036  14.108  1.00  0.00     0.043 C 
BRANCH  29  30
HETATM   30  C15 UNL     1      -0.489   8.495  14.014  1.00  0.00     0.035 C 
BRANCH  30  31
HETATM   31  C16 UNL     1      -0.442   9.217  15.367  1.00  0.00     0.273 C 
BRANCH  31  32
HETATM   32  N3  UNL     1       0.819   9.919  15.642  1.00  0.00     0.091 N 
HETATM   33  C17 UNL     1       1.672   9.164  16.588  1.00  0.00     0.292 C 
HETATM   34  C18 UNL     1       2.905   8.485  15.965  1.00  0.00     0.156 C 
HETATM   35  N4  UNL     1       3.741   9.437  15.235  1.00  0.00    -0.347 N 
HETATM   36  C19 UNL     1       5.112   9.241  15.185  1.00  0.00     0.243 C 
HETATM   37  C21 UNL     1       3.041  10.575  14.629  1.00  0.00     0.156 C 
HETATM   38  O3  UNL     1       5.654   8.250  15.679  1.00  0.00    -0.271 OA
HETATM   39  C22 UNL     1       1.545  10.283  14.407  1.00  0.00     0.292 C 
BRANCH  36  40
HETATM   40  C20 UNL     1       5.959  10.308  14.477  1.00  0.00     0.267 C 
BRANCH  40  41
HETATM   41  O4  UNL     1       7.345  10.247  14.764  1.00  0.00    -0.392 OA
HETATM   42  H22 UNL     1       7.639   9.363  14.482  1.00  0.00     0.210 HD
ENDBRANCH  40  41
ENDBRANCH  36  40
ENDBRANCH  31  32
ENDBRANCH  30  31
ENDBRANCH  29  30
ENDBRANCH   5  29
TORSDOF 9
ENDMDL
MODEL 4
REMARK minimizedAffinity -9.38051033
REMARK CNNscore 0.146951631
REMARK CNNaffinity 6.90097761
REMARK  9 active torsions:
REMARK  status: ('A' for Active; 'I' for Inactive)
REMARK    1  A    between atoms: N1_2  and  S1_3 
REMARK    2  A    between atoms: S1_3  and  C2_6 
REMARK    3  A    between atoms: C9_13  and  C10_14 
REMARK    4  A    between atoms: C13_18  and  C14_19 
REMARK    5  A    between atoms: C14_19  and  C15_20 
REMARK    6  A    between atoms: C15_20  and  C16_21 
REMARK    7  A    between atoms: C16_21  and  N3_22 
REMARK       I    between atoms: N4_25  and  C19_26 
REMARK    8  A    between atoms: C19_26  and  C20_28 
REMARK    9  A    between atoms: C20_28  and  O4_29 
ROOT
HETATM    1  C10 UNL     1      -0.388   5.509  12.116  1.00  0.00     0.040 A 
HETATM    2  N2  UNL     1       0.370   5.322  10.981  1.00  0.00    -0.359 N 
HETATM    3  C11 UNL     1       1.614   5.854  11.159  1.00  0.00     0.016 A 
HETATM    4  C12 UNL     1       1.676   6.412  12.415  1.00  0.00    -0.027 A 
HETATM    5  C13 UNL     1       0.409   6.199  13.033  1.00  0.00    -0.023 A 
HETATM    6  C23 UNL     1       2.911   7.078  12.930  1.00  0.00     0.041 C 
HETATM    7  C24 UNL     1       3.892   7.394  11.783  1.00  0.00     0.005 C 
HETATM    8  C25 UNL     1       4.032   6.218  10.797  1.00  0.00     0.006 C 
HETATM    9  C26 UNL     1       2.691   5.854  10.134  1.00  0.00     0.057 C 
HETATM   10  H9  UNL     1       0.051   4.881  10.124  1.00  0.00     0.166 HD
ENDROOT
BRANCH   1  11
HETATM   11  C9  UNL     1      -1.725   5.028  12.224  1.00  0.00     0.048 C 
HETATM   12  C8  UNL     1      -2.237   3.836  11.874  1.00  0.00     0.047 A 
HETATM   13  C6  UNL     1      -3.672   3.508  12.005  1.00  0.00     0.008 A 
HETATM   14  C27 UNL     1      -1.585   2.617  11.262  1.00  0.00     0.257 A 
HETATM   15  C5  UNL     1      -3.835   2.225  11.470  1.00  0.00     0.046 A 
HETATM   16  C7  UNL     1      -4.764   4.194  12.509  1.00  0.00     0.040 A 
HETATM   17  C4  UNL     1      -5.059   1.588  11.400  1.00  0.00     0.032 A 
HETATM   18  N5  UNL     1      -2.615   1.718  11.041  1.00  0.00    -0.322 N 
HETATM   19  C3  UNL     1      -6.169   2.274  11.898  1.00  0.00     0.027 A 
HETATM   20  C2  UNL     1      -6.014   3.559  12.459  1.00  0.00     0.080 A 
HETATM   21  H35 UNL     1      -2.464   0.811  10.625  1.00  0.00     0.169 HD
HETATM   22  O5  UNL     1      -0.409   2.426  11.018  1.00  0.00    -0.267 OA
BRANCH  20  23
HETATM   23  S1  UNL     1      -7.444   4.422  13.067  1.00  0.00     0.258 S 
HETATM   24  O1  UNL     1      -8.404   3.454  13.543  1.00  0.00    -0.201 OA
HETATM   25  O2  UNL     1      -7.791   5.430  12.090  1.00  0.00    -0.201 OA
BRANCH  23  26
HETATM   26  N1  UNL     1      -6.815   5.240  14.387  1.00  0.00    -0.320 N 
HETATM   27  C1  UNL     1      -7.560   5.244  15.639  1.00  0.00     0.159 C 
HETATM   28  H4  UNL     1      -6.284   6.073  14.134  1.00  0.00     0.171 HD
ENDBRANCH  23  26
ENDBRANCH  20  23
ENDBRANCH   1  11
BRANCH   5  29
HETATM   29  C14 UNL     1       0.028   6.649  14.414  1.00  0.00     0.043 C 
BRANCH  29  30
HETATM   30  C15 UNL     1       0.905   7.805  14.903  1.00  0.00     0.035 C 
BRANCH  30  31
HETATM   31  C16 UNL     1       0.596   9.127  14.186  1.00  0.00     0.273 C 
BRANCH  31  32
HETATM   32  N3  UNL     1      -0.730   9.686  14.482  1.00  0.00     0.091 N 
HETATM   33  C17 UNL     1      -1.540   9.859  13.254  1.00  0.00     0.292 C 
HETATM   34  C18 UNL     1      -2.689   8.851  13.075  1.00  0.00     0.156 C 
HETATM   35  N4  UNL     1      -3.586   8.836  14.230  1.00  0.00    -0.347 N 
HETATM   36  C19 UNL     1      -4.931   8.565  14.044  1.00  0.00     0.243 C 
HETATM   37  C21 UNL     1      -2.972   9.156  15.524  1.00  0.00     0.156 C 
HETATM   38  O3  UNL     1      -5.396   8.265  12.943  1.00  0.00    -0.271 OA
HETATM   39  C22 UNL     1      -1.450   8.918  15.519  1.00  0.00     0.292 C 
BRANCH  36  40
HETATM   40  C20 UNL     1      -5.849   8.639  15.273  1.00  0.00     0.267 C 
BRANCH  40  41
HETATM   41  O4  UNL     1      -7.124   9.205  15.023  1.00  0.00    -0.392 OA
HETATM   42  H22 UNL     1      -7.539   8.643  14.345  1.00  0.00     0.210 HD
ENDBRANCH  40  41
ENDBRANCH  36  40
ENDBRANCH  31  32
ENDBRANCH  30  31
ENDBRANCH  29  30
ENDBRANCH   5  29
TORSDOF 9
ENDMDL
MODEL 5
REMARK minimizedAffinity -8.17291832
REMARK CNNscore 0.128452361
REMARK CNNaffinity 6.79499245
REMARK  9 active torsions:
REMARK  status: ('A' for Active; 'I' for Inactive)
REMARK    1  A    between atoms: N1_2  and  S1_3 
REMARK    2  A    between atoms: S1_3  and  C2_6 
REMARK    3  A    between atoms: C9_13  and  C10_14 
REMARK    4  A    between atoms: C13_18  and  C14_19 
REMARK    5  A    between atoms: C14_19  and  C15_20 
REMARK    6  A    between atoms: C15_20  and  C16_21 
REMARK    7  A    between atoms: C16_21  and  N3_22 
REMARK       I    between atoms: N4_25  and  C19_26 
REMARK    8  A    between atoms: C19_26  and  C20_28 
REMARK    9  A    between atoms: C20_28  and  O4_29 
ROOT
HETATM    1  C10 UNL     1      -6.298   5.165  13.261  1.00  0.00     0.040 A 
HETATM    2  N2  UNL     1      -6.467   3.913  12.712  1.00  0.00    -0.359 N 
HETATM    3  C11 UNL     1      -5.260   3.408  12.326  1.00  0.00     0.016 A 
HETATM    4  C12 UNL     1      -4.285   4.337  12.606  1.00  0.00    -0.027 A 
HETATM    5  C13 UNL     1      -4.933   5.459  13.201  1.00  0.00    -0.023 A 
HETATM    6  C23 UNL     1      -2.841   4.091  12.310  1.00  0.00     0.041 C 
HETATM    7  C24 UNL     1      -2.668   2.908  11.335  1.00  0.00     0.005 C 
HETATM    8  C25 UNL     1      -3.569   1.714  11.703  1.00  0.00     0.006 C 
HETATM    9  C26 UNL     1      -5.064   2.085  11.674  1.00  0.00     0.057 C 
HETATM   10  H9  UNL     1      -7.355   3.440  12.582  1.00  0.00     0.166 HD
ENDROOT
BRANCH   1  11
HETATM   11  C9  UNL     1      -7.389   5.921  13.778  1.00  0.00     0.048 C 
HETATM   12  C8  UNL     1      -8.554   6.252  13.195  1.00  0.00     0.047 A 
HETATM   13  C6  UNL     1      -9.572   7.096  13.855  1.00  0.00     0.008 A 
HETATM   14  C27 UNL     1      -9.100   5.940  11.820  1.00  0.00     0.257 A 
HETATM   15  C5  UNL     1     -10.594   7.287  12.919  1.00  0.00     0.046 A 
HETATM   16  C7  UNL     1      -9.664   7.670  15.112  1.00  0.00     0.040 A 
HETATM   17  C4  UNL     1     -11.717   8.052  13.176  1.00  0.00     0.032 A 
HETATM   18  N5  UNL     1     -10.308   6.612  11.740  1.00  0.00    -0.322 N 
HETATM   19  C3  UNL     1     -11.816   8.643  14.437  1.00  0.00     0.027 A 
HETATM   20  C2  UNL     1     -10.803   8.439  15.397  1.00  0.00     0.080 A 
HETATM   21  H35 UNL     1     -10.889   6.587  10.915  1.00  0.00     0.169 HD
HETATM   22  O5  UNL     1      -8.615   5.240  10.951  1.00  0.00    -0.267 OA
BRANCH  20  23
HETATM   23  S1  UNL     1     -10.940   9.220  16.988  1.00  0.00     0.258 S 
HETATM   24  O1  UNL     1     -10.022   8.578  17.900  1.00  0.00    -0.201 OA
HETATM   25  O2  UNL     1     -12.348   9.358  17.285  1.00  0.00    -0.201 OA
BRANCH  23  26
HETATM   26  N1  UNL     1     -10.372  10.762  16.660  1.00  0.00    -0.320 N 
HETATM   27  C1  UNL     1      -9.544  10.976  15.480  1.00  0.00     0.159 C 
HETATM   28  H4  UNL     1     -10.176  11.309  17.498  1.00  0.00     0.171 HD
ENDBRANCH  23  26
ENDBRANCH  20  23
ENDBRANCH   1  11
BRANCH   5  29
HETATM   29  C14 UNL     1      -4.250   6.713  13.665  1.00  0.00     0.043 C 
BRANCH  29  30
HETATM   30  C15 UNL     1      -3.552   6.521  15.014  1.00  0.00     0.035 C 
BRANCH  30  31
HETATM   31  C16 UNL     1      -2.530   7.626  15.315  1.00  0.00     0.273 C 
BRANCH  31  32
HETATM   32  N3  UNL     1      -1.172   7.142  15.600  1.00  0.00     0.091 N 
HETATM   33  C17 UNL     1      -0.585   6.435  14.439  1.00  0.00     0.292 C 
HETATM   34  C18 UNL     1       0.514   7.204  13.685  1.00  0.00     0.156 C 
HETATM   35  N4  UNL     1       1.596   7.620  14.576  1.00  0.00    -0.347 N 
HETATM   36  C19 UNL     1       2.889   7.701  14.086  1.00  0.00     0.243 C 
HETATM   37  C21 UNL     1       1.215   7.891  15.967  1.00  0.00     0.156 C 
HETATM   38  O3  UNL     1       3.158   7.499  12.900  1.00  0.00    -0.271 OA
HETATM   39  C22 UNL     1      -0.285   8.212  16.105  1.00  0.00     0.292 C 
BRANCH  36  40
HETATM   40  C20 UNL     1       4.005   8.064  15.076  1.00  0.00     0.267 C 
BRANCH  40  41
HETATM   41  O4  UNL     1       4.685   6.952  15.632  1.00  0.00    -0.392 OA
HETATM   42  H22 UNL     1       5.068   6.468  14.880  1.00  0.00     0.210 HD
ENDBRANCH  40  41
ENDBRANCH  36  40
ENDBRANCH  31  32
ENDBRANCH  30  31
ENDBRANCH  29  30
ENDBRANCH   5  29
TORSDOF 9
ENDMDL
MODEL 6
REMARK minimizedAffinity -8.10765934
REMARK CNNscore 0.118425265
REMARK CNNaffinity 6.33663511
REMARK  9 active torsions:
REMARK  status: ('A' for Active; 'I' for Inactive)
REMARK    1  A    between atoms: N1_2  and  S1_3 
REMARK    2  A    between atoms: S1_3  and  C2_6 
REMARK    3  A    between atoms: C9_13  and  C10_14 
REMARK    4  A    between atoms: C13_18  and  C14_19 
REMARK    5  A    between atoms: C14_19  and  C15_20 
REMARK    6  A    between atoms: C15_20  and  C16_21 
REMARK    7  A    between atoms: C16_21  and  N3_22 
REMARK       I    between atoms: N4_25  and  C19_26 
REMARK    8  A    between atoms: C19_26  and  C20_28 
REMARK    9  A    between atoms: C20_28  and  O4_29 
ROOT
HETATM    1  C10 UNL     1      -1.484   7.215  14.408  1.00  0.00     0.040 A 
HETATM    2  N2  UNL     1      -0.337   6.728  14.995  1.00  0.00    -0.359 N 
HETATM    3  C11 UNL     1       0.492   7.760  15.324  1.00  0.00     0.016 A 
HETATM    4  C12 UNL     1      -0.102   8.939  14.938  1.00  0.00    -0.027 A 
HETATM    5  C13 UNL     1      -1.359   8.606  14.354  1.00  0.00    -0.023 A 
HETATM    6  C23 UNL     1       0.547  10.268  15.162  1.00  0.00     0.041 C 
HETATM    7  C24 UNL     1       2.046  10.107  15.482  1.00  0.00     0.005 C 
HETATM    8  C25 UNL     1       2.308   8.970  16.487  1.00  0.00     0.006 C 
HETATM    9  C26 UNL     1       1.829   7.605  15.957  1.00  0.00     0.057 C 
HETATM   10  H9  UNL     1      -0.119   5.747  15.140  1.00  0.00     0.166 HD
ENDROOT
BRANCH   1  11
HETATM   11  C9  UNL     1      -2.544   6.361  13.987  1.00  0.00     0.048 C 
HETATM   12  C8  UNL     1      -2.577   5.470  12.982  1.00  0.00     0.047 A 
HETATM   13  C6  UNL     1      -3.785   4.690  12.639  1.00  0.00     0.008 A 
HETATM   14  C27 UNL     1      -1.524   5.070  11.974  1.00  0.00     0.257 A 
HETATM   15  C5  UNL     1      -3.462   3.941  11.502  1.00  0.00     0.046 A 
HETATM   16  C7  UNL     1      -5.049   4.597  13.197  1.00  0.00     0.040 A 
HETATM   17  C4  UNL     1      -4.362   3.100  10.874  1.00  0.00     0.032 A 
HETATM   18  N5  UNL     1      -2.146   4.171  11.124  1.00  0.00    -0.322 N 
HETATM   19  C3  UNL     1      -5.642   3.005  11.423  1.00  0.00     0.027 A 
HETATM   20  C2  UNL     1      -5.973   3.738  12.582  1.00  0.00     0.080 A 
HETATM   21  H35 UNL     1      -1.671   3.747  10.341  1.00  0.00     0.169 HD
HETATM   22  O5  UNL     1      -0.364   5.430  11.904  1.00  0.00    -0.267 OA
BRANCH  20  23
HETATM   23  S1  UNL     1      -7.616   3.618  13.250  1.00  0.00     0.258 S 
HETATM   24  O1  UNL     1      -7.570   3.949  14.655  1.00  0.00    -0.201 OA
HETATM   25  O2  UNL     1      -8.191   2.381  12.771  1.00  0.00    -0.201 OA
BRANCH  23  26
HETATM   26  N1  UNL     1      -8.405   4.853  12.437  1.00  0.00    -0.320 N 
HETATM   27  C1  UNL     1      -8.863   6.015  13.188  1.00  0.00     0.159 C 
HETATM   28  H4  UNL     1      -8.969   4.528  11.652  1.00  0.00     0.171 HD
ENDBRANCH  23  26
ENDBRANCH  20  23
ENDBRANCH   1  11
BRANCH   5  29
HETATM   29  C14 UNL     1      -2.344   9.589  13.790  1.00  0.00     0.043 C 
BRANCH  29  30
HETATM   30  C15 UNL     1      -2.957  10.475  14.878  1.00  0.00     0.035 C 
BRANCH  30  31
HETATM   31  C16 UNL     1      -3.466   9.669  16.081  1.00  0.00     0.273 C 
BRANCH  31  32
HETATM   32  N3  UNL     1      -3.507  10.417  17.345  1.00  0.00     0.091 N 
HETATM   33  C17 UNL     1      -2.263  10.241  18.128  1.00  0.00     0.292 C 
HETATM   34  C18 UNL     1      -1.323  11.459  18.155  1.00  0.00     0.156 C 
HETATM   35  N4  UNL     1      -2.006  12.664  18.624  1.00  0.00    -0.347 N 
HETATM   36  C19 UNL     1      -1.294  13.619  19.330  1.00  0.00     0.243 C 
HETATM   37  C21 UNL     1      -3.442  12.744  18.331  1.00  0.00     0.156 C 
HETATM   38  O3  UNL     1      -0.080  13.527  19.522  1.00  0.00    -0.271 OA
HETATM   39  C22 UNL     1      -3.843  11.843  17.148  1.00  0.00     0.292 C 
BRANCH  36  40
HETATM   40  C20 UNL     1      -2.068  14.829  19.872  1.00  0.00     0.267 C 
BRANCH  40  41
HETATM   41  O4  UNL     1      -1.491  15.435  21.016  1.00  0.00    -0.392 OA
HETATM   42  H22 UNL     1      -0.599  15.718  20.748  1.00  0.00     0.210 HD
ENDBRANCH  40  41
ENDBRANCH  36  40
ENDBRANCH  31  32
ENDBRANCH  30  31
ENDBRANCH  29  30
ENDBRANCH   5  29
TORSDOF 9
ENDMDL
MODEL 7
REMARK minimizedAffinity -7.94013596
REMARK CNNscore 0.109934397
REMARK CNNaffinity 6.31428957
REMARK  9 active torsions:
REMARK  status: ('A' for Active; 'I' for Inactive)
REMARK    1  A    between atoms: N1_2  and  S1_3 
REMARK    2  A    between atoms: S1_3  and  C2_6 
REMARK    3  A    between atoms: C9_13  and  C10_14 
REMARK    4  A    between atoms: C13_18  and  C14_19 
REMARK    5  A    between atoms: C14_19  and  C15_20 
REMARK    6  A    between atoms: C15_20  and  C16_21 
REMARK    7  A    between atoms: C16_21  and  N3_22 
REMARK       I    between atoms: N4_25  and  C19_26 
REMARK    8  A    between atoms: C19_26  and  C20_28 
REMARK    9  A    between atoms: C20_28  and  O4_29 
ROOT
HETATM    1  C10 UNL     1      -1.299   7.142  13.917  1.00  0.00     0.040 A 
HETATM    2  N2  UNL     1      -0.125   6.560  14.343  1.00  0.00    -0.359 N 
HETATM    3  C11 UNL     1       0.805   7.524  14.603  1.00  0.00     0.016 A 
HETATM    4  C12 UNL     1       0.249   8.753  14.331  1.00  0.00    -0.027 A 
HETATM    5  C13 UNL     1      -1.088   8.523  13.895  1.00  0.00    -0.023 A 
HETATM    6  C23 UNL     1       1.007  10.028  14.519  1.00  0.00     0.041 C 
HETATM    7  C24 UNL     1       2.520   9.761  14.648  1.00  0.00     0.005 C 
HETATM    8  C25 UNL     1       2.824   8.569  15.575  1.00  0.00     0.006 C 
HETATM    9  C26 UNL     1       2.194   7.260  15.062  1.00  0.00     0.057 C 
HETATM   10  H9  UNL     1       0.043   5.563  14.427  1.00  0.00     0.166 HD
ENDROOT
BRANCH   1  11
HETATM   11  C9  UNL     1      -2.456   6.373  13.600  1.00  0.00     0.048 C 
HETATM   12  C8  UNL     1      -2.609   5.388  12.699  1.00  0.00     0.047 A 
HETATM   13  C6  UNL     1      -3.904   4.719  12.453  1.00  0.00     0.008 A 
HETATM   14  C27 UNL     1      -1.628   4.764  11.735  1.00  0.00     0.257 A 
HETATM   15  C5  UNL     1      -3.690   3.818  11.403  1.00  0.00     0.046 A 
HETATM   16  C7  UNL     1      -5.159   4.832  13.026  1.00  0.00     0.040 A 
HETATM   17  C4  UNL     1      -4.690   3.022  10.878  1.00  0.00     0.032 A 
HETATM   18  N5  UNL     1      -2.364   3.854  10.993  1.00  0.00    -0.322 N 
HETATM   19  C3  UNL     1      -5.962   3.134  11.443  1.00  0.00     0.027 A 
HETATM   20  C2  UNL     1      -6.185   4.022  12.516  1.00  0.00     0.080 A 
HETATM   21  H35 UNL     1      -1.955   3.296  10.258  1.00  0.00     0.169 HD
HETATM   22  O5  UNL     1      -0.436   4.979  11.618  1.00  0.00    -0.267 OA
BRANCH  20  23
HETATM   23  S1  UNL     1      -7.818   4.164  13.205  1.00  0.00     0.258 S 
HETATM   24  O1  UNL     1      -8.590   3.008  12.812  1.00  0.00    -0.201 OA
HETATM   25  O2  UNL     1      -8.277   5.513  12.959  1.00  0.00    -0.201 OA
BRANCH  23  26
HETATM   26  N1  UNL     1      -7.506   4.062  14.847  1.00  0.00    -0.320 N 
HETATM   27  C1  UNL     1      -7.686   5.247  15.677  1.00  0.00     0.159 C 
HETATM   28  H4  UNL     1      -6.752   3.415  15.079  1.00  0.00     0.171 HD
ENDBRANCH  23  26
ENDBRANCH  20  23
ENDBRANCH   1  11
BRANCH   5  29
HETATM   29  C14 UNL     1      -2.066   9.588  13.488  1.00  0.00     0.043 C 
BRANCH  29  30
HETATM   30  C15 UNL     1      -3.116   9.846  14.573  1.00  0.00     0.035 C 
BRANCH  30  31
HETATM   31  C16 UNL     1      -2.500  10.351  15.885  1.00  0.00     0.273 C 
BRANCH  31  32
HETATM   32  N3  UNL     1      -2.832  11.743  16.220  1.00  0.00     0.091 N 
HETATM   33  C17 UNL     1      -1.883  12.698  15.605  1.00  0.00     0.292 C 
HETATM   34  C18 UNL     1      -2.437  13.504  14.417  1.00  0.00     0.156 C 
HETATM   35  N4  UNL     1      -3.662  14.221  14.768  1.00  0.00    -0.347 N 
HETATM   36  C19 UNL     1      -3.939  15.434  14.161  1.00  0.00     0.243 C 
HETATM   37  C21 UNL     1      -4.503  13.591  15.792  1.00  0.00     0.156 C 
HETATM   38  O3  UNL     1      -3.221  15.908  13.278  1.00  0.00    -0.271 OA
HETATM   39  C22 UNL     1      -4.239  12.079  15.911  1.00  0.00     0.292 C 
BRANCH  36  40
HETATM   40  C20 UNL     1      -5.194  16.190  14.618  1.00  0.00     0.267 C 
BRANCH  40  41
HETATM   41  O4  UNL     1      -4.943  17.280  15.488  1.00  0.00    -0.392 OA
HETATM   42  H22 UNL     1      -4.363  17.888  14.996  1.00  0.00     0.210 HD
ENDBRANCH  40  41
ENDBRANCH  36  40
ENDBRANCH  31  32
ENDBRANCH  30  31
ENDBRANCH  29  30
ENDBRANCH   5  29
TORSDOF 9
ENDMDL
MODEL 8
REMARK minimizedAffinity -8.40092945
REMARK CNNscore 0.109159268
REMARK CNNaffinity 7.01280737
REMARK  9 active torsions:
REMARK  status: ('A' for Active; 'I' for Inactive)
REMARK    1  A    between atoms: N1_2  and  S1_3 
REMARK    2  A    between atoms: S1_3  and  C2_6 
REMARK    3  A    between atoms: C9_13  and  C10_14 
REMARK    4  A    between atoms: C13_18  and  C14_19 
REMARK    5  A    between atoms: C14_19  and  C15_20 
REMARK    6  A    between atoms: C15_20  and  C16_21 
REMARK    7  A    between atoms: C16_21  and  N3_22 
REMARK       I    between atoms: N4_25  and  C19_26 
REMARK    8  A    between atoms: C19_26  and  C20_28 
REMARK    9  A    between atoms: C20_28  and  O4_29 
ROOT
HETATM    1  C10 UNL     1      -1.535   6.412  12.219  1.00  0.00     0.040 A 
HETATM    2  N2  UNL     1      -0.635   5.416  11.912  1.00  0.00    -0.359 N 
HETATM    3  C11 UNL     1       0.553   5.965  11.526  1.00  0.00     0.016 A 
HETATM    4  C12 UNL     1       0.435   7.335  11.562  1.00  0.00    -0.027 A 
HETATM    5  C13 UNL     1      -0.888   7.631  12.002  1.00  0.00    -0.023 A 
HETATM    6  C23 UNL     1       1.567   8.241  11.201  1.00  0.00     0.041 C 
HETATM    7  C24 UNL     1       2.668   7.478  10.437  1.00  0.00     0.005 C 
HETATM    8  C25 UNL     1       2.980   6.112  11.077  1.00  0.00     0.006 C 
HETATM    9  C26 UNL     1       1.748   5.188  11.102  1.00  0.00     0.057 C 
HETATM   10  H9  UNL     1      -0.825   4.419  11.937  1.00  0.00     0.166 HD
ENDROOT
BRANCH   1  11
HETATM   11  C9  UNL     1      -2.853   6.128  12.681  1.00  0.00     0.048 C 
HETATM   12  C8  UNL     1      -3.621   5.046  12.467  1.00  0.00     0.047 A 
HETATM   13  C6  UNL     1      -5.002   4.927  12.980  1.00  0.00     0.008 A 
HETATM   14  C27 UNL     1      -3.356   3.780  11.685  1.00  0.00     0.257 A 
HETATM   15  C5  UNL     1      -5.501   3.714  12.492  1.00  0.00     0.046 A 
HETATM   16  C7  UNL     1      -5.797   5.738  13.772  1.00  0.00     0.040 A 
HETATM   17  C4  UNL     1      -6.785   3.270  12.749  1.00  0.00     0.032 A 
HETATM   18  N5  UNL     1      -4.536   3.057  11.740  1.00  0.00    -0.322 N 
HETATM   19  C3  UNL     1      -7.599   4.084  13.540  1.00  0.00     0.027 A 
HETATM   20  C2  UNL     1      -7.100   5.298  14.056  1.00  0.00     0.080 A 
HETATM   21  H35 UNL     1      -4.646   2.162  11.286  1.00  0.00     0.169 HD
HETATM   22  O5  UNL     1      -2.333   3.432  11.127  1.00  0.00    -0.267 OA
BRANCH  20  23
HETATM   23  S1  UNL     1      -8.161   6.329  15.041  1.00  0.00     0.258 S 
HETATM   24  O1  UNL     1      -7.630   7.672  15.045  1.00  0.00    -0.201 OA
HETATM   25  O2  UNL     1      -8.449   5.613  16.264  1.00  0.00    -0.201 OA
BRANCH  23  26
HETATM   26  N1  UNL     1      -9.576   6.318  14.144  1.00  0.00    -0.320 N 
HETATM   27  C1  UNL     1     -10.709   7.115  14.598  1.00  0.00     0.159 C 
HETATM   28  H4  UNL     1      -9.761   5.426  13.686  1.00  0.00     0.171 HD
ENDBRANCH  23  26
ENDBRANCH  20  23
ENDBRANCH   1  11
BRANCH   5  29
HETATM   29  C14 UNL     1      -1.456   9.009  12.184  1.00  0.00     0.043 C 
BRANCH  29  30
HETATM   30  C15 UNL     1      -1.007   9.644  13.503  1.00  0.00     0.035 C 
BRANCH  30  31
HETATM   31  C16 UNL     1      -1.819   9.146  14.707  1.00  0.00     0.273 C 
BRANCH  31  32
HETATM   32  N3  UNL     1      -1.814  10.050  15.865  1.00  0.00     0.091 N 
HETATM   33  C17 UNL     1      -1.883  11.470  15.454  1.00  0.00     0.292 C 
HETATM   34  C18 UNL     1      -3.234  12.164  15.702  1.00  0.00     0.156 C 
HETATM   35  N4  UNL     1      -3.651  12.059  17.100  1.00  0.00    -0.347 N 
HETATM   36  C19 UNL     1      -4.394  13.082  17.667  1.00  0.00     0.243 C 
HETATM   37  C21 UNL     1      -3.204  10.859  17.816  1.00  0.00     0.156 C 
HETATM   38  O3  UNL     1      -4.779  14.055  17.017  1.00  0.00    -0.271 OA
HETATM   39  C22 UNL     1      -2.857   9.706  16.856  1.00  0.00     0.292 C 
BRANCH  36  40
HETATM   40  C20 UNL     1      -4.742  12.967  19.158  1.00  0.00     0.267 C 
BRANCH  40  41
HETATM   41  O4  UNL     1      -4.142  13.952  19.982  1.00  0.00    -0.392 OA
HETATM   42  H22 UNL     1      -4.453  14.810  19.644  1.00  0.00     0.210 HD
ENDBRANCH  40  41
ENDBRANCH  36  40
ENDBRANCH  31  32
ENDBRANCH  30  31
ENDBRANCH  29  30
ENDBRANCH   5  29
TORSDOF 9
ENDMDL
MODEL 9
REMARK minimizedAffinity -8.28049088
REMARK CNNscore 0.108954385
REMARK CNNaffinity 6.73241806
REMARK  9 active torsions:
REMARK  status: ('A' for Active; 'I' for Inactive)
REMARK    1  A    between atoms: N1_2  and  S1_3 
REMARK    2  A    between atoms: S1_3  and  C2_6 
REMARK    3  A    between atoms: C9_13  and  C10_14 
REMARK    4  A    between atoms: C13_18  and  C14_19 
REMARK    5  A    between atoms: C14_19  and  C15_20 
REMARK    6  A    between atoms: C15_20  and  C16_21 
REMARK    7  A    between atoms: C16_21  and  N3_22 
REMARK       I    between atoms: N4_25  and  C19_26 
REMARK    8  A    between atoms: C19_26  and  C20_28 
REMARK    9  A    between atoms: C20_28  and  O4_29 
ROOT
HETATM    1  C10 UNL     1      -0.859   6.352  13.725  1.00  0.00     0.040 A 
HETATM    2  N2  UNL     1      -0.116   6.155  14.868  1.00  0.00    -0.359 N 
HETATM    3  C11 UNL     1       1.003   6.935  14.837  1.00  0.00     0.016 A 
HETATM    4  C12 UNL     1       1.010   7.644  13.658  1.00  0.00    -0.027 A 
HETATM    5  C13 UNL     1      -0.169   7.282  12.942  1.00  0.00    -0.023 A 
HETATM    6  C23 UNL     1       2.103   8.603  13.313  1.00  0.00     0.041 C 
HETATM    7  C24 UNL     1       3.338   8.385  14.210  1.00  0.00     0.005 C 
HETATM    8  C25 UNL     1       2.955   8.190  15.690  1.00  0.00     0.006 C 
HETATM    9  C26 UNL     1       2.046   6.965  15.897  1.00  0.00     0.057 C 
HETATM   10  H9  UNL     1      -0.343   5.506  15.615  1.00  0.00     0.166 HD
ENDROOT
BRANCH   1  11
HETATM   11  C9  UNL     1      -2.098   5.686  13.499  1.00  0.00     0.048 C 
HETATM   12  C8  UNL     1      -2.354   4.569  12.798  1.00  0.00     0.047 A 
HETATM   13  C6  UNL     1      -3.718   4.030  12.615  1.00  0.00     0.008 A 
HETATM   14  C27 UNL     1      -1.436   3.650  12.026  1.00  0.00     0.257 A 
HETATM   15  C5  UNL     1      -3.595   2.921  11.771  1.00  0.00     0.046 A 
HETATM   16  C7  UNL     1      -4.963   4.409  13.088  1.00  0.00     0.040 A 
HETATM   17  C4  UNL     1      -4.677   2.167  11.356  1.00  0.00     0.032 A 
HETATM   18  N5  UNL     1      -2.265   2.710  11.434  1.00  0.00    -0.322 N 
HETATM   19  C3  UNL     1      -5.938   2.545  11.819  1.00  0.00     0.027 A 
HETATM   20  C2  UNL     1      -6.073   3.648  12.688  1.00  0.00     0.080 A 
HETATM   21  H35 UNL     1      -1.912   1.971  10.843  1.00  0.00     0.169 HD
HETATM   22  O5  UNL     1      -0.224   3.688  11.934  1.00  0.00    -0.267 OA
BRANCH  20  23
HETATM   23  S1  UNL     1      -7.691   4.125  13.247  1.00  0.00     0.258 S 
HETATM   24  O1  UNL     1      -8.641   3.118  12.833  1.00  0.00    -0.201 OA
HETATM   25  O2  UNL     1      -7.867   5.524  12.926  1.00  0.00    -0.201 OA
BRANCH  23  26
HETATM   26  N1  UNL     1      -7.517   4.039  14.911  1.00  0.00    -0.320 N 
HETATM   27  C1  UNL     1      -7.617   5.263  15.697  1.00  0.00     0.159 C 
HETATM   28  H4  UNL     1      -6.864   3.318  15.215  1.00  0.00     0.171 HD
ENDBRANCH  23  26
ENDBRANCH  20  23
ENDBRANCH   1  11
BRANCH   5  29
HETATM   29  C14 UNL     1      -0.567   7.814  11.596  1.00  0.00     0.043 C 
BRANCH  29  30
HETATM   30  C15 UNL     1      -1.398   9.095  11.709  1.00  0.00     0.035 C 
BRANCH  30  31
HETATM   31  C16 UNL     1      -2.591   8.944  12.663  1.00  0.00     0.273 C 
BRANCH  31  32
HETATM   32  N3  UNL     1      -2.702  10.002  13.677  1.00  0.00     0.091 N 
HETATM   33  C17 UNL     1      -3.689   9.659  14.725  1.00  0.00     0.292 C 
HETATM   34  C18 UNL     1      -3.093   9.271  16.090  1.00  0.00     0.156 C 
HETATM   35  N4  UNL     1      -2.199  10.306  16.608  1.00  0.00    -0.347 N 
HETATM   36  C19 UNL     1      -2.100  10.497  17.976  1.00  0.00     0.243 C 
HETATM   37  C21 UNL     1      -1.489  11.105  15.603  1.00  0.00     0.156 C 
HETATM   38  O3  UNL     1      -2.688   9.777  18.786  1.00  0.00    -0.271 OA
HETATM   39  C22 UNL     1      -1.391  10.377  14.248  1.00  0.00     0.292 C 
BRANCH  36  40
HETATM   40  C20 UNL     1      -1.212  11.647  18.472  1.00  0.00     0.267 C 
BRANCH  40  41
HETATM   41  O4  UNL     1       0.132  11.282  18.740  1.00  0.00    -0.392 OA
HETATM   42  H22 UNL     1       0.488  10.938  17.902  1.00  0.00     0.210 HD
ENDBRANCH  40  41
ENDBRANCH  36  40
ENDBRANCH  31  32
ENDBRANCH  30  31
ENDBRANCH  29  30
ENDBRANCH   5  29
TORSDOF 9
ENDMDL
