MODEL 1
REMARK minimizedAffinity -8.31299591
REMARK CNNscore 0.389320612
REMARK CNNaffinity 6.50094175
REMARK  7 active torsions:
REMARK  status: ('A' for Active; 'I' for Inactive)
REMARK    1  A    between atoms: O1_2  and  C2_3 
REMARK    2  A    between atoms: C2_3  and  C3_4 
REMARK       I    between atoms: C3_4  and  N1_6 
REMARK    3  A    between atoms: C7_10  and  C8_11 
REMARK    4  A    between atoms: C13_18  and  C14_19 
REMARK       I    between atoms: C14_19  and  N3_21 
REMARK    5  A    between atoms: N3_21  and  C15_22 
REMARK    6  A    between atoms: C17_24  and  C18_25 
REMARK    7  A    between atoms: C24_37  and  N5_38 
ROOT
HETATM    1  C8  UNL     1      -6.864  49.577 -10.352  1.00  0.00     0.094 A 
HETATM    2  N2  UNL     1      -6.252  50.712 -10.060  1.00  0.00    -0.342 N 
ATOM      3  H2  UNL     1      -6.633  51.499  -9.535  1.00  0.00     0.167 HD
HETATM    4  C9  UNL     1      -4.997  50.614 -10.611  1.00  0.00     0.077 A 
HETATM    5  C10 UNL     1      -4.013  51.659 -10.469  1.00  0.00     0.032 A 
HETATM    6  C11 UNL     1      -4.208  52.886 -11.114  1.00  0.00     0.018 A 
HETATM    7  C12 UNL     1      -3.266  53.911 -10.975  1.00  0.00     0.018 A 
HETATM    8  C13 UNL     1      -2.134  53.727 -10.166  1.00  0.00     0.035 A 
HETATM    9  C21 UNL     1      -1.940  52.495  -9.527  1.00  0.00     0.060 A 
HETATM   10  C22 UNL     1      -2.877  51.477  -9.678  1.00  0.00     0.130 A 
HETATM   11  F4  UNL     1      -2.674  50.317  -9.033  1.00  0.00    -0.205 F 
HETATM   12  C23 UNL     1      -4.857  49.431 -11.302  1.00  0.00     0.106 A 
HETATM   13  C24 UNL     1      -3.824  48.803 -12.091  1.00  0.00     0.107 A 
HETATM   14  N6  UNL     1      -4.019  47.606 -12.595  1.00  0.00    -0.354 N 
ATOM     15  H6  UNL     1      -3.296  47.157 -13.158  1.00  0.00     0.166 HD
HETATM   16  C25 UNL     1      -5.216  46.963 -12.351  1.00  0.00     0.107 A 
HETATM   17  C26 UNL     1      -6.221  47.497 -11.641  1.00  0.00     0.116 A 
HETATM   18  N7  UNL     1      -6.045  48.761 -11.109  1.00  0.00    -0.305 N 
ENDROOT
BRANCH   1  19
HETATM   19  C7  UNL     1      -8.241  49.177  -9.890  1.00  0.00     0.072 C 
HETATM   20  C6  UNL     1      -8.324  49.075  -8.348  1.00  0.00     0.015 C 
HETATM   21  C5  UNL     1      -8.323  47.624  -7.870  1.00  0.00     0.021 C 
HETATM   22  C4  UNL     1      -9.507  46.863  -8.469  1.00  0.00     0.126 C 
HETATM   23  N1  UNL     1      -9.732  47.185  -9.879  1.00  0.00    -0.350 N 
HETATM   24  C3  UNL     1     -10.865  46.803 -10.595  1.00  0.00     0.243 C 
HETATM   25  C27 UNL     1      -8.638  47.855 -10.576  1.00  0.00     0.138 C 
HETATM   26  O2  UNL     1     -11.030  47.135 -11.770  1.00  0.00    -0.271 OA
BRANCH  24  27
HETATM   27  C2  UNL     1     -11.904  45.942  -9.842  1.00  0.00     0.269 C 
BRANCH  27  28
HETATM   28  O1  UNL     1     -11.874  44.539 -10.062  1.00  0.00    -0.387 OA
HETATM   29  C1  UNL     1     -12.842  44.109 -11.009  1.00  0.00     0.202 C 
ENDBRANCH  27  28
ENDBRANCH  24  27
ENDBRANCH   1  19
BRANCH  13  30
HETATM   30  N5  UNL     1      -2.625  49.387 -12.386  1.00  0.00    -0.287 NA
HETATM   31  H20 UNL     1      -2.146  48.896 -13.132  1.00  0.00     0.125 HD
HETATM   32  H21 UNL     1      -2.634  50.392 -12.506  1.00  0.00     0.125 HD
ENDBRANCH  13  30
BRANCH   8  33
HETATM   33  C14 UNL     1      -1.105  54.792  -9.960  1.00  0.00     0.257 C 
HETATM   34  O3  UNL     1      -1.486  55.948  -9.800  1.00  0.00    -0.267 OA
HETATM   35  N3  UNL     1       0.204  54.379 -10.015  1.00  0.00    -0.309 N 
HETATM   36  H15 UNL     1       0.434  53.435 -10.293  1.00  0.00     0.170 HD
BRANCH  35  37
HETATM   37  C15 UNL     1       1.359  55.142  -9.837  1.00  0.00     0.108 A 
HETATM   38  C16 UNL     1       1.721  55.756  -8.646  1.00  0.00     0.064 A 
HETATM   39  C17 UNL     1       2.914  56.492  -8.593  1.00  0.00     0.052 A 
HETATM   40  C19 UNL     1       3.693  56.586  -9.748  1.00  0.00     0.033 A 
HETATM   41  C20 UNL     1       3.254  55.942 -10.892  1.00  0.00     0.090 A 
HETATM   42  N4  UNL     1       2.114  55.223 -10.954  1.00  0.00    -0.352 N 
ATOM     43  H4  UNL     1       1.832  54.755 -11.815  1.00  0.00     0.166 HD
BRANCH  39  44
HETATM   44  C18 UNL     1       3.334  57.205  -7.336  1.00  0.00     0.417 C 
HETATM   45  F1  UNL     1       4.679  57.418  -7.294  1.00  0.00    -0.166 F 
HETATM   46  F2  UNL     1       3.034  56.494  -6.212  1.00  0.00    -0.166 F 
HETATM   47  F3  UNL     1       2.752  58.423  -7.172  1.00  0.00    -0.166 F 
ENDBRANCH  39  44
ENDBRANCH  35  37
ENDBRANCH   8  33
TORSDOF 7
ENDMDL
MODEL 2
REMARK minimizedAffinity -8.3484745
REMARK CNNscore 0.167529345
REMARK CNNaffinity 6.33109045
REMARK  7 active torsions:
REMARK  status: ('A' for Active; 'I' for Inactive)
REMARK    1  A    between atoms: O1_2  and  C2_3 
REMARK    2  A    between atoms: C2_3  and  C3_4 
REMARK       I    between atoms: C3_4  and  N1_6 
REMARK    3  A    between atoms: C7_10  and  C8_11 
REMARK    4  A    between atoms: C13_18  and  C14_19 
REMARK       I    between atoms: C14_19  and  N3_21 
REMARK    5  A    between atoms: N3_21  and  C15_22 
REMARK    6  A    between atoms: C17_24  and  C18_25 
REMARK    7  A    between atoms: C24_37  and  N5_38 
ROOT
HETATM    1  C8  UNL     1      -9.926  46.652 -20.376  1.00  0.00     0.094 A 
HETATM    2  N2  UNL     1      -8.867  46.921 -21.120  1.00  0.00    -0.342 N 
ATOM      3  H2  UNL     1      -8.766  46.774 -22.124  1.00  0.00     0.167 HD
HETATM    4  C9  UNL     1      -7.927  47.439 -20.260  1.00  0.00     0.077 A 
HETATM    5  C10 UNL     1      -6.635  47.889 -20.717  1.00  0.00     0.032 A 
HETATM    6  C11 UNL     1      -5.703  46.956 -21.186  1.00  0.00     0.018 A 
HETATM    7  C12 UNL     1      -4.450  47.382 -21.642  1.00  0.00     0.018 A 
HETATM    8  C13 UNL     1      -4.131  48.749 -21.659  1.00  0.00     0.035 A 
HETATM    9  C21 UNL     1      -5.065  49.679 -21.184  1.00  0.00     0.060 A 
HETATM   10  C22 UNL     1      -6.306  49.246 -20.723  1.00  0.00     0.130 A 
HETATM   11  F4  UNL     1      -7.187  50.165 -20.297  1.00  0.00    -0.205 F 
HETATM   12  C23 UNL     1      -8.392  47.431 -18.965  1.00  0.00     0.106 A 
HETATM   13  C24 UNL     1      -7.870  47.798 -17.669  1.00  0.00     0.107 A 
HETATM   14  N6  UNL     1      -8.628  47.691 -16.602  1.00  0.00    -0.354 N 
ATOM     15  H6  UNL     1      -8.265  47.943 -15.682  1.00  0.00     0.166 HD
HETATM   16  C25 UNL     1      -9.922  47.231 -16.742  1.00  0.00     0.107 A 
HETATM   17  C26 UNL     1     -10.461  46.858 -17.912  1.00  0.00     0.116 A 
HETATM   18  N7  UNL     1      -9.681  46.951 -19.050  1.00  0.00    -0.305 N 
ENDROOT
BRANCH   1  19
HETATM   19  C7  UNL     1     -11.250  46.142 -20.884  1.00  0.00     0.072 C 
HETATM   20  C6  UNL     1     -11.095  45.361 -22.210  1.00  0.00     0.015 C 
HETATM   21  C5  UNL     1     -11.555  46.182 -23.414  1.00  0.00     0.021 C 
HETATM   22  C4  UNL     1     -13.022  46.584 -23.258  1.00  0.00     0.126 C 
HETATM   23  N1  UNL     1     -13.352  47.006 -21.896  1.00  0.00    -0.350 N 
HETATM   24  C3  UNL     1     -14.652  47.210 -21.435  1.00  0.00     0.243 C 
HETATM   25  C27 UNL     1     -12.226  47.326 -21.023  1.00  0.00     0.138 C 
HETATM   26  O2  UNL     1     -14.882  47.524 -20.266  1.00  0.00    -0.271 OA
BRANCH  24  27
HETATM   27  C2  UNL     1     -15.790  47.024 -22.464  1.00  0.00     0.269 C 
BRANCH  27  28
HETATM   28  O1  UNL     1     -16.941  46.307 -22.043  1.00  0.00    -0.387 OA
HETATM   29  C1  UNL     1     -17.932  46.210 -23.058  1.00  0.00     0.202 C 
ENDBRANCH  27  28
ENDBRANCH  24  27
ENDBRANCH   1  19
BRANCH  13  30
HETATM   30  N5  UNL     1      -6.597  48.243 -17.456  1.00  0.00    -0.287 NA
HETATM   31  H20 UNL     1      -6.356  48.220 -16.471  1.00  0.00     0.125 HD
HETATM   32  H21 UNL     1      -5.881  47.854 -18.056  1.00  0.00     0.125 HD
ENDBRANCH  13  30
BRANCH   8  33
HETATM   33  C14 UNL     1      -2.819  49.266 -22.156  1.00  0.00     0.257 C 
HETATM   34  O3  UNL     1      -1.996  48.460 -22.580  1.00  0.00    -0.267 OA
HETATM   35  N3  UNL     1      -2.630  50.623 -22.048  1.00  0.00    -0.309 N 
HETATM   36  H15 UNL     1      -3.300  51.198 -21.556  1.00  0.00     0.170 HD
BRANCH  35  37
HETATM   37  C15 UNL     1      -1.526  51.376 -22.449  1.00  0.00     0.108 A 
HETATM   38  C16 UNL     1      -0.763  52.168 -21.603  1.00  0.00     0.064 A 
HETATM   39  C17 UNL     1       0.330  52.873 -22.128  1.00  0.00     0.052 A 
HETATM   40  C19 UNL     1       0.607  52.757 -23.492  1.00  0.00     0.033 A 
HETATM   41  C20 UNL     1      -0.208  51.945 -24.262  1.00  0.00     0.090 A 
HETATM   42  N4  UNL     1      -1.256  51.254 -23.767  1.00  0.00    -0.352 N 
ATOM     43  H4  UNL     1      -1.826  50.658 -24.368  1.00  0.00     0.166 HD
BRANCH  39  44
HETATM   44  C18 UNL     1       1.167  53.772 -21.258  1.00  0.00     0.417 C 
HETATM   45  F1  UNL     1       2.156  53.087 -20.618  1.00  0.00    -0.166 F 
HETATM   46  F2  UNL     1       0.435  54.373 -20.278  1.00  0.00    -0.166 F 
HETATM   47  F3  UNL     1       1.781  54.779 -21.936  1.00  0.00    -0.166 F 
ENDBRANCH  39  44
ENDBRANCH  35  37
ENDBRANCH   8  33
TORSDOF 7
ENDMDL
MODEL 3
REMARK minimizedAffinity -10.0753822
REMARK CNNscore 0.125578433
REMARK CNNaffinity 7.16744995
REMARK  7 active torsions:
REMARK  status: ('A' for Active; 'I' for Inactive)
REMARK    1  A    between atoms: O1_2  and  C2_3 
REMARK    2  A    between atoms: C2_3  and  C3_4 
REMARK       I    between atoms: C3_4  and  N1_6 
REMARK    3  A    between atoms: C7_10  and  C8_11 
REMARK    4  A    between atoms: C13_18  and  C14_19 
REMARK       I    between atoms: C14_19  and  N3_21 
REMARK    5  A    between atoms: N3_21  and  C15_22 
REMARK    6  A    between atoms: C17_24  and  C18_25 
REMARK    7  A    between atoms: C24_37  and  N5_38 
ROOT
HETATM    1  C8  UNL     1      -0.729  51.969 -20.976  1.00  0.00     0.094 A 
HETATM    2  N2  UNL     1      -1.454  51.279 -21.839  1.00  0.00    -0.342 N 
ATOM      3  H2  UNL     1      -2.126  50.541 -21.626  1.00  0.00     0.167 HD
HETATM    4  C9  UNL     1      -1.116  51.759 -23.082  1.00  0.00     0.077 A 
HETATM    5  C10 UNL     1      -1.736  51.267 -24.288  1.00  0.00     0.032 A 
HETATM    6  C11 UNL     1      -1.478  49.959 -24.715  1.00  0.00     0.018 A 
HETATM    7  C12 UNL     1      -2.082  49.467 -25.878  1.00  0.00     0.018 A 
HETATM    8  C13 UNL     1      -2.971  50.272 -26.608  1.00  0.00     0.035 A 
HETATM    9  C21 UNL     1      -3.221  51.583 -26.180  1.00  0.00     0.060 A 
HETATM   10  C22 UNL     1      -2.609  52.067 -25.027  1.00  0.00     0.130 A 
HETATM   11  F4  UNL     1      -2.889  53.319 -24.631  1.00  0.00    -0.205 F 
HETATM   12  C23 UNL     1      -0.127  52.711 -22.986  1.00  0.00     0.106 A 
HETATM   13  C24 UNL     1       0.634  53.517 -23.911  1.00  0.00     0.107 A 
HETATM   14  N6  UNL     1       1.508  54.387 -23.458  1.00  0.00    -0.354 N 
ATOM     15  H6  UNL     1       2.054  54.957 -24.105  1.00  0.00     0.166 HD
HETATM   16  C25 UNL     1       1.677  54.520 -22.094  1.00  0.00     0.107 A 
HETATM   17  C26 UNL     1       1.015  53.791 -21.184  1.00  0.00     0.116 A 
HETATM   18  N7  UNL     1       0.097  52.861 -21.635  1.00  0.00    -0.305 N 
ENDROOT
BRANCH   1  19
HETATM   19  C7  UNL     1      -0.809  51.862 -19.475  1.00  0.00     0.072 C 
HETATM   20  C6  UNL     1      -0.111  53.051 -18.775  1.00  0.00     0.015 C 
HETATM   21  C5  UNL     1       1.248  52.657 -18.197  1.00  0.00     0.021 C 
HETATM   22  C4  UNL     1       1.088  51.524 -17.182  1.00  0.00     0.126 C 
HETATM   23  N1  UNL     1       0.138  50.501 -17.620  1.00  0.00    -0.350 N 
HETATM   24  C3  UNL     1      -0.351  49.488 -16.797  1.00  0.00     0.243 C 
HETATM   25  C27 UNL     1      -0.219  50.507 -19.035  1.00  0.00     0.138 C 
HETATM   26  O2  UNL     1      -1.185  48.674 -17.199  1.00  0.00    -0.271 OA
BRANCH  24  27
HETATM   27  C2  UNL     1       0.205  49.435 -15.356  1.00  0.00     0.269 C 
BRANCH  27  28
HETATM   28  O1  UNL     1      -0.669  49.818 -14.304  1.00  0.00    -0.387 OA
HETATM   29  C1  UNL     1      -0.455  51.154 -13.869  1.00  0.00     0.202 C 
ENDBRANCH  27  28
ENDBRANCH  24  27
ENDBRANCH   1  19
BRANCH  13  30
HETATM   30  N5  UNL     1       0.531  53.426 -25.270  1.00  0.00    -0.287 NA
HETATM   31  H20 UNL     1       1.302  53.894 -25.733  1.00  0.00     0.125 HD
HETATM   32  H21 UNL     1       0.334  52.506 -25.643  1.00  0.00     0.125 HD
ENDBRANCH  13  30
BRANCH   8  33
HETATM   33  C14 UNL     1      -3.664  49.795 -27.844  1.00  0.00     0.257 C 
HETATM   34  O3  UNL     1      -3.371  50.317 -28.916  1.00  0.00    -0.267 OA
HETATM   35  N3  UNL     1      -4.620  48.826 -27.658  1.00  0.00    -0.309 N 
HETATM   36  H15 UNL     1      -4.901  48.553 -26.727  1.00  0.00     0.170 HD
BRANCH  35  37
HETATM   37  C15 UNL     1      -5.399  48.185 -28.623  1.00  0.00     0.108 A 
HETATM   38  C16 UNL     1      -4.891  47.493 -29.713  1.00  0.00     0.064 A 
HETATM   39  C17 UNL     1      -5.782  46.884 -30.609  1.00  0.00     0.052 A 
HETATM   40  C19 UNL     1      -7.153  47.004 -30.375  1.00  0.00     0.033 A 
HETATM   41  C20 UNL     1      -7.570  47.714 -29.263  1.00  0.00     0.090 A 
HETATM   42  N4  UNL     1      -6.724  48.296 -28.387  1.00  0.00    -0.352 N 
ATOM     43  H4  UNL     1      -7.074  48.802 -27.574  1.00  0.00     0.166 HD
BRANCH  39  44
HETATM   44  C18 UNL     1      -5.282  46.151 -31.826  1.00  0.00     0.417 C 
HETATM   45  F1  UNL     1      -5.980  45.004 -32.054  1.00  0.00    -0.166 F 
HETATM   46  F2  UNL     1      -3.977  45.776 -31.706  1.00  0.00    -0.166 F 
HETATM   47  F3  UNL     1      -5.357  46.875 -32.975  1.00  0.00    -0.166 F 
ENDBRANCH  39  44
ENDBRANCH  35  37
ENDBRANCH   8  33
TORSDOF 7
ENDMDL
MODEL 4
REMARK minimizedAffinity -9.58771515
REMARK CNNscore 0.101249561
REMARK CNNaffinity 7.03042078
REMARK  7 active torsions:
REMARK  status: ('A' for Active; 'I' for Inactive)
REMARK    1  A    between atoms: O1_2  and  C2_3 
REMARK    2  A    between atoms: C2_3  and  C3_4 
REMARK       I    between atoms: C3_4  and  N1_6 
REMARK    3  A    between atoms: C7_10  and  C8_11 
REMARK    4  A    between atoms: C13_18  and  C14_19 
REMARK       I    between atoms: C14_19  and  N3_21 
REMARK    5  A    between atoms: N3_21  and  C15_22 
REMARK    6  A    between atoms: C17_24  and  C18_25 
REMARK    7  A    between atoms: C24_37  and  N5_38 
ROOT
HETATM    1  C8  UNL     1      -0.952  51.329 -19.142  1.00  0.00     0.094 A 
HETATM    2  N2  UNL     1      -1.759  50.583 -19.878  1.00  0.00    -0.342 N 
ATOM      3  H2  UNL     1      -2.415  49.875 -19.547  1.00  0.00     0.167 HD
HETATM    4  C9  UNL     1      -1.533  50.958 -21.181  1.00  0.00     0.077 A 
HETATM    5  C10 UNL     1      -2.264  50.382 -22.283  1.00  0.00     0.032 A 
HETATM    6  C11 UNL     1      -2.058  49.040 -22.624  1.00  0.00     0.018 A 
HETATM    7  C12 UNL     1      -2.769  48.467 -23.685  1.00  0.00     0.018 A 
HETATM    8  C13 UNL     1      -3.714  49.224 -24.394  1.00  0.00     0.035 A 
HETATM    9  C21 UNL     1      -3.913  50.569 -24.052  1.00  0.00     0.060 A 
HETATM   10  C22 UNL     1      -3.194  51.134 -23.002  1.00  0.00     0.130 A 
HETATM   11  F4  UNL     1      -3.426  52.418 -22.684  1.00  0.00    -0.205 F 
HETATM   12  C23 UNL     1      -0.531  51.899 -21.252  1.00  0.00     0.106 A 
HETATM   13  C24 UNL     1       0.150  52.617 -22.304  1.00  0.00     0.107 A 
HETATM   14  N6  UNL     1       1.069  53.506 -22.004  1.00  0.00    -0.354 N 
ATOM     15  H6  UNL     1       1.558  54.014 -22.741  1.00  0.00     0.166 HD
HETATM   16  C25 UNL     1       1.362  53.745 -20.676  1.00  0.00     0.107 A 
HETATM   17  C26 UNL     1       0.780  53.101 -19.654  1.00  0.00     0.116 A 
HETATM   18  N7  UNL     1      -0.183  52.152 -19.943  1.00  0.00    -0.305 N 
ENDROOT
BRANCH   1  19
HETATM   19  C7  UNL     1      -0.896  51.342 -17.637  1.00  0.00     0.072 C 
HETATM   20  C6  UNL     1       0.297  50.517 -17.099  1.00  0.00     0.015 C 
HETATM   21  C5  UNL     1      -0.149  49.167 -16.538  1.00  0.00     0.021 C 
HETATM   22  C4  UNL     1      -1.152  49.365 -15.401  1.00  0.00     0.126 C 
HETATM   23  N1  UNL     1      -2.131  50.416 -15.686  1.00  0.00    -0.350 N 
HETATM   24  C3  UNL     1      -3.008  50.942 -14.740  1.00  0.00     0.243 C 
HETATM   25  C27 UNL     1      -2.242  50.842 -17.078  1.00  0.00     0.138 C 
HETATM   26  O2  UNL     1      -3.785  51.858 -15.017  1.00  0.00    -0.271 OA
BRANCH  24  27
HETATM   27  C2  UNL     1      -2.957  50.321 -13.325  1.00  0.00     0.269 C 
BRANCH  27  28
HETATM   28  O1  UNL     1      -2.444  51.128 -12.275  1.00  0.00    -0.387 OA
HETATM   29  C1  UNL     1      -1.437  52.029 -12.714  1.00  0.00     0.202 C 
ENDBRANCH  27  28
ENDBRANCH  24  27
ENDBRANCH   1  19
BRANCH  13  30
HETATM   30  N5  UNL     1      -0.078  52.420 -23.636  1.00  0.00    -0.287 NA
HETATM   31  H20 UNL     1       0.651  52.837 -24.203  1.00  0.00     0.125 HD
HETATM   32  H21 UNL     1      -0.316  51.476 -23.914  1.00  0.00     0.125 HD
ENDBRANCH  13  30
BRANCH   8  33
HETATM   33  C14 UNL     1      -4.521  48.662 -25.520  1.00  0.00     0.257 C 
HETATM   34  O3  UNL     1      -3.956  48.432 -26.585  1.00  0.00    -0.267 OA
HETATM   35  N3  UNL     1      -5.862  48.492 -25.269  1.00  0.00    -0.309 N 
HETATM   36  H15 UNL     1      -6.273  48.840 -24.415  1.00  0.00     0.170 HD
BRANCH  35  37
HETATM   37  C15 UNL     1      -6.840  47.969 -26.118  1.00  0.00     0.108 A 
HETATM   38  C16 UNL     1      -6.602  47.026 -27.107  1.00  0.00     0.064 A 
HETATM   39  C17 UNL     1      -7.674  46.574 -27.890  1.00  0.00     0.052 A 
HETATM   40  C19 UNL     1      -8.945  47.098 -27.649  1.00  0.00     0.033 A 
HETATM   41  C20 UNL     1      -9.090  48.037 -26.642  1.00  0.00     0.090 A 
HETATM   42  N4  UNL     1      -8.069  48.472 -25.875  1.00  0.00    -0.352 N 
ATOM     43  H4  UNL     1      -8.221  49.159 -25.136  1.00  0.00     0.166 HD
BRANCH  39  44
HETATM   44  C18 UNL     1      -7.462  45.577 -28.998  1.00  0.00     0.417 C 
HETATM   45  F1  UNL     1      -8.561  45.458 -29.794  1.00  0.00    -0.166 F 
HETATM   46  F2  UNL     1      -7.205  44.324 -28.526  1.00  0.00    -0.166 F 
HETATM   47  F3  UNL     1      -6.426  45.883 -29.825  1.00  0.00    -0.166 F 
ENDBRANCH  39  44
ENDBRANCH  35  37
ENDBRANCH   8  33
TORSDOF 7
ENDMDL
MODEL 5
REMARK minimizedAffinity -8.61189842
REMARK CNNscore 0.0936522335
REMARK CNNaffinity 5.94754934
REMARK  7 active torsions:
REMARK  status: ('A' for Active; 'I' for Inactive)
REMARK    1  A    between atoms: O1_2  and  C2_3 
REMARK    2  A    between atoms: C2_3  and  C3_4 
REMARK       I    between atoms: C3_4  and  N1_6 
REMARK    3  A    between atoms: C7_10  and  C8_11 
REMARK    4  A    between atoms: C13_18  and  C14_19 
REMARK       I    between atoms: C14_19  and  N3_21 
REMARK    5  A    between atoms: N3_21  and  C15_22 
REMARK    6  A    between atoms: C17_24  and  C18_25 
REMARK    7  A    between atoms: C24_37  and  N5_38 
ROOT
HETATM    1  C8  UNL     1      -6.315  48.970  -9.963  1.00  0.00     0.094 A 
HETATM    2  N2  UNL     1      -5.721  50.104  -9.635  1.00  0.00    -0.342 N 
ATOM      3  H2  UNL     1      -5.990  50.746  -8.889  1.00  0.00     0.167 HD
HETATM    4  C9  UNL     1      -4.666  50.241 -10.505  1.00  0.00     0.077 A 
HETATM    5  C10 UNL     1      -3.751  51.354 -10.433  1.00  0.00     0.032 A 
HETATM    6  C11 UNL     1      -4.198  52.639 -10.760  1.00  0.00     0.018 A 
HETATM    7  C12 UNL     1      -3.323  53.729 -10.683  1.00  0.00     0.018 A 
HETATM    8  C13 UNL     1      -2.000  53.545 -10.250  1.00  0.00     0.035 A 
HETATM    9  C21 UNL     1      -1.556  52.255  -9.929  1.00  0.00     0.060 A 
HETATM   10  C22 UNL     1      -2.431  51.175 -10.017  1.00  0.00     0.130 A 
HETATM   11  F4  UNL     1      -1.980  49.956  -9.679  1.00  0.00    -0.205 F 
HETATM   12  C23 UNL     1      -4.649  49.211 -11.418  1.00  0.00     0.106 A 
HETATM   13  C24 UNL     1      -3.839  48.843 -12.556  1.00  0.00     0.107 A 
HETATM   14  N6  UNL     1      -4.090  47.729 -13.206  1.00  0.00    -0.354 N 
ATOM     15  H6  UNL     1      -3.526  47.464 -14.014  1.00  0.00     0.166 HD
HETATM   16  C25 UNL     1      -5.126  46.923 -12.782  1.00  0.00     0.107 A 
HETATM   17  C26 UNL     1      -5.926  47.216 -11.745  1.00  0.00     0.116 A 
HETATM   18  N7  UNL     1      -5.690  48.388 -11.050  1.00  0.00    -0.305 N 
ENDROOT
BRANCH   1  19
HETATM   19  C7  UNL     1      -7.479  48.345  -9.239  1.00  0.00     0.072 C 
HETATM   20  C6  UNL     1      -8.312  47.430 -10.169  1.00  0.00     0.015 C 
HETATM   21  C5  UNL     1      -9.621  48.091 -10.598  1.00  0.00     0.021 C 
HETATM   22  C4  UNL     1     -10.470  48.438  -9.374  1.00  0.00     0.126 C 
HETATM   23  N1  UNL     1      -9.679  48.992  -8.274  1.00  0.00    -0.350 N 
HETATM   24  C3  UNL     1     -10.166  49.184  -6.982  1.00  0.00     0.243 C 
HETATM   25  C27 UNL     1      -8.337  49.459  -8.608  1.00  0.00     0.138 C 
HETATM   26  O2  UNL     1      -9.448  49.613  -6.077  1.00  0.00    -0.271 OA
BRANCH  24  27
HETATM   27  C2  UNL     1     -11.651  48.831  -6.741  1.00  0.00     0.269 C 
BRANCH  27  28
HETATM   28  O1  UNL     1     -12.583  49.903  -6.722  1.00  0.00    -0.387 OA
HETATM   29  C1  UNL     1     -13.537  49.823  -7.772  1.00  0.00     0.202 C 
ENDBRANCH  27  28
ENDBRANCH  24  27
ENDBRANCH   1  19
BRANCH  13  30
HETATM   30  N5  UNL     1      -2.811  49.600 -13.040  1.00  0.00    -0.287 NA
HETATM   31  H20 UNL     1      -2.529  49.294 -13.965  1.00  0.00     0.125 HD
HETATM   32  H21 UNL     1      -2.918  50.603 -12.961  1.00  0.00     0.125 HD
ENDBRANCH  13  30
BRANCH   8  33
HETATM   33  C14 UNL     1      -1.026  54.672 -10.126  1.00  0.00     0.257 C 
HETATM   34  O3  UNL     1      -1.452  55.821 -10.193  1.00  0.00    -0.267 OA
HETATM   35  N3  UNL     1       0.293  54.312  -9.990  1.00  0.00    -0.309 N 
HETATM   36  H15 UNL     1       0.575  53.347 -10.088  1.00  0.00     0.170 HD
BRANCH  35  37
HETATM   37  C15 UNL     1       1.403  55.142  -9.831  1.00  0.00     0.108 A 
HETATM   38  C16 UNL     1       1.767  55.751  -8.638  1.00  0.00     0.064 A 
HETATM   39  C17 UNL     1       2.913  56.558  -8.607  1.00  0.00     0.052 A 
HETATM   40  C19 UNL     1       3.644  56.728  -9.784  1.00  0.00     0.033 A 
HETATM   41  C20 UNL     1       3.207  56.084 -10.929  1.00  0.00     0.090 A 
HETATM   42  N4  UNL     1       2.112  55.296 -10.970  1.00  0.00    -0.352 N 
ATOM     43  H4  UNL     1       1.830  54.832 -11.833  1.00  0.00     0.166 HD
BRANCH  39  44
HETATM   44  C18 UNL     1       3.331  57.268  -7.346  1.00  0.00     0.417 C 
HETATM   45  F1  UNL     1       2.551  58.354  -7.089  1.00  0.00    -0.166 F 
HETATM   46  F2  UNL     1       4.610  57.734  -7.413  1.00  0.00    -0.166 F 
HETATM   47  F3  UNL     1       3.277  56.490  -6.232  1.00  0.00    -0.166 F 
ENDBRANCH  39  44
ENDBRANCH  35  37
ENDBRANCH   8  33
TORSDOF 7
ENDMDL
MODEL 6
REMARK minimizedAffinity -8.66012764
REMARK CNNscore 0.0858698934
REMARK CNNaffinity 5.97608185
REMARK  7 active torsions:
REMARK  status: ('A' for Active; 'I' for Inactive)
REMARK    1  A    between atoms: O1_2  and  C2_3 
REMARK    2  A    between atoms: C2_3  and  C3_4 
REMARK       I    between atoms: C3_4  and  N1_6 
REMARK    3  A    between atoms: C7_10  and  C8_11 
REMARK    4  A    between atoms: C13_18  and  C14_19 
REMARK       I    between atoms: C14_19  and  N3_21 
REMARK    5  A    between atoms: N3_21  and  C15_22 
REMARK    6  A    between atoms: C17_24  and  C18_25 
REMARK    7  A    between atoms: C24_37  and  N5_38 
ROOT
HETATM    1  C8  UNL     1      -6.793  44.729 -32.111  1.00  0.00     0.094 A 
HETATM    2  N2  UNL     1      -6.501  44.851 -30.828  1.00  0.00    -0.342 N 
ATOM      3  H2  UNL     1      -6.119  44.132 -30.213  1.00  0.00     0.167 HD
HETATM    4  C9  UNL     1      -6.819  46.145 -30.492  1.00  0.00     0.077 A 
HETATM    5  C10 UNL     1      -6.603  46.669 -29.165  1.00  0.00     0.032 A 
HETATM    6  C11 UNL     1      -7.376  46.194 -28.099  1.00  0.00     0.018 A 
HETATM    7  C12 UNL     1      -7.168  46.686 -26.805  1.00  0.00     0.018 A 
HETATM    8  C13 UNL     1      -6.164  47.638 -26.563  1.00  0.00     0.035 A 
HETATM    9  C21 UNL     1      -5.397  48.114 -27.635  1.00  0.00     0.060 A 
HETATM   10  C22 UNL     1      -5.617  47.626 -28.920  1.00  0.00     0.130 A 
HETATM   11  F4  UNL     1      -4.849  48.086 -29.920  1.00  0.00    -0.205 F 
HETATM   12  C23 UNL     1      -7.371  46.808 -31.565  1.00  0.00     0.106 A 
HETATM   13  C24 UNL     1      -7.915  48.123 -31.808  1.00  0.00     0.107 A 
HETATM   14  N6  UNL     1      -8.339  48.446 -33.008  1.00  0.00    -0.354 N 
ATOM     15  H6  UNL     1      -8.730  49.372 -33.187  1.00  0.00     0.166 HD
HETATM   16  C25 UNL     1      -8.248  47.517 -34.025  1.00  0.00     0.107 A 
HETATM   17  C26 UNL     1      -7.769  46.274 -33.861  1.00  0.00     0.116 A 
HETATM   18  N7  UNL     1      -7.326  45.905 -32.604  1.00  0.00    -0.305 N 
ENDROOT
BRANCH   1  19
HETATM   19  C7  UNL     1      -6.540  43.510 -32.959  1.00  0.00     0.072 C 
HETATM   20  C6  UNL     1      -7.632  42.433 -32.760  1.00  0.00     0.015 C 
HETATM   21  C5  UNL     1      -7.142  41.275 -31.892  1.00  0.00     0.021 C 
HETATM   22  C4  UNL     1      -5.920  40.612 -32.527  1.00  0.00     0.126 C 
HETATM   23  N1  UNL     1      -4.974  41.580 -33.083  1.00  0.00    -0.350 N 
HETATM   24  C3  UNL     1      -3.899  41.240 -33.903  1.00  0.00     0.243 C 
HETATM   25  C27 UNL     1      -5.131  42.966 -32.650  1.00  0.00     0.138 C 
HETATM   26  O2  UNL     1      -3.155  42.097 -34.383  1.00  0.00    -0.271 OA
BRANCH  24  27
HETATM   27  C2  UNL     1      -3.687  39.734 -34.178  1.00  0.00     0.269 C 
BRANCH  27  28
HETATM   28  O1  UNL     1      -2.896  39.380 -35.304  1.00  0.00    -0.387 OA
HETATM   29  C1  UNL     1      -3.590  39.532 -36.534  1.00  0.00     0.202 C 
ENDBRANCH  27  28
ENDBRANCH  24  27
ENDBRANCH   1  19
BRANCH  13  30
HETATM   30  N5  UNL     1      -8.051  49.084 -30.847  1.00  0.00    -0.287 NA
HETATM   31  H20 UNL     1      -8.659  49.835 -31.156  1.00  0.00     0.125 HD
HETATM   32  H21 UNL     1      -8.257  48.756 -29.912  1.00  0.00     0.125 HD
ENDBRANCH  13  30
BRANCH   8  33
HETATM   33  C14 UNL     1      -5.879  48.183 -25.201  1.00  0.00     0.257 C 
HETATM   34  O3  UNL     1      -6.825  48.393 -24.447  1.00  0.00    -0.267 OA
HETATM   35  N3  UNL     1      -4.559  48.449 -24.926  1.00  0.00    -0.309 N 
HETATM   36  H15 UNL     1      -3.860  48.382 -25.652  1.00  0.00     0.170 HD
BRANCH  35  37
HETATM   37  C15 UNL     1      -4.004  48.935 -23.741  1.00  0.00     0.108 A 
HETATM   38  C16 UNL     1      -2.942  48.346 -23.070  1.00  0.00     0.064 A 
HETATM   39  C17 UNL     1      -2.470  48.938 -21.889  1.00  0.00     0.052 A 
HETATM   40  C19 UNL     1      -3.094  50.098 -21.427  1.00  0.00     0.033 A 
HETATM   41  C20 UNL     1      -4.148  50.615 -22.160  1.00  0.00     0.090 A 
HETATM   42  N4  UNL     1      -4.605  50.062 -23.303  1.00  0.00    -0.352 N 
ATOM     43  H4  UNL     1      -5.379  50.481 -23.818  1.00  0.00     0.166 HD
BRANCH  39  44
HETATM   44  C18 UNL     1      -1.343  48.320 -21.106  1.00  0.00     0.417 C 
HETATM   45  F1  UNL     1      -1.676  48.123 -19.800  1.00  0.00    -0.166 F 
HETATM   46  F2  UNL     1      -0.229  49.105 -21.092  1.00  0.00    -0.166 F 
HETATM   47  F3  UNL     1      -0.940  47.110 -21.580  1.00  0.00    -0.166 F 
ENDBRANCH  39  44
ENDBRANCH  35  37
ENDBRANCH   8  33
TORSDOF 7
ENDMDL
MODEL 7
REMARK minimizedAffinity -9.46912289
REMARK CNNscore 0.0856629461
REMARK CNNaffinity 7.15996981
REMARK  7 active torsions:
REMARK  status: ('A' for Active; 'I' for Inactive)
REMARK    1  A    between atoms: O1_2  and  C2_3 
REMARK    2  A    between atoms: C2_3  and  C3_4 
REMARK       I    between atoms: C3_4  and  N1_6 
REMARK    3  A    between atoms: C7_10  and  C8_11 
REMARK    4  A    between atoms: C13_18  and  C14_19 
REMARK       I    between atoms: C14_19  and  N3_21 
REMARK    5  A    between atoms: N3_21  and  C15_22 
REMARK    6  A    between atoms: C17_24  and  C18_25 
REMARK    7  A    between atoms: C24_37  and  N5_38 
ROOT
HETATM    1  C8  UNL     1      -3.041  50.905 -23.631  1.00  0.00     0.094 A 
HETATM    2  N2  UNL     1      -3.198  50.614 -22.350  1.00  0.00    -0.342 N 
ATOM      3  H2  UNL     1      -4.010  50.176 -21.915  1.00  0.00     0.167 HD
HETATM    4  C9  UNL     1      -2.043  51.023 -21.728  1.00  0.00     0.077 A 
HETATM    5  C10 UNL     1      -1.826  50.837 -20.314  1.00  0.00     0.032 A 
HETATM    6  C11 UNL     1      -2.589  51.566 -19.395  1.00  0.00     0.018 A 
HETATM    7  C12 UNL     1      -2.396  51.386 -18.020  1.00  0.00     0.018 A 
HETATM    8  C13 UNL     1      -1.455  50.452 -17.555  1.00  0.00     0.035 A 
HETATM    9  C21 UNL     1      -0.690  49.729 -18.479  1.00  0.00     0.060 A 
HETATM   10  C22 UNL     1      -0.882  49.921 -19.844  1.00  0.00     0.130 A 
HETATM   11  F4  UNL     1      -0.150  49.195 -20.704  1.00  0.00    -0.205 F 
HETATM   12  C23 UNL     1      -1.192  51.629 -22.625  1.00  0.00     0.106 A 
HETATM   13  C24 UNL     1       0.101  52.269 -22.563  1.00  0.00     0.107 A 
HETATM   14  N6  UNL     1       0.661  52.723 -23.661  1.00  0.00    -0.354 N 
ATOM     15  H6  UNL     1       1.572  53.181 -23.625  1.00  0.00     0.166 HD
HETATM   16  C25 UNL     1       0.001  52.571 -24.864  1.00  0.00     0.107 A 
HETATM   17  C26 UNL     1      -1.208  52.002 -24.987  1.00  0.00     0.116 A 
HETATM   18  N7  UNL     1      -1.824  51.526 -23.844  1.00  0.00    -0.305 N 
ENDROOT
BRANCH   1  19
HETATM   19  C7  UNL     1      -4.009  50.569 -24.734  1.00  0.00     0.072 C 
HETATM   20  C6  UNL     1      -5.304  49.922 -24.187  1.00  0.00     0.015 C 
HETATM   21  C5  UNL     1      -5.334  48.413 -24.426  1.00  0.00     0.021 C 
HETATM   22  C4  UNL     1      -5.236  48.108 -25.922  1.00  0.00     0.126 C 
HETATM   23  N1  UNL     1      -4.260  48.954 -26.610  1.00  0.00    -0.350 N 
HETATM   24  C3  UNL     1      -4.135  49.032 -27.996  1.00  0.00     0.243 C 
HETATM   25  C27 UNL     1      -3.305  49.666 -25.765  1.00  0.00     0.138 C 
HETATM   26  O2  UNL     1      -3.326  49.793 -28.531  1.00  0.00    -0.271 OA
BRANCH  24  27
HETATM   27  C2  UNL     1      -5.061  48.117 -28.829  1.00  0.00     0.269 C 
BRANCH  27  28
HETATM   28  O1  UNL     1      -4.668  47.829 -30.163  1.00  0.00    -0.387 OA
HETATM   29  C1  UNL     1      -5.602  47.004 -30.846  1.00  0.00     0.202 C 
ENDBRANCH  27  28
ENDBRANCH  24  27
ENDBRANCH   1  19
BRANCH  13  30
HETATM   30  N5  UNL     1       0.801  52.468 -21.408  1.00  0.00    -0.287 NA
HETATM   31  H20 UNL     1       1.557  53.131 -21.541  1.00  0.00     0.125 HD
HETATM   32  H21 UNL     1       0.252  52.643 -20.576  1.00  0.00     0.125 HD
ENDBRANCH  13  30
BRANCH   8  33
HETATM   33  C14 UNL     1      -1.220  50.199 -16.100  1.00  0.00     0.257 C 
HETATM   34  O3  UNL     1      -0.265  49.500 -15.777  1.00  0.00    -0.267 OA
HETATM   35  N3  UNL     1      -2.143  50.745 -15.240  1.00  0.00    -0.309 N 
HETATM   36  H15 UNL     1      -2.980  51.185 -15.596  1.00  0.00     0.170 HD
BRANCH  35  37
HETATM   37  C15 UNL     1      -2.162  50.691 -13.846  1.00  0.00     0.108 A 
HETATM   38  C16 UNL     1      -3.088  51.344 -13.045  1.00  0.00     0.064 A 
HETATM   39  C17 UNL     1      -3.004  51.204 -11.652  1.00  0.00     0.052 A 
HETATM   40  C19 UNL     1      -1.982  50.415 -11.120  1.00  0.00     0.033 A 
HETATM   41  C20 UNL     1      -1.102  49.801 -11.994  1.00  0.00     0.090 A 
HETATM   42  N4  UNL     1      -1.177  49.920 -13.336  1.00  0.00    -0.352 N 
ATOM     43  H4  UNL     1      -0.514  49.442 -13.945  1.00  0.00     0.166 HD
BRANCH  39  44
HETATM   44  C18 UNL     1      -3.963  51.919 -10.739  1.00  0.00     0.417 C 
HETATM   45  F1  UNL     1      -5.086  51.184 -10.500  1.00  0.00    -0.166 F 
HETATM   46  F2  UNL     1      -4.395  53.101 -11.263  1.00  0.00    -0.166 F 
HETATM   47  F3  UNL     1      -3.443  52.221  -9.519  1.00  0.00    -0.166 F 
ENDBRANCH  39  44
ENDBRANCH  35  37
ENDBRANCH   8  33
TORSDOF 7
ENDMDL
MODEL 8
REMARK minimizedAffinity -9.82708073
REMARK CNNscore 0.0700995997
REMARK CNNaffinity 6.90850401
REMARK  7 active torsions:
REMARK  status: ('A' for Active; 'I' for Inactive)
REMARK    1  A    between atoms: O1_2  and  C2_3 
REMARK    2  A    between atoms: C2_3  and  C3_4 
REMARK       I    between atoms: C3_4  and  N1_6 
REMARK    3  A    between atoms: C7_10  and  C8_11 
REMARK    4  A    between atoms: C13_18  and  C14_19 
REMARK       I    between atoms: C14_19  and  N3_21 
REMARK    5  A    between atoms: N3_21  and  C15_22 
REMARK    6  A    between atoms: C17_24  and  C18_25 
REMARK    7  A    between atoms: C24_37  and  N5_38 
ROOT
HETATM    1  C8  UNL     1       0.667  51.275 -14.994  1.00  0.00     0.094 A 
HETATM    2  N2  UNL     1       1.050  51.602 -16.216  1.00  0.00    -0.342 N 
ATOM      3  H2  UNL     1       1.984  51.884 -16.513  1.00  0.00     0.167 HD
HETATM    4  C9  UNL     1      -0.070  51.483 -17.004  1.00  0.00     0.077 A 
HETATM    5  C10 UNL     1      -0.037  51.726 -18.426  1.00  0.00     0.032 A 
HETATM    6  C11 UNL     1       0.170  53.026 -18.901  1.00  0.00     0.018 A 
HETATM    7  C12 UNL     1       0.215  53.273 -20.278  1.00  0.00     0.018 A 
HETATM    8  C13 UNL     1       0.082  52.214 -21.191  1.00  0.00     0.035 A 
HETATM    9  C21 UNL     1      -0.131  50.915 -20.710  1.00  0.00     0.060 A 
HETATM   10  C22 UNL     1      -0.184  50.680 -19.339  1.00  0.00     0.130 A 
HETATM   11  F4  UNL     1      -0.364  49.420 -18.911  1.00  0.00    -0.205 F 
HETATM   12  C23 UNL     1      -1.167  51.140 -16.247  1.00  0.00     0.106 A 
HETATM   13  C24 UNL     1      -2.573  50.918 -16.493  1.00  0.00     0.107 A 
HETATM   14  N6  UNL     1      -3.361  50.553 -15.507  1.00  0.00    -0.354 N 
ATOM     15  H6  UNL     1      -4.357  50.398 -15.671  1.00  0.00     0.166 HD
HETATM   16  C25 UNL     1      -2.825  50.380 -14.247  1.00  0.00     0.107 A 
HETATM   17  C26 UNL     1      -1.533  50.587 -13.950  1.00  0.00     0.116 A 
HETATM   18  N7  UNL     1      -0.684  50.983 -14.967  1.00  0.00    -0.305 N 
ENDROOT
BRANCH   1  19
HETATM   19  C7  UNL     1       1.565  51.173 -13.789  1.00  0.00     0.072 C 
HETATM   20  C6  UNL     1       3.005  51.643 -14.103  1.00  0.00     0.015 C 
HETATM   21  C5  UNL     1       3.969  50.468 -14.257  1.00  0.00     0.021 C 
HETATM   22  C4  UNL     1       4.002  49.632 -12.977  1.00  0.00     0.126 C 
HETATM   23  N1  UNL     1       2.674  49.437 -12.393  1.00  0.00    -0.350 N 
HETATM   24  C3  UNL     1       2.449  48.907 -11.124  1.00  0.00     0.243 C 
HETATM   25  C27 UNL     1       1.534  49.726 -13.259  1.00  0.00     0.138 C 
HETATM   26  O2  UNL     1       1.313  48.802 -10.658  1.00  0.00    -0.271 OA
BRANCH  24  27
HETATM   27  C2  UNL     1       3.697  48.457 -10.329  1.00  0.00     0.269 C 
BRANCH  27  28
HETATM   28  O1  UNL     1       4.232  47.175 -10.623  1.00  0.00    -0.387 OA
HETATM   29  C1  UNL     1       3.901  46.202  -9.642  1.00  0.00     0.202 C 
ENDBRANCH  27  28
ENDBRANCH  24  27
ENDBRANCH   1  19
BRANCH  13  30
HETATM   30  N5  UNL     1      -3.173  51.086 -17.707  1.00  0.00    -0.287 NA
HETATM   31  H20 UNL     1      -4.183  51.112 -17.622  1.00  0.00     0.125 HD
HETATM   32  H21 UNL     1      -2.799  51.821 -18.294  1.00  0.00     0.125 HD
ENDBRANCH  13  30
BRANCH   8  33
HETATM   33  C14 UNL     1       0.145  52.411 -22.672  1.00  0.00     0.257 C 
HETATM   34  O3  UNL     1       0.981  53.188 -23.122  1.00  0.00    -0.267 OA
HETATM   35  N3  UNL     1      -0.791  51.724 -23.408  1.00  0.00    -0.309 N 
HETATM   36  H15 UNL     1      -1.535  51.218 -22.949  1.00  0.00     0.170 HD
BRANCH  35  37
HETATM   37  C15 UNL     1      -0.951  51.699 -24.794  1.00  0.00     0.108 A 
HETATM   38  C16 UNL     1      -0.647  52.756 -25.641  1.00  0.00     0.064 A 
HETATM   39  C17 UNL     1      -0.846  52.602 -27.021  1.00  0.00     0.052 A 
HETATM   40  C19 UNL     1      -1.352  51.390 -27.493  1.00  0.00     0.033 A 
HETATM   41  C20 UNL     1      -1.628  50.391 -26.576  1.00  0.00     0.090 A 
HETATM   42  N4  UNL     1      -1.432  50.521 -25.247  1.00  0.00    -0.352 N 
ATOM     43  H4  UNL     1      -1.639  49.756 -24.606  1.00  0.00     0.166 HD
BRANCH  39  44
HETATM   44  C18 UNL     1      -0.565  53.730 -27.978  1.00  0.00     0.417 C 
HETATM   45  F1  UNL     1       0.257  53.345 -28.993  1.00  0.00    -0.166 F 
HETATM   46  F2  UNL     1       0.057  54.781 -27.372  1.00  0.00    -0.166 F 
HETATM   47  F3  UNL     1      -1.678  54.245 -28.566  1.00  0.00    -0.166 F 
ENDBRANCH  39  44
ENDBRANCH  35  37
ENDBRANCH   8  33
TORSDOF 7
ENDMDL
MODEL 9
REMARK minimizedAffinity -8.68062019
REMARK CNNscore 0.0697008073
REMARK CNNaffinity 5.32932043
REMARK  7 active torsions:
REMARK  status: ('A' for Active; 'I' for Inactive)
REMARK    1  A    between atoms: O1_2  and  C2_3 
REMARK    2  A    between atoms: C2_3  and  C3_4 
REMARK       I    between atoms: C3_4  and  N1_6 
REMARK    3  A    between atoms: C7_10  and  C8_11 
REMARK    4  A    between atoms: C13_18  and  C14_19 
REMARK       I    between atoms: C14_19  and  N3_21 
REMARK    5  A    between atoms: N3_21  and  C15_22 
REMARK    6  A    between atoms: C17_24  and  C18_25 
REMARK    7  A    between atoms: C24_37  and  N5_38 
ROOT
HETATM    1  C8  UNL     1      -7.900  45.573 -31.459  1.00  0.00     0.094 A 
HETATM    2  N2  UNL     1      -9.146  45.398 -31.052  1.00  0.00    -0.342 N 
ATOM      3  H2  UNL     1      -9.835  44.754 -31.441  1.00  0.00     0.167 HD
HETATM    4  C9  UNL     1      -9.321  46.262 -29.997  1.00  0.00     0.077 A 
HETATM    5  C10 UNL     1     -10.560  46.332 -29.262  1.00  0.00     0.032 A 
HETATM    6  C11 UNL     1     -11.706  46.844 -29.882  1.00  0.00     0.018 A 
HETATM    7  C12 UNL     1     -12.916  46.907 -29.182  1.00  0.00     0.018 A 
HETATM    8  C13 UNL     1     -12.996  46.432 -27.863  1.00  0.00     0.035 A 
HETATM    9  C21 UNL     1     -11.845  45.925 -27.245  1.00  0.00     0.060 A 
HETATM   10  C22 UNL     1     -10.643  45.875 -27.945  1.00  0.00     0.130 A 
HETATM   11  F4  UNL     1      -9.565  45.361 -27.332  1.00  0.00    -0.205 F 
HETATM   12  C23 UNL     1      -8.191  47.021 -29.794  1.00  0.00     0.106 A 
HETATM   13  C24 UNL     1      -7.799  48.082 -28.896  1.00  0.00     0.107 A 
HETATM   14  N6  UNL     1      -6.582  48.573 -28.954  1.00  0.00    -0.354 N 
ATOM     15  H6  UNL     1      -6.298  49.327 -28.327  1.00  0.00     0.166 HD
HETATM   16  C25 UNL     1      -5.692  48.056 -29.875  1.00  0.00     0.107 A 
HETATM   17  C26 UNL     1      -5.999  47.084 -30.747  1.00  0.00     0.116 A 
HETATM   18  N7  UNL     1      -7.277  46.557 -30.714  1.00  0.00    -0.305 N 
ENDROOT
BRANCH   1  19
HETATM   19  C7  UNL     1      -7.210  44.787 -32.543  1.00  0.00     0.072 C 
HETATM   20  C6  UNL     1      -8.220  44.180 -33.545  1.00  0.00     0.015 C 
HETATM   21  C5  UNL     1      -8.415  42.681 -33.321  1.00  0.00     0.021 C 
HETATM   22  C4  UNL     1      -7.085  41.941 -33.467  1.00  0.00     0.126 C 
HETATM   23  N1  UNL     1      -5.970  42.651 -32.838  1.00  0.00    -0.350 N 
HETATM   24  C3  UNL     1      -4.630  42.310 -33.013  1.00  0.00     0.243 C 
HETATM   25  C27 UNL     1      -6.321  43.709 -31.895  1.00  0.00     0.138 C 
HETATM   26  O2  UNL     1      -3.723  42.966 -32.497  1.00  0.00    -0.271 OA
BRANCH  24  27
HETATM   27  C2  UNL     1      -4.338  41.068 -33.886  1.00  0.00     0.269 C 
BRANCH  27  28
HETATM   28  O1  UNL     1      -3.660  41.279 -35.117  1.00  0.00    -0.387 OA
HETATM   29  C1  UNL     1      -4.282  40.615 -36.209  1.00  0.00     0.202 C 
ENDBRANCH  27  28
ENDBRANCH  24  27
ENDBRANCH   1  19
BRANCH  13  30
HETATM   30  N5  UNL     1      -8.630  48.651 -27.975  1.00  0.00    -0.287 NA
HETATM   31  H20 UNL     1      -8.248  49.519 -27.616  1.00  0.00     0.125 HD
HETATM   32  H21 UNL     1      -9.606  48.716 -28.233  1.00  0.00     0.125 HD
ENDBRANCH  13  30
BRANCH   8  33
HETATM   33  C14 UNL     1     -14.265  46.451 -27.073  1.00  0.00     0.257 C 
HETATM   34  O3  UNL     1     -14.326  47.176 -26.085  1.00  0.00    -0.267 OA
HETATM   35  N3  UNL     1     -15.254  45.601 -27.507  1.00  0.00    -0.309 N 
HETATM   36  H15 UNL     1     -15.071  44.933 -28.243  1.00  0.00     0.170 HD
BRANCH  35  37
HETATM   37  C15 UNL     1     -16.536  45.429 -26.983  1.00  0.00     0.108 A 
HETATM   38  C16 UNL     1     -16.962  45.930 -25.761  1.00  0.00     0.064 A 
HETATM   39  C17 UNL     1     -18.281  45.694 -25.350  1.00  0.00     0.052 A 
HETATM   40  C19 UNL     1     -19.120  44.953 -26.184  1.00  0.00     0.033 A 
HETATM   41  C20 UNL     1     -18.610  44.490 -27.385  1.00  0.00     0.090 A 
HETATM   42  N4  UNL     1     -17.346  44.719 -27.798  1.00  0.00    -0.352 N 
ATOM     43  H4  UNL     1     -17.013  44.369 -28.696  1.00  0.00     0.166 HD
BRANCH  39  44
HETATM   44  C18 UNL     1     -18.781  46.187 -24.018  1.00  0.00     0.417 C 
HETATM   45  F1  UNL     1     -19.870  45.489 -23.590  1.00  0.00    -0.166 F 
HETATM   46  F2  UNL     1     -19.169  47.493 -24.061  1.00  0.00    -0.166 F 
HETATM   47  F3  UNL     1     -17.862  46.105 -23.019  1.00  0.00    -0.166 F 
ENDBRANCH  39  44
ENDBRANCH  35  37
ENDBRANCH   8  33
TORSDOF 7
ENDMDL
