MODEL 1
REMARK minimizedAffinity -9.12428856
REMARK CNNscore 0.374003649
REMARK CNNaffinity 7.70785522
REMARK  7 active torsions:
REMARK  status: ('A' for Active; 'I' for Inactive)
REMARK    1  A    between atoms: O1_2  and  C2_3 
REMARK    2  A    between atoms: C4_5  and  C5_6 
REMARK    3  A    between atoms: N2_9  and  C6_10 
REMARK    4  A    between atoms: C9_13  and  N3_14 
REMARK       I    between atoms: N4_17  and  C12_18 
REMARK    5  A    between atoms: C20_31  and  N7_32 
REMARK    6  A    between atoms: C24_36  and  N8_37 
REMARK       I    between atoms: N8_37  and  C25_38 
REMARK    7  A    between atoms: C25_38  and  C26_40 
ROOT
HETATM    1  C5  UNL     1      -0.205  51.226 -19.257  1.00  0.00     0.076 A 
HETATM    2  N1  UNL     1      -0.968  50.161 -19.548  1.00  0.00    -0.295 N 
ATOM      3  H1  UNL     1      -1.298  49.436 -18.911  1.00  0.00     0.187 HD
HETATM    4  N2  UNL     1      -1.203  50.264 -20.877  1.00  0.00    -0.270 N 
HETATM    5  C18 UNL     1      -0.529  51.305 -21.456  1.00  0.00     0.140 A 
HETATM    6  N5  UNL     1      -0.511  51.650 -22.754  1.00  0.00    -0.337 N 
ATOM      7  H5  UNL     1      -1.011  51.146 -23.487  1.00  0.00     0.168 HD
HETATM    8  C19 UNL     1       0.243  52.738 -22.972  1.00  0.00     0.183 A 
HETATM    9  N6  UNL     1       0.928  53.461 -22.070  1.00  0.00    -0.338 N 
ATOM     10  H6  UNL     1       1.473  54.273 -22.358  1.00  0.00     0.168 HD
HETATM   11  C20 UNL     1       0.879  53.091 -20.774  1.00  0.00     0.116 A 
HETATM   12  C21 UNL     1       0.126  51.961 -20.427  1.00  0.00     0.082 A 
ENDROOT
BRANCH   1  13
HETATM   13  C4  UNL     1       0.172  51.492 -17.874  1.00  0.00    -0.004 A 
HETATM   14  C3  UNL     1      -0.609  50.989 -16.825  1.00  0.00     0.053 A 
HETATM   15  C2  UNL     1      -0.262  51.257 -15.498  1.00  0.00     0.095 A 
HETATM   16  C24 UNL     1       0.873  52.046 -15.214  1.00  0.00     0.068 A 
HETATM   17  C23 UNL     1       1.643  52.547 -16.262  1.00  0.00     0.033 A 
HETATM   18  C22 UNL     1       1.294  52.273 -17.586  1.00  0.00     0.016 A 
BRANCH  15  19
HETATM   19  O1  UNL     1      -0.959  50.810 -14.398  1.00  0.00    -0.354 OA
HETATM   20  C1  UNL     1      -2.372  50.705 -14.524  1.00  0.00     0.210 C 
ENDBRANCH  15  19
BRANCH  16  21
HETATM   21  N8  UNL     1       1.143  52.302 -13.852  1.00  0.00    -0.319 N 
HETATM   22  C25 UNL     1       2.056  51.692 -13.019  1.00  0.00     0.273 C 
HETATM   23  O3  UNL     1       2.734  50.719 -13.331  1.00  0.00    -0.266 OA
HETATM   24  H31 UNL     1       0.547  53.016 -13.453  1.00  0.00     0.169 HD
BRANCH  22  25
HETATM   25  C26 UNL     1       2.138  52.300 -11.693  1.00  0.00     0.104 A 
HETATM   26  C27 UNL     1       3.093  53.167 -11.179  1.00  0.00     0.049 A 
HETATM   27  C28 UNL     1       2.774  53.463  -9.830  1.00  0.00    -0.007 A 
HETATM   28  C29 UNL     1       3.389  54.256  -8.841  1.00  0.00     0.014 A 
HETATM   29  C33 UNL     1       1.607  52.767  -9.523  1.00  0.00     0.045 A 
HETATM   30  C30 UNL     1       2.816  54.334  -7.568  1.00  0.00     0.001 A 
HETATM   31  C31 UNL     1       1.650  53.633  -7.276  1.00  0.00     0.002 A 
HETATM   32  C32 UNL     1       1.027  52.840  -8.244  1.00  0.00     0.030 A 
HETATM   33  N9  UNL     1       1.237  52.075 -10.662  1.00  0.00    -0.346 N 
HETATM   34  C34 UNL     1       0.058  51.240 -10.775  1.00  0.00     0.156 C 
ENDBRANCH  22  25
ENDBRANCH  16  21
ENDBRANCH   1  13
BRANCH   4  35
HETATM   35  C6  UNL     1      -2.164  49.336 -21.474  1.00  0.00     0.110 C 
HETATM   36  C7  UNL     1      -3.291  48.942 -20.512  1.00  0.00     0.029 C 
HETATM   37  C8  UNL     1      -4.543  49.802 -20.608  1.00  0.00     0.027 C 
HETATM   38  C9  UNL     1      -5.064  50.047 -22.037  1.00  0.00     0.079 C 
HETATM   39  C16 UNL     1      -3.927  50.517 -22.965  1.00  0.00     0.027 C 
HETATM   40  C17 UNL     1      -2.625  49.723 -22.885  1.00  0.00     0.029 C 
BRANCH  38  41
HETATM   41  N3  UNL     1      -5.908  48.986 -22.611  1.00  0.00    -0.405 N 
HETATM   42  C10 UNL     1      -7.302  49.275 -22.943  1.00  0.00     0.137 C 
HETATM   43  C11 UNL     1      -7.981  48.178 -23.791  1.00  0.00     0.145 C 
HETATM   44  N4  UNL     1      -7.254  47.912 -25.035  1.00  0.00    -0.349 N 
HETATM   45  C12 UNL     1      -7.821  47.408 -26.192  1.00  0.00     0.215 C 
HETATM   46  C14 UNL     1      -5.820  48.199 -25.019  1.00  0.00     0.145 C 
HETATM   47  C13 UNL     1      -9.286  47.053 -26.139  1.00  0.00     0.117 C 
HETATM   48  O2  UNL     1      -7.179  47.248 -27.229  1.00  0.00    -0.274 OA
HETATM   49  C15 UNL     1      -5.228  48.129 -23.600  1.00  0.00     0.137 C 
ENDBRANCH  38  41
ENDBRANCH   4  35
BRANCH  11  50
HETATM   50  N7  UNL     1       1.598  53.865 -19.883  1.00  0.00    -0.385 N 
HETATM   51  H27 UNL     1       1.896  53.431 -19.017  1.00  0.00     0.157 HD
HETATM   52  H28 UNL     1       2.263  54.473 -20.343  1.00  0.00     0.157 HD
ENDBRANCH  11  50
TORSDOF 7
ENDMDL
MODEL 2
REMARK minimizedAffinity -9.58606243
REMARK CNNscore 0.302532405
REMARK CNNaffinity 7.10259628
REMARK  7 active torsions:
REMARK  status: ('A' for Active; 'I' for Inactive)
REMARK    1  A    between atoms: O1_2  and  C2_3 
REMARK    2  A    between atoms: C4_5  and  C5_6 
REMARK    3  A    between atoms: N2_9  and  C6_10 
REMARK    4  A    between atoms: C9_13  and  N3_14 
REMARK       I    between atoms: N4_17  and  C12_18 
REMARK    5  A    between atoms: C20_31  and  N7_32 
REMARK    6  A    between atoms: C24_36  and  N8_37 
REMARK       I    between atoms: N8_37  and  C25_38 
REMARK    7  A    between atoms: C25_38  and  C26_40 
ROOT
HETATM    1  C5  UNL     1      -0.276  50.999 -18.647  1.00  0.00     0.076 A 
HETATM    2  N1  UNL     1      -1.040  49.903 -18.775  1.00  0.00    -0.295 N 
ATOM      3  H1  UNL     1      -1.252  49.203 -18.064  1.00  0.00     0.187 HD
HETATM    4  N2  UNL     1      -1.468  49.934 -20.059  1.00  0.00    -0.270 N 
HETATM    5  C18 UNL     1      -0.916  50.961 -20.777  1.00  0.00     0.140 A 
HETATM    6  N5  UNL     1      -1.097  51.241 -22.078  1.00  0.00    -0.337 N 
ATOM      7  H5  UNL     1      -1.682  50.689 -22.706  1.00  0.00     0.168 HD
HETATM    8  C19 UNL     1      -0.416  52.334 -22.453  1.00  0.00     0.183 A 
HETATM    9  N6  UNL     1       0.369  53.117 -21.695  1.00  0.00    -0.338 N 
ATOM     10  H6  UNL     1       0.842  53.926 -22.097  1.00  0.00     0.168 HD
HETATM   11  C20 UNL     1       0.520  52.811 -20.390  1.00  0.00     0.116 A 
HETATM   12  C21 UNL     1      -0.140  51.683 -19.886  1.00  0.00     0.082 A 
ENDROOT
BRANCH   1  13
HETATM   13  C4  UNL     1       0.289  51.342 -17.348  1.00  0.00    -0.004 A 
HETATM   14  C3  UNL     1       1.546  51.956 -17.270  1.00  0.00     0.053 A 
HETATM   15  C2  UNL     1       2.100  52.271 -16.026  1.00  0.00     0.095 A 
HETATM   16  C24 UNL     1       1.396  51.958 -14.844  1.00  0.00     0.068 A 
HETATM   17  C23 UNL     1       0.148  51.342 -14.928  1.00  0.00     0.033 A 
HETATM   18  C22 UNL     1      -0.403  51.034 -16.173  1.00  0.00     0.016 A 
BRANCH  15  19
HETATM   19  O1  UNL     1       3.323  52.875 -15.841  1.00  0.00    -0.354 OA
HETATM   20  C1  UNL     1       4.466  52.192 -16.341  1.00  0.00     0.210 C 
ENDBRANCH  15  19
BRANCH  16  21
HETATM   21  N8  UNL     1       2.032  52.275 -13.624  1.00  0.00    -0.319 N 
HETATM   22  C25 UNL     1       2.075  51.546 -12.454  1.00  0.00     0.273 C 
HETATM   23  O3  UNL     1       1.451  50.509 -12.263  1.00  0.00    -0.266 OA
HETATM   24  H31 UNL     1       2.484  53.180 -13.632  1.00  0.00     0.169 HD
BRANCH  22  25
HETATM   25  C26 UNL     1       2.930  52.137 -11.427  1.00  0.00     0.104 A 
HETATM   26  C27 UNL     1       2.934  53.430 -10.921  1.00  0.00     0.049 A 
HETATM   27  C28 UNL     1       3.971  53.551  -9.962  1.00  0.00    -0.007 A 
HETATM   28  C29 UNL     1       4.431  54.616  -9.162  1.00  0.00     0.014 A 
HETATM   29  C33 UNL     1       4.603  52.312  -9.884  1.00  0.00     0.045 A 
HETATM   30  C30 UNL     1       5.513  54.410  -8.302  1.00  0.00     0.001 A 
HETATM   31  C31 UNL     1       6.135  53.168  -8.235  1.00  0.00     0.002 A 
HETATM   32  C32 UNL     1       5.693  52.101  -9.021  1.00  0.00     0.030 A 
HETATM   33  N9  UNL     1       3.958  51.472 -10.773  1.00  0.00    -0.346 N 
HETATM   34  C34 UNL     1       4.292  50.077 -10.983  1.00  0.00     0.156 C 
ENDBRANCH  22  25
ENDBRANCH  16  21
ENDBRANCH   1  13
BRANCH   4  35
HETATM   35  C6  UNL     1      -2.475  48.955 -20.466  1.00  0.00     0.110 C 
HETATM   36  C7  UNL     1      -3.894  49.536 -20.504  1.00  0.00     0.029 C 
HETATM   37  C8  UNL     1      -4.328  50.076 -21.859  1.00  0.00     0.027 C 
HETATM   38  C9  UNL     1      -4.056  49.144 -23.055  1.00  0.00     0.079 C 
HETATM   39  C16 UNL     1      -2.601  48.635 -23.037  1.00  0.00     0.027 C 
HETATM   40  C17 UNL     1      -2.088  48.121 -21.694  1.00  0.00     0.029 C 
BRANCH  38  41
HETATM   41  N3  UNL     1      -5.057  48.092 -23.300  1.00  0.00    -0.405 N 
HETATM   42  C10 UNL     1      -5.895  47.624 -22.197  1.00  0.00     0.137 C 
HETATM   43  C11 UNL     1      -7.079  46.741 -22.645  1.00  0.00     0.145 C 
HETATM   44  N4  UNL     1      -7.936  47.419 -23.622  1.00  0.00    -0.349 N 
HETATM   45  C12 UNL     1      -9.277  47.147 -23.824  1.00  0.00     0.215 C 
HETATM   46  C14 UNL     1      -7.292  48.447 -24.441  1.00  0.00     0.145 C 
HETATM   47  C13 UNL     1      -9.879  46.026 -23.013  1.00  0.00     0.117 C 
HETATM   48  O2  UNL     1      -9.968  47.778 -24.622  1.00  0.00    -0.274 OA
HETATM   49  C15 UNL     1      -5.777  48.217 -24.581  1.00  0.00     0.137 C 
ENDBRANCH  38  41
ENDBRANCH   4  35
BRANCH  11  50
HETATM   50  N7  UNL     1       1.336  53.645 -19.650  1.00  0.00    -0.385 N 
HETATM   51  H27 UNL     1       1.769  53.262 -18.818  1.00  0.00     0.157 HD
HETATM   52  H28 UNL     1       1.909  54.246 -20.229  1.00  0.00     0.157 HD
ENDBRANCH  11  50
TORSDOF 7
ENDMDL
MODEL 3
REMARK minimizedAffinity -10.1074963
REMARK CNNscore 0.222546086
REMARK CNNaffinity 7.66670465
REMARK  7 active torsions:
REMARK  status: ('A' for Active; 'I' for Inactive)
REMARK    1  A    between atoms: O1_2  and  C2_3 
REMARK    2  A    between atoms: C4_5  and  C5_6 
REMARK    3  A    between atoms: N2_9  and  C6_10 
REMARK    4  A    between atoms: C9_13  and  N3_14 
REMARK       I    between atoms: N4_17  and  C12_18 
REMARK    5  A    between atoms: C20_31  and  N7_32 
REMARK    6  A    between atoms: C24_36  and  N8_37 
REMARK       I    between atoms: N8_37  and  C25_38 
REMARK    7  A    between atoms: C25_38  and  C26_40 
ROOT
HETATM    1  C5  UNL     1      -0.767  51.824 -22.328  1.00  0.00     0.076 A 
HETATM    2  N1  UNL     1      -1.729  51.008 -22.788  1.00  0.00    -0.295 N 
ATOM      3  H1  UNL     1      -2.210  50.263 -22.284  1.00  0.00     0.187 HD
HETATM    4  N2  UNL     1      -1.917  51.395 -24.072  1.00  0.00    -0.270 N 
HETATM    5  C18 UNL     1      -1.034  52.362 -24.470  1.00  0.00     0.140 A 
HETATM    6  N5  UNL     1      -0.926  52.924 -25.685  1.00  0.00    -0.337 N 
ATOM      7  H5  UNL     1      -1.508  52.673 -26.484  1.00  0.00     0.168 HD
HETATM    8  C19 UNL     1       0.039  53.855 -25.720  1.00  0.00     0.183 A 
HETATM    9  N6  UNL     1       0.844  54.248 -24.719  1.00  0.00    -0.338 N 
ATOM     10  H6  UNL     1       1.548  54.970 -24.869  1.00  0.00     0.168 HD
HETATM   11  C20 UNL     1       0.701  53.669 -23.510  1.00  0.00     0.116 A 
HETATM   12  C21 UNL     1      -0.274  52.674 -23.354  1.00  0.00     0.082 A 
ENDROOT
BRANCH   1  13
HETATM   13  C4  UNL     1      -0.364  51.753 -20.928  1.00  0.00    -0.004 A 
HETATM   14  C3  UNL     1      -0.599  50.587 -20.189  1.00  0.00     0.053 A 
HETATM   15  C2  UNL     1      -0.232  50.521 -18.842  1.00  0.00     0.095 A 
HETATM   16  C24 UNL     1       0.368  51.637 -18.222  1.00  0.00     0.068 A 
HETATM   17  C23 UNL     1       0.594  52.797 -18.962  1.00  0.00     0.033 A 
HETATM   18  C22 UNL     1       0.229  52.856 -20.308  1.00  0.00     0.016 A 
BRANCH  15  19
HETATM   19  O1  UNL     1      -0.416  49.424 -18.030  1.00  0.00    -0.354 OA
HETATM   20  C1  UNL     1      -1.532  48.588 -18.312  1.00  0.00     0.210 C 
ENDBRANCH  15  19
BRANCH  16  21
HETATM   21  N8  UNL     1       0.681  51.509 -16.851  1.00  0.00    -0.319 N 
HETATM   22  C25 UNL     1       1.781  51.981 -16.165  1.00  0.00     0.273 C 
HETATM   23  O3  UNL     1       2.745  52.523 -16.694  1.00  0.00    -0.266 OA
HETATM   24  H31 UNL     1       0.002  50.966 -16.335  1.00  0.00     0.169 HD
BRANCH  22  25
HETATM   25  C26 UNL     1       1.712  51.757 -14.723  1.00  0.00     0.104 A 
HETATM   26  C27 UNL     1       2.733  51.755 -13.782  1.00  0.00     0.049 A 
HETATM   27  C28 UNL     1       2.190  51.453 -12.508  1.00  0.00    -0.007 A 
HETATM   28  C29 UNL     1       2.753  51.307 -11.225  1.00  0.00     0.014 A 
HETATM   29  C33 UNL     1       0.819  51.273 -12.679  1.00  0.00     0.045 A 
HETATM   30  C30 UNL     1       1.927  50.986 -10.144  1.00  0.00     0.001 A 
HETATM   31  C31 UNL     1       0.560  50.809 -10.330  1.00  0.00     0.002 A 
HETATM   32  C32 UNL     1      -0.017  50.949 -11.596  1.00  0.00     0.030 A 
HETATM   33  N9  UNL     1       0.550  51.465 -14.022  1.00  0.00    -0.346 N 
HETATM   34  C34 UNL     1      -0.769  51.391 -14.620  1.00  0.00     0.156 C 
ENDBRANCH  22  25
ENDBRANCH  16  21
ENDBRANCH   1  13
BRANCH   4  35
HETATM   35  C6  UNL     1      -3.038  50.806 -24.803  1.00  0.00     0.110 C 
HETATM   36  C7  UNL     1      -3.073  49.275 -24.714  1.00  0.00     0.029 C 
HETATM   37  C8  UNL     1      -3.928  48.720 -23.584  1.00  0.00     0.027 C 
HETATM   38  C9  UNL     1      -5.335  49.336 -23.462  1.00  0.00     0.079 C 
HETATM   39  C16 UNL     1      -5.266  50.875 -23.475  1.00  0.00     0.027 C 
HETATM   40  C17 UNL     1      -4.386  51.497 -24.559  1.00  0.00     0.029 C 
BRANCH  38  41
HETATM   41  N3  UNL     1      -6.369  48.773 -24.346  1.00  0.00    -0.405 N 
HETATM   42  C10 UNL     1      -5.972  48.085 -25.573  1.00  0.00     0.137 C 
HETATM   43  C11 UNL     1      -7.119  47.305 -26.249  1.00  0.00     0.145 C 
HETATM   44  N4  UNL     1      -7.729  46.325 -25.346  1.00  0.00    -0.349 N 
HETATM   45  C12 UNL     1      -8.380  45.173 -25.749  1.00  0.00     0.215 C 
HETATM   46  C14 UNL     1      -7.638  46.621 -23.916  1.00  0.00     0.145 C 
HETATM   47  C13 UNL     1      -8.519  44.947 -27.234  1.00  0.00     0.117 C 
HETATM   48  O2  UNL     1      -8.833  44.354 -24.950  1.00  0.00    -0.274 OA
HETATM   49  C15 UNL     1      -7.494  48.128 -23.642  1.00  0.00     0.137 C 
ENDBRANCH  38  41
ENDBRANCH   4  35
BRANCH  11  50
HETATM   50  N7  UNL     1       1.549  54.105 -22.511  1.00  0.00    -0.385 N 
HETATM   51  H27 UNL     1       1.738  53.472 -21.743  1.00  0.00     0.157 HD
HETATM   52  H28 UNL     1       2.333  54.638 -22.868  1.00  0.00     0.157 HD
ENDBRANCH  11  50
TORSDOF 7
ENDMDL
MODEL 4
REMARK minimizedAffinity -9.39483833
REMARK CNNscore 0.174212113
REMARK CNNaffinity 7.19382858
REMARK  7 active torsions:
REMARK  status: ('A' for Active; 'I' for Inactive)
REMARK    1  A    between atoms: O1_2  and  C2_3 
REMARK    2  A    between atoms: C4_5  and  C5_6 
REMARK    3  A    between atoms: N2_9  and  C6_10 
REMARK    4  A    between atoms: C9_13  and  N3_14 
REMARK       I    between atoms: N4_17  and  C12_18 
REMARK    5  A    between atoms: C20_31  and  N7_32 
REMARK    6  A    between atoms: C24_36  and  N8_37 
REMARK       I    between atoms: N8_37  and  C25_38 
REMARK    7  A    between atoms: C25_38  and  C26_40 
ROOT
HETATM    1  C5  UNL     1       0.616  51.477 -15.199  1.00  0.00     0.076 A 
HETATM    2  N1  UNL     1       0.765  52.511 -14.356  1.00  0.00    -0.295 N 
ATOM      3  H1  UNL     1       0.861  53.499 -14.590  1.00  0.00     0.187 HD
HETATM    4  N2  UNL     1       0.759  51.949 -13.124  1.00  0.00    -0.270 N 
HETATM    5  C18 UNL     1       0.713  50.581 -13.165  1.00  0.00     0.140 A 
HETATM    6  N5  UNL     1       0.739  49.728 -12.128  1.00  0.00    -0.337 N 
ATOM      7  H5  UNL     1       0.811  50.018 -11.152  1.00  0.00     0.168 HD
HETATM    8  C19 UNL     1       0.659  48.451 -12.529  1.00  0.00     0.183 A 
HETATM    9  N6  UNL     1       0.558  47.986 -13.786  1.00  0.00    -0.338 N 
ATOM     10  H6  UNL     1       0.508  46.984 -13.967  1.00  0.00     0.168 HD
HETATM   11  C20 UNL     1       0.525  48.872 -14.801  1.00  0.00     0.116 A 
HETATM   12  C21 UNL     1       0.609  50.238 -14.503  1.00  0.00     0.082 A 
ENDROOT
BRANCH   1  13
HETATM   13  C4  UNL     1       0.487  51.722 -16.631  1.00  0.00    -0.004 A 
HETATM   14  C3  UNL     1      -0.595  51.182 -17.339  1.00  0.00     0.053 A 
HETATM   15  C2  UNL     1      -0.714  51.397 -18.714  1.00  0.00     0.095 A 
HETATM   16  C24 UNL     1       0.265  52.153 -19.394  1.00  0.00     0.068 A 
HETATM   17  C23 UNL     1       1.342  52.683 -18.685  1.00  0.00     0.033 A 
HETATM   18  C22 UNL     1       1.453  52.467 -17.310  1.00  0.00     0.016 A 
BRANCH  15  19
HETATM   19  O1  UNL     1      -1.736  50.914 -19.500  1.00  0.00    -0.354 OA
HETATM   20  C1  UNL     1      -2.049  49.532 -19.379  1.00  0.00     0.210 C 
ENDBRANCH  15  19
BRANCH  16  21
HETATM   21  N8  UNL     1       0.097  52.300 -20.789  1.00  0.00    -0.319 N 
HETATM   22  C25 UNL     1       0.799  53.099 -21.666  1.00  0.00     0.273 C 
HETATM   23  O3  UNL     1       1.650  53.915 -21.330  1.00  0.00    -0.266 OA
HETATM   24  H31 UNL     1      -0.670  51.755 -21.159  1.00  0.00     0.169 HD
BRANCH  22  25
HETATM   25  C26 UNL     1       0.420  52.906 -23.064  1.00  0.00     0.104 A 
HETATM   26  C27 UNL     1       0.681  53.709 -24.167  1.00  0.00     0.049 A 
HETATM   27  C28 UNL     1       0.081  53.133 -25.314  1.00  0.00    -0.007 A 
HETATM   28  C29 UNL     1       0.013  53.517 -26.668  1.00  0.00     0.014 A 
HETATM   29  C33 UNL     1      -0.551  51.961 -24.902  1.00  0.00     0.045 A 
HETATM   30  C30 UNL     1      -0.685  52.715 -27.575  1.00  0.00     0.001 A 
HETATM   31  C31 UNL     1      -1.311  51.548 -27.149  1.00  0.00     0.002 A 
HETATM   32  C32 UNL     1      -1.255  51.152 -25.810  1.00  0.00     0.030 A 
HETATM   33  N9  UNL     1      -0.330  51.840 -23.542  1.00  0.00    -0.346 N 
HETATM   34  C34 UNL     1      -0.801  50.741 -22.722  1.00  0.00     0.156 C 
ENDBRANCH  22  25
ENDBRANCH  16  21
ENDBRANCH   1  13
BRANCH   4  35
HETATM   35  C6  UNL     1       0.727  52.843 -11.967  1.00  0.00     0.110 C 
HETATM   36  C7  UNL     1      -0.675  52.994 -11.366  1.00  0.00     0.029 C 
HETATM   37  C8  UNL     1      -0.992  52.030 -10.232  1.00  0.00     0.027 C 
HETATM   38  C9  UNL     1       0.092  51.918  -9.143  1.00  0.00     0.079 C 
HETATM   39  C16 UNL     1       1.480  51.688  -9.770  1.00  0.00     0.027 C 
HETATM   40  C17 UNL     1       1.844  52.594 -10.944  1.00  0.00     0.029 C 
BRANCH  38  41
HETATM   41  N3  UNL     1       0.070  52.952  -8.095  1.00  0.00    -0.405 N 
HETATM   42  C10 UNL     1       1.066  52.916  -7.026  1.00  0.00     0.137 C 
HETATM   43  C11 UNL     1       1.109  54.200  -6.170  1.00  0.00     0.145 C 
HETATM   44  N4  UNL     1       1.343  55.398  -6.981  1.00  0.00    -0.349 N 
HETATM   45  C12 UNL     1       1.923  56.566  -6.521  1.00  0.00     0.215 C 
HETATM   46  C14 UNL     1       0.907  55.328  -8.377  1.00  0.00     0.145 C 
HETATM   47  C13 UNL     1       2.284  56.622  -5.058  1.00  0.00     0.117 C 
HETATM   48  O2  UNL     1       2.145  57.530  -7.254  1.00  0.00    -0.274 OA
HETATM   49  C15 UNL     1      -0.230  54.312  -8.581  1.00  0.00     0.137 C 
ENDBRANCH  38  41
ENDBRANCH   4  35
BRANCH  11  50
HETATM   50  N7  UNL     1       0.420  48.347 -16.076  1.00  0.00    -0.385 N 
HETATM   51  H27 UNL     1       0.764  48.908 -16.846  1.00  0.00     0.157 HD
HETATM   52  H28 UNL     1       0.619  47.355 -16.107  1.00  0.00     0.157 HD
ENDBRANCH  11  50
TORSDOF 7
ENDMDL
MODEL 5
REMARK minimizedAffinity -9.70607185
REMARK CNNscore 0.154995114
REMARK CNNaffinity 7.04945374
REMARK  7 active torsions:
REMARK  status: ('A' for Active; 'I' for Inactive)
REMARK    1  A    between atoms: O1_2  and  C2_3 
REMARK    2  A    between atoms: C4_5  and  C5_6 
REMARK    3  A    between atoms: N2_9  and  C6_10 
REMARK    4  A    between atoms: C9_13  and  N3_14 
REMARK       I    between atoms: N4_17  and  C12_18 
REMARK    5  A    between atoms: C20_31  and  N7_32 
REMARK    6  A    between atoms: C24_36  and  N8_37 
REMARK       I    between atoms: N8_37  and  C25_38 
REMARK    7  A    between atoms: C25_38  and  C26_40 
ROOT
HETATM    1  C5  UNL     1       2.458  51.607 -13.217  1.00  0.00     0.076 A 
HETATM    2  N1  UNL     1       2.547  52.717 -12.469  1.00  0.00    -0.295 N 
ATOM      3  H1  UNL     1       2.408  53.683 -12.766  1.00  0.00     0.187 HD
HETATM    4  N2  UNL     1       2.862  52.269 -11.231  1.00  0.00    -0.270 N 
HETATM    5  C18 UNL     1       3.075  50.917 -11.194  1.00  0.00     0.140 A 
HETATM    6  N5  UNL     1       3.444  50.174 -10.138  1.00  0.00    -0.337 N 
ATOM      7  H5  UNL     1       3.625  50.553  -9.208  1.00  0.00     0.168 HD
HETATM    8  C19 UNL     1       3.545  48.874 -10.453  1.00  0.00     0.183 A 
HETATM    9  N6  UNL     1       3.321  48.294 -11.644  1.00  0.00    -0.338 N 
ATOM     10  H6  UNL     1       3.435  47.288 -11.763  1.00  0.00     0.168 HD
HETATM   11  C20 UNL     1       2.943  49.071 -12.680  1.00  0.00     0.116 A 
HETATM   12  C21 UNL     1       2.811  50.450 -12.471  1.00  0.00     0.082 A 
ENDROOT
BRANCH   1  13
HETATM   13  C4  UNL     1       2.039  51.702 -14.611  1.00  0.00    -0.004 A 
HETATM   14  C3  UNL     1       0.831  51.122 -15.021  1.00  0.00     0.053 A 
HETATM   15  C2  UNL     1       0.434  51.194 -16.358  1.00  0.00     0.095 A 
HETATM   16  C24 UNL     1       1.258  51.845 -17.302  1.00  0.00     0.068 A 
HETATM   17  C23 UNL     1       2.461  52.415 -16.888  1.00  0.00     0.033 A 
HETATM   18  C22 UNL     1       2.851  52.343 -15.550  1.00  0.00     0.016 A 
BRANCH  15  19
HETATM   19  O1  UNL     1      -0.731  50.660 -16.863  1.00  0.00    -0.354 OA
HETATM   20  C1  UNL     1      -0.924  49.260 -16.704  1.00  0.00     0.210 C 
ENDBRANCH  15  19
BRANCH  16  21
HETATM   21  N8  UNL     1       0.808  51.849 -18.640  1.00  0.00    -0.319 N 
HETATM   22  C25 UNL     1       0.138  52.840 -19.326  1.00  0.00     0.273 C 
HETATM   23  O3  UNL     1      -0.273  53.876 -18.817  1.00  0.00    -0.266 OA
HETATM   24  H31 UNL     1       0.991  50.981 -19.127  1.00  0.00     0.169 HD
BRANCH  22  25
HETATM   25  C26 UNL     1      -0.066  52.537 -20.741  1.00  0.00     0.104 A 
HETATM   26  C27 UNL     1      -0.924  51.618 -21.330  1.00  0.00     0.049 A 
HETATM   27  C28 UNL     1      -0.747  51.652 -22.736  1.00  0.00    -0.007 A 
HETATM   28  C29 UNL     1      -1.330  50.940 -23.803  1.00  0.00     0.014 A 
HETATM   29  C33 UNL     1       0.230  52.609 -23.003  1.00  0.00     0.045 A 
HETATM   30  C30 UNL     1      -0.919  51.207 -25.113  1.00  0.00     0.001 A 
HETATM   31  C31 UNL     1       0.058  52.165 -25.364  1.00  0.00     0.002 A 
HETATM   32  C32 UNL     1       0.648  52.880 -24.318  1.00  0.00     0.030 A 
HETATM   33  N9  UNL     1       0.625  53.134 -21.787  1.00  0.00    -0.346 N 
HETATM   34  C34 UNL     1       1.614  54.181 -21.620  1.00  0.00     0.156 C 
ENDBRANCH  22  25
ENDBRANCH  16  21
ENDBRANCH   1  13
BRANCH   4  35
HETATM   35  C6  UNL     1       2.857  53.237 -10.134  1.00  0.00     0.110 C 
HETATM   36  C7  UNL     1       4.050  53.071  -9.185  1.00  0.00     0.029 C 
HETATM   37  C8  UNL     1       5.260  53.932  -9.521  1.00  0.00     0.027 C 
HETATM   38  C9  UNL     1       4.952  55.414  -9.805  1.00  0.00     0.079 C 
HETATM   39  C16 UNL     1       3.802  55.553 -10.821  1.00  0.00     0.027 C 
HETATM   40  C17 UNL     1       2.574  54.681 -10.567  1.00  0.00     0.029 C 
BRANCH  38  41
HETATM   41  N3  UNL     1       4.822  56.288  -8.627  1.00  0.00    -0.405 N 
HETATM   42  C10 UNL     1       3.612  57.090  -8.455  1.00  0.00     0.137 C 
HETATM   43  C11 UNL     1       3.481  57.729  -7.056  1.00  0.00     0.145 C 
HETATM   44  N4  UNL     1       3.531  56.731  -5.984  1.00  0.00    -0.349 N 
HETATM   45  C12 UNL     1       2.958  56.880  -4.734  1.00  0.00     0.215 C 
HETATM   46  C14 UNL     1       4.261  55.498  -6.284  1.00  0.00     0.145 C 
HETATM   47  C13 UNL     1       2.284  58.197  -4.442  1.00  0.00     0.117 C 
HETATM   48  O2  UNL     1       2.983  55.992  -3.883  1.00  0.00    -0.274 OA
HETATM   49  C15 UNL     1       5.330  55.704  -7.371  1.00  0.00     0.137 C 
ENDBRANCH  38  41
ENDBRANCH   4  35
BRANCH  11  50
HETATM   50  N7  UNL     1       2.723  48.430 -13.885  1.00  0.00    -0.385 N 
HETATM   51  H27 UNL     1       2.815  48.978 -14.732  1.00  0.00     0.157 HD
HETATM   52  H28 UNL     1       3.102  47.492 -13.903  1.00  0.00     0.157 HD
ENDBRANCH  11  50
TORSDOF 7
ENDMDL
MODEL 6
REMARK minimizedAffinity -9.83360672
REMARK CNNscore 0.130341694
REMARK CNNaffinity 7.44580984
REMARK  7 active torsions:
REMARK  status: ('A' for Active; 'I' for Inactive)
REMARK    1  A    between atoms: O1_2  and  C2_3 
REMARK    2  A    between atoms: C4_5  and  C5_6 
REMARK    3  A    between atoms: N2_9  and  C6_10 
REMARK    4  A    between atoms: C9_13  and  N3_14 
REMARK       I    between atoms: N4_17  and  C12_18 
REMARK    5  A    between atoms: C20_31  and  N7_32 
REMARK    6  A    between atoms: C24_36  and  N8_37 
REMARK       I    between atoms: N8_37  and  C25_38 
REMARK    7  A    between atoms: C25_38  and  C26_40 
ROOT
HETATM    1  C5  UNL     1      -1.314  52.014 -22.938  1.00  0.00     0.076 A 
HETATM    2  N1  UNL     1      -2.412  51.364 -23.353  1.00  0.00    -0.295 N 
ATOM      3  H1  UNL     1      -3.017  50.750 -22.809  1.00  0.00     0.187 HD
HETATM    4  N2  UNL     1      -2.536  51.707 -24.658  1.00  0.00    -0.270 N 
HETATM    5  C18 UNL     1      -1.494  52.472 -25.107  1.00  0.00     0.140 A 
HETATM    6  N5  UNL     1      -1.295  52.936 -26.352  1.00  0.00    -0.337 N 
ATOM      7  H5  UNL     1      -1.919  52.751 -27.137  1.00  0.00     0.168 HD
HETATM    8  C19 UNL     1      -0.176  53.671 -26.438  1.00  0.00     0.183 A 
HETATM    9  N6  UNL     1       0.695  53.965 -25.458  1.00  0.00    -0.338 N 
ATOM     10  H6  UNL     1       1.519  54.535 -25.647  1.00  0.00     0.168 HD
HETATM   11  C20 UNL     1       0.458  53.490 -24.218  1.00  0.00     0.116 A 
HETATM   12  C21 UNL     1      -0.681  52.701 -24.009  1.00  0.00     0.082 A 
ENDROOT
BRANCH   1  13
HETATM   13  C4  UNL     1      -0.919  51.949 -21.535  1.00  0.00    -0.004 A 
HETATM   14  C3  UNL     1      -1.895  51.822 -20.538  1.00  0.00     0.053 A 
HETATM   15  C2  UNL     1      -1.524  51.779 -19.192  1.00  0.00     0.095 A 
HETATM   16  C24 UNL     1      -0.162  51.874 -18.835  1.00  0.00     0.068 A 
HETATM   17  C23 UNL     1       0.804  52.005 -19.832  1.00  0.00     0.033 A 
HETATM   18  C22 UNL     1       0.427  52.044 -21.175  1.00  0.00     0.016 A 
BRANCH  15  19
HETATM   19  O1  UNL     1      -2.401  51.654 -18.138  1.00  0.00    -0.354 OA
HETATM   20  C1  UNL     1      -3.084  50.413 -18.006  1.00  0.00     0.210 C 
ENDBRANCH  15  19
BRANCH  16  21
HETATM   21  N8  UNL     1       0.135  51.856 -17.454  1.00  0.00    -0.319 N 
HETATM   22  C25 UNL     1       0.410  50.777 -16.640  1.00  0.00     0.273 C 
HETATM   23  O3  UNL     1       0.334  49.607 -16.996  1.00  0.00    -0.266 OA
HETATM   24  H31 UNL     1       0.105  52.772 -17.027  1.00  0.00     0.169 HD
BRANCH  22  25
HETATM   25  C26 UNL     1       0.786  51.151 -15.280  1.00  0.00     0.104 A 
HETATM   26  C27 UNL     1       2.045  51.414 -14.754  1.00  0.00     0.049 A 
HETATM   27  C28 UNL     1       1.920  51.701 -13.372  1.00  0.00    -0.007 A 
HETATM   28  C29 UNL     1       2.850  52.016 -12.360  1.00  0.00     0.014 A 
HETATM   29  C33 UNL     1       0.567  51.615 -13.055  1.00  0.00     0.045 A 
HETATM   30  C30 UNL     1       2.397  52.239 -11.057  1.00  0.00     0.001 A 
HETATM   31  C31 UNL     1       1.042  52.150 -10.756  1.00  0.00     0.002 A 
HETATM   32  C32 UNL     1       0.106  51.838 -11.746  1.00  0.00     0.030 A 
HETATM   33  N9  UNL     1      -0.101  51.287 -14.221  1.00  0.00    -0.346 N 
HETATM   34  C34 UNL     1      -1.537  51.123 -14.333  1.00  0.00     0.156 C 
ENDBRANCH  22  25
ENDBRANCH  16  21
ENDBRANCH   1  13
BRANCH   4  35
HETATM   35  C6  UNL     1      -3.753  51.293 -25.357  1.00  0.00     0.110 C 
HETATM   36  C7  UNL     1      -3.479  50.311 -26.502  1.00  0.00     0.029 C 
HETATM   37  C8  UNL     1      -3.577  48.841 -26.121  1.00  0.00     0.027 C 
HETATM   38  C9  UNL     1      -4.833  48.453 -25.317  1.00  0.00     0.079 C 
HETATM   39  C16 UNL     1      -5.041  49.408 -24.126  1.00  0.00     0.027 C 
HETATM   40  C17 UNL     1      -4.911  50.899 -24.433  1.00  0.00     0.029 C 
BRANCH  38  41
HETATM   41  N3  UNL     1      -6.052  48.195 -26.101  1.00  0.00    -0.405 N 
HETATM   42  C10 UNL     1      -5.955  47.468 -27.366  1.00  0.00     0.137 C 
HETATM   43  C11 UNL     1      -7.319  47.021 -27.934  1.00  0.00     0.145 C 
HETATM   44  N4  UNL     1      -8.072  46.198 -26.983  1.00  0.00    -0.349 N 
HETATM   45  C12 UNL     1      -9.027  45.260 -27.329  1.00  0.00     0.215 C 
HETATM   46  C14 UNL     1      -7.779  46.419 -25.566  1.00  0.00     0.145 C 
HETATM   47  C13 UNL     1      -9.353  45.122 -28.795  1.00  0.00     0.117 C 
HETATM   48  O2  UNL     1      -9.598  44.556 -26.496  1.00  0.00    -0.274 OA
HETATM   49  C15 UNL     1      -7.234  47.832 -25.297  1.00  0.00     0.137 C 
ENDBRANCH  38  41
ENDBRANCH   4  35
BRANCH  11  50
HETATM   50  N7  UNL     1       1.380  53.819 -23.243  1.00  0.00    -0.385 N 
HETATM   51  H27 UNL     1       1.456  53.205 -22.441  1.00  0.00     0.157 HD
HETATM   52  H28 UNL     1       2.245  54.178 -23.629  1.00  0.00     0.157 HD
ENDBRANCH  11  50
TORSDOF 7
ENDMDL
MODEL 7
REMARK minimizedAffinity -9.13672161
REMARK CNNscore 0.124256939
REMARK CNNaffinity 7.51212931
REMARK  7 active torsions:
REMARK  status: ('A' for Active; 'I' for Inactive)
REMARK    1  A    between atoms: O1_2  and  C2_3 
REMARK    2  A    between atoms: C4_5  and  C5_6 
REMARK    3  A    between atoms: N2_9  and  C6_10 
REMARK    4  A    between atoms: C9_13  and  N3_14 
REMARK       I    between atoms: N4_17  and  C12_18 
REMARK    5  A    between atoms: C20_31  and  N7_32 
REMARK    6  A    between atoms: C24_36  and  N8_37 
REMARK       I    between atoms: N8_37  and  C25_38 
REMARK    7  A    between atoms: C25_38  and  C26_40 
ROOT
HETATM    1  C5  UNL     1      -1.347  51.308 -23.648  1.00  0.00     0.076 A 
HETATM    2  N1  UNL     1      -2.430  50.704 -24.162  1.00  0.00    -0.295 N 
ATOM      3  H1  UNL     1      -3.023  50.002 -23.720  1.00  0.00     0.187 HD
HETATM    4  N2  UNL     1      -2.560  51.237 -25.400  1.00  0.00    -0.270 N 
HETATM    5  C18 UNL     1      -1.535  52.084 -25.724  1.00  0.00     0.140 A 
HETATM    6  N5  UNL     1      -1.343  52.734 -26.884  1.00  0.00    -0.337 N 
ATOM      7  H5  UNL     1      -1.963  52.657 -27.691  1.00  0.00     0.168 HD
HETATM    8  C19 UNL     1      -0.241  53.497 -26.852  1.00  0.00     0.183 A 
HETATM    9  N6  UNL     1       0.622  53.659 -25.835  1.00  0.00    -0.338 N 
ATOM     10  H6  UNL     1       1.433  54.269 -25.932  1.00  0.00     0.168 HD
HETATM   11  C20 UNL     1       0.393  52.997 -24.683  1.00  0.00     0.116 A 
HETATM   12  C21 UNL     1      -0.728  52.162 -24.600  1.00  0.00     0.082 A 
ENDROOT
BRANCH   1  13
HETATM   13  C4  UNL     1      -0.954  51.041 -22.269  1.00  0.00    -0.004 A 
HETATM   14  C3  UNL     1      -0.557  52.095 -21.437  1.00  0.00     0.053 A 
HETATM   15  C2  UNL     1      -0.161  51.842 -20.121  1.00  0.00     0.095 A 
HETATM   16  C24 UNL     1      -0.151  50.518 -19.632  1.00  0.00     0.068 A 
HETATM   17  C23 UNL     1      -0.542  49.473 -20.467  1.00  0.00     0.033 A 
HETATM   18  C22 UNL     1      -0.940  49.732 -21.780  1.00  0.00     0.016 A 
BRANCH  15  19
HETATM   19  O1  UNL     1       0.243  52.805 -19.223  1.00  0.00    -0.354 OA
HETATM   20  C1  UNL     1       0.925  53.937 -19.749  1.00  0.00     0.210 C 
ENDBRANCH  15  19
BRANCH  16  21
HETATM   21  N8  UNL     1       0.292  50.336 -18.304  1.00  0.00    -0.319 N 
HETATM   22  C25 UNL     1      -0.447  50.054 -17.174  1.00  0.00     0.273 C 
HETATM   23  O3  UNL     1      -1.671  50.017 -17.141  1.00  0.00    -0.266 OA
HETATM   24  H31 UNL     1       1.289  50.466 -18.193  1.00  0.00     0.169 HD
BRANCH  22  25
HETATM   25  C26 UNL     1       0.368  49.819 -15.985  1.00  0.00     0.104 A 
HETATM   26  C27 UNL     1       0.616  48.632 -15.307  1.00  0.00     0.049 A 
HETATM   27  C28 UNL     1       1.438  48.901 -14.185  1.00  0.00    -0.007 A 
HETATM   28  C29 UNL     1       1.976  48.094 -13.162  1.00  0.00     0.014 A 
HETATM   29  C33 UNL     1       1.697  50.270 -14.184  1.00  0.00     0.045 A 
HETATM   30  C30 UNL     1       2.762  48.681 -12.166  1.00  0.00     0.001 A 
HETATM   31  C31 UNL     1       3.011  50.049 -12.179  1.00  0.00     0.002 A 
HETATM   32  C32 UNL     1       2.486  50.865 -13.184  1.00  0.00     0.030 A 
HETATM   33  N9  UNL     1       1.047  50.805 -15.281  1.00  0.00    -0.346 N 
HETATM   34  C34 UNL     1       1.079  52.203 -15.661  1.00  0.00     0.156 C 
ENDBRANCH  22  25
ENDBRANCH  16  21
ENDBRANCH   1  13
BRANCH   4  35
HETATM   35  C6  UNL     1      -3.766  50.908 -26.160  1.00  0.00     0.110 C 
HETATM   36  C7  UNL     1      -3.462  50.204 -27.488  1.00  0.00     0.029 C 
HETATM   37  C8  UNL     1      -3.469  48.683 -27.423  1.00  0.00     0.027 C 
HETATM   38  C9  UNL     1      -4.684  48.063 -26.707  1.00  0.00     0.079 C 
HETATM   39  C16 UNL     1      -4.921  48.734 -25.341  1.00  0.00     0.027 C 
HETATM   40  C17 UNL     1      -4.881  50.261 -25.328  1.00  0.00     0.029 C 
BRANCH  38  41
HETATM   41  N3  UNL     1      -5.904  47.903 -27.517  1.00  0.00    -0.405 N 
HETATM   42  C10 UNL     1      -5.807  47.335 -28.861  1.00  0.00     0.137 C 
HETATM   43  C11 UNL     1      -7.171  46.962 -29.479  1.00  0.00     0.145 C 
HETATM   44  N4  UNL     1      -7.924  46.029 -28.636  1.00  0.00    -0.349 N 
HETATM   45  C12 UNL     1      -8.879  45.140 -29.094  1.00  0.00     0.215 C 
HETATM   46  C14 UNL     1      -7.631  46.075 -27.203  1.00  0.00     0.145 C 
HETATM   47  C13 UNL     1      -9.206  45.183 -30.566  1.00  0.00     0.117 C 
HETATM   48  O2  UNL     1      -9.450  44.340 -28.353  1.00  0.00    -0.274 OA
HETATM   49  C15 UNL     1      -7.085  47.445 -26.763  1.00  0.00     0.137 C 
ENDBRANCH  38  41
ENDBRANCH   4  35
BRANCH  11  50
HETATM   50  N7  UNL     1       1.307  53.195 -23.665  1.00  0.00    -0.385 N 
HETATM   51  H27 UNL     1       1.395  52.469 -22.964  1.00  0.00     0.157 HD
HETATM   52  H28 UNL     1       2.164  53.626 -23.988  1.00  0.00     0.157 HD
ENDBRANCH  11  50
TORSDOF 7
ENDMDL
MODEL 8
REMARK minimizedAffinity -9.75601578
REMARK CNNscore 0.101991422
REMARK CNNaffinity 7.40431213
REMARK  7 active torsions:
REMARK  status: ('A' for Active; 'I' for Inactive)
REMARK    1  A    between atoms: O1_2  and  C2_3 
REMARK    2  A    between atoms: C4_5  and  C5_6 
REMARK    3  A    between atoms: N2_9  and  C6_10 
REMARK    4  A    between atoms: C9_13  and  N3_14 
REMARK       I    between atoms: N4_17  and  C12_18 
REMARK    5  A    between atoms: C20_31  and  N7_32 
REMARK    6  A    between atoms: C24_36  and  N8_37 
REMARK       I    between atoms: N8_37  and  C25_38 
REMARK    7  A    between atoms: C25_38  and  C26_40 
ROOT
HETATM    1  C5  UNL     1      -1.604  50.725 -22.316  1.00  0.00     0.076 A 
HETATM    2  N1  UNL     1      -1.750  50.220 -21.081  1.00  0.00    -0.295 N 
ATOM      3  H1  UNL     1      -2.434  49.533 -20.765  1.00  0.00     0.187 HD
HETATM    4  N2  UNL     1      -0.784  50.825 -20.349  1.00  0.00    -0.270 N 
HETATM    5  C18 UNL     1      -0.098  51.774 -21.058  1.00  0.00     0.140 A 
HETATM    6  N5  UNL     1       0.882  52.579 -20.615  1.00  0.00    -0.337 N 
ATOM      7  H5  UNL     1       1.231  52.580 -19.656  1.00  0.00     0.168 HD
HETATM    8  C19 UNL     1       1.347  53.380 -21.585  1.00  0.00     0.183 A 
HETATM    9  N6  UNL     1       0.950  53.439 -22.867  1.00  0.00    -0.338 N 
ATOM     10  H6  UNL     1       1.380  54.098 -23.516  1.00  0.00     0.168 HD
HETATM   11  C20 UNL     1      -0.030  52.610 -23.279  1.00  0.00     0.116 A 
HETATM   12  C21 UNL     1      -0.599  51.730 -22.349  1.00  0.00     0.082 A 
ENDROOT
BRANCH   1  13
HETATM   13  C4  UNL     1      -2.431  50.225 -23.407  1.00  0.00    -0.004 A 
HETATM   14  C3  UNL     1      -2.585  50.984 -24.575  1.00  0.00     0.053 A 
HETATM   15  C2  UNL     1      -3.391  50.517 -25.616  1.00  0.00     0.095 A 
HETATM   16  C24 UNL     1      -4.062  49.282 -25.487  1.00  0.00     0.068 A 
HETATM   17  C23 UNL     1      -3.909  48.534 -24.320  1.00  0.00     0.033 A 
HETATM   18  C22 UNL     1      -3.099  49.003 -23.285  1.00  0.00     0.016 A 
BRANCH  15  19
HETATM   19  O1  UNL     1      -3.607  51.183 -26.802  1.00  0.00    -0.354 OA
HETATM   20  C1  UNL     1      -2.487  51.827 -27.397  1.00  0.00     0.210 C 
ENDBRANCH  15  19
BRANCH  16  21
HETATM   21  N8  UNL     1      -4.885  48.891 -26.565  1.00  0.00    -0.319 N 
HETATM   22  C25 UNL     1      -4.532  48.270 -27.745  1.00  0.00     0.273 C 
HETATM   23  O3  UNL     1      -3.377  48.044 -28.088  1.00  0.00    -0.266 OA
HETATM   24  H31 UNL     1      -5.857  49.142 -26.438  1.00  0.00     0.169 HD
BRANCH  22  25
HETATM   25  C26 UNL     1      -5.674  47.912 -28.583  1.00  0.00     0.104 A 
HETATM   26  C27 UNL     1      -6.766  47.107 -28.287  1.00  0.00     0.049 A 
HETATM   27  C28 UNL     1      -7.602  47.020 -29.428  1.00  0.00    -0.007 A 
HETATM   28  C29 UNL     1      -8.809  46.344 -29.696  1.00  0.00     0.014 A 
HETATM   29  C33 UNL     1      -7.010  47.787 -30.430  1.00  0.00     0.045 A 
HETATM   30  C30 UNL     1      -9.393  46.455 -30.961  1.00  0.00     0.001 A 
HETATM   31  C31 UNL     1      -8.789  47.223 -31.951  1.00  0.00     0.002 A 
HETATM   32  C32 UNL     1      -7.592  47.901 -31.704  1.00  0.00     0.030 A 
HETATM   33  N9  UNL     1      -5.850  48.320 -29.898  1.00  0.00    -0.346 N 
HETATM   34  C34 UNL     1      -4.944  49.202 -30.608  1.00  0.00     0.156 C 
ENDBRANCH  22  25
ENDBRANCH  16  21
ENDBRANCH   1  13
BRANCH   4  35
HETATM   35  C6  UNL     1      -0.567  50.351 -18.983  1.00  0.00     0.110 C 
HETATM   36  C7  UNL     1      -1.151  51.292 -17.923  1.00  0.00     0.029 C 
HETATM   37  C8  UNL     1      -2.566  50.954 -17.478  1.00  0.00     0.027 C 
HETATM   38  C9  UNL     1      -2.810  49.473 -17.130  1.00  0.00     0.079 C 
HETATM   39  C16 UNL     1      -2.285  48.552 -18.247  1.00  0.00     0.027 C 
HETATM   40  C17 UNL     1      -0.885  48.865 -18.771  1.00  0.00     0.029 C 
BRANCH  38  41
HETATM   41  N3  UNL     1      -2.424  49.053 -15.773  1.00  0.00    -0.405 N 
HETATM   42  C10 UNL     1      -1.203  48.272 -15.581  1.00  0.00     0.137 C 
HETATM   43  C11 UNL     1      -0.769  48.147 -14.105  1.00  0.00     0.145 C 
HETATM   44  N4  UNL     1      -0.586  49.454 -13.469  1.00  0.00    -0.349 N 
HETATM   45  C12 UNL     1       0.246  49.703 -12.393  1.00  0.00     0.215 C 
HETATM   46  C14 UNL     1      -1.367  50.558 -14.028  1.00  0.00     0.145 C 
HETATM   47  C13 UNL     1       0.971  48.521 -11.799  1.00  0.00     0.117 C 
HETATM   48  O2  UNL     1       0.405  50.830 -11.924  1.00  0.00    -0.274 OA
HETATM   49  C15 UNL     1      -2.647  50.070 -14.728  1.00  0.00     0.137 C 
ENDBRANCH  38  41
ENDBRANCH   4  35
BRANCH  11  50
HETATM   50  N7  UNL     1      -0.405  52.706 -24.606  1.00  0.00    -0.385 N 
HETATM   51  H27 UNL     1      -1.340  52.406 -24.854  1.00  0.00     0.157 HD
HETATM   52  H28 UNL     1      -0.063  53.551 -25.048  1.00  0.00     0.157 HD
ENDBRANCH  11  50
TORSDOF 7
ENDMDL
MODEL 9
REMARK minimizedAffinity -9.19255066
REMARK CNNscore 0.0928375274
REMARK CNNaffinity 7.29183054
REMARK  7 active torsions:
REMARK  status: ('A' for Active; 'I' for Inactive)
REMARK    1  A    between atoms: O1_2  and  C2_3 
REMARK    2  A    between atoms: C4_5  and  C5_6 
REMARK    3  A    between atoms: N2_9  and  C6_10 
REMARK    4  A    between atoms: C9_13  and  N3_14 
REMARK       I    between atoms: N4_17  and  C12_18 
REMARK    5  A    between atoms: C20_31  and  N7_32 
REMARK    6  A    between atoms: C24_36  and  N8_37 
REMARK       I    between atoms: N8_37  and  C25_38 
REMARK    7  A    between atoms: C25_38  and  C26_40 
ROOT
HETATM    1  C5  UNL     1      -1.394  50.809 -22.472  1.00  0.00     0.076 A 
HETATM    2  N1  UNL     1      -2.367  50.334 -23.266  1.00  0.00    -0.295 N 
ATOM      3  H1  UNL     1      -3.005  49.561 -23.077  1.00  0.00     0.187 HD
HETATM    4  N2  UNL     1      -2.312  51.112 -24.373  1.00  0.00    -0.270 N 
HETATM    5  C18 UNL     1      -1.269  51.998 -24.348  1.00  0.00     0.140 A 
HETATM    6  N5  UNL     1      -0.912  52.871 -25.304  1.00  0.00    -0.337 N 
ATOM      7  H5  UNL     1      -1.393  52.967 -26.199  1.00  0.00     0.168 HD
HETATM    8  C19 UNL     1       0.152  53.602 -24.941  1.00  0.00     0.183 A 
HETATM    9  N6  UNL     1       0.839  53.543 -23.788  1.00  0.00    -0.338 N 
ATOM     10  H6  UNL     1       1.640  54.153 -23.627  1.00  0.00     0.168 HD
HETATM   11  C20 UNL     1       0.447  52.660 -22.847  1.00  0.00     0.116 A 
HETATM   12  C21 UNL     1      -0.653  51.836 -23.118  1.00  0.00     0.082 A 
ENDROOT
BRANCH   1  13
HETATM   13  C4  UNL     1      -1.218  50.260 -21.133  1.00  0.00    -0.004 A 
HETATM   14  C3  UNL     1      -0.792  51.089 -20.086  1.00  0.00     0.053 A 
HETATM   15  C2  UNL     1      -0.604  50.564 -18.805  1.00  0.00     0.095 A 
HETATM   16  C24 UNL     1      -0.833  49.192 -18.567  1.00  0.00     0.068 A 
HETATM   17  C23 UNL     1      -1.252  48.372 -19.613  1.00  0.00     0.033 A 
HETATM   18  C22 UNL     1      -1.442  48.903 -20.891  1.00  0.00     0.016 A 
BRANCH  15  19
HETATM   19  O1  UNL     1      -0.190  51.291 -17.711  1.00  0.00    -0.354 OA
HETATM   20  C1  UNL     1       0.624  52.430 -17.959  1.00  0.00     0.210 C 
ENDBRANCH  15  19
BRANCH  16  21
HETATM   21  N8  UNL     1      -0.590  48.727 -17.256  1.00  0.00    -0.319 N 
HETATM   22  C25 UNL     1      -1.474  48.590 -16.207  1.00  0.00     0.273 C 
HETATM   23  O3  UNL     1      -2.640  48.966 -16.232  1.00  0.00    -0.266 OA
HETATM   24  H31 UNL     1       0.381  48.499 -17.086  1.00  0.00     0.169 HD
BRANCH  22  25
HETATM   25  C26 UNL     1      -0.887  47.964 -15.024  1.00  0.00     0.104 A 
HETATM   26  C27 UNL     1      -0.916  46.634 -14.625  1.00  0.00     0.049 A 
HETATM   27  C28 UNL     1      -0.240  46.506 -13.387  1.00  0.00    -0.007 A 
HETATM   28  C29 UNL     1       0.019  45.415 -12.532  1.00  0.00     0.014 A 
HETATM   29  C33 UNL     1       0.209  47.776 -13.031  1.00  0.00     0.045 A 
HETATM   30  C30 UNL     1       0.723  45.626 -11.343  1.00  0.00     0.001 A 
HETATM   31  C31 UNL     1       1.165  46.900 -11.002  1.00  0.00     0.002 A 
HETATM   32  C32 UNL     1       0.917  47.993 -11.836  1.00  0.00     0.030 A 
HETATM   33  N9  UNL     1      -0.188  48.641 -14.035  1.00  0.00    -0.346 N 
HETATM   34  C34 UNL     1       0.101  50.061 -14.064  1.00  0.00     0.156 C 
ENDBRANCH  22  25
ENDBRANCH  16  21
ENDBRANCH   1  13
BRANCH   4  35
HETATM   35  C6  UNL     1      -3.373  50.957 -25.367  1.00  0.00     0.110 C 
HETATM   36  C7  UNL     1      -2.873  50.361 -26.689  1.00  0.00     0.029 C 
HETATM   37  C8  UNL     1      -2.988  48.847 -26.793  1.00  0.00     0.027 C 
HETATM   38  C9  UNL     1      -4.351  48.262 -26.378  1.00  0.00     0.079 C 
HETATM   39  C16 UNL     1      -4.795  48.817 -25.010  1.00  0.00     0.027 C 
HETATM   40  C17 UNL     1      -4.662  50.327 -24.824  1.00  0.00     0.029 C 
BRANCH  38  41
HETATM   41  N3  UNL     1      -5.406  48.282 -27.404  1.00  0.00    -0.405 N 
HETATM   42  C10 UNL     1      -5.048  48.095 -28.810  1.00  0.00     0.137 C 
HETATM   43  C11 UNL     1      -6.259  47.852 -29.735  1.00  0.00     0.145 C 
HETATM   44  N4  UNL     1      -7.062  46.704 -29.306  1.00  0.00    -0.349 N 
HETATM   45  C12 UNL     1      -7.856  45.936 -30.138  1.00  0.00     0.215 C 
HETATM   46  C14 UNL     1      -7.010  46.377 -27.880  1.00  0.00     0.145 C 
HETATM   47  C13 UNL     1      -7.941  46.357 -31.584  1.00  0.00     0.117 C 
HETATM   48  O2  UNL     1      -8.473  44.949 -29.740  1.00  0.00    -0.274 OA
HETATM   49  C15 UNL     1      -6.654  47.599 -27.015  1.00  0.00     0.137 C 
ENDBRANCH  38  41
ENDBRANCH   4  35
BRANCH  11  50
HETATM   50  N7  UNL     1       1.182  52.636 -21.677  1.00  0.00    -0.385 N 
HETATM   51  H27 UNL     1       1.176  51.781 -21.135  1.00  0.00     0.157 HD
HETATM   52  H28 UNL     1       2.069  53.117 -21.763  1.00  0.00     0.157 HD
ENDBRANCH  11  50
TORSDOF 7
ENDMDL
