MODEL 1
REMARK minimizedAffinity -9.15966892
REMARK  4 active torsions:
REMARK  status: ('A' for Active; 'I' for Inactive)
REMARK    1  A    between atoms: N2_5  and  C4_6 
REMARK    2  A    between atoms: C7_9  and  N3_10 
REMARK    3  A    between atoms: N3_10  and  C8_11 
REMARK    4  A    between atoms: N5_18  and  C13_19 
ROOT
HETATM    1  C8  UNL     1      -2.347  49.542 -22.892  1.00  0.00     0.684 A 
HETATM    2  N4  UNL     1      -2.016  49.576 -21.585  1.00  0.00    -0.201 N 
ATOM      3  H4  UNL     1      -2.457  48.932 -20.928  1.00  0.00     0.183 HD
HETATM    4  C9  UNL     1      -1.098  50.468 -21.149  1.00  0.00     0.121 A 
HETATM    5  C10 UNL     1      -0.505  51.338 -22.053  1.00  0.00     0.026 A 
HETATM    6  C11 UNL     1       0.461  52.374 -22.004  1.00  0.00     0.034 A 
HETATM    7  C12 UNL     1       0.613  52.855 -23.288  1.00  0.00     0.094 A 
HETATM    8  N5  UNL     1      -0.231  52.148 -24.113  1.00  0.00    -0.337 N 
HETATM    9  C19 UNL     1      -0.919  51.217 -23.370  1.00  0.00     0.135 A 
HETATM   10  N6  UNL     1      -1.826  50.345 -23.838  1.00  0.00    -0.175 N 
ATOM     11  H6  UNL     1      -2.096  50.296 -24.820  1.00  0.00     0.186 HD
ENDROOT
BRANCH   1  12
HETATM   12  N3  UNL     1      -3.287  48.632 -23.376  1.00  0.00    -0.192 N 
HETATM   13  H10 UNL     1      -3.508  47.978 -22.641  1.00  0.00     0.184 HD
BRANCH  12  14
HETATM   14  C7  UNL     1      -3.936  48.454 -24.600  1.00  0.00     0.049 A 
HETATM   15  C6  UNL     1      -3.298  48.488 -25.839  1.00  0.00     0.032 A 
HETATM   16  C5  UNL     1      -4.010  48.307 -27.037  1.00  0.00     0.031 A 
HETATM   17  C4  UNL     1      -5.391  48.088 -27.043  1.00  0.00     0.030 A 
HETATM   18  C21 UNL     1      -6.028  48.057 -25.797  1.00  0.00     0.031 A 
HETATM   19  C20 UNL     1      -5.319  48.235 -24.601  1.00  0.00     0.032 A 
BRANCH  17  20
HETATM   20  N2  UNL     1      -6.148  47.911 -28.208  1.00  0.00    -0.378 N 
HETATM   21  C3  UNL     1      -7.306  46.992 -28.197  1.00  0.00     0.153 C 
HETATM   22  C2  UNL     1      -6.996  45.679 -28.949  1.00  0.00     0.291 C 
HETATM   23  N1  UNL     1      -6.590  45.853 -30.364  1.00  0.00     0.087 N 
HETATM   24  C1  UNL     1      -7.671  45.518 -31.287  1.00  0.00     0.310 C 
HETATM   25  C23 UNL     1      -6.097  47.227 -30.617  1.00  0.00     0.291 C 
HETATM   26  C22 UNL     1      -5.307  47.825 -29.429  1.00  0.00     0.153 C 
ENDBRANCH  17  20
ENDBRANCH  12  14
ENDBRANCH   1  12
BRANCH   8  27
HETATM   27  C13 UNL     1      -0.379  52.342 -25.554  1.00  0.00     0.091 C 
HETATM   28  C14 UNL     1       0.022  53.761 -25.985  1.00  0.00     0.026 C 
HETATM   29  C15 UNL     1      -0.143  53.953 -27.492  1.00  0.00     0.002 C 
HETATM   30  C16 UNL     1       0.617  52.890 -28.281  1.00  0.00     0.000 C 
HETATM   31  C17 UNL     1       0.219  51.479 -27.857  1.00  0.00     0.002 C 
HETATM   32  C18 UNL     1       0.385  51.274 -26.353  1.00  0.00     0.026 C 
ENDBRANCH   8  27
TORSDOF 4
ENDMDL
MODEL 2
REMARK minimizedAffinity -8.96897221
REMARK  4 active torsions:
REMARK  status: ('A' for Active; 'I' for Inactive)
REMARK    1  A    between atoms: N2_5  and  C4_6 
REMARK    2  A    between atoms: C7_9  and  N3_10 
REMARK    3  A    between atoms: N3_10  and  C8_11 
REMARK    4  A    between atoms: N5_18  and  C13_19 
ROOT
HETATM    1  C8  UNL     1      -2.133  49.870 -25.129  1.00  0.00     0.684 A 
HETATM    2  N4  UNL     1      -1.577  50.342 -26.263  1.00  0.00    -0.201 N 
ATOM      3  H4  UNL     1      -1.871  49.976 -27.168  1.00  0.00     0.183 HD
HETATM    4  C9  UNL     1      -0.628  51.303 -26.194  1.00  0.00     0.121 A 
HETATM    5  C10 UNL     1      -0.238  51.793 -24.956  1.00  0.00     0.026 A 
HETATM    6  C11 UNL     1       0.679  52.759 -24.474  1.00  0.00     0.034 A 
HETATM    7  C12 UNL     1       0.580  52.770 -23.098  1.00  0.00     0.094 A 
HETATM    8  N5  UNL     1      -0.366  51.840 -22.730  1.00  0.00    -0.337 N 
HETATM    9  C19 UNL     1      -0.873  51.238 -23.858  1.00  0.00     0.135 A 
HETATM   10  N6  UNL     1      -1.818  50.284 -23.887  1.00  0.00    -0.175 N 
ATOM     11  H6  UNL     1      -2.256  49.908 -23.047  1.00  0.00     0.186 HD
ENDROOT
BRANCH   1  12
HETATM   12  N3  UNL     1      -3.117  48.882 -25.163  1.00  0.00    -0.192 N 
HETATM   13  H10 UNL     1      -3.055  48.338 -24.316  1.00  0.00     0.184 HD
BRANCH  12  14
HETATM   14  C7  UNL     1      -4.105  48.516 -26.081  1.00  0.00     0.049 A 
HETATM   15  C6  UNL     1      -5.403  48.148 -25.731  1.00  0.00     0.032 A 
HETATM   16  C5  UNL     1      -6.351  47.784 -26.703  1.00  0.00     0.031 A 
HETATM   17  C4  UNL     1      -6.035  47.770 -28.065  1.00  0.00     0.030 A 
HETATM   18  C21 UNL     1      -4.729  48.138 -28.412  1.00  0.00     0.031 A 
HETATM   19  C20 UNL     1      -3.784  48.504 -27.444  1.00  0.00     0.032 A 
BRANCH  17  20
HETATM   20  N2  UNL     1      -6.938  47.407 -29.072  1.00  0.00    -0.378 N 
HETATM   21  C3  UNL     1      -6.434  46.822 -30.333  1.00  0.00     0.153 C 
HETATM   22  C2  UNL     1      -6.508  47.832 -31.498  1.00  0.00     0.291 C 
HETATM   23  N1  UNL     1      -7.862  48.365 -31.775  1.00  0.00     0.087 N 
HETATM   24  C1  UNL     1      -8.459  47.748 -32.957  1.00  0.00     0.310 C 
HETATM   25  C23 UNL     1      -8.752  48.208 -30.602  1.00  0.00     0.291 C 
HETATM   26  C22 UNL     1      -8.027  48.401 -29.250  1.00  0.00     0.153 C 
ENDBRANCH  17  20
ENDBRANCH  12  14
ENDBRANCH   1  12
BRANCH   8  27
HETATM   27  C13 UNL     1      -0.778  51.535 -21.362  1.00  0.00     0.091 C 
HETATM   28  C14 UNL     1      -0.327  50.133 -20.926  1.00  0.00     0.026 C 
HETATM   29  C15 UNL     1      -0.770  49.825 -19.497  1.00  0.00     0.002 C 
HETATM   30  C16 UNL     1      -0.296  50.896 -18.517  1.00  0.00     0.000 C 
HETATM   31  C17 UNL     1      -0.744  52.291 -18.946  1.00  0.00     0.002 C 
HETATM   32  C18 UNL     1      -0.303  52.611 -20.372  1.00  0.00     0.026 C 
ENDBRANCH   8  27
TORSDOF 4
ENDMDL
MODEL 3
REMARK minimizedAffinity -8.95986557
REMARK  4 active torsions:
REMARK  status: ('A' for Active; 'I' for Inactive)
REMARK    1  A    between atoms: N2_5  and  C4_6 
REMARK    2  A    between atoms: C7_9  and  N3_10 
REMARK    3  A    between atoms: N3_10  and  C8_11 
REMARK    4  A    between atoms: N5_18  and  C13_19 
ROOT
HETATM    1  C8  UNL     1      -1.511  50.436 -22.961  1.00  0.00     0.684 A 
HETATM    2  N4  UNL     1      -2.285  49.454 -22.459  1.00  0.00    -0.201 N 
ATOM      3  H4  UNL     1      -2.310  49.285 -21.453  1.00  0.00     0.183 HD
HETATM    4  C9  UNL     1      -3.028  48.693 -23.294  1.00  0.00     0.121 A 
HETATM    5  C10 UNL     1      -2.986  48.933 -24.660  1.00  0.00     0.026 A 
HETATM    6  C11 UNL     1      -3.588  48.388 -25.821  1.00  0.00     0.034 A 
HETATM    7  C12 UNL     1      -3.115  49.101 -26.903  1.00  0.00     0.094 A 
HETATM    8  N5  UNL     1      -2.243  50.058 -26.436  1.00  0.00    -0.337 N 
HETATM    9  C19 UNL     1      -2.157  49.966 -25.067  1.00  0.00     0.135 A 
HETATM   10  N6  UNL     1      -1.406  50.741 -24.268  1.00  0.00    -0.175 N 
ATOM     11  H6  UNL     1      -0.812  51.491 -24.619  1.00  0.00     0.186 HD
ENDROOT
BRANCH   1  12
HETATM   12  N3  UNL     1      -0.735  51.243 -22.128  1.00  0.00    -0.192 N 
HETATM   13  H10 UNL     1      -0.288  51.949 -22.692  1.00  0.00     0.184 HD
BRANCH  12  14
HETATM   14  C7  UNL     1      -0.466  51.261 -20.757  1.00  0.00     0.049 A 
HETATM   15  C6  UNL     1      -0.541  50.143 -19.928  1.00  0.00     0.032 A 
HETATM   16  C5  UNL     1      -0.263  50.229 -18.553  1.00  0.00     0.031 A 
HETATM   17  C4  UNL     1       0.097  51.439 -17.952  1.00  0.00     0.030 A 
HETATM   18  C21 UNL     1       0.169  52.560 -18.788  1.00  0.00     0.031 A 
HETATM   19  C20 UNL     1      -0.105  52.475 -20.160  1.00  0.00     0.032 A 
BRANCH  17  20
HETATM   20  N2  UNL     1       0.375  51.581 -16.587  1.00  0.00    -0.378 N 
HETATM   21  C3  UNL     1       1.372  52.576 -16.140  1.00  0.00     0.153 C 
HETATM   22  C2  UNL     1       2.689  51.903 -15.698  1.00  0.00     0.291 C 
HETATM   23  N1  UNL     1       2.546  50.910 -14.608  1.00  0.00     0.087 N 
HETATM   24  C1  UNL     1       2.993  51.443 -13.323  1.00  0.00     0.310 C 
HETATM   25  C23 UNL     1       1.153  50.417 -14.509  1.00  0.00     0.291 C 
HETATM   26  C22 UNL     1       0.452  50.276 -15.881  1.00  0.00     0.153 C 
ENDBRANCH  17  20
ENDBRANCH  12  14
ENDBRANCH   1  12
BRANCH   8  27
HETATM   27  C13 UNL     1      -1.521  51.028 -27.256  1.00  0.00     0.091 C 
HETATM   28  C14 UNL     1      -2.051  52.456 -27.057  1.00  0.00     0.026 C 
HETATM   29  C15 UNL     1      -1.293  53.459 -27.924  1.00  0.00     0.002 C 
HETATM   30  C16 UNL     1       0.214  53.382 -27.687  1.00  0.00     0.000 C 
HETATM   31  C17 UNL     1       0.745  51.965 -27.887  1.00  0.00     0.002 C 
HETATM   32  C18 UNL     1      -0.004  50.954 -27.020  1.00  0.00     0.026 C 
ENDBRANCH   8  27
TORSDOF 4
ENDMDL
MODEL 4
REMARK minimizedAffinity -8.90634632
REMARK  4 active torsions:
REMARK  status: ('A' for Active; 'I' for Inactive)
REMARK    1  A    between atoms: N2_5  and  C4_6 
REMARK    2  A    between atoms: C7_9  and  N3_10 
REMARK    3  A    between atoms: N3_10  and  C8_11 
REMARK    4  A    between atoms: N5_18  and  C13_19 
ROOT
HETATM    1  C8  UNL     1      -1.812  50.434 -26.068  1.00  0.00     0.684 A 
HETATM    2  N4  UNL     1      -1.747  51.087 -27.246  1.00  0.00    -0.201 N 
ATOM      3  H4  UNL     1      -2.175  50.684 -28.079  1.00  0.00     0.183 HD
HETATM    4  C9  UNL     1      -1.111  52.278 -27.317  1.00  0.00     0.121 A 
HETATM    5  C10 UNL     1      -0.533  52.815 -26.176  1.00  0.00     0.026 A 
HETATM    6  C11 UNL     1       0.190  53.987 -25.841  1.00  0.00     0.034 A 
HETATM    7  C12 UNL     1       0.483  53.919 -24.495  1.00  0.00     0.094 A 
HETATM    8  N5  UNL     1      -0.035  52.743 -24.003  1.00  0.00    -0.337 N 
HETATM    9  C19 UNL     1      -0.660  52.061 -25.021  1.00  0.00     0.135 A 
HETATM   10  N6  UNL     1      -1.283  50.876 -24.913  1.00  0.00    -0.175 N 
ATOM     11  H6  UNL     1      -1.349  50.360 -24.036  1.00  0.00     0.186 HD
ENDROOT
BRANCH   1  12
HETATM   12  N3  UNL     1      -2.465  49.206 -25.958  1.00  0.00    -0.192 N 
HETATM   13  H10 UNL     1      -1.856  48.561 -25.478  1.00  0.00     0.184 HD
BRANCH  12  14
HETATM   14  C7  UNL     1      -3.711  48.720 -26.360  1.00  0.00     0.049 A 
HETATM   15  C6  UNL     1      -4.766  48.449 -25.489  1.00  0.00     0.032 A 
HETATM   16  C5  UNL     1      -5.996  47.957 -25.956  1.00  0.00     0.031 A 
HETATM   17  C4  UNL     1      -6.218  47.710 -27.315  1.00  0.00     0.030 A 
HETATM   18  C21 UNL     1      -5.156  47.980 -28.185  1.00  0.00     0.031 A 
HETATM   19  C20 UNL     1      -3.930  48.475 -27.721  1.00  0.00     0.032 A 
BRANCH  17  20
HETATM   20  N2  UNL     1      -7.421  47.210 -27.831  1.00  0.00    -0.378 N 
HETATM   21  C3  UNL     1      -7.541  46.940 -29.279  1.00  0.00     0.153 C 
HETATM   22  C2  UNL     1      -8.406  48.004 -29.987  1.00  0.00     0.291 C 
HETATM   23  N1  UNL     1      -9.782  48.144 -29.453  1.00  0.00     0.087 N 
HETATM   24  C1  UNL     1     -10.771  47.512 -30.323  1.00  0.00     0.310 C 
HETATM   25  C23 UNL     1      -9.882  47.605 -28.077  1.00  0.00     0.291 C 
HETATM   26  C22 UNL     1      -8.615  47.854 -27.226  1.00  0.00     0.153 C 
ENDBRANCH  17  20
ENDBRANCH  12  14
ENDBRANCH   1  12
BRANCH   8  27
HETATM   27  C13 UNL     1       0.053  52.283 -22.619  1.00  0.00     0.091 C 
HETATM   28  C14 UNL     1       0.904  53.226 -21.754  1.00  0.00     0.026 C 
HETATM   29  C15 UNL     1       0.994  52.731 -20.312  1.00  0.00     0.002 C 
HETATM   30  C16 UNL     1      -0.390  52.510 -19.706  1.00  0.00     0.000 C 
HETATM   31  C17 UNL     1      -1.238  51.572 -20.561  1.00  0.00     0.002 C 
HETATM   32  C18 UNL     1      -1.338  52.060 -22.004  1.00  0.00     0.026 C 
ENDBRANCH   8  27
TORSDOF 4
ENDMDL
MODEL 5
REMARK minimizedAffinity -8.8085537
REMARK  4 active torsions:
REMARK  status: ('A' for Active; 'I' for Inactive)
REMARK    1  A    between atoms: N2_5  and  C4_6 
REMARK    2  A    between atoms: C7_9  and  N3_10 
REMARK    3  A    between atoms: N3_10  and  C8_11 
REMARK    4  A    between atoms: N5_18  and  C13_19 
ROOT
HETATM    1  C8  UNL     1      -0.659  52.165 -22.761  1.00  0.00     0.684 A 
HETATM    2  N4  UNL     1       0.302  53.070 -23.035  1.00  0.00    -0.201 N 
ATOM      3  H4  UNL     1       0.634  53.700 -22.305  1.00  0.00     0.183 HD
HETATM    4  C9  UNL     1       0.822  53.140 -24.281  1.00  0.00     0.121 A 
HETATM    5  C10 UNL     1       0.362  52.276 -25.264  1.00  0.00     0.026 A 
HETATM    6  C11 UNL     1       0.636  52.034 -26.634  1.00  0.00     0.034 A 
HETATM    7  C12 UNL     1      -0.188  51.006 -27.043  1.00  0.00     0.094 A 
HETATM    8  N5  UNL     1      -0.955  50.619 -25.967  1.00  0.00    -0.337 N 
HETATM    9  C19 UNL     1      -0.627  51.387 -24.875  1.00  0.00     0.135 A 
HETATM   10  N6  UNL     1      -1.166  51.290 -23.649  1.00  0.00    -0.175 N 
ATOM     11  H6  UNL     1      -1.894  50.616 -23.413  1.00  0.00     0.186 HD
ENDROOT
BRANCH   1  12
HETATM   12  N3  UNL     1      -1.215  52.064 -21.486  1.00  0.00    -0.192 N 
HETATM   13  H10 UNL     1      -2.185  52.335 -21.536  1.00  0.00     0.184 HD
BRANCH  12  14
HETATM   14  C7  UNL     1      -0.725  51.691 -20.232  1.00  0.00     0.049 A 
HETATM   15  C6  UNL     1      -0.939  50.444 -19.645  1.00  0.00     0.032 A 
HETATM   16  C5  UNL     1      -0.422  50.131 -18.377  1.00  0.00     0.031 A 
HETATM   17  C4  UNL     1       0.325  51.056 -17.641  1.00  0.00     0.030 A 
HETATM   18  C21 UNL     1       0.535  52.308 -18.232  1.00  0.00     0.031 A 
HETATM   19  C20 UNL     1       0.023  52.620 -19.499  1.00  0.00     0.032 A 
BRANCH  17  20
HETATM   20  N2  UNL     1       0.853  50.799 -16.369  1.00  0.00    -0.378 N 
HETATM   21  C3  UNL     1      -0.047  50.388 -15.271  1.00  0.00     0.153 C 
HETATM   22  C2  UNL     1      -0.271  51.533 -14.260  1.00  0.00     0.291 C 
HETATM   23  N1  UNL     1       0.965  52.063 -13.637  1.00  0.00     0.087 N 
HETATM   24  C1  UNL     1       1.133  51.584 -12.267  1.00  0.00     0.310 C 
HETATM   25  C23 UNL     1       2.159  51.740 -14.450  1.00  0.00     0.291 C 
HETATM   26  C22 UNL     1       1.895  51.781 -15.974  1.00  0.00     0.153 C 
ENDBRANCH  17  20
ENDBRANCH  12  14
ENDBRANCH   1  12
BRANCH   8  27
HETATM   27  C13 UNL     1      -1.958  49.557 -25.972  1.00  0.00     0.091 C 
HETATM   28  C14 UNL     1      -2.811  49.567 -24.694  1.00  0.00     0.026 C 
HETATM   29  C15 UNL     1      -3.851  48.448 -24.708  1.00  0.00     0.002 C 
HETATM   30  C16 UNL     1      -4.720  48.504 -25.963  1.00  0.00     0.000 C 
HETATM   31  C17 UNL     1      -3.876  48.492 -27.235  1.00  0.00     0.002 C 
HETATM   32  C18 UNL     1      -2.836  49.610 -27.233  1.00  0.00     0.026 C 
ENDBRANCH   8  27
TORSDOF 4
ENDMDL
MODEL 6
REMARK minimizedAffinity -8.8027668
REMARK  4 active torsions:
REMARK  status: ('A' for Active; 'I' for Inactive)
REMARK    1  A    between atoms: N2_5  and  C4_6 
REMARK    2  A    between atoms: C7_9  and  N3_10 
REMARK    3  A    between atoms: N3_10  and  C8_11 
REMARK    4  A    between atoms: N5_18  and  C13_19 
ROOT
HETATM    1  C8  UNL     1      -2.476  49.456 -24.697  1.00  0.00     0.684 A 
HETATM    2  N4  UNL     1      -2.936  49.394 -23.431  1.00  0.00    -0.201 N 
ATOM      3  H4  UNL     1      -3.653  48.713 -23.180  1.00  0.00     0.183 HD
HETATM    4  C9  UNL     1      -2.442  50.237 -22.496  1.00  0.00     0.121 A 
HETATM    5  C10 UNL     1      -1.465  51.156 -22.851  1.00  0.00     0.026 A 
HETATM    6  C11 UNL     1      -0.718  52.168 -22.198  1.00  0.00     0.034 A 
HETATM    7  C12 UNL     1       0.116  52.735 -23.140  1.00  0.00     0.094 A 
HETATM    8  N5  UNL     1      -0.103  52.102 -24.342  1.00  0.00    -0.337 N 
HETATM    9  C19 UNL     1      -1.066  51.134 -24.177  1.00  0.00     0.135 A 
HETATM   10  N6  UNL     1      -1.534  50.313 -25.131  1.00  0.00    -0.175 N 
ATOM     11  H6  UNL     1      -1.205  50.338 -26.096  1.00  0.00     0.186 HD
ENDROOT
BRANCH   1  12
HETATM   12  N3  UNL     1      -2.960  48.599 -25.685  1.00  0.00    -0.192 N 
HETATM   13  H10 UNL     1      -2.182  48.095 -26.082  1.00  0.00     0.184 HD
BRANCH  12  14
HETATM   14  C7  UNL     1      -4.226  48.323 -26.207  1.00  0.00     0.049 A 
HETATM   15  C6  UNL     1      -5.365  48.111 -25.431  1.00  0.00     0.032 A 
HETATM   16  C5  UNL     1      -6.612  47.832 -26.016  1.00  0.00     0.031 A 
HETATM   17  C4  UNL     1      -6.767  47.749 -27.404  1.00  0.00     0.030 A 
HETATM   18  C21 UNL     1      -5.621  47.960 -28.179  1.00  0.00     0.031 A 
HETATM   19  C20 UNL     1      -4.378  48.242 -27.596  1.00  0.00     0.032 A 
BRANCH  17  20
HETATM   20  N2  UNL     1      -7.983  47.464 -28.037  1.00  0.00    -0.378 N 
HETATM   21  C3  UNL     1      -8.382  46.058 -28.261  1.00  0.00     0.153 C 
HETATM   22  C2  UNL     1      -8.232  45.653 -29.743  1.00  0.00     0.291 C 
HETATM   23  N1  UNL     1      -9.007  46.482 -30.696  1.00  0.00     0.087 N 
HETATM   24  C1  UNL     1     -10.206  45.795 -31.168  1.00  0.00     0.310 C 
HETATM   25  C23 UNL     1      -9.359  47.794 -30.105  1.00  0.00     0.291 C 
HETATM   26  C22 UNL     1      -8.257  48.368 -29.183  1.00  0.00     0.153 C 
ENDBRANCH  17  20
ENDBRANCH  12  14
ENDBRANCH   1  12
BRANCH   8  27
HETATM   27  C13 UNL     1       0.579  52.398 -25.600  1.00  0.00     0.091 C 
HETATM   28  C14 UNL     1       1.652  51.351 -25.932  1.00  0.00     0.026 C 
HETATM   29  C15 UNL     1       2.362  51.676 -27.245  1.00  0.00     0.002 C 
HETATM   30  C16 UNL     1       1.369  51.845 -28.393  1.00  0.00     0.000 C 
HETATM   31  C17 UNL     1       0.302  52.887 -28.068  1.00  0.00     0.002 C 
HETATM   32  C18 UNL     1      -0.416  52.569 -26.759  1.00  0.00     0.026 C 
ENDBRANCH   8  27
TORSDOF 4
ENDMDL
MODEL 7
REMARK minimizedAffinity -8.68323803
REMARK  4 active torsions:
REMARK  status: ('A' for Active; 'I' for Inactive)
REMARK    1  A    between atoms: N2_5  and  C4_6 
REMARK    2  A    between atoms: C7_9  and  N3_10 
REMARK    3  A    between atoms: N3_10  and  C8_11 
REMARK    4  A    between atoms: N5_18  and  C13_19 
ROOT
HETATM    1  C8  UNL     1      -3.444  49.258 -23.293  1.00  0.00     0.684 A 
HETATM    2  N4  UNL     1      -4.567  48.870 -22.656  1.00  0.00    -0.201 N 
ATOM      3  H4  UNL     1      -5.254  48.289 -23.136  1.00  0.00     0.183 HD
HETATM    4  C9  UNL     1      -4.778  49.256 -21.377  1.00  0.00     0.121 A 
HETATM    5  C10 UNL     1      -3.835  50.046 -20.735  1.00  0.00     0.026 A 
HETATM    6  C11 UNL     1      -3.684  50.635 -19.455  1.00  0.00     0.034 A 
HETATM    7  C12 UNL     1      -2.484  51.315 -19.454  1.00  0.00     0.094 A 
HETATM    8  N5  UNL     1      -1.904  51.160 -20.692  1.00  0.00    -0.337 N 
HETATM    9  C19 UNL     1      -2.720  50.385 -21.483  1.00  0.00     0.135 A 
HETATM   10  N6  UNL     1      -2.477  50.021 -22.752  1.00  0.00    -0.175 N 
ATOM     11  H6  UNL     1      -1.637  50.298 -23.260  1.00  0.00     0.186 HD
ENDROOT
BRANCH   1  12
HETATM   12  N3  UNL     1      -3.192  48.874 -24.611  1.00  0.00    -0.192 N 
HETATM   13  H10 UNL     1      -2.194  48.866 -24.757  1.00  0.00     0.184 HD
BRANCH  12  14
HETATM   14  C7  UNL     1      -3.995  48.528 -25.700  1.00  0.00     0.049 A 
HETATM   15  C6  UNL     1      -3.562  48.529 -27.025  1.00  0.00     0.032 A 
HETATM   16  C5  UNL     1      -4.421  48.174 -28.079  1.00  0.00     0.031 A 
HETATM   17  C4  UNL     1      -5.751  47.808 -27.848  1.00  0.00     0.030 A 
HETATM   18  C21 UNL     1      -6.182  47.810 -26.516  1.00  0.00     0.031 A 
HETATM   19  C20 UNL     1      -5.325  48.161 -25.464  1.00  0.00     0.032 A 
BRANCH  17  20
HETATM   20  N2  UNL     1      -6.651  47.456 -28.862  1.00  0.00    -0.378 N 
HETATM   21  C3  UNL     1      -6.146  47.137 -30.213  1.00  0.00     0.153 C 
HETATM   22  C2  UNL     1      -6.435  48.277 -31.214  1.00  0.00     0.291 C 
HETATM   23  N1  UNL     1      -7.867  48.631 -31.356  1.00  0.00     0.087 N 
HETATM   24  C1  UNL     1      -8.439  48.102 -32.592  1.00  0.00     0.310 C 
HETATM   25  C23 UNL     1      -8.652  48.178 -30.185  1.00  0.00     0.291 C 
HETATM   26  C22 UNL     1      -7.882  48.289 -28.848  1.00  0.00     0.153 C 
ENDBRANCH  17  20
ENDBRANCH  12  14
ENDBRANCH   1  12
BRANCH   8  27
HETATM   27  C13 UNL     1      -0.621  51.720 -21.111  1.00  0.00     0.091 C 
HETATM   28  C14 UNL     1      -0.726  52.450 -22.458  1.00  0.00     0.026 C 
HETATM   29  C15 UNL     1       0.623  53.025 -22.887  1.00  0.00     0.002 C 
HETATM   30  C16 UNL     1       1.220  53.925 -21.808  1.00  0.00     0.000 C 
HETATM   31  C17 UNL     1       1.328  53.202 -20.467  1.00  0.00     0.002 C 
HETATM   32  C18 UNL     1      -0.016  52.627 -20.027  1.00  0.00     0.026 C 
ENDBRANCH   8  27
TORSDOF 4
ENDMDL
MODEL 8
REMARK minimizedAffinity -8.60907269
REMARK  4 active torsions:
REMARK  status: ('A' for Active; 'I' for Inactive)
REMARK    1  A    between atoms: N2_5  and  C4_6 
REMARK    2  A    between atoms: C7_9  and  N3_10 
REMARK    3  A    between atoms: N3_10  and  C8_11 
REMARK    4  A    between atoms: N5_18  and  C13_19 
ROOT
HETATM    1  C8  UNL     1       0.732  53.210 -19.675  1.00  0.00     0.684 A 
HETATM    2  N4  UNL     1       1.379  54.149 -20.394  1.00  0.00    -0.201 N 
ATOM      3  H4  UNL     1       1.894  54.891 -19.921  1.00  0.00     0.183 HD
HETATM    4  C9  UNL     1       1.342  54.102 -21.745  1.00  0.00     0.121 A 
HETATM    5  C10 UNL     1       0.638  53.087 -22.376  1.00  0.00     0.026 A 
HETATM    6  C11 UNL     1       0.367  52.697 -23.711  1.00  0.00     0.034 A 
HETATM    7  C12 UNL     1      -0.415  51.562 -23.658  1.00  0.00     0.094 A 
HETATM    8  N5  UNL     1      -0.629  51.252 -22.334  1.00  0.00    -0.337 N 
HETATM    9  C19 UNL     1       0.010  52.177 -21.541  1.00  0.00     0.135 A 
HETATM   10  N6  UNL     1       0.025  52.192 -20.199  1.00  0.00    -0.175 N 
ATOM     11  H6  UNL     1      -0.454  51.495 -19.629  1.00  0.00     0.186 HD
ENDROOT
BRANCH   1  12
HETATM   12  N3  UNL     1       0.753  53.226 -18.280  1.00  0.00    -0.192 N 
HETATM   13  H10 UNL     1       0.676  54.182 -17.969  1.00  0.00     0.184 HD
BRANCH  12  14
HETATM   14  C7  UNL     1       0.860  52.244 -17.292  1.00  0.00     0.049 A 
HETATM   15  C6  UNL     1       1.641  52.368 -16.145  1.00  0.00     0.032 A 
HETATM   16  C5  UNL     1       1.711  51.340 -15.188  1.00  0.00     0.031 A 
HETATM   17  C4  UNL     1       1.003  50.144 -15.346  1.00  0.00     0.030 A 
HETATM   18  C21 UNL     1       0.222  50.023 -16.501  1.00  0.00     0.031 A 
HETATM   19  C20 UNL     1       0.149  51.048 -17.453  1.00  0.00     0.032 A 
BRANCH  17  20
HETATM   20  N2  UNL     1       1.046  49.086 -14.429  1.00  0.00    -0.378 N 
HETATM   21  C3  UNL     1       2.194  48.960 -13.507  1.00  0.00     0.153 C 
HETATM   22  C2  UNL     1       3.136  47.811 -13.925  1.00  0.00     0.291 C 
HETATM   23  N1  UNL     1       2.494  46.478 -14.007  1.00  0.00     0.087 N 
HETATM   24  C1  UNL     1       2.829  45.640 -12.858  1.00  0.00     0.310 C 
HETATM   25  C23 UNL     1       1.025  46.596 -14.152  1.00  0.00     0.291 C 
HETATM   26  C22 UNL     1       0.588  47.801 -15.018  1.00  0.00     0.153 C 
ENDBRANCH  17  20
ENDBRANCH  12  14
ENDBRANCH   1  12
BRANCH   8  27
HETATM   27  C13 UNL     1      -1.407  50.120 -21.836  1.00  0.00     0.091 C 
HETATM   28  C14 UNL     1      -2.146  49.390 -22.968  1.00  0.00     0.026 C 
HETATM   29  C15 UNL     1      -2.960  48.213 -22.434  1.00  0.00     0.002 C 
HETATM   30  C16 UNL     1      -2.096  47.254 -21.619  1.00  0.00     0.000 C 
HETATM   31  C17 UNL     1      -1.362  47.975 -20.492  1.00  0.00     0.002 C 
HETATM   32  C18 UNL     1      -0.541  49.151 -21.015  1.00  0.00     0.026 C 
ENDBRANCH   8  27
TORSDOF 4
ENDMDL
MODEL 9
REMARK minimizedAffinity -8.5798769
REMARK  4 active torsions:
REMARK  status: ('A' for Active; 'I' for Inactive)
REMARK    1  A    between atoms: N2_5  and  C4_6 
REMARK    2  A    between atoms: C7_9  and  N3_10 
REMARK    3  A    between atoms: N3_10  and  C8_11 
REMARK    4  A    between atoms: N5_18  and  C13_19 
ROOT
HETATM    1  C8  UNL     1       0.525  52.701 -24.418  1.00  0.00     0.684 A 
HETATM    2  N4  UNL     1       1.215  52.962 -25.546  1.00  0.00    -0.201 N 
ATOM      3  H4  UNL     1       2.075  53.509 -25.505  1.00  0.00     0.183 HD
HETATM    4  C9  UNL     1       0.762  52.497 -26.732  1.00  0.00     0.121 A 
HETATM    5  C10 UNL     1      -0.408  51.753 -26.773  1.00  0.00     0.026 A 
HETATM    6  C11 UNL     1      -1.185  51.109 -27.769  1.00  0.00     0.034 A 
HETATM    7  C12 UNL     1      -2.262  50.525 -27.136  1.00  0.00     0.094 A 
HETATM    8  N5  UNL     1      -2.166  50.795 -25.790  1.00  0.00    -0.337 N 
HETATM    9  C19 UNL     1      -1.036  51.544 -25.556  1.00  0.00     0.135 A 
HETATM   10  N6  UNL     1      -0.617  51.991 -24.362  1.00  0.00    -0.175 N 
ATOM     11  H6  UNL     1      -1.117  51.808 -23.492  1.00  0.00     0.186 HD
ENDROOT
BRANCH   1  12
HETATM   12  N3  UNL     1       0.966  53.162 -23.177  1.00  0.00    -0.192 N 
HETATM   13  H10 UNL     1       1.698  53.838 -23.328  1.00  0.00     0.184 HD
BRANCH  12  14
HETATM   14  C7  UNL     1       0.622  52.886 -21.852  1.00  0.00     0.049 A 
HETATM   15  C6  UNL     1       1.078  53.615 -20.754  1.00  0.00     0.032 A 
HETATM   16  C5  UNL     1       0.699  53.283 -19.443  1.00  0.00     0.031 A 
HETATM   17  C4  UNL     1      -0.151  52.204 -19.176  1.00  0.00     0.030 A 
HETATM   18  C21 UNL     1      -0.605  51.474 -20.281  1.00  0.00     0.031 A 
HETATM   19  C20 UNL     1      -0.229  51.805 -21.589  1.00  0.00     0.032 A 
BRANCH  17  20
HETATM   20  N2  UNL     1      -0.551  51.825 -17.889  1.00  0.00    -0.378 N 
HETATM   21  C3  UNL     1       0.449  51.302 -16.934  1.00  0.00     0.153 C 
HETATM   22  C2  UNL     1       0.313  49.775 -16.748  1.00  0.00     0.291 C 
HETATM   23  N1  UNL     1      -1.018  49.322 -16.279  1.00  0.00     0.087 N 
HETATM   24  C1  UNL     1      -1.006  48.971 -14.861  1.00  0.00     0.310 C 
HETATM   25  C23 UNL     1      -2.060  50.338 -16.553  1.00  0.00     0.291 C 
HETATM   26  C22 UNL     1      -1.845  51.095 -17.884  1.00  0.00     0.153 C 
ENDBRANCH  17  20
ENDBRANCH  12  14
ENDBRANCH   1  12
BRANCH   8  27
HETATM   27  C13 UNL     1      -3.106  50.357 -24.761  1.00  0.00     0.091 C 
HETATM   28  C14 UNL     1      -4.281  51.335 -24.603  1.00  0.00     0.026 C 
HETATM   29  C15 UNL     1      -5.252  50.869 -23.520  1.00  0.00     0.002 C 
HETATM   30  C16 UNL     1      -5.739  49.444 -23.776  1.00  0.00     0.000 C 
HETATM   31  C17 UNL     1      -4.575  48.469 -23.931  1.00  0.00     0.002 C 
HETATM   32  C18 UNL     1      -3.599  48.923 -25.015  1.00  0.00     0.026 C 
ENDBRANCH   8  27
TORSDOF 4
ENDMDL
