MODEL 1
REMARK minimizedAffinity -9.9673233
REMARK CNNscore 0.524324894
REMARK CNNaffinity 7.27368307
REMARK  9 active torsions:
REMARK  status: ('A' for Active; 'I' for Inactive)
REMARK    1  A    between atoms: C3_5  and  C4_6 
REMARK    2  A    between atoms: C13_19  and  N3_20 
REMARK    3  A    between atoms: N3_20  and  C14_21 
REMARK    4  A    between atoms: C18_25  and  P1_26 
REMARK    5  A    between atoms: P1_26  and  O3_28 
REMARK    6  A    between atoms: P1_26  and  C19_29 
REMARK    7  A    between atoms: C19_29  and  P2_30 
REMARK    8  A    between atoms: P2_30  and  O5_32 
REMARK    9  A    between atoms: P2_30  and  O6_33 
ROOT
HETATM    1  C1  UNL     1      -1.315  49.887 -20.810  1.00  0.00     0.161 C 
HETATM    2  N1  UNL     1      -0.733  50.911 -21.659  1.00  0.00    -0.303 N 
HETATM    3  C2  UNL     1      -0.894  50.840 -23.034  1.00  0.00     0.260 A 
HETATM    4  O1  UNL     1      -1.514  49.943 -23.602  1.00  0.00    -0.267 OA
HETATM    5  C3  UNL     1      -0.264  51.932 -23.853  1.00  0.00     0.047 A 
HETATM    6  C10 UNL     1       0.416  52.926 -23.263  1.00  0.00     0.034 A 
HETATM    7  C11 UNL     1       0.547  52.943 -21.816  1.00  0.00     0.026 A 
HETATM    8  C12 UNL     1       1.226  53.921 -21.129  1.00  0.00     0.121 A 
HETATM    9  N2  UNL     1       1.352  53.943 -19.790  1.00  0.00    -0.201 N 
ATOM     10  H2  UNL     1       1.865  54.687 -19.318  1.00  0.00     0.183 HD
HETATM   11  C13 UNL     1       0.777  52.949 -19.099  1.00  0.00     0.684 A 
HETATM   12  N4  UNL     1       0.093  51.952 -19.682  1.00  0.00    -0.175 N 
ATOM     13  H4  UNL     1      -0.332  51.211 -19.124  1.00  0.00     0.186 HD
HETATM   14  C21 UNL     1      -0.015  51.958 -21.028  1.00  0.00     0.137 A 
ENDROOT
BRANCH  11  15
HETATM   15  N3  UNL     1       0.849  52.873 -17.711  1.00  0.00    -0.192 N 
HETATM   16  H9  UNL     1      -0.027  53.189 -17.324  1.00  0.00     0.184 HD
BRANCH  15  17
HETATM   17  C14 UNL     1       1.835  52.464 -16.809  1.00  0.00     0.050 A 
HETATM   18  C15 UNL     1       3.168  52.882 -16.863  1.00  0.00     0.030 A 
HETATM   19  C16 UNL     1       4.108  52.430 -15.932  1.00  0.00     0.003 A 
HETATM   20  C17 UNL     1       3.730  51.548 -14.925  1.00  0.00     0.017 A 
HETATM   21  C18 UNL     1       2.407  51.110 -14.837  1.00  0.00     0.025 A 
HETATM   22  C20 UNL     1       1.476  51.574 -15.782  1.00  0.00     0.047 A 
BRANCH  21  23
HETATM   23  P1  UNL     1       1.920  50.000 -13.562  1.00  0.00     0.143 P 
HETATM   24  O2  UNL     1       0.452  49.691 -13.428  1.00  0.00    -0.670 OA
BRANCH  23  25
HETATM   25  O3  UNL     1       2.443  50.686 -12.196  1.00  0.00    -0.345 OA
HETATM   26  H13 UNL     1       1.901  51.450 -11.916  1.00  0.00     0.218 HD
ENDBRANCH  23  25
BRANCH  23  27
HETATM   27  C19 UNL     1       2.854  48.476 -13.647  1.00  0.00     0.223 C 
BRANCH  27  28
HETATM   28  P2  UNL     1       2.015  47.001 -14.181  1.00  0.00     0.245 P 
HETATM   29  O4  UNL     1       1.283  46.257 -13.113  1.00  0.00    -0.653 OA
BRANCH  28  30
HETATM   30  O5  UNL     1       1.054  47.429 -15.386  1.00  0.00    -0.329 OA
HETATM   31  H16 UNL     1       0.481  46.684 -15.654  1.00  0.00     0.220 HD
ENDBRANCH  28  30
BRANCH  28  32
HETATM   32  O6  UNL     1       3.093  46.113 -14.967  1.00  0.00    -0.329 OA
HETATM   33  H17 UNL     1       3.815  46.619 -15.418  1.00  0.00     0.220 HD
ENDBRANCH  28  32
ENDBRANCH  27  28
ENDBRANCH  23  27
ENDBRANCH  21  23
ENDBRANCH  15  17
ENDBRANCH  11  15
BRANCH   5  34
HETATM   34  C4  UNL     1      -0.400  51.907 -25.323  1.00  0.00     0.023 A 
HETATM   35  C5  UNL     1      -1.630  52.201 -25.939  1.00  0.00     0.046 A 
HETATM   36 CL1  UNL     1      -3.049  52.572 -25.017  1.00  0.00    -0.083 Cl
HETATM   37  C6  UNL     1      -1.754  52.194 -27.333  1.00  0.00     0.025 A 
HETATM   38  C7  UNL     1      -0.654  51.894 -28.133  1.00  0.00     0.003 A 
HETATM   39  C8  UNL     1       0.573  51.600 -27.540  1.00  0.00     0.025 A 
HETATM   40  C9  UNL     1       0.701  51.606 -26.147  1.00  0.00     0.046 A 
HETATM   41 CL2  UNL     1       2.255  51.219 -25.490  1.00  0.00    -0.083 Cl
ENDBRANCH   5  34
TORSDOF 9
ENDMDL
MODEL 2
REMARK minimizedAffinity -9.4945755
REMARK CNNscore 0.489054233
REMARK CNNaffinity 7.13269949
REMARK  9 active torsions:
REMARK  status: ('A' for Active; 'I' for Inactive)
REMARK    1  A    between atoms: C3_5  and  C4_6 
REMARK    2  A    between atoms: C13_19  and  N3_20 
REMARK    3  A    between atoms: N3_20  and  C14_21 
REMARK    4  A    between atoms: C18_25  and  P1_26 
REMARK    5  A    between atoms: P1_26  and  O3_28 
REMARK    6  A    between atoms: P1_26  and  C19_29 
REMARK    7  A    between atoms: C19_29  and  P2_30 
REMARK    8  A    between atoms: P2_30  and  O5_32 
REMARK    9  A    between atoms: P2_30  and  O6_33 
ROOT
HETATM    1  C1  UNL     1      -1.277  49.721 -20.495  1.00  0.00     0.161 C 
HETATM    2  N1  UNL     1      -0.812  50.768 -21.387  1.00  0.00    -0.303 N 
HETATM    3  C2  UNL     1      -1.060  50.676 -22.748  1.00  0.00     0.260 A 
HETATM    4  O1  UNL     1      -1.666  49.740 -23.268  1.00  0.00    -0.267 OA
HETATM    5  C3  UNL     1      -0.549  51.793 -23.613  1.00  0.00     0.047 A 
HETATM    6  C10 UNL     1       0.113  52.829 -23.076  1.00  0.00     0.034 A 
HETATM    7  C11 UNL     1       0.339  52.867 -21.641  1.00  0.00     0.026 A 
HETATM    8  C12 UNL     1       1.007  53.887 -21.007  1.00  0.00     0.121 A 
HETATM    9  N2  UNL     1       1.220  53.928 -19.679  1.00  0.00    -0.201 N 
ATOM     10  H2  UNL     1       1.722  54.704 -19.247  1.00  0.00     0.183 HD
HETATM   11  C13 UNL     1       0.750  52.910 -18.946  1.00  0.00     0.684 A 
HETATM   12  N4  UNL     1       0.085  51.871 -19.476  1.00  0.00    -0.175 N 
ATOM     13  H4  UNL     1      -0.260  51.113 -18.887  1.00  0.00     0.186 HD
HETATM   14  C21 UNL     1      -0.113  51.859 -20.812  1.00  0.00     0.137 A 
ENDROOT
BRANCH  11  15
HETATM   15  N3  UNL     1       0.919  52.851 -17.565  1.00  0.00    -0.192 N 
HETATM   16  H9  UNL     1       0.070  53.169 -17.122  1.00  0.00     0.184 HD
BRANCH  15  17
HETATM   17  C14 UNL     1       1.967  52.456 -16.730  1.00  0.00     0.050 A 
HETATM   18  C15 UNL     1       3.304  52.807 -16.931  1.00  0.00     0.030 A 
HETATM   19  C16 UNL     1       4.308  52.373 -16.060  1.00  0.00     0.003 A 
HETATM   20  C17 UNL     1       3.990  51.577 -14.965  1.00  0.00     0.017 A 
HETATM   21  C18 UNL     1       2.664  51.207 -14.729  1.00  0.00     0.025 A 
HETATM   22  C20 UNL     1       1.668  51.652 -15.615  1.00  0.00     0.047 A 
BRANCH  21  23
HETATM   23  P1  UNL     1       2.253  50.206 -13.342  1.00  0.00     0.143 P 
HETATM   24  O2  UNL     1       2.126  48.722 -13.566  1.00  0.00    -0.670 OA
BRANCH  23  25
HETATM   25  O3  UNL     1       0.839  50.784 -12.820  1.00  0.00    -0.345 OA
HETATM   26  H13 UNL     1       0.084  50.533 -13.389  1.00  0.00     0.218 HD
ENDBRANCH  23  25
BRANCH  23  27
HETATM   27  C19 UNL     1       3.363  50.519 -11.973  1.00  0.00     0.223 C 
BRANCH  27  28
HETATM   28  P2  UNL     1       3.037  51.918 -10.925  1.00  0.00     0.245 P 
HETATM   29  O4  UNL     1       4.163  52.331 -10.037  1.00  0.00    -0.653 OA
BRANCH  28  30
HETATM   30  O5  UNL     1       2.554  53.107 -11.881  1.00  0.00    -0.329 OA
HETATM   31  H16 UNL     1       2.462  53.940 -11.379  1.00  0.00     0.220 HD
ENDBRANCH  28  30
BRANCH  28  32
HETATM   32  O6  UNL     1       1.675  51.602 -10.140  1.00  0.00    -0.329 OA
HETATM   33  H17 UNL     1       1.035  51.015 -10.616  1.00  0.00     0.220 HD
ENDBRANCH  28  32
ENDBRANCH  27  28
ENDBRANCH  23  27
ENDBRANCH  21  23
ENDBRANCH  15  17
ENDBRANCH  11  15
BRANCH   5  34
HETATM   34  C4  UNL     1      -0.781  51.748 -25.071  1.00  0.00     0.023 A 
HETATM   35  C5  UNL     1       0.269  51.451 -25.960  1.00  0.00     0.046 A 
HETATM   36 CL1  UNL     1       1.883  51.159 -25.404  1.00  0.00    -0.083 Cl
HETATM   37  C6  UNL     1       0.044  51.391 -27.340  1.00  0.00     0.025 A 
HETATM   38  C7  UNL     1      -1.229  51.625 -27.854  1.00  0.00     0.003 A 
HETATM   39  C8  UNL     1      -2.281  51.921 -26.988  1.00  0.00     0.025 A 
HETATM   40  C9  UNL     1      -2.060  51.982 -25.607  1.00  0.00     0.046 A 
HETATM   41 CL2  UNL     1      -3.417  52.366 -24.603  1.00  0.00    -0.083 Cl
ENDBRANCH   5  34
TORSDOF 9
ENDMDL
MODEL 3
REMARK minimizedAffinity -9.67093849
REMARK CNNscore 0.443369687
REMARK CNNaffinity 7.14187098
REMARK  9 active torsions:
REMARK  status: ('A' for Active; 'I' for Inactive)
REMARK    1  A    between atoms: C3_5  and  C4_6 
REMARK    2  A    between atoms: C13_19  and  N3_20 
REMARK    3  A    between atoms: N3_20  and  C14_21 
REMARK    4  A    between atoms: C18_25  and  P1_26 
REMARK    5  A    between atoms: P1_26  and  O3_28 
REMARK    6  A    between atoms: P1_26  and  C19_29 
REMARK    7  A    between atoms: C19_29  and  P2_30 
REMARK    8  A    between atoms: P2_30  and  O5_32 
REMARK    9  A    between atoms: P2_30  and  O6_33 
ROOT
HETATM    1  C1  UNL     1      -1.124  49.818 -20.844  1.00  0.00     0.161 C 
HETATM    2  N1  UNL     1      -0.648  50.874 -21.719  1.00  0.00    -0.303 N 
HETATM    3  C2  UNL     1      -0.893  50.804 -23.082  1.00  0.00     0.260 A 
HETATM    4  O1  UNL     1      -1.506  49.882 -23.617  1.00  0.00    -0.267 OA
HETATM    5  C3  UNL     1      -0.370  51.930 -23.929  1.00  0.00     0.047 A 
HETATM    6  C10 UNL     1       0.299  52.952 -23.375  1.00  0.00     0.034 A 
HETATM    7  C11 UNL     1       0.522  52.966 -21.939  1.00  0.00     0.026 A 
HETATM    8  C12 UNL     1       1.197  53.971 -21.289  1.00  0.00     0.121 A 
HETATM    9  N2  UNL     1       1.408  53.990 -19.960  1.00  0.00    -0.201 N 
ATOM     10  H2  UNL     1       1.916  54.755 -19.515  1.00  0.00     0.183 HD
HETATM   11  C13 UNL     1       0.927  52.965 -19.243  1.00  0.00     0.684 A 
HETATM   12  N4  UNL     1       0.255  51.941 -19.790  1.00  0.00    -0.175 N 
ATOM     13  H4  UNL     1      -0.098  51.177 -19.213  1.00  0.00     0.186 HD
HETATM   14  C21 UNL     1       0.060  51.950 -21.126  1.00  0.00     0.137 A 
ENDROOT
BRANCH  11  15
HETATM   15  N3  UNL     1       1.093  52.884 -17.863  1.00  0.00    -0.192 N 
HETATM   16  H9  UNL     1       1.417  53.777 -17.523  1.00  0.00     0.184 HD
BRANCH  15  17
HETATM   17  C14 UNL     1       0.904  51.871 -16.919  1.00  0.00     0.050 A 
HETATM   18  C15 UNL     1       0.358  50.619 -17.212  1.00  0.00     0.030 A 
HETATM   19  C16 UNL     1       0.190  49.650 -16.218  1.00  0.00     0.003 A 
HETATM   20  C17 UNL     1       0.567  49.918 -14.906  1.00  0.00     0.017 A 
HETATM   21  C18 UNL     1       1.118  51.158 -14.575  1.00  0.00     0.025 A 
HETATM   22  C20 UNL     1       1.280  52.119 -15.587  1.00  0.00     0.047 A 
BRANCH  21  23
HETATM   23  P1  UNL     1       1.604  51.501 -12.920  1.00  0.00     0.143 P 
HETATM   24  O2  UNL     1       0.529  51.912 -11.948  1.00  0.00    -0.670 OA
BRANCH  23  25
HETATM   25  O3  UNL     1       2.686  52.693 -13.046  1.00  0.00    -0.345 OA
HETATM   26  H13 UNL     1       2.283  53.562 -13.245  1.00  0.00     0.218 HD
ENDBRANCH  23  25
BRANCH  23  27
HETATM   27  C19 UNL     1       2.553  50.147 -12.235  1.00  0.00     0.223 C 
BRANCH  27  28
HETATM   28  P2  UNL     1       4.062  49.676 -13.050  1.00  0.00     0.245 P 
HETATM   29  O4  UNL     1       5.273  49.624 -12.179  1.00  0.00    -0.653 OA
BRANCH  28  30
HETATM   30  O5  UNL     1       3.777  48.277 -13.773  1.00  0.00    -0.329 OA
HETATM   31  H16 UNL     1       4.600  47.908 -14.149  1.00  0.00     0.220 HD
ENDBRANCH  28  30
BRANCH  28  32
HETATM   32  O6  UNL     1       4.220  50.637 -14.323  1.00  0.00    -0.329 OA
HETATM   33  H17 UNL     1       3.373  50.966 -14.717  1.00  0.00     0.220 HD
ENDBRANCH  28  32
ENDBRANCH  27  28
ENDBRANCH  23  27
ENDBRANCH  21  23
ENDBRANCH  15  17
ENDBRANCH  11  15
BRANCH   5  34
HETATM   34  C4  UNL     1      -0.599  51.908 -25.388  1.00  0.00     0.023 A 
HETATM   35  C5  UNL     1       0.448  51.607 -26.278  1.00  0.00     0.046 A 
HETATM   36 CL1  UNL     1       2.056  51.282 -25.723  1.00  0.00    -0.083 Cl
HETATM   37  C6  UNL     1       0.226  51.569 -27.660  1.00  0.00     0.025 A 
HETATM   38  C7  UNL     1      -1.043  51.831 -28.174  1.00  0.00     0.003 A 
HETATM   39  C8  UNL     1      -2.091  52.131 -27.306  1.00  0.00     0.025 A 
HETATM   40  C9  UNL     1      -1.874  52.169 -25.924  1.00  0.00     0.046 A 
HETATM   41 CL2  UNL     1      -3.226  52.561 -24.917  1.00  0.00    -0.083 Cl
ENDBRANCH   5  34
TORSDOF 9
ENDMDL
MODEL 4
REMARK minimizedAffinity -9.97992229
REMARK CNNscore 0.442034602
REMARK CNNaffinity 7.22922754
REMARK  9 active torsions:
REMARK  status: ('A' for Active; 'I' for Inactive)
REMARK    1  A    between atoms: C3_5  and  C4_6 
REMARK    2  A    between atoms: C13_19  and  N3_20 
REMARK    3  A    between atoms: N3_20  and  C14_21 
REMARK    4  A    between atoms: C18_25  and  P1_26 
REMARK    5  A    between atoms: P1_26  and  O3_28 
REMARK    6  A    between atoms: P1_26  and  C19_29 
REMARK    7  A    between atoms: C19_29  and  P2_30 
REMARK    8  A    between atoms: P2_30  and  O5_32 
REMARK    9  A    between atoms: P2_30  and  O6_33 
ROOT
HETATM    1  C1  UNL     1      -1.323  49.924 -20.819  1.00  0.00     0.161 C 
HETATM    2  N1  UNL     1      -0.738  50.939 -21.676  1.00  0.00    -0.303 N 
HETATM    3  C2  UNL     1      -0.898  50.858 -23.051  1.00  0.00     0.260 A 
HETATM    4  O1  UNL     1      -1.522  49.959 -23.612  1.00  0.00    -0.267 OA
HETATM    5  C3  UNL     1      -0.264  51.940 -23.878  1.00  0.00     0.047 A 
HETATM    6  C10 UNL     1       0.421  52.937 -23.296  1.00  0.00     0.034 A 
HETATM    7  C11 UNL     1       0.551  52.965 -21.849  1.00  0.00     0.026 A 
HETATM    8  C12 UNL     1       1.234  53.945 -21.170  1.00  0.00     0.121 A 
HETATM    9  N2  UNL     1       1.360  53.977 -19.831  1.00  0.00    -0.201 N 
ATOM     10  H2  UNL     1       1.877  54.723 -19.365  1.00  0.00     0.183 HD
HETATM   11  C13 UNL     1       0.781  52.991 -19.132  1.00  0.00     0.684 A 
HETATM   12  N4  UNL     1       0.093  51.992 -19.707  1.00  0.00    -0.175 N 
ATOM     13  H4  UNL     1      -0.336  51.258 -19.144  1.00  0.00     0.186 HD
HETATM   14  C21 UNL     1      -0.015  51.988 -21.053  1.00  0.00     0.137 A 
ENDROOT
BRANCH  11  15
HETATM   15  N3  UNL     1       0.853  52.925 -17.744  1.00  0.00    -0.192 N 
HETATM   16  H9  UNL     1      -0.028  53.234 -17.360  1.00  0.00     0.184 HD
BRANCH  15  17
HETATM   17  C14 UNL     1       1.843  52.535 -16.838  1.00  0.00     0.050 A 
HETATM   18  C15 UNL     1       3.207  52.782 -17.014  1.00  0.00     0.030 A 
HETATM   19  C16 UNL     1       4.149  52.358 -16.071  1.00  0.00     0.003 A 
HETATM   20  C17 UNL     1       3.740  51.677 -14.929  1.00  0.00     0.017 A 
HETATM   21  C18 UNL     1       2.385  51.414 -14.717  1.00  0.00     0.025 A 
HETATM   22  C20 UNL     1       1.453  51.847 -15.675  1.00  0.00     0.047 A 
BRANCH  21  23
HETATM   23  P1  UNL     1       1.861  50.559 -13.272  1.00  0.00     0.143 P 
HETATM   24  O2  UNL     1       2.597  50.841 -11.989  1.00  0.00    -0.670 OA
BRANCH  23  25
HETATM   25  O3  UNL     1       2.018  48.994 -13.638  1.00  0.00    -0.345 OA
HETATM   26  H13 UNL     1       2.947  48.689 -13.639  1.00  0.00     0.218 HD
ENDBRANCH  23  25
BRANCH  23  27
HETATM   27  C19 UNL     1       0.100  50.752 -13.015  1.00  0.00     0.223 C 
BRANCH  27  28
HETATM   28  P2  UNL     1      -0.466  52.149 -12.071  1.00  0.00     0.245 P 
HETATM   29  O4  UNL     1      -0.671  51.899 -10.614  1.00  0.00    -0.653 OA
BRANCH  28  30
HETATM   30  O5  UNL     1       0.571  53.338 -12.340  1.00  0.00    -0.329 OA
HETATM   31  H16 UNL     1       0.378  54.103 -11.764  1.00  0.00     0.220 HD
ENDBRANCH  28  30
BRANCH  28  32
HETATM   32  O6  UNL     1      -1.765  52.719 -12.819  1.00  0.00    -0.329 OA
HETATM   33  H17 UNL     1      -1.789  52.574 -13.798  1.00  0.00     0.220 HD
ENDBRANCH  28  32
ENDBRANCH  27  28
ENDBRANCH  23  27
ENDBRANCH  21  23
ENDBRANCH  15  17
ENDBRANCH  11  15
BRANCH   5  34
HETATM   34  C4  UNL     1      -0.400  51.904 -25.348  1.00  0.00     0.023 A 
HETATM   35  C5  UNL     1      -1.630  52.196 -25.966  1.00  0.00     0.046 A 
HETATM   36 CL1  UNL     1      -3.048  52.575 -25.047  1.00  0.00    -0.083 Cl
HETATM   37  C6  UNL     1      -1.754  52.178 -27.360  1.00  0.00     0.025 A 
HETATM   38  C7  UNL     1      -0.654  51.871 -28.158  1.00  0.00     0.003 A 
HETATM   39  C8  UNL     1       0.572  51.580 -27.563  1.00  0.00     0.025 A 
HETATM   40  C9  UNL     1       0.700  51.596 -26.169  1.00  0.00     0.046 A 
HETATM   41 CL2  UNL     1       2.254  51.212 -25.510  1.00  0.00    -0.083 Cl
ENDBRANCH   5  34
TORSDOF 9
ENDMDL
MODEL 5
REMARK minimizedAffinity -9.8022337
REMARK CNNscore 0.435532689
REMARK CNNaffinity 7.04288435
REMARK  9 active torsions:
REMARK  status: ('A' for Active; 'I' for Inactive)
REMARK    1  A    between atoms: C3_5  and  C4_6 
REMARK    2  A    between atoms: C13_19  and  N3_20 
REMARK    3  A    between atoms: N3_20  and  C14_21 
REMARK    4  A    between atoms: C18_25  and  P1_26 
REMARK    5  A    between atoms: P1_26  and  O3_28 
REMARK    6  A    between atoms: P1_26  and  C19_29 
REMARK    7  A    between atoms: C19_29  and  P2_30 
REMARK    8  A    between atoms: P2_30  and  O5_32 
REMARK    9  A    between atoms: P2_30  and  O6_33 
ROOT
HETATM    1  C1  UNL     1       1.823  54.866 -22.023  1.00  0.00     0.161 C 
HETATM    2  N1  UNL     1       0.983  53.703 -22.240  1.00  0.00    -0.303 N 
HETATM    3  C2  UNL     1       0.548  53.394 -23.519  1.00  0.00     0.260 A 
HETATM    4  O1  UNL     1       0.834  54.058 -24.514  1.00  0.00    -0.267 OA
HETATM    5  C3  UNL     1      -0.320  52.177 -23.671  1.00  0.00     0.047 A 
HETATM    6  C10 UNL     1      -0.648  51.430 -22.606  1.00  0.00     0.034 A 
HETATM    7  C11 UNL     1      -0.157  51.807 -21.290  1.00  0.00     0.026 A 
HETATM    8  C12 UNL     1      -0.444  51.102 -20.146  1.00  0.00     0.121 A 
HETATM    9  N2  UNL     1       0.006  51.446 -18.925  1.00  0.00    -0.201 N 
ATOM     10  H2  UNL     1      -0.230  50.896 -18.100  1.00  0.00     0.183 HD
HETATM   11  C13 UNL     1       0.774  52.539 -18.835  1.00  0.00     0.684 A 
HETATM   12  N4  UNL     1       1.108  53.290 -19.897  1.00  0.00    -0.175 N 
ATOM     13  H4  UNL     1       1.696  54.116 -19.791  1.00  0.00     0.186 HD
HETATM   14  C21 UNL     1       0.641  52.919 -21.108  1.00  0.00     0.137 A 
ENDROOT
BRANCH  11  15
HETATM   15  N3  UNL     1       1.289  52.986 -17.621  1.00  0.00    -0.192 N 
HETATM   16  H9  UNL     1       1.019  53.949 -17.491  1.00  0.00     0.184 HD
BRANCH  15  17
HETATM   17  C14 UNL     1       2.053  52.394 -16.611  1.00  0.00     0.050 A 
HETATM   18  C15 UNL     1       3.428  52.586 -16.455  1.00  0.00     0.030 A 
HETATM   19  C16 UNL     1       4.136  51.959 -15.426  1.00  0.00     0.003 A 
HETATM   20  C17 UNL     1       3.477  51.124 -14.529  1.00  0.00     0.017 A 
HETATM   21  C18 UNL     1       2.102  50.910 -14.651  1.00  0.00     0.025 A 
HETATM   22  C20 UNL     1       1.407  51.548 -15.692  1.00  0.00     0.047 A 
BRANCH  21  23
HETATM   23  P1  UNL     1       1.261  49.861 -13.517  1.00  0.00     0.143 P 
HETATM   24  O2  UNL     1      -0.186  49.550 -13.795  1.00  0.00    -0.670 OA
BRANCH  23  25
HETATM   25  O3  UNL     1       1.376  50.616 -12.094  1.00  0.00    -0.345 OA
HETATM   26  H13 UNL     1       0.783  51.390 -12.018  1.00  0.00     0.218 HD
ENDBRANCH  23  25
BRANCH  23  27
HETATM   27  C19 UNL     1       2.168  48.340 -13.256  1.00  0.00     0.223 C 
BRANCH  27  28
HETATM   28  P2  UNL     1       1.728  46.918 -14.229  1.00  0.00     0.245 P 
HETATM   29  O4  UNL     1       0.998  45.840 -13.498  1.00  0.00    -0.653 OA
BRANCH  28  30
HETATM   30  O5  UNL     1       0.902  47.460 -15.488  1.00  0.00    -0.329 OA
HETATM   31  H16 UNL     1       0.535  46.717 -16.007  1.00  0.00     0.220 HD
ENDBRANCH  28  30
BRANCH  28  32
HETATM   32  O6  UNL     1       3.068  46.418 -14.952  1.00  0.00    -0.329 OA
HETATM   33  H17 UNL     1       3.738  47.122 -15.141  1.00  0.00     0.220 HD
ENDBRANCH  28  32
ENDBRANCH  27  28
ENDBRANCH  23  27
ENDBRANCH  21  23
ENDBRANCH  15  17
ENDBRANCH  11  15
BRANCH   5  34
HETATM   34  C4  UNL     1      -0.816  51.801 -25.010  1.00  0.00     0.023 A 
HETATM   35  C5  UNL     1      -2.185  51.887 -25.324  1.00  0.00     0.046 A 
HETATM   36 CL1  UNL     1      -3.359  52.400 -24.159  1.00  0.00    -0.083 Cl
HETATM   37  C6  UNL     1      -2.651  51.546 -26.599  1.00  0.00     0.025 A 
HETATM   38  C7  UNL     1      -1.761  51.116 -27.580  1.00  0.00     0.003 A 
HETATM   39  C8  UNL     1      -0.401  51.025 -27.287  1.00  0.00     0.025 A 
HETATM   40  C9  UNL     1       0.069  51.365 -26.013  1.00  0.00     0.046 A 
HETATM   41 CL2  UNL     1       1.770  51.213 -25.728  1.00  0.00    -0.083 Cl
ENDBRANCH   5  34
TORSDOF 9
ENDMDL
MODEL 6
REMARK minimizedAffinity -9.82025909
REMARK CNNscore 0.332004756
REMARK CNNaffinity 6.81386042
REMARK  9 active torsions:
REMARK  status: ('A' for Active; 'I' for Inactive)
REMARK    1  A    between atoms: C3_5  and  C4_6 
REMARK    2  A    between atoms: C13_19  and  N3_20 
REMARK    3  A    between atoms: N3_20  and  C14_21 
REMARK    4  A    between atoms: C18_25  and  P1_26 
REMARK    5  A    between atoms: P1_26  and  O3_28 
REMARK    6  A    between atoms: P1_26  and  C19_29 
REMARK    7  A    between atoms: C19_29  and  P2_30 
REMARK    8  A    between atoms: P2_30  and  O5_32 
REMARK    9  A    between atoms: P2_30  and  O6_33 
ROOT
HETATM    1  C1  UNL     1       1.812  54.862 -22.136  1.00  0.00     0.161 C 
HETATM    2  N1  UNL     1       0.959  53.704 -22.334  1.00  0.00    -0.303 N 
HETATM    3  C2  UNL     1       0.518  53.382 -23.609  1.00  0.00     0.260 A 
HETATM    4  O1  UNL     1       0.808  54.029 -24.614  1.00  0.00    -0.267 OA
HETATM    5  C3  UNL     1      -0.364  52.172 -23.741  1.00  0.00     0.047 A 
HETATM    6  C10 UNL     1      -0.697  51.444 -22.665  1.00  0.00     0.034 A 
HETATM    7  C11 UNL     1      -0.200  51.835 -21.356  1.00  0.00     0.026 A 
HETATM    8  C12 UNL     1      -0.491  51.149 -20.201  1.00  0.00     0.121 A 
HETATM    9  N2  UNL     1      -0.035  51.506 -18.986  1.00  0.00    -0.201 N 
ATOM     10  H2  UNL     1      -0.275  50.970 -18.152  1.00  0.00     0.183 HD
HETATM   11  C13 UNL     1       0.745  52.592 -18.913  1.00  0.00     0.684 A 
HETATM   12  N4  UNL     1       1.084  53.324 -19.986  1.00  0.00    -0.175 N 
ATOM     13  H4  UNL     1       1.682  54.146 -19.893  1.00  0.00     0.186 HD
HETATM   14  C21 UNL     1       0.610  52.941 -21.191  1.00  0.00     0.137 A 
ENDROOT
BRANCH  11  15
HETATM   15  N3  UNL     1       1.267  53.050 -17.706  1.00  0.00    -0.192 N 
HETATM   16  H9  UNL     1       1.014  54.021 -17.593  1.00  0.00     0.184 HD
BRANCH  15  17
HETATM   17  C14 UNL     1       2.019  52.463 -16.686  1.00  0.00     0.050 A 
HETATM   18  C15 UNL     1       3.390  52.667 -16.506  1.00  0.00     0.030 A 
HETATM   19  C16 UNL     1       4.086  52.043 -15.467  1.00  0.00     0.003 A 
HETATM   20  C17 UNL     1       3.421  51.200 -14.584  1.00  0.00     0.017 A 
HETATM   21  C18 UNL     1       2.050  50.973 -14.730  1.00  0.00     0.025 A 
HETATM   22  C20 UNL     1       1.366  51.608 -15.780  1.00  0.00     0.047 A 
BRANCH  21  23
HETATM   23  P1  UNL     1       1.200  49.913 -13.612  1.00  0.00     0.143 P 
HETATM   24  O2  UNL     1       1.851  48.599 -13.265  1.00  0.00    -0.670 OA
BRANCH  23  25
HETATM   25  O3  UNL     1      -0.225  49.628 -14.316  1.00  0.00    -0.345 OA
HETATM   26  H13 UNL     1      -0.167  49.004 -15.068  1.00  0.00     0.218 HD
ENDBRANCH  23  25
BRANCH  23  27
HETATM   27  C19 UNL     1       0.758  50.783 -12.112  1.00  0.00     0.223 C 
BRANCH  27  28
HETATM   28  P2  UNL     1      -0.222  52.261 -12.252  1.00  0.00     0.245 P 
HETATM   29  O4  UNL     1      -1.246  52.253 -13.338  1.00  0.00    -0.653 OA
BRANCH  28  30
HETATM   30  O5  UNL     1      -0.870  52.522 -10.812  1.00  0.00    -0.329 OA
HETATM   31  H16 UNL     1      -1.509  53.260 -10.848  1.00  0.00     0.220 HD
ENDBRANCH  28  30
BRANCH  28  32
HETATM   32  O6  UNL     1       0.804  53.491 -12.338  1.00  0.00    -0.329 OA
HETATM   33  H17 UNL     1       1.670  53.356 -11.878  1.00  0.00     0.220 HD
ENDBRANCH  28  32
ENDBRANCH  27  28
ENDBRANCH  23  27
ENDBRANCH  21  23
ENDBRANCH  15  17
ENDBRANCH  11  15
BRANCH   5  34
HETATM   34  C4  UNL     1      -0.866  51.782 -25.074  1.00  0.00     0.023 A 
HETATM   35  C5  UNL     1      -2.231  51.902 -25.394  1.00  0.00     0.046 A 
HETATM   36 CL1  UNL     1      -3.393  52.474 -24.245  1.00  0.00    -0.083 Cl
HETATM   37  C6  UNL     1      -2.703  51.548 -26.663  1.00  0.00     0.025 A 
HETATM   38  C7  UNL     1      -1.823  51.071 -27.632  1.00  0.00     0.003 A 
HETATM   39  C8  UNL     1      -0.467  50.946 -27.332  1.00  0.00     0.025 A 
HETATM   40  C9  UNL     1       0.009  51.299 -26.064  1.00  0.00     0.046 A 
HETATM   41 CL2  UNL     1       1.704  51.103 -25.770  1.00  0.00    -0.083 Cl
ENDBRANCH   5  34
TORSDOF 9
ENDMDL
MODEL 7
REMARK minimizedAffinity -9.74676514
REMARK CNNscore 0.304772913
REMARK CNNaffinity 6.95001602
REMARK  9 active torsions:
REMARK  status: ('A' for Active; 'I' for Inactive)
REMARK    1  A    between atoms: C3_5  and  C4_6 
REMARK    2  A    between atoms: C13_19  and  N3_20 
REMARK    3  A    between atoms: N3_20  and  C14_21 
REMARK    4  A    between atoms: C18_25  and  P1_26 
REMARK    5  A    between atoms: P1_26  and  O3_28 
REMARK    6  A    between atoms: P1_26  and  C19_29 
REMARK    7  A    between atoms: C19_29  and  P2_30 
REMARK    8  A    between atoms: P2_30  and  O5_32 
REMARK    9  A    between atoms: P2_30  and  O6_33 
ROOT
HETATM    1  C1  UNL     1       1.838  54.854 -22.272  1.00  0.00     0.161 C 
HETATM    2  N1  UNL     1       0.972  53.698 -22.416  1.00  0.00    -0.303 N 
HETATM    3  C2  UNL     1       0.477  53.357 -23.666  1.00  0.00     0.260 A 
HETATM    4  O1  UNL     1       0.730  53.986 -24.692  1.00  0.00    -0.267 OA
HETATM    5  C3  UNL     1      -0.415  52.151 -23.742  1.00  0.00     0.047 A 
HETATM    6  C10 UNL     1      -0.707  51.442 -22.641  1.00  0.00     0.034 A 
HETATM    7  C11 UNL     1      -0.155  51.852 -21.360  1.00  0.00     0.026 A 
HETATM    8  C12 UNL     1      -0.402  51.186 -20.183  1.00  0.00     0.121 A 
HETATM    9  N2  UNL     1       0.104  51.560 -18.994  1.00  0.00    -0.201 N 
ATOM     10  H2  UNL     1      -0.104  51.039 -18.142  1.00  0.00     0.183 HD
HETATM   11  C13 UNL     1       0.893  52.643 -18.971  1.00  0.00     0.684 A 
HETATM   12  N4  UNL     1       1.191  53.355 -20.069  1.00  0.00    -0.175 N 
ATOM     13  H4  UNL     1       1.796  54.175 -20.014  1.00  0.00     0.186 HD
HETATM   14  C21 UNL     1       0.667  52.955 -21.247  1.00  0.00     0.137 A 
ENDROOT
BRANCH  11  15
HETATM   15  N3  UNL     1       1.465  53.118 -17.794  1.00  0.00    -0.192 N 
HETATM   16  H9  UNL     1       1.528  54.124 -17.849  1.00  0.00     0.184 HD
BRANCH  15  17
HETATM   17  C14 UNL     1       1.934  52.511 -16.626  1.00  0.00     0.050 A 
HETATM   18  C15 UNL     1       3.285  52.292 -16.346  1.00  0.00     0.030 A 
HETATM   19  C16 UNL     1       3.689  51.672 -15.159  1.00  0.00     0.003 A 
HETATM   20  C17 UNL     1       2.743  51.259 -14.227  1.00  0.00     0.017 A 
HETATM   21  C18 UNL     1       1.383  51.464 -14.471  1.00  0.00     0.025 A 
HETATM   22  C20 UNL     1       0.996  52.087 -15.669  1.00  0.00     0.047 A 
BRANCH  21  23
HETATM   23  P1  UNL     1       0.181  50.950 -13.293  1.00  0.00     0.143 P 
HETATM   24  O2  UNL     1       0.673  50.520 -11.936  1.00  0.00    -0.670 OA
BRANCH  23  25
HETATM   25  O3  UNL     1      -0.582  49.713 -13.995  1.00  0.00    -0.345 OA
HETATM   26  H13 UNL     1      -0.054  48.890 -14.008  1.00  0.00     0.218 HD
ENDBRANCH  23  25
BRANCH  23  27
HETATM   27  C19 UNL     1      -1.104  52.182 -13.108  1.00  0.00     0.223 C 
BRANCH  27  28
HETATM   28  P2  UNL     1      -2.787  51.699 -13.414  1.00  0.00     0.245 P 
HETATM   29  O4  UNL     1      -3.317  50.621 -12.527  1.00  0.00    -0.653 OA
BRANCH  28  30
HETATM   30  O5  UNL     1      -3.670  53.031 -13.339  1.00  0.00    -0.329 OA
HETATM   31  H16 UNL     1      -4.623  52.819 -13.390  1.00  0.00     0.220 HD
ENDBRANCH  28  30
BRANCH  28  32
HETATM   32  O6  UNL     1      -2.897  51.363 -14.978  1.00  0.00    -0.329 OA
HETATM   33  H17 UNL     1      -2.272  51.859 -15.564  1.00  0.00     0.220 HD
ENDBRANCH  28  32
ENDBRANCH  27  28
ENDBRANCH  23  27
ENDBRANCH  21  23
ENDBRANCH  15  17
ENDBRANCH  11  15
BRANCH   5  34
HETATM   34  C4  UNL     1      -0.973  51.742 -25.047  1.00  0.00     0.023 A 
HETATM   35  C5  UNL     1      -0.141  51.228 -26.059  1.00  0.00     0.046 A 
HETATM   36 CL1  UNL     1       1.572  51.080 -25.846  1.00  0.00    -0.083 Cl
HETATM   37  C6  UNL     1      -0.673  50.825 -27.289  1.00  0.00     0.025 A 
HETATM   38  C7  UNL     1      -2.041  50.927 -27.528  1.00  0.00     0.003 A 
HETATM   39  C8  UNL     1      -2.880  51.434 -26.538  1.00  0.00     0.025 A 
HETATM   40  C9  UNL     1      -2.353  51.838 -25.306  1.00  0.00     0.046 A 
HETATM   41 CL2  UNL     1      -3.461  52.466 -24.134  1.00  0.00    -0.083 Cl
ENDBRANCH   5  34
TORSDOF 9
ENDMDL
MODEL 8
REMARK minimizedAffinity -8.98573685
REMARK CNNscore 0.255434513
REMARK CNNaffinity 6.70456553
REMARK  9 active torsions:
REMARK  status: ('A' for Active; 'I' for Inactive)
REMARK    1  A    between atoms: C3_5  and  C4_6 
REMARK    2  A    between atoms: C13_19  and  N3_20 
REMARK    3  A    between atoms: N3_20  and  C14_21 
REMARK    4  A    between atoms: C18_25  and  P1_26 
REMARK    5  A    between atoms: P1_26  and  O3_28 
REMARK    6  A    between atoms: P1_26  and  C19_29 
REMARK    7  A    between atoms: C19_29  and  P2_30 
REMARK    8  A    between atoms: P2_30  and  O5_32 
REMARK    9  A    between atoms: P2_30  and  O6_33 
ROOT
HETATM    1  C1  UNL     1       1.457  54.407 -21.386  1.00  0.00     0.161 C 
HETATM    2  N1  UNL     1       0.745  53.285 -21.970  1.00  0.00    -0.303 N 
HETATM    3  C2  UNL     1       0.599  53.201 -23.346  1.00  0.00     0.260 A 
HETATM    4  O1  UNL     1       1.045  54.037 -24.131  1.00  0.00    -0.267 OA
HETATM    5  C3  UNL     1      -0.151  52.015 -23.883  1.00  0.00     0.047 A 
HETATM    6  C10 UNL     1      -0.646  51.084 -23.055  1.00  0.00     0.034 A 
HETATM    7  C11 UNL     1      -0.457  51.229 -21.621  1.00  0.00     0.026 A 
HETATM    8  C12 UNL     1      -0.932  50.325 -20.700  1.00  0.00     0.121 A 
HETATM    9  N2  UNL     1      -0.762  50.455 -19.372  1.00  0.00    -0.201 N 
ATOM     10  H2  UNL     1      -1.130  49.761 -18.721  1.00  0.00     0.183 HD
HETATM   11  C13 UNL     1      -0.090  51.529 -18.936  1.00  0.00     0.684 A 
HETATM   12  N4  UNL     1       0.411  52.463 -19.759  1.00  0.00    -0.175 N 
ATOM     13  H4  UNL     1       0.919  53.268 -19.393  1.00  0.00     0.186 HD
HETATM   14  C21 UNL     1       0.223  52.305 -21.087  1.00  0.00     0.137 A 
ENDROOT
BRANCH  11  15
HETATM   15  N3  UNL     1       0.139  51.761 -17.583  1.00  0.00    -0.192 N 
HETATM   16  H9  UNL     1      -0.750  51.816 -17.109  1.00  0.00     0.184 HD
BRANCH  15  17
HETATM   17  C14 UNL     1       1.289  51.917 -16.803  1.00  0.00     0.050 A 
HETATM   18  C15 UNL     1       2.503  52.411 -17.288  1.00  0.00     0.030 A 
HETATM   19  C16 UNL     1       3.619  52.537 -16.456  1.00  0.00     0.003 A 
HETATM   20  C17 UNL     1       3.541  52.171 -15.117  1.00  0.00     0.017 A 
HETATM   21  C18 UNL     1       2.343  51.676 -14.595  1.00  0.00     0.025 A 
HETATM   22  C20 UNL     1       1.232  51.555 -15.446  1.00  0.00     0.047 A 
BRANCH  21  23
HETATM   23  P1  UNL     1       2.234  51.217 -12.900  1.00  0.00     0.143 P 
HETATM   24  O2  UNL     1       3.050  52.006 -11.910  1.00  0.00    -0.670 OA
BRANCH  23  25
HETATM   25  O3  UNL     1       2.704  49.673 -12.860  1.00  0.00    -0.345 OA
HETATM   26  H13 UNL     1       3.670  49.559 -12.963  1.00  0.00     0.218 HD
ENDBRANCH  23  25
BRANCH  23  27
HETATM   27  C19 UNL     1       0.529  51.148 -12.362  1.00  0.00     0.223 C 
BRANCH  27  28
HETATM   28  P2  UNL     1      -0.007  52.290 -11.107  1.00  0.00     0.245 P 
HETATM   29  O4  UNL     1      -0.042  53.725 -11.518  1.00  0.00    -0.653 OA
BRANCH  28  30
HETATM   30  O5  UNL     1      -1.431  51.773 -10.593  1.00  0.00    -0.329 OA
HETATM   31  H16 UNL     1      -1.832  52.418  -9.978  1.00  0.00     0.220 HD
ENDBRANCH  28  30
BRANCH  28  32
HETATM   32  O6  UNL     1       0.893  52.009  -9.810  1.00  0.00    -0.329 OA
HETATM   33  H17 UNL     1       1.219  51.080  -9.711  1.00  0.00     0.220 HD
ENDBRANCH  28  32
ENDBRANCH  27  28
ENDBRANCH  23  27
ENDBRANCH  21  23
ENDBRANCH  15  17
ENDBRANCH  11  15
BRANCH   5  34
HETATM   34  C4  UNL     1      -0.340  51.874 -25.341  1.00  0.00     0.023 A 
HETATM   35  C5  UNL     1       0.730  51.497 -26.174  1.00  0.00     0.046 A 
HETATM   36 CL1  UNL     1       2.320  51.213 -25.549  1.00  0.00    -0.083 Cl
HETATM   37  C6  UNL     1       0.546  51.348 -27.554  1.00  0.00     0.025 A 
HETATM   38  C7  UNL     1      -0.706  51.571 -28.123  1.00  0.00     0.003 A 
HETATM   39  C8  UNL     1      -1.776  51.946 -27.312  1.00  0.00     0.025 A 
HETATM   40  C9  UNL     1      -1.597  52.096 -25.933  1.00  0.00     0.046 A 
HETATM   41 CL2  UNL     1      -2.974  52.574 -25.000  1.00  0.00    -0.083 Cl
ENDBRANCH   5  34
TORSDOF 9
ENDMDL
MODEL 9
REMARK minimizedAffinity -9.47401428
REMARK CNNscore 0.247631118
REMARK CNNaffinity 6.78976488
REMARK  9 active torsions:
REMARK  status: ('A' for Active; 'I' for Inactive)
REMARK    1  A    between atoms: C3_5  and  C4_6 
REMARK    2  A    between atoms: C13_19  and  N3_20 
REMARK    3  A    between atoms: N3_20  and  C14_21 
REMARK    4  A    between atoms: C18_25  and  P1_26 
REMARK    5  A    between atoms: P1_26  and  O3_28 
REMARK    6  A    between atoms: P1_26  and  C19_29 
REMARK    7  A    between atoms: C19_29  and  P2_30 
REMARK    8  A    between atoms: P2_30  and  O5_32 
REMARK    9  A    between atoms: P2_30  and  O6_33 
ROOT
HETATM    1  C1  UNL     1      -1.120  49.761 -20.676  1.00  0.00     0.161 C 
HETATM    2  N1  UNL     1      -0.679  50.813 -21.575  1.00  0.00    -0.303 N 
HETATM    3  C2  UNL     1      -0.961  50.726 -22.930  1.00  0.00     0.260 A 
HETATM    4  O1  UNL     1      -1.578  49.792 -23.439  1.00  0.00    -0.267 OA
HETATM    5  C3  UNL     1      -0.474  51.849 -23.802  1.00  0.00     0.047 A 
HETATM    6  C10 UNL     1       0.198  52.884 -23.277  1.00  0.00     0.034 A 
HETATM    7  C11 UNL     1       0.460  52.916 -21.847  1.00  0.00     0.026 A 
HETATM    8  C12 UNL     1       1.141  53.935 -21.226  1.00  0.00     0.121 A 
HETATM    9  N2  UNL     1       1.388  53.970 -19.904  1.00  0.00    -0.201 N 
ATOM     10  H2  UNL     1       1.898  54.745 -19.481  1.00  0.00     0.183 HD
HETATM   11  C13 UNL     1       0.938  52.948 -19.164  1.00  0.00     0.684 A 
HETATM   12  N4  UNL     1       0.263  51.910 -19.682  1.00  0.00    -0.175 N 
ATOM     13  H4  UNL     1      -0.066  51.148 -19.088  1.00  0.00     0.186 HD
HETATM   14  C21 UNL     1       0.032  51.903 -21.012  1.00  0.00     0.137 A 
ENDROOT
BRANCH  11  15
HETATM   15  N3  UNL     1       1.142  52.883 -17.788  1.00  0.00    -0.192 N 
HETATM   16  H9  UNL     1       1.511  53.768 -17.474  1.00  0.00     0.184 HD
BRANCH  15  17
HETATM   17  C14 UNL     1       0.943  51.894 -16.821  1.00  0.00     0.050 A 
HETATM   18  C15 UNL     1       0.544  50.586 -17.109  1.00  0.00     0.030 A 
HETATM   19  C16 UNL     1       0.356  49.645 -16.092  1.00  0.00     0.003 A 
HETATM   20  C17 UNL     1       0.564  49.997 -14.763  1.00  0.00     0.017 A 
HETATM   21  C18 UNL     1       0.966  51.294 -14.436  1.00  0.00     0.025 A 
HETATM   22  C20 UNL     1       1.149  52.227 -15.471  1.00  0.00     0.047 A 
BRANCH  21  23
HETATM   23  P1  UNL     1       1.238  51.745 -12.758  1.00  0.00     0.143 P 
HETATM   24  O2  UNL     1       2.625  52.185 -12.369  1.00  0.00    -0.670 OA
BRANCH  23  25
HETATM   25  O3  UNL     1       0.843  50.429 -11.908  1.00  0.00    -0.345 OA
HETATM   26  H13 UNL     1       1.513  49.719 -11.962  1.00  0.00     0.218 HD
ENDBRANCH  23  25
BRANCH  23  27
HETATM   27  C19 UNL     1       0.043  52.964 -12.218  1.00  0.00     0.223 C 
BRANCH  27  28
HETATM   28  P2  UNL     1       0.467  54.010 -10.844  1.00  0.00     0.245 P 
HETATM   29  O4  UNL     1      -0.642  54.859 -10.317  1.00  0.00    -0.653 OA
BRANCH  28  30
HETATM   30  O5  UNL     1       1.088  53.059  -9.716  1.00  0.00    -0.329 OA
HETATM   31  H16 UNL     1       1.242  53.557  -8.889  1.00  0.00     0.220 HD
ENDBRANCH  28  30
BRANCH  28  32
HETATM   32  O6  UNL     1       1.769  54.839 -11.277  1.00  0.00    -0.329 OA
HETATM   33  H17 UNL     1       2.365  54.389 -11.926  1.00  0.00     0.220 HD
ENDBRANCH  28  32
ENDBRANCH  27  28
ENDBRANCH  23  27
ENDBRANCH  21  23
ENDBRANCH  15  17
ENDBRANCH  11  15
BRANCH   5  34
HETATM   34  C4  UNL     1      -0.743  51.809 -25.254  1.00  0.00     0.023 A 
HETATM   35  C5  UNL     1      -2.027  52.088 -25.758  1.00  0.00     0.046 A 
HETATM   36 CL1  UNL     1      -3.359  52.456 -24.713  1.00  0.00    -0.083 Cl
HETATM   37  C6  UNL     1      -2.277  52.067 -27.134  1.00  0.00     0.025 A 
HETATM   38  C7  UNL     1      -1.252  51.768 -28.029  1.00  0.00     0.003 A 
HETATM   39  C8  UNL     1       0.026  51.489 -27.547  1.00  0.00     0.025 A 
HETATM   40  C9  UNL     1       0.280  51.510 -26.171  1.00  0.00     0.046 A 
HETATM   41 CL2  UNL     1       1.891  51.141 -25.656  1.00  0.00    -0.083 Cl
ENDBRANCH   5  34
TORSDOF 9
ENDMDL
