MODEL 1
REMARK minimizedAffinity -8.22408199
REMARK  5 active torsions:
REMARK  status: ('A' for Active; 'I' for Inactive)
REMARK    1  A    between atoms: O1_1  and  C1_2 
REMARK    2  A    between atoms: C5_6  and  N1_7 
REMARK    3  A    between atoms: N1_7  and  C6_8 
REMARK    4  A    between atoms: C7_11  and  C8_12 
REMARK    5  A    between atoms: C9_13  and  C10_14 
ROOT
HETATM    1  C6  UNL     1      15.839  35.735  15.178  1.00  0.00     0.119 A 
HETATM    2  N2  UNL     1      14.547  35.712  15.548  1.00  0.00    -0.328 N 
ATOM      3  H2  UNL     1      13.800  35.872  14.872  1.00  0.00     0.169 HD
HETATM    4  C7  UNL     1      14.278  35.471  16.837  1.00  0.00     0.107 A 
HETATM    5  N3  UNL     1      15.191  35.249  17.791  1.00  0.00    -0.342 N 
ATOM      6  H3  UNL     1      14.918  35.077  18.759  1.00  0.00     0.167 HD
HETATM    7  C17 UNL     1      16.472  35.264  17.420  1.00  0.00     0.047 A 
HETATM    8  C18 UNL     1      17.444  35.033  18.387  1.00  0.00     0.030 A 
HETATM    9  C19 UNL     1      18.807  35.021  18.079  1.00  0.00     0.002 A 
HETATM   10  C20 UNL     1      19.219  35.236  16.771  1.00  0.00     0.001 A 
HETATM   11  C21 UNL     1      18.264  35.470  15.783  1.00  0.00     0.017 A 
HETATM   12  C22 UNL     1      16.880  35.497  16.098  1.00  0.00     0.035 A 
ENDROOT
BRANCH   4  13
HETATM   13  C8  UNL     1      12.879  35.430  17.262  1.00  0.00     0.049 C 
HETATM   14  C9  UNL     1      12.472  35.473  18.540  1.00  0.00     0.016 C 
BRANCH  14  15
HETATM   15  C10 UNL     1      11.053  35.423  18.921  1.00  0.00    -0.016 A 
HETATM   16  C11 UNL     1      10.155  36.302  18.287  1.00  0.00     0.052 A 
HETATM   17  C12 UNL     1       8.827  36.266  18.658  1.00  0.00     0.105 A 
HETATM   18  C13 UNL     1       8.368  35.400  19.621  1.00  0.00     0.106 A 
HETATM   19  O3  UNL     1       7.839  37.047  18.147  1.00  0.00    -0.323 OA
HETATM   20  C14 UNL     1       9.209  34.526  20.274  1.00  0.00     0.059 A 
HETATM   21  O2  UNL     1       7.031  35.526  19.833  1.00  0.00    -0.323 OA
HETATM   22  C15 UNL     1      10.566  34.543  19.920  1.00  0.00     0.024 A 
HETATM   23 BR1  UNL     1      11.710  33.326  20.833  1.00  0.00    -0.050 Br
HETATM   24  C16 UNL     1       6.701  36.574  18.897  1.00  0.00     0.352 A 
ENDBRANCH  14  15
ENDBRANCH   4  13
BRANCH   1  25
HETATM   25  N1  UNL     1      16.172  36.028  13.826  1.00  0.00    -0.342 N 
HETATM   26  H5  UNL     1      15.391  36.521  13.405  1.00  0.00     0.167 HD
BRANCH  25  27
HETATM   27  C5  UNL     1      16.825  35.196  12.886  1.00  0.00     0.036 A 
HETATM   28  C4  UNL     1      16.487  33.847  12.709  1.00  0.00     0.029 A 
HETATM   29  C3  UNL     1      17.195  33.033  11.818  1.00  0.00     0.005 A 
HETATM   30  C2  UNL     1      18.270  33.555  11.104  1.00  0.00     0.036 A 
HETATM   31  C1  UNL     1      18.639  34.878  11.301  1.00  0.00     0.067 A 
HETATM   32  C23 UNL     1      17.939  35.695  12.189  1.00  0.00     0.066 A 
BRANCH  31  33
HETATM   33  O1  UNL     1      19.712  35.348  10.598  1.00  0.00    -0.361 OA
HETATM   34  H1  UNL     1      19.857  36.277  10.833  1.00  0.00     0.217 HD
ENDBRANCH  31  33
ENDBRANCH  25  27
ENDBRANCH   1  25
TORSDOF 5
ENDMDL
MODEL 2
REMARK minimizedAffinity -8.11640549
REMARK  5 active torsions:
REMARK  status: ('A' for Active; 'I' for Inactive)
REMARK    1  A    between atoms: O1_1  and  C1_2 
REMARK    2  A    between atoms: C5_6  and  N1_7 
REMARK    3  A    between atoms: N1_7  and  C6_8 
REMARK    4  A    between atoms: C7_11  and  C8_12 
REMARK    5  A    between atoms: C9_13  and  C10_14 
ROOT
HETATM    1  C6  UNL     1       3.853  65.337  -4.359  1.00  0.00     0.119 A 
HETATM    2  N2  UNL     1       4.814  64.409  -4.214  1.00  0.00    -0.328 N 
ATOM      3  H2  UNL     1       4.858  63.818  -3.384  1.00  0.00     0.169 HD
HETATM    4  C7  UNL     1       5.711  64.290  -5.201  1.00  0.00     0.107 A 
HETATM    5  N3  UNL     1       5.730  65.019  -6.324  1.00  0.00    -0.342 N 
ATOM      6  H3  UNL     1       6.447  64.881  -7.035  1.00  0.00     0.167 HD
HETATM    7  C17 UNL     1       4.769  65.933  -6.469  1.00  0.00     0.047 A 
HETATM    8  C18 UNL     1       4.760  66.704  -7.627  1.00  0.00     0.030 A 
HETATM    9  C19 UNL     1       3.783  67.675  -7.861  1.00  0.00     0.002 A 
HETATM   10  C20 UNL     1       2.780  67.884  -6.924  1.00  0.00     0.001 A 
HETATM   11  C21 UNL     1       2.768  67.123  -5.755  1.00  0.00     0.017 A 
HETATM   12  C22 UNL     1       3.769  66.147  -5.510  1.00  0.00     0.035 A 
ENDROOT
BRANCH   4  13
HETATM   13  C8  UNL     1       6.761  63.279  -5.071  1.00  0.00     0.049 C 
HETATM   14  C9  UNL     1       7.057  62.368  -6.010  1.00  0.00     0.016 C 
BRANCH  14  15
HETATM   15  C10 UNL     1       8.119  61.366  -5.832  1.00  0.00    -0.016 A 
HETATM   16  C11 UNL     1       7.772  60.099  -5.331  1.00  0.00     0.052 A 
HETATM   17  C12 UNL     1       8.773  59.167  -5.148  1.00  0.00     0.105 A 
HETATM   18  C13 UNL     1      10.086  59.447  -5.443  1.00  0.00     0.106 A 
HETATM   19  O3  UNL     1       8.604  57.904  -4.673  1.00  0.00    -0.323 OA
HETATM   20  C14 UNL     1      10.475  60.676  -5.929  1.00  0.00     0.059 A 
HETATM   21  O2  UNL     1      10.907  58.393  -5.192  1.00  0.00    -0.323 OA
HETATM   22  C15 UNL     1       9.480  61.645  -6.121  1.00  0.00     0.024 A 
HETATM   23 BR1  UNL     1      10.040  63.334  -6.795  1.00  0.00    -0.050 Br
HETATM   24  C16 UNL     1       9.962  57.418  -4.702  1.00  0.00     0.352 A 
ENDBRANCH  14  15
ENDBRANCH   4  13
BRANCH   1  25
HETATM   25  N1  UNL     1       2.903  65.526  -3.316  1.00  0.00    -0.342 N 
HETATM   26  H5  UNL     1       3.395  65.503  -2.429  1.00  0.00     0.167 HD
BRANCH  25  27
HETATM   27  C5  UNL     1       1.606  64.969  -3.203  1.00  0.00     0.036 A 
HETATM   28  C4  UNL     1       0.451  65.757  -3.121  1.00  0.00     0.029 A 
HETATM   29  C3  UNL     1      -0.811  65.178  -2.944  1.00  0.00     0.005 A 
HETATM   30  C2  UNL     1      -0.930  63.796  -2.824  1.00  0.00     0.036 A 
HETATM   31  C1  UNL     1       0.211  63.008  -2.863  1.00  0.00     0.067 A 
HETATM   32  C23 UNL     1       1.472  63.580  -3.038  1.00  0.00     0.066 A 
BRANCH  31  33
HETATM   33  O1  UNL     1       0.055  61.659  -2.721  1.00  0.00    -0.361 OA
HETATM   34  H1  UNL     1       0.927  61.237  -2.765  1.00  0.00     0.217 HD
ENDBRANCH  31  33
ENDBRANCH  25  27
ENDBRANCH   1  25
TORSDOF 5
ENDMDL
MODEL 3
REMARK minimizedAffinity -8.0388689
REMARK  5 active torsions:
REMARK  status: ('A' for Active; 'I' for Inactive)
REMARK    1  A    between atoms: O1_1  and  C1_2 
REMARK    2  A    between atoms: C5_6  and  N1_7 
REMARK    3  A    between atoms: N1_7  and  C6_8 
REMARK    4  A    between atoms: C7_11  and  C8_12 
REMARK    5  A    between atoms: C9_13  and  C10_14 
ROOT
HETATM    1  C6  UNL     1      14.812  37.257  16.183  1.00  0.00     0.119 A 
HETATM    2  N2  UNL     1      13.786  37.139  17.043  1.00  0.00    -0.328 N 
ATOM      3  H2  UNL     1      13.015  37.807  17.041  1.00  0.00     0.169 HD
HETATM    4  C7  UNL     1      13.816  36.114  17.902  1.00  0.00     0.107 A 
HETATM    5  N3  UNL     1      14.783  35.191  17.976  1.00  0.00    -0.342 N 
ATOM      6  H3  UNL     1      14.747  34.435  18.660  1.00  0.00     0.167 HD
HETATM    7  C17 UNL     1      15.796  35.304  17.114  1.00  0.00     0.047 A 
HETATM    8  C18 UNL     1      16.815  34.359  17.163  1.00  0.00     0.030 A 
HETATM    9  C19 UNL     1      17.904  34.400  16.290  1.00  0.00     0.002 A 
HETATM   10  C20 UNL     1      17.984  35.404  15.334  1.00  0.00     0.001 A 
HETATM   11  C21 UNL     1      16.975  36.363  15.265  1.00  0.00     0.017 A 
HETATM   12  C22 UNL     1      15.874  36.331  16.162  1.00  0.00     0.035 A 
ENDROOT
BRANCH   4  13
HETATM   13  C8  UNL     1      12.705  35.959  18.842  1.00  0.00     0.049 C 
HETATM   14  C9  UNL     1      11.764  35.006  18.754  1.00  0.00     0.016 C 
BRANCH  14  15
HETATM   15  C10 UNL     1      10.661  34.892  19.720  1.00  0.00    -0.016 A 
HETATM   16  C11 UNL     1      10.922  34.310  20.974  1.00  0.00     0.052 A 
HETATM   17  C12 UNL     1       9.882  34.188  21.872  1.00  0.00     0.105 A 
HETATM   18  C13 UNL     1       8.612  34.620  21.572  1.00  0.00     0.106 A 
HETATM   19  O3  UNL     1       9.967  33.649  23.117  1.00  0.00    -0.323 OA
HETATM   20  C14 UNL     1       8.307  35.190  20.355  1.00  0.00     0.059 A 
HETATM   21  O2  UNL     1       7.740  34.409  22.593  1.00  0.00    -0.323 OA
HETATM   22  C15 UNL     1       9.344  35.323  19.421  1.00  0.00     0.024 A 
HETATM   23 BR1  UNL     1       8.900  36.115  17.748  1.00  0.00    -0.050 Br
HETATM   24  C16 UNL     1       8.605  33.791  23.570  1.00  0.00     0.352 A 
ENDBRANCH  14  15
ENDBRANCH   4  13
BRANCH   1  25
HETATM   25  N1  UNL     1      14.842  38.356  15.279  1.00  0.00    -0.342 N 
HETATM   26  H5  UNL     1      14.919  37.991  14.335  1.00  0.00     0.167 HD
BRANCH  25  27
HETATM   27  C5  UNL     1      15.536  39.583  15.417  1.00  0.00     0.036 A 
HETATM   28  C4  UNL     1      15.464  40.364  16.578  1.00  0.00     0.029 A 
HETATM   29  C3  UNL     1      16.109  41.604  16.658  1.00  0.00     0.005 A 
HETATM   30  C2  UNL     1      16.819  42.089  15.565  1.00  0.00     0.036 A 
HETATM   31  C1  UNL     1      16.863  41.343  14.396  1.00  0.00     0.067 A 
HETATM   32  C23 UNL     1      16.221  40.107  14.308  1.00  0.00     0.066 A 
BRANCH  31  33
HETATM   33  O1  UNL     1      17.553  41.863  13.338  1.00  0.00    -0.361 OA
HETATM   34  H1  UNL     1      17.499  41.243  12.594  1.00  0.00     0.217 HD
ENDBRANCH  31  33
ENDBRANCH  25  27
ENDBRANCH   1  25
TORSDOF 5
ENDMDL
MODEL 4
REMARK minimizedAffinity -8.02551365
REMARK  5 active torsions:
REMARK  status: ('A' for Active; 'I' for Inactive)
REMARK    1  A    between atoms: O1_1  and  C1_2 
REMARK    2  A    between atoms: C5_6  and  N1_7 
REMARK    3  A    between atoms: N1_7  and  C6_8 
REMARK    4  A    between atoms: C7_11  and  C8_12 
REMARK    5  A    between atoms: C9_13  and  C10_14 
ROOT
HETATM    1  C6  UNL     1      16.510  36.829  15.100  1.00  0.00     0.119 A 
HETATM    2  N2  UNL     1      15.483  36.263  15.757  1.00  0.00    -0.328 N 
ATOM      3  H2  UNL     1      15.427  35.252  15.882  1.00  0.00     0.169 HD
HETATM    4  C7  UNL     1      14.537  37.077  16.241  1.00  0.00     0.107 A 
HETATM    5  N3  UNL     1      14.528  38.411  16.127  1.00  0.00    -0.342 N 
ATOM      6  H3  UNL     1      13.772  38.973  16.516  1.00  0.00     0.167 HD
HETATM    7  C17 UNL     1      15.555  38.971  15.483  1.00  0.00     0.047 A 
HETATM    8  C18 UNL     1      15.577  40.355  15.351  1.00  0.00     0.030 A 
HETATM    9  C19 UNL     1      16.619  41.019  14.700  1.00  0.00     0.002 A 
HETATM   10  C20 UNL     1      17.676  40.291  14.170  1.00  0.00     0.001 A 
HETATM   11  C21 UNL     1      17.676  38.902  14.290  1.00  0.00     0.017 A 
HETATM   12  C22 UNL     1      16.610  38.225  14.938  1.00  0.00     0.035 A 
ENDROOT
BRANCH   4  13
HETATM   13  C8  UNL     1      13.414  36.486  16.969  1.00  0.00     0.049 C 
HETATM   14  C9  UNL     1      13.430  36.188  18.277  1.00  0.00     0.016 C 
BRANCH  14  15
HETATM   15  C10 UNL     1      12.277  35.588  18.966  1.00  0.00    -0.016 A 
HETATM   16  C11 UNL     1      10.984  35.894  18.504  1.00  0.00     0.052 A 
HETATM   17  C12 UNL     1       9.904  35.344  19.163  1.00  0.00     0.105 A 
HETATM   18  C13 UNL     1      10.062  34.514  20.246  1.00  0.00     0.106 A 
HETATM   19  O3  UNL     1       8.596  35.542  18.845  1.00  0.00    -0.323 OA
HETATM   20  C14 UNL     1      11.308  34.191  20.739  1.00  0.00     0.059 A 
HETATM   21  O2  UNL     1       8.872  34.082  20.744  1.00  0.00    -0.323 OA
HETATM   22  C15 UNL     1      12.424  34.738  20.092  1.00  0.00     0.024 A 
HETATM   23 BR1  UNL     1      14.134  34.278  20.788  1.00  0.00    -0.050 Br
HETATM   24  C16 UNL     1       7.946  34.739  19.852  1.00  0.00     0.352 A 
ENDBRANCH  14  15
ENDBRANCH   4  13
BRANCH   1  25
HETATM   25  N1  UNL     1      17.518  35.998  14.534  1.00  0.00    -0.342 N 
HETATM   26  H5  UNL     1      18.301  36.584  14.267  1.00  0.00     0.167 HD
BRANCH  25  27
HETATM   27  C5  UNL     1      17.355  34.913  13.639  1.00  0.00     0.036 A 
HETATM   28  C4  UNL     1      16.262  34.809  12.769  1.00  0.00     0.029 A 
HETATM   29  C3  UNL     1      16.096  33.692  11.943  1.00  0.00     0.005 A 
HETATM   30  C2  UNL     1      17.015  32.648  11.993  1.00  0.00     0.036 A 
HETATM   31  C1  UNL     1      18.080  32.721  12.880  1.00  0.00     0.067 A 
HETATM   32  C23 UNL     1      18.250  33.832  13.708  1.00  0.00     0.066 A 
BRANCH  31  33
HETATM   33  O1  UNL     1      18.949  31.668  12.915  1.00  0.00    -0.361 OA
HETATM   34  H1  UNL     1      19.636  31.851  13.575  1.00  0.00     0.217 HD
ENDBRANCH  31  33
ENDBRANCH  25  27
ENDBRANCH   1  25
TORSDOF 5
ENDMDL
MODEL 5
REMARK minimizedAffinity -8.02437973
REMARK  5 active torsions:
REMARK  status: ('A' for Active; 'I' for Inactive)
REMARK    1  A    between atoms: O1_1  and  C1_2 
REMARK    2  A    between atoms: C5_6  and  N1_7 
REMARK    3  A    between atoms: N1_7  and  C6_8 
REMARK    4  A    between atoms: C7_11  and  C8_12 
REMARK    5  A    between atoms: C9_13  and  C10_14 
ROOT
HETATM    1  C6  UNL     1      17.119  49.017   5.703  1.00  0.00     0.119 A 
HETATM    2  N2  UNL     1      16.795  50.231   5.229  1.00  0.00    -0.328 N 
ATOM      3  H2  UNL     1      15.981  50.366   4.630  1.00  0.00     0.169 HD
HETATM    4  C7  UNL     1      17.581  51.259   5.574  1.00  0.00     0.107 A 
HETATM    5  N3  UNL     1      18.665  51.178   6.355  1.00  0.00    -0.342 N 
ATOM      6  H3  UNL     1      19.225  52.001   6.575  1.00  0.00     0.167 HD
HETATM    7  C17 UNL     1      18.980  49.971   6.832  1.00  0.00     0.047 A 
HETATM    8  C18 UNL     1      20.099  49.855   7.649  1.00  0.00     0.030 A 
HETATM    9  C19 UNL     1      20.491  48.631   8.197  1.00  0.00     0.002 A 
HETATM   10  C20 UNL     1      19.747  47.489   7.934  1.00  0.00     0.001 A 
HETATM   11  C21 UNL     1      18.620  47.580   7.117  1.00  0.00     0.017 A 
HETATM   12  C22 UNL     1      18.230  48.821   6.548  1.00  0.00     0.035 A 
ENDROOT
BRANCH   4  13
HETATM   13  C8  UNL     1      17.242  52.593   5.079  1.00  0.00     0.049 C 
HETATM   14  C9  UNL     1      16.033  53.163   5.200  1.00  0.00     0.016 C 
BRANCH  14  15
HETATM   15  C10 UNL     1      15.737  54.507   4.681  1.00  0.00    -0.016 A 
HETATM   16  C11 UNL     1      14.395  54.925   4.621  1.00  0.00     0.052 A 
HETATM   17  C12 UNL     1      14.118  56.178   4.117  1.00  0.00     0.105 A 
HETATM   18  C13 UNL     1      15.114  57.019   3.679  1.00  0.00     0.106 A 
HETATM   19  O3  UNL     1      12.881  56.728   3.990  1.00  0.00    -0.323 OA
HETATM   20  C14 UNL     1      16.442  56.651   3.711  1.00  0.00     0.059 A 
HETATM   21  O2  UNL     1      14.627  58.204   3.224  1.00  0.00    -0.323 OA
HETATM   22  C15 UNL     1      16.752  55.380   4.215  1.00  0.00     0.024 A 
HETATM   23 BR1  UNL     1      18.592  54.894   4.252  1.00  0.00    -0.050 Br
HETATM   24  C16 UNL     1      13.209  58.013   3.423  1.00  0.00     0.352 A 
ENDBRANCH  14  15
ENDBRANCH   4  13
BRANCH   1  25
HETATM   25  N1  UNL     1      16.335  47.889   5.328  1.00  0.00    -0.342 N 
HETATM   26  H5  UNL     1      16.238  47.285   6.137  1.00  0.00     0.167 HD
BRANCH  25  27
HETATM   27  C5  UNL     1      16.398  47.141   4.129  1.00  0.00     0.036 A 
HETATM   28  C4  UNL     1      17.524  47.143   3.295  1.00  0.00     0.029 A 
HETATM   29  C3  UNL     1      17.530  46.444   2.083  1.00  0.00     0.005 A 
HETATM   30  C2  UNL     1      16.396  45.747   1.677  1.00  0.00     0.036 A 
HETATM   31  C1  UNL     1      15.261  45.771   2.474  1.00  0.00     0.067 A 
HETATM   32  C23 UNL     1      15.247  46.468   3.683  1.00  0.00     0.066 A 
BRANCH  31  33
HETATM   33  O1  UNL     1      14.161  45.093   2.031  1.00  0.00    -0.361 OA
HETATM   34  H1  UNL     1      13.448  45.196   2.680  1.00  0.00     0.217 HD
ENDBRANCH  31  33
ENDBRANCH  25  27
ENDBRANCH   1  25
TORSDOF 5
ENDMDL
MODEL 6
REMARK minimizedAffinity -7.92299604
REMARK  5 active torsions:
REMARK  status: ('A' for Active; 'I' for Inactive)
REMARK    1  A    between atoms: O1_1  and  C1_2 
REMARK    2  A    between atoms: C5_6  and  N1_7 
REMARK    3  A    between atoms: N1_7  and  C6_8 
REMARK    4  A    between atoms: C7_11  and  C8_12 
REMARK    5  A    between atoms: C9_13  and  C10_14 
ROOT
HETATM    1  C6  UNL     1      13.268  36.117  18.133  1.00  0.00     0.119 A 
HETATM    2  N2  UNL     1      13.711  37.273  17.611  1.00  0.00    -0.328 N 
ATOM      3  H2  UNL     1      13.218  37.730  16.844  1.00  0.00     0.169 HD
HETATM    4  C7  UNL     1      14.823  37.801  18.136  1.00  0.00     0.107 A 
HETATM    5  N3  UNL     1      15.532  37.274  19.142  1.00  0.00    -0.342 N 
ATOM      6  H3  UNL     1      16.376  37.726  19.493  1.00  0.00     0.167 HD
HETATM    7  C17 UNL     1      15.084  36.130  19.665  1.00  0.00     0.047 A 
HETATM    8  C18 UNL     1      15.797  35.559  20.714  1.00  0.00     0.030 A 
HETATM    9  C19 UNL     1      15.390  34.370  21.323  1.00  0.00     0.002 A 
HETATM   10  C20 UNL     1      14.239  33.730  20.886  1.00  0.00     0.001 A 
HETATM   11  C21 UNL     1      13.507  34.283  19.836  1.00  0.00     0.017 A 
HETATM   12  C22 UNL     1      13.928  35.484  19.206  1.00  0.00     0.035 A 
ENDROOT
BRANCH   4  13
HETATM   13  C8  UNL     1      15.319  39.065  17.592  1.00  0.00     0.049 C 
HETATM   14  C9  UNL     1      15.711  39.242  16.320  1.00  0.00     0.016 C 
BRANCH  14  15
HETATM   15  C10 UNL     1      16.209  40.532  15.819  1.00  0.00    -0.016 A 
HETATM   16  C11 UNL     1      16.197  41.640  16.684  1.00  0.00     0.052 A 
HETATM   17  C12 UNL     1      16.648  42.853  16.206  1.00  0.00     0.105 A 
HETATM   18  C13 UNL     1      17.104  42.999  14.917  1.00  0.00     0.106 A 
HETATM   19  O3  UNL     1      16.699  44.015  16.910  1.00  0.00    -0.323 OA
HETATM   20  C14 UNL     1      17.128  41.944  14.031  1.00  0.00     0.059 A 
HETATM   21  O2  UNL     1      17.502  44.271  14.652  1.00  0.00    -0.323 OA
HETATM   22  C15 UNL     1      16.672  40.700  14.489  1.00  0.00     0.024 A 
HETATM   23 BR1  UNL     1      16.716  39.257  13.249  1.00  0.00    -0.050 Br
HETATM   24  C16 UNL     1      17.242  44.912  15.919  1.00  0.00     0.352 A 
ENDBRANCH  14  15
ENDBRANCH   4  13
BRANCH   1  25
HETATM   25  N1  UNL     1      12.112  35.498  17.578  1.00  0.00    -0.342 N 
HETATM   26  H5  UNL     1      12.158  35.586  16.568  1.00  0.00     0.167 HD
BRANCH  25  27
HETATM   27  C5  UNL     1      10.777  35.564  18.042  1.00  0.00     0.036 A 
HETATM   28  C4  UNL     1       9.753  36.186  17.314  1.00  0.00     0.029 A 
HETATM   29  C3  UNL     1       8.457  36.292  17.830  1.00  0.00     0.005 A 
HETATM   30  C2  UNL     1       8.171  35.793  19.098  1.00  0.00     0.036 A 
HETATM   31  C1  UNL     1       9.185  35.212  19.845  1.00  0.00     0.067 A 
HETATM   32  C23 UNL     1      10.481  35.105  19.337  1.00  0.00     0.066 A 
BRANCH  31  33
HETATM   33  O1  UNL     1       8.871  34.754  21.093  1.00  0.00    -0.361 OA
HETATM   34  H1  UNL     1       9.667  34.378  21.498  1.00  0.00     0.217 HD
ENDBRANCH  31  33
ENDBRANCH  25  27
ENDBRANCH   1  25
TORSDOF 5
ENDMDL
MODEL 7
REMARK minimizedAffinity -7.87844563
REMARK  5 active torsions:
REMARK  status: ('A' for Active; 'I' for Inactive)
REMARK    1  A    between atoms: O1_1  and  C1_2 
REMARK    2  A    between atoms: C5_6  and  N1_7 
REMARK    3  A    between atoms: N1_7  and  C6_8 
REMARK    4  A    between atoms: C7_11  and  C8_12 
REMARK    5  A    between atoms: C9_13  and  C10_14 
ROOT
HETATM    1  C6  UNL     1      13.680  56.776   3.962  1.00  0.00     0.119 A 
HETATM    2  N2  UNL     1      13.540  57.636   4.985  1.00  0.00    -0.328 N 
ATOM      3  H2  UNL     1      13.626  57.326   5.953  1.00  0.00     0.169 HD
HETATM    4  C7  UNL     1      13.285  58.916   4.686  1.00  0.00     0.107 A 
HETATM    5  N3  UNL     1      13.159  59.412   3.449  1.00  0.00    -0.342 N 
ATOM      6  H3  UNL     1      12.958  60.400   3.290  1.00  0.00     0.167 HD
HETATM    7  C17 UNL     1      13.307  58.558   2.434  1.00  0.00     0.047 A 
HETATM    8  C18 UNL     1      13.185  59.044   1.137  1.00  0.00     0.030 A 
HETATM    9  C19 UNL     1      13.336  58.218   0.020  1.00  0.00     0.002 A 
HETATM   10  C20 UNL     1      13.624  56.871   0.193  1.00  0.00     0.001 A 
HETATM   11  C21 UNL     1      13.752  56.360   1.484  1.00  0.00     0.017 A 
HETATM   12  C22 UNL     1      13.583  57.196   2.620  1.00  0.00     0.035 A 
ENDROOT
BRANCH   4  13
HETATM   13  C8  UNL     1      13.140  59.873   5.782  1.00  0.00     0.049 C 
HETATM   14  C9  UNL     1      12.087  60.690   5.942  1.00  0.00     0.016 C 
BRANCH  14  15
HETATM   15  C10 UNL     1      11.987  61.641   7.059  1.00  0.00    -0.016 A 
HETATM   16  C11 UNL     1      12.518  62.933   6.892  1.00  0.00     0.052 A 
HETATM   17  C12 UNL     1      12.439  63.818   7.947  1.00  0.00     0.105 A 
HETATM   18  C13 UNL     1      11.858  63.469   9.143  1.00  0.00     0.106 A 
HETATM   19  O3  UNL     1      12.904  65.096   7.948  1.00  0.00    -0.323 OA
HETATM   20  C14 UNL     1      11.330  62.214   9.356  1.00  0.00     0.059 A 
HETATM   21  O2  UNL     1      11.883  64.486  10.045  1.00  0.00    -0.323 OA
HETATM   22  C15 UNL     1      11.400  61.292   8.302  1.00  0.00     0.024 A 
HETATM   23 BR1  UNL     1      10.664  59.566   8.617  1.00  0.00    -0.050 Br
HETATM   24  C16 UNL     1      12.549  65.515   9.282  1.00  0.00     0.352 A 
ENDBRANCH  14  15
ENDBRANCH   4  13
BRANCH   1  25
HETATM   25  N1  UNL     1      13.911  55.398   4.236  1.00  0.00    -0.342 N 
HETATM   26  H5  UNL     1      13.171  55.066   4.845  1.00  0.00     0.167 HD
BRANCH  25  27
HETATM   27  C5  UNL     1      15.140  54.757   4.519  1.00  0.00     0.036 A 
HETATM   28  C4  UNL     1      16.380  55.319   4.182  1.00  0.00     0.029 A 
HETATM   29  C3  UNL     1      17.575  54.630   4.417  1.00  0.00     0.005 A 
HETATM   30  C2  UNL     1      17.545  53.356   4.974  1.00  0.00     0.036 A 
HETATM   31  C1  UNL     1      16.322  52.772   5.274  1.00  0.00     0.067 A 
HETATM   32  C23 UNL     1      15.126  53.453   5.041  1.00  0.00     0.066 A 
BRANCH  31  33
HETATM   33  O1  UNL     1      16.333  51.512   5.800  1.00  0.00    -0.361 OA
HETATM   34  H1  UNL     1      15.418  51.231   5.957  1.00  0.00     0.217 HD
ENDBRANCH  31  33
ENDBRANCH  25  27
ENDBRANCH   1  25
TORSDOF 5
ENDMDL
MODEL 8
REMARK minimizedAffinity -7.82149315
REMARK  5 active torsions:
REMARK  status: ('A' for Active; 'I' for Inactive)
REMARK    1  A    between atoms: O1_1  and  C1_2 
REMARK    2  A    between atoms: C5_6  and  N1_7 
REMARK    3  A    between atoms: N1_7  and  C6_8 
REMARK    4  A    between atoms: C7_11  and  C8_12 
REMARK    5  A    between atoms: C9_13  and  C10_14 
ROOT
HETATM    1  C6  UNL     1      18.088  50.643   5.710  1.00  0.00     0.119 A 
HETATM    2  N2  UNL     1      17.308  51.512   5.046  1.00  0.00    -0.328 N 
ATOM      3  H2  UNL     1      16.783  51.228   4.219  1.00  0.00     0.169 HD
HETATM    4  C7  UNL     1      17.246  52.766   5.512  1.00  0.00     0.107 A 
HETATM    5  N3  UNL     1      17.896  53.227   6.588  1.00  0.00    -0.342 N 
ATOM      6  H3  UNL     1      17.809  54.198   6.887  1.00  0.00     0.167 HD
HETATM    7  C17 UNL     1      18.663  52.358   7.250  1.00  0.00     0.047 A 
HETATM    8  C18 UNL     1      19.349  52.806   8.374  1.00  0.00     0.030 A 
HETATM    9  C19 UNL     1      20.164  51.959   9.129  1.00  0.00     0.002 A 
HETATM   10  C20 UNL     1      20.298  50.626   8.765  1.00  0.00     0.001 A 
HETATM   11  C21 UNL     1      19.620  50.154   7.642  1.00  0.00     0.017 A 
HETATM   12  C22 UNL     1      18.803  51.017   6.865  1.00  0.00     0.035 A 
ENDROOT
BRANCH   4  13
HETATM   13  C8  UNL     1      16.394  53.729   4.812  1.00  0.00     0.049 C 
HETATM   14  C9  UNL     1      16.155  54.979   5.237  1.00  0.00     0.016 C 
BRANCH  14  15
HETATM   15  C10 UNL     1      15.287  55.911   4.502  1.00  0.00    -0.016 A 
HETATM   16  C11 UNL     1      15.009  55.647   3.149  1.00  0.00     0.052 A 
HETATM   17  C12 UNL     1      14.209  56.532   2.457  1.00  0.00     0.105 A 
HETATM   18  C13 UNL     1      13.682  57.652   3.055  1.00  0.00     0.106 A 
HETATM   19  O3  UNL     1      13.850  56.423   1.150  1.00  0.00    -0.323 OA
HETATM   20  C14 UNL     1      13.932  57.956   4.376  1.00  0.00     0.059 A 
HETATM   21  O2  UNL     1      12.923  58.386   2.198  1.00  0.00    -0.323 OA
HETATM   22  C15 UNL     1      14.746  57.076   5.103  1.00  0.00     0.024 A 
HETATM   23 BR1  UNL     1      15.075  57.514   6.925  1.00  0.00    -0.050 Br
HETATM   24  C16 UNL     1      13.035  57.602   0.991  1.00  0.00     0.352 A 
ENDBRANCH  14  15
ENDBRANCH   4  13
BRANCH   1  25
HETATM   25  N1  UNL     1      18.216  49.310   5.225  1.00  0.00    -0.342 N 
HETATM   26  H5  UNL     1      18.833  49.322   4.419  1.00  0.00     0.167 HD
BRANCH  25  27
HETATM   27  C5  UNL     1      17.206  48.329   5.089  1.00  0.00     0.036 A 
HETATM   28  C4  UNL     1      16.531  48.101   3.882  1.00  0.00     0.029 A 
HETATM   29  C3  UNL     1      15.492  47.168   3.796  1.00  0.00     0.005 A 
HETATM   30  C2  UNL     1      15.097  46.463   4.929  1.00  0.00     0.036 A 
HETATM   31  C1  UNL     1      15.730  46.709   6.139  1.00  0.00     0.067 A 
HETATM   32  C23 UNL     1      16.766  47.639   6.232  1.00  0.00     0.066 A 
BRANCH  31  33
HETATM   33  O1  UNL     1      15.300  46.012   7.232  1.00  0.00    -0.361 OA
HETATM   34  H1  UNL     1      15.824  46.283   8.002  1.00  0.00     0.217 HD
ENDBRANCH  31  33
ENDBRANCH  25  27
ENDBRANCH   1  25
TORSDOF 5
ENDMDL
MODEL 9
REMARK minimizedAffinity -7.81081724
REMARK  5 active torsions:
REMARK  status: ('A' for Active; 'I' for Inactive)
REMARK    1  A    between atoms: O1_1  and  C1_2 
REMARK    2  A    between atoms: C5_6  and  N1_7 
REMARK    3  A    between atoms: N1_7  and  C6_8 
REMARK    4  A    between atoms: C7_11  and  C8_12 
REMARK    5  A    between atoms: C9_13  and  C10_14 
ROOT
HETATM    1  C6  UNL     1      15.735  37.959  14.841  1.00  0.00     0.119 A 
HETATM    2  N2  UNL     1      14.572  37.812  15.497  1.00  0.00    -0.328 N 
ATOM      3  H2  UNL     1      13.846  38.527  15.454  1.00  0.00     0.169 HD
HETATM    4  C7  UNL     1      14.402  36.692  16.210  1.00  0.00     0.107 A 
HETATM    5  N3  UNL     1      15.296  35.702  16.323  1.00  0.00    -0.342 N 
ATOM      6  H3  UNL     1      15.106  34.875  16.889  1.00  0.00     0.167 HD
HETATM    7  C17 UNL     1      16.447  35.846  15.663  1.00  0.00     0.047 A 
HETATM    8  C18 UNL     1      17.395  34.833  15.757  1.00  0.00     0.030 A 
HETATM    9  C19 UNL     1      18.620  34.902  15.089  1.00  0.00     0.002 A 
HETATM   10  C20 UNL     1      18.912  36.004  14.297  1.00  0.00     0.001 A 
HETATM   11  C21 UNL     1      17.977  37.032  14.186  1.00  0.00     0.017 A 
HETATM   12  C22 UNL     1      16.739  36.970  14.877  1.00  0.00     0.035 A 
ENDROOT
BRANCH   4  13
HETATM   13  C8  UNL     1      13.140  36.504  16.926  1.00  0.00     0.049 C 
HETATM   14  C9  UNL     1      12.901  35.511  17.796  1.00  0.00     0.016 C 
BRANCH  14  15
HETATM   15  C10 UNL     1      11.612  35.360  18.488  1.00  0.00    -0.016 A 
HETATM   16  C11 UNL     1      10.454  35.864  17.871  1.00  0.00     0.052 A 
HETATM   17  C12 UNL     1       9.249  35.737  18.530  1.00  0.00     0.105 A 
HETATM   18  C13 UNL     1       9.157  35.133  19.762  1.00  0.00     0.106 A 
HETATM   19  O3  UNL     1       8.044  36.171  18.073  1.00  0.00    -0.323 OA
HETATM   20  C14 UNL     1      10.265  34.630  20.409  1.00  0.00     0.059 A 
HETATM   21  O2  UNL     1       7.882  35.110  20.232  1.00  0.00    -0.323 OA
HETATM   22  C15 UNL     1      11.504  34.749  19.764  1.00  0.00     0.024 A 
HETATM   23 BR1  UNL     1      13.020  34.046  20.674  1.00  0.00    -0.050 Br
HETATM   24  C16 UNL     1       7.180  35.772  19.158  1.00  0.00     0.352 A 
ENDBRANCH  14  15
ENDBRANCH   4  13
BRANCH   1  25
HETATM   25  N1  UNL     1      15.974  39.153  14.104  1.00  0.00    -0.342 N 
HETATM   26  H5  UNL     1      16.469  38.909  13.252  1.00  0.00     0.167 HD
BRANCH  25  27
HETATM   27  C5  UNL     1      16.382  40.417  14.594  1.00  0.00     0.036 A 
HETATM   28  C4  UNL     1      15.991  40.902  15.850  1.00  0.00     0.029 A 
HETATM   29  C3  UNL     1      16.358  42.182  16.278  1.00  0.00     0.005 A 
HETATM   30  C2  UNL     1      17.106  43.007  15.444  1.00  0.00     0.036 A 
HETATM   31  C1  UNL     1      17.465  42.553  14.182  1.00  0.00     0.067 A 
HETATM   32  C23 UNL     1      17.101  41.278  13.748  1.00  0.00     0.066 A 
BRANCH  31  33
HETATM   33  O1  UNL     1      18.181  43.399  13.385  1.00  0.00    -0.361 OA
HETATM   34  H1  UNL     1      18.359  42.957  12.540  1.00  0.00     0.217 HD
ENDBRANCH  31  33
ENDBRANCH  25  27
ENDBRANCH   1  25
TORSDOF 5
ENDMDL
