MODEL 1
REMARK minimizedAffinity -9.7043066
REMARK  5 active torsions:
REMARK  status: ('A' for Active; 'I' for Inactive)
REMARK    1  A    between atoms: N1_2  and  S1_3 
REMARK    2  A    between atoms: S1_3  and  C2_6 
REMARK    3  A    between atoms: C9_13  and  C10_14 
REMARK    4  A    between atoms: C13_18  and  C14_19 
REMARK    5  A    between atoms: C14_19  and  N3_20 
ROOT
HETATM    1  C2  UNL     1      -6.321   3.281  12.368  1.00  0.00     0.080 A 
HETATM    2  C3  UNL     1      -6.300   1.938  11.935  1.00  0.00     0.027 A 
HETATM    3  C4  UNL     1      -5.105   1.357  11.505  1.00  0.00     0.032 A 
HETATM    4  C5  UNL     1      -3.970   2.144  11.532  1.00  0.00     0.046 A 
HETATM    5  C6  UNL     1      -3.980   3.473  11.970  1.00  0.00     0.008 A 
HETATM    6  C7  UNL     1      -5.156   4.062  12.402  1.00  0.00     0.040 A 
HETATM    7  C8  UNL     1      -2.595   3.952  11.858  1.00  0.00     0.047 A 
HETATM    8  C9  UNL     1      -2.190   5.187  12.189  1.00  0.00     0.048 C 
HETATM    9  C23 UNL     1      -1.780   2.805  11.306  1.00  0.00     0.257 A 
HETATM   10  O4  UNL     1      -0.598   2.756  11.028  1.00  0.00    -0.267 OA
HETATM   11  N4  UNL     1      -2.690   1.767  11.149  1.00  0.00    -0.322 N 
HETATM   12  H28 UNL     1      -2.416   0.864  10.795  1.00  0.00     0.169 HD
ENDROOT
BRANCH   8  13
HETATM   13  C10 UNL     1      -0.845   5.616  12.126  1.00  0.00     0.042 A 
HETATM   14  N2  UNL     1      -0.215   5.565  10.906  1.00  0.00    -0.359 N 
HETATM   15  C11 UNL     1       1.058   6.042  11.033  1.00  0.00     0.016 A 
HETATM   16  H9  UNL     1      -0.623   5.210  10.052  1.00  0.00     0.166 HD
HETATM   17  C12 UNL     1       1.252   6.421  12.346  1.00  0.00    -0.025 A 
HETATM   18  C22 UNL     1       2.048   6.145   9.929  1.00  0.00     0.057 C 
HETATM   19  C13 UNL     1       0.038   6.158  13.054  1.00  0.00     0.005 A 
HETATM   20  C19 UNL     1       2.555   6.963  12.831  1.00  0.00     0.041 C 
HETATM   21  C20 UNL     1       3.450   7.402  11.656  1.00  0.00     0.005 C 
HETATM   22  C21 UNL     1       3.455   6.372  10.512  1.00  0.00     0.006 C 
BRANCH  19  23
HETATM   23  C14 UNL     1      -0.216   6.405  14.514  1.00  0.00     0.314 C 
BRANCH  23  24
HETATM   24  N3  UNL     1      -0.505   7.829  14.762  1.00  0.00     0.096 N 
HETATM   25  C15 UNL     1      -1.958   8.076  14.854  1.00  0.00     0.299 C 
HETATM   26  C16 UNL     1      -2.469   8.182  16.300  1.00  0.00     0.198 C 
HETATM   27  O3  UNL     1      -1.845   9.237  17.043  1.00  0.00    -0.388 OA
HETATM   28  C17 UNL     1      -0.522   9.544  16.578  1.00  0.00     0.198 C 
HETATM   29  C18 UNL     1       0.188   8.325  15.973  1.00  0.00     0.299 C 
ENDBRANCH  23  24
ENDBRANCH  19  23
ENDBRANCH   8  13
BRANCH   1  30
HETATM   30  S1  UNL     1      -7.860   3.981  12.923  1.00  0.00     0.258 S 
HETATM   31  O1  UNL     1      -7.904   5.354  12.470  1.00  0.00    -0.201 OA
HETATM   32  O2  UNL     1      -8.916   3.040  12.627  1.00  0.00    -0.201 OA
BRANCH  30  33
HETATM   33  N1  UNL     1      -7.650   4.030  14.579  1.00  0.00    -0.320 N 
HETATM   34  C1  UNL     1      -7.416   5.286  15.268  1.00  0.00     0.159 C 
HETATM   35  H4  UNL     1      -7.970   3.213  15.092  1.00  0.00     0.171 HD
ENDBRANCH  30  33
ENDBRANCH   1  30
TORSDOF 5
ENDMDL
MODEL 2
REMARK minimizedAffinity -9.1760807
REMARK  5 active torsions:
REMARK  status: ('A' for Active; 'I' for Inactive)
REMARK    1  A    between atoms: N1_2  and  S1_3 
REMARK    2  A    between atoms: S1_3  and  C2_6 
REMARK    3  A    between atoms: C9_13  and  C10_14 
REMARK    4  A    between atoms: C13_18  and  C14_19 
REMARK    5  A    between atoms: C14_19  and  N3_20 
ROOT
HETATM    1  C2  UNL     1      -5.939   5.180  13.688  1.00  0.00     0.080 A 
HETATM    2  C3  UNL     1      -6.374   3.943  13.168  1.00  0.00     0.027 A 
HETATM    3  C4  UNL     1      -5.531   3.190  12.347  1.00  0.00     0.032 A 
HETATM    4  C5  UNL     1      -4.277   3.704  12.083  1.00  0.00     0.046 A 
HETATM    5  C6  UNL     1      -3.833   4.926  12.604  1.00  0.00     0.008 A 
HETATM    6  C7  UNL     1      -4.656   5.681  13.421  1.00  0.00     0.040 A 
HETATM    7  C8  UNL     1      -2.462   5.110  12.108  1.00  0.00     0.047 A 
HETATM    8  C9  UNL     1      -1.687   6.167  12.392  1.00  0.00     0.048 C 
HETATM    9  C23 UNL     1      -2.145   3.909  11.245  1.00  0.00     0.257 A 
HETATM   10  O4  UNL     1      -1.140   3.651  10.614  1.00  0.00    -0.267 OA
HETATM   11  N4  UNL     1      -3.291   3.124  11.297  1.00  0.00    -0.322 N 
HETATM   12  H28 UNL     1      -3.359   2.246  10.807  1.00  0.00     0.169 HD
ENDROOT
BRANCH   8  13
HETATM   13  C10 UNL     1      -0.353   6.304  11.951  1.00  0.00     0.042 A 
HETATM   14  N2  UNL     1      -0.129   6.353  10.596  1.00  0.00    -0.359 N 
HETATM   15  C11 UNL     1       1.206   6.515  10.363  1.00  0.00     0.016 A 
HETATM   16  H9  UNL     1      -0.839   6.261   9.883  1.00  0.00     0.166 HD
HETATM   17  C12 UNL     1       1.855   6.587  11.578  1.00  0.00    -0.025 A 
HETATM   18  C22 UNL     1       1.835   6.614   9.018  1.00  0.00     0.057 C 
HETATM   19  C13 UNL     1       0.867   6.459  12.603  1.00  0.00     0.005 A 
HETATM   20  C19 UNL     1       3.338   6.738  11.679  1.00  0.00     0.041 C 
HETATM   21  C20 UNL     1       3.945   7.191  10.337  1.00  0.00     0.005 C 
HETATM   22  C21 UNL     1       3.357   6.420   9.142  1.00  0.00     0.006 C 
BRANCH  19  23
HETATM   23  C14 UNL     1       1.109   6.472  14.085  1.00  0.00     0.314 C 
BRANCH  23  24
HETATM   24  N3  UNL     1       1.481   7.823  14.544  1.00  0.00     0.096 N 
HETATM   25  C15 UNL     1       0.288   8.664  14.767  1.00  0.00     0.299 C 
HETATM   26  C16 UNL     1      -0.123   8.762  16.245  1.00  0.00     0.198 C 
HETATM   27  O3  UNL     1       0.905   9.312  17.080  1.00  0.00    -0.388 OA
HETATM   28  C17 UNL     1       2.226   9.075  16.572  1.00  0.00     0.198 C 
HETATM   29  C18 UNL     1       2.323   7.775  15.761  1.00  0.00     0.299 C 
ENDBRANCH  23  24
ENDBRANCH  19  23
ENDBRANCH   8  13
BRANCH   1  30
HETATM   30  S1  UNL     1      -7.037   6.102  14.742  1.00  0.00     0.258 S 
HETATM   31  O1  UNL     1      -6.823   5.649  16.098  1.00  0.00    -0.201 OA
HETATM   32  O2  UNL     1      -6.949   7.497  14.374  1.00  0.00    -0.201 OA
BRANCH  30  33
HETATM   33  N1  UNL     1      -8.536   5.531  14.278  1.00  0.00    -0.320 N 
HETATM   34  C1  UNL     1      -9.320   6.217  13.267  1.00  0.00     0.159 C 
HETATM   35  H4  UNL     1      -8.737   4.563  14.516  1.00  0.00     0.171 HD
ENDBRANCH  30  33
ENDBRANCH   1  30
TORSDOF 5
ENDMDL
MODEL 3
REMARK minimizedAffinity -8.79935551
REMARK  5 active torsions:
REMARK  status: ('A' for Active; 'I' for Inactive)
REMARK    1  A    between atoms: N1_2  and  S1_3 
REMARK    2  A    between atoms: S1_3  and  C2_6 
REMARK    3  A    between atoms: C9_13  and  C10_14 
REMARK    4  A    between atoms: C13_18  and  C14_19 
REMARK    5  A    between atoms: C14_19  and  N3_20 
ROOT
HETATM    1  C2  UNL     1      -5.866   3.582  12.489  1.00  0.00     0.080 A 
HETATM    2  C3  UNL     1      -5.454   2.367  11.901  1.00  0.00     0.027 A 
HETATM    3  C4  UNL     1      -4.103   2.140  11.631  1.00  0.00     0.032 A 
HETATM    4  C5  UNL     1      -3.211   3.139  11.970  1.00  0.00     0.046 A 
HETATM    5  C6  UNL     1      -3.610   4.342  12.564  1.00  0.00     0.008 A 
HETATM    6  C7  UNL     1      -4.945   4.580  12.840  1.00  0.00     0.040 A 
HETATM    7  C8  UNL     1      -2.382   5.122  12.774  1.00  0.00     0.047 A 
HETATM    8  C9  UNL     1      -2.344   6.342  13.330  1.00  0.00     0.048 C 
HETATM    9  C23 UNL     1      -1.238   4.288  12.244  1.00  0.00     0.257 A 
HETATM   10  O4  UNL     1      -0.052   4.544  12.188  1.00  0.00    -0.267 OA
HETATM   11  N4  UNL     1      -1.834   3.118  11.789  1.00  0.00    -0.322 N 
HETATM   12  H28 UNL     1      -1.298   2.369  11.381  1.00  0.00     0.169 HD
ENDROOT
BRANCH   8  13
HETATM   13  C10 UNL     1      -1.151   7.058  13.574  1.00  0.00     0.042 A 
HETATM   14  N2  UNL     1      -0.551   6.902  14.800  1.00  0.00    -0.359 N 
HETATM   15  C11 UNL     1       0.596   7.641  14.841  1.00  0.00     0.016 A 
HETATM   16  H9  UNL     1      -0.912   6.343  15.560  1.00  0.00     0.166 HD
HETATM   17  C12 UNL     1       0.750   8.273  13.624  1.00  0.00    -0.025 A 
HETATM   18  C22 UNL     1       1.520   7.725  16.003  1.00  0.00     0.057 C 
HETATM   19  C13 UNL     1      -0.359   7.903  12.802  1.00  0.00     0.005 A 
HETATM   20  C19 UNL     1       1.897   9.188  13.344  1.00  0.00     0.041 C 
HETATM   21  C20 UNL     1       3.022   9.006  14.382  1.00  0.00     0.005 C 
HETATM   22  C21 UNL     1       2.479   8.916  15.819  1.00  0.00     0.006 C 
BRANCH  19  23
HETATM   23  C14 UNL     1      -0.618   8.355  11.393  1.00  0.00     0.314 C 
BRANCH  23  24
HETATM   24  N3  UNL     1       0.640   8.449  10.632  1.00  0.00     0.096 N 
HETATM   25  C15 UNL     1       1.488   7.259  10.844  1.00  0.00     0.299 C 
HETATM   26  C16 UNL     1       1.397   6.233   9.702  1.00  0.00     0.198 C 
HETATM   27  O3  UNL     1       1.785   6.770   8.431  1.00  0.00    -0.388 OA
HETATM   28  C17 UNL     1       1.570   8.185   8.330  1.00  0.00     0.198 C 
HETATM   29  C18 UNL     1       0.392   8.666   9.189  1.00  0.00     0.299 C 
ENDBRANCH  23  24
ENDBRANCH  19  23
ENDBRANCH   8  13
BRANCH   1  30
HETATM   30  S1  UNL     1      -7.595   3.828  12.831  1.00  0.00     0.258 S 
HETATM   31  O1  UNL     1      -8.038   4.960  12.047  1.00  0.00    -0.201 OA
HETATM   32  O2  UNL     1      -8.254   2.544  12.767  1.00  0.00    -0.201 OA
BRANCH  30  33
HETATM   33  N1  UNL     1      -7.574   4.328  14.424  1.00  0.00    -0.320 N 
HETATM   34  C1  UNL     1      -7.913   5.692  14.786  1.00  0.00     0.159 C 
HETATM   35  H4  UNL     1      -7.593   3.590  15.123  1.00  0.00     0.171 HD
ENDBRANCH  30  33
ENDBRANCH   1  30
TORSDOF 5
ENDMDL
MODEL 4
REMARK minimizedAffinity -8.76628208
REMARK  5 active torsions:
REMARK  status: ('A' for Active; 'I' for Inactive)
REMARK    1  A    between atoms: N1_2  and  S1_3 
REMARK    2  A    between atoms: S1_3  and  C2_6 
REMARK    3  A    between atoms: C9_13  and  C10_14 
REMARK    4  A    between atoms: C13_18  and  C14_19 
REMARK    5  A    between atoms: C14_19  and  N3_20 
ROOT
HETATM    1  C2  UNL     1       2.350   7.343  12.718  1.00  0.00     0.080 A 
HETATM    2  C3  UNL     1       2.632   7.579  14.080  1.00  0.00     0.027 A 
HETATM    3  C4  UNL     1       1.712   7.205  15.063  1.00  0.00     0.032 A 
HETATM    4  C5  UNL     1       0.545   6.598  14.642  1.00  0.00     0.046 A 
HETATM    5  C6  UNL     1       0.263   6.351  13.293  1.00  0.00     0.008 A 
HETATM    6  C7  UNL     1       1.165   6.713  12.309  1.00  0.00     0.040 A 
HETATM    7  C8  UNL     1      -1.050   5.691  13.263  1.00  0.00     0.047 A 
HETATM    8  C9  UNL     1      -1.671   5.287  12.145  1.00  0.00     0.048 C 
HETATM    9  C23 UNL     1      -1.520   5.588  14.697  1.00  0.00     0.257 A 
HETATM   10  O4  UNL     1      -2.556   5.138  15.143  1.00  0.00    -0.267 OA
HETATM   11  N4  UNL     1      -0.495   6.152  15.446  1.00  0.00    -0.322 N 
HETATM   12  H28 UNL     1      -0.540   6.214  16.451  1.00  0.00     0.169 HD
ENDROOT
BRANCH   8  13
HETATM   13  C10 UNL     1      -2.909   4.607  12.137  1.00  0.00     0.042 A 
HETATM   14  N2  UNL     1      -2.905   3.274  11.801  1.00  0.00    -0.359 N 
HETATM   15  C11 UNL     1      -4.177   2.785  11.875  1.00  0.00     0.016 A 
HETATM   16  H9  UNL     1      -2.091   2.745  11.523  1.00  0.00     0.166 HD
HETATM   17  C12 UNL     1      -5.014   3.805  12.276  1.00  0.00    -0.025 A 
HETATM   18  C22 UNL     1      -4.572   1.380  11.585  1.00  0.00     0.057 C 
HETATM   19  C13 UNL     1      -4.214   4.976  12.453  1.00  0.00     0.005 A 
HETATM   20  C19 UNL     1      -6.487   3.610  12.430  1.00  0.00     0.041 C 
HETATM   21  C20 UNL     1      -6.849   2.113  12.483  1.00  0.00     0.005 C 
HETATM   22  C21 UNL     1      -6.100   1.295  11.415  1.00  0.00     0.006 C 
BRANCH  19  23
HETATM   23  C14 UNL     1      -4.696   6.333  12.878  1.00  0.00     0.314 C 
BRANCH  23  24
HETATM   24  N3  UNL     1      -5.640   6.226  14.005  1.00  0.00     0.096 N 
HETATM   25  C15 UNL     1      -5.162   6.979  15.181  1.00  0.00     0.299 C 
HETATM   26  C16 UNL     1      -5.829   8.355  15.338  1.00  0.00     0.198 C 
HETATM   27  O3  UNL     1      -7.254   8.279  15.474  1.00  0.00    -0.388 OA
HETATM   28  C17 UNL     1      -7.817   7.122  14.838  1.00  0.00     0.198 C 
HETATM   29  C18 UNL     1      -7.001   6.662  13.621  1.00  0.00     0.299 C 
ENDBRANCH  23  24
ENDBRANCH  19  23
ENDBRANCH   8  13
BRANCH   1  30
HETATM   30  S1  UNL     1       3.553   7.822  11.497  1.00  0.00     0.258 S 
HETATM   31  O1  UNL     1       3.923   9.194  11.763  1.00  0.00    -0.201 OA
HETATM   32  O2  UNL     1       4.536   6.767  11.394  1.00  0.00    -0.201 OA
BRANCH  30  33
HETATM   33  N1  UNL     1       2.648   7.834  10.093  1.00  0.00    -0.320 N 
HETATM   34  C1  UNL     1       3.265   8.095   8.806  1.00  0.00     0.159 C 
HETATM   35  H4  UNL     1       1.738   7.383  10.147  1.00  0.00     0.171 HD
ENDBRANCH  30  33
ENDBRANCH   1  30
TORSDOF 5
ENDMDL
MODEL 5
REMARK minimizedAffinity -8.64402485
REMARK  5 active torsions:
REMARK  status: ('A' for Active; 'I' for Inactive)
REMARK    1  A    between atoms: N1_2  and  S1_3 
REMARK    2  A    between atoms: S1_3  and  C2_6 
REMARK    3  A    between atoms: C9_13  and  C10_14 
REMARK    4  A    between atoms: C13_18  and  C14_19 
REMARK    5  A    between atoms: C14_19  and  N3_20 
ROOT
HETATM    1  C2  UNL     1      -1.996   3.553  11.916  1.00  0.00     0.080 A 
HETATM    2  C3  UNL     1      -2.362   2.280  11.429  1.00  0.00     0.027 A 
HETATM    3  C4  UNL     1      -3.696   1.868  11.474  1.00  0.00     0.032 A 
HETATM    4  C5  UNL     1      -4.617   2.753  11.999  1.00  0.00     0.046 A 
HETATM    5  C6  UNL     1      -4.264   4.022  12.474  1.00  0.00     0.008 A 
HETATM    6  C7  UNL     1      -2.947   4.445  12.434  1.00  0.00     0.040 A 
HETATM    7  C8  UNL     1      -5.511   4.650  12.933  1.00  0.00     0.047 A 
HETATM    8  C9  UNL     1      -5.592   5.882  13.456  1.00  0.00     0.048 C 
HETATM    9  C23 UNL     1      -6.616   3.644  12.704  1.00  0.00     0.257 A 
HETATM   10  O4  UNL     1      -7.802   3.724  12.955  1.00  0.00    -0.267 OA
HETATM   11  N4  UNL     1      -5.983   2.545  12.137  1.00  0.00    -0.322 N 
HETATM   12  H28 UNL     1      -6.489   1.714  11.874  1.00  0.00     0.169 HD
ENDROOT
BRANCH   8  13
HETATM   13  C10 UNL     1      -6.806   6.493  13.843  1.00  0.00     0.042 A 
HETATM   14  N2  UNL     1      -7.937   6.175  13.132  1.00  0.00    -0.359 N 
HETATM   15  C11 UNL     1      -9.008   6.833  13.665  1.00  0.00     0.016 A 
HETATM   16  H9  UNL     1      -7.969   5.565  12.326  1.00  0.00     0.166 HD
HETATM   17  C12 UNL     1      -8.570   7.575  14.743  1.00  0.00    -0.025 A 
HETATM   18  C22 UNL     1     -10.406   6.740  13.166  1.00  0.00     0.057 C 
HETATM   19  C13 UNL     1      -7.163   7.361  14.871  1.00  0.00     0.005 A 
HETATM   20  C19 UNL     1      -9.492   8.439  15.538  1.00  0.00     0.041 C 
HETATM   21  C20 UNL     1     -10.966   8.082  15.266  1.00  0.00     0.005 C 
HETATM   22  C21 UNL     1     -11.248   7.880  13.766  1.00  0.00     0.006 C 
BRANCH  19  23
HETATM   23  C14 UNL     1      -6.256   7.970  15.902  1.00  0.00     0.314 C 
BRANCH  23  24
HETATM   24  N3  UNL     1      -5.039   8.515  15.274  1.00  0.00     0.096 N 
HETATM   25  C15 UNL     1      -4.844   9.937  15.621  1.00  0.00     0.299 C 
HETATM   26  C16 UNL     1      -3.821  10.157  16.747  1.00  0.00     0.198 C 
HETATM   27  O3  UNL     1      -2.518   9.649  16.431  1.00  0.00    -0.388 OA
HETATM   28  C17 UNL     1      -2.553   8.550  15.508  1.00  0.00     0.198 C 
HETATM   29  C18 UNL     1      -3.840   7.721  15.625  1.00  0.00     0.299 C 
ENDBRANCH  23  24
ENDBRANCH  19  23
ENDBRANCH   8  13
BRANCH   1  30
HETATM   30  S1  UNL     1      -0.289   4.047  11.829  1.00  0.00     0.258 S 
HETATM   31  O1  UNL     1       0.119   4.445  13.158  1.00  0.00    -0.201 OA
HETATM   32  O2  UNL     1       0.431   3.050  11.069  1.00  0.00    -0.201 OA
BRANCH  30  33
HETATM   33  N1  UNL     1      -0.371   5.443  10.916  1.00  0.00    -0.320 N 
HETATM   34  C1  UNL     1       0.833   6.115  10.463  1.00  0.00     0.159 C 
HETATM   35  H4  UNL     1      -1.265   5.631  10.468  1.00  0.00     0.171 HD
ENDBRANCH  30  33
ENDBRANCH   1  30
TORSDOF 5
ENDMDL
MODEL 6
REMARK minimizedAffinity -8.58533859
REMARK  5 active torsions:
REMARK  status: ('A' for Active; 'I' for Inactive)
REMARK    1  A    between atoms: N1_2  and  S1_3 
REMARK    2  A    between atoms: S1_3  and  C2_6 
REMARK    3  A    between atoms: C9_13  and  C10_14 
REMARK    4  A    between atoms: C13_18  and  C14_19 
REMARK    5  A    between atoms: C14_19  and  N3_20 
ROOT
HETATM    1  C2  UNL     1      -5.142   3.915  12.432  1.00  0.00     0.080 A 
HETATM    2  C3  UNL     1      -6.163   4.477  13.228  1.00  0.00     0.027 A 
HETATM    3  C4  UNL     1      -5.876   5.532  14.097  1.00  0.00     0.032 A 
HETATM    4  C5  UNL     1      -4.573   5.991  14.131  1.00  0.00     0.046 A 
HETATM    5  C6  UNL     1      -3.557   5.447  13.336  1.00  0.00     0.008 A 
HETATM    6  C7  UNL     1      -3.827   4.403  12.469  1.00  0.00     0.040 A 
HETATM    7  C8  UNL     1      -2.339   6.206  13.652  1.00  0.00     0.047 A 
HETATM    8  C9  UNL     1      -1.142   5.988  13.089  1.00  0.00     0.048 C 
HETATM    9  C23 UNL     1      -2.720   7.225  14.702  1.00  0.00     0.257 A 
HETATM   10  O4  UNL     1      -2.030   8.047  15.272  1.00  0.00    -0.267 OA
HETATM   11  N4  UNL     1      -4.077   7.021  14.918  1.00  0.00    -0.322 N 
HETATM   12  H28 UNL     1      -4.602   7.573  15.578  1.00  0.00     0.169 HD
ENDROOT
BRANCH   8  13
HETATM   13  C10 UNL     1       0.008   6.761  13.364  1.00  0.00     0.042 A 
HETATM   14  N2  UNL     1       0.565   6.658  14.616  1.00  0.00    -0.359 N 
HETATM   15  C11 UNL     1       1.675   7.449  14.685  1.00  0.00     0.016 A 
HETATM   16  H9  UNL     1       0.198   6.099  15.373  1.00  0.00     0.166 HD
HETATM   17  C12 UNL     1       1.850   8.062  13.462  1.00  0.00    -0.025 A 
HETATM   18  C22 UNL     1       2.546   7.599  15.881  1.00  0.00     0.057 C 
HETATM   19  C13 UNL     1       0.792   7.625  12.605  1.00  0.00     0.005 A 
HETATM   20  C19 UNL     1       2.965   9.022  13.207  1.00  0.00     0.041 C 
HETATM   21  C20 UNL     1       4.054   8.912  14.292  1.00  0.00     0.005 C 
HETATM   22  C21 UNL     1       3.458   8.827  15.708  1.00  0.00     0.006 C 
BRANCH  19  23
HETATM   23  C14 UNL     1       0.570   8.037  11.178  1.00  0.00     0.314 C 
BRANCH  23  24
HETATM   24  N3  UNL     1       1.053   6.998  10.251  1.00  0.00     0.096 N 
HETATM   25  C15 UNL     1       1.640   7.592   9.033  1.00  0.00     0.299 C 
HETATM   26  C16 UNL     1       3.176   7.649   9.060  1.00  0.00     0.198 C 
HETATM   27  O3  UNL     1       3.785   6.359   9.198  1.00  0.00    -0.388 OA
HETATM   28  C17 UNL     1       2.952   5.416   9.887  1.00  0.00     0.198 C 
HETATM   29  C18 UNL     1       2.019   6.086  10.906  1.00  0.00     0.299 C 
ENDBRANCH  23  24
ENDBRANCH  19  23
ENDBRANCH   8  13
BRANCH   1  30
HETATM   30  S1  UNL     1      -5.550   2.582  11.326  1.00  0.00     0.258 S 
HETATM   31  O1  UNL     1      -6.751   1.952  11.827  1.00  0.00    -0.201 OA
HETATM   32  O2  UNL     1      -5.447   3.072   9.971  1.00  0.00    -0.201 OA
BRANCH  30  33
HETATM   33  N1  UNL     1      -4.300   1.507  11.591  1.00  0.00    -0.320 N 
HETATM   34  C1  UNL     1      -2.922   1.882  11.335  1.00  0.00     0.159 C 
HETATM   35  H4  UNL     1      -4.515   0.712  12.188  1.00  0.00     0.171 HD
ENDBRANCH  30  33
ENDBRANCH   1  30
TORSDOF 5
ENDMDL
MODEL 7
REMARK minimizedAffinity -8.54965782
REMARK  5 active torsions:
REMARK  status: ('A' for Active; 'I' for Inactive)
REMARK    1  A    between atoms: N1_2  and  S1_3 
REMARK    2  A    between atoms: S1_3  and  C2_6 
REMARK    3  A    between atoms: C9_13  and  C10_14 
REMARK    4  A    between atoms: C13_18  and  C14_19 
REMARK    5  A    between atoms: C14_19  and  N3_20 
ROOT
HETATM    1  C2  UNL     1     -11.478   8.303  14.123  1.00  0.00     0.080 A 
HETATM    2  C3  UNL     1     -11.437   8.680  15.482  1.00  0.00     0.027 A 
HETATM    3  C4  UNL     1     -10.387   8.252  16.299  1.00  0.00     0.032 A 
HETATM    4  C5  UNL     1      -9.411   7.467  15.718  1.00  0.00     0.046 A 
HETATM    5  C6  UNL     1      -9.438   7.098  14.368  1.00  0.00     0.008 A 
HETATM    6  C7  UNL     1     -10.470   7.516  13.546  1.00  0.00     0.040 A 
HETATM    7  C8  UNL     1      -8.235   6.284  14.141  1.00  0.00     0.047 A 
HETATM    8  C9  UNL     1      -7.897   5.742  12.962  1.00  0.00     0.048 C 
HETATM    9  C23 UNL     1      -7.512   6.194  15.466  1.00  0.00     0.257 A 
HETATM   10  O4  UNL     1      -6.489   5.605  15.753  1.00  0.00    -0.267 OA
HETATM   11  N4  UNL     1      -8.290   6.938  16.345  1.00  0.00    -0.322 N 
HETATM   12  H28 UNL     1      -8.039   7.054  17.314  1.00  0.00     0.169 HD
ENDROOT
BRANCH   8  13
HETATM   13  C10 UNL     1      -6.710   5.007  12.747  1.00  0.00     0.042 A 
HETATM   14  N2  UNL     1      -6.831   3.720  12.280  1.00  0.00    -0.359 N 
HETATM   15  C11 UNL     1      -5.588   3.182  12.107  1.00  0.00     0.016 A 
HETATM   16  H9  UNL     1      -7.703   3.239  12.111  1.00  0.00     0.166 HD
HETATM   17  C12 UNL     1      -4.650   4.134  12.451  1.00  0.00    -0.025 A 
HETATM   18  C22 UNL     1      -5.311   1.807  11.613  1.00  0.00     0.057 C 
HETATM   19  C13 UNL     1      -5.356   5.308  12.857  1.00  0.00     0.005 A 
HETATM   20  C19 UNL     1      -3.183   3.857  12.402  1.00  0.00     0.041 C 
HETATM   21  C20 UNL     1      -2.881   2.595  11.571  1.00  0.00     0.005 C 
HETATM   22  C21 UNL     1      -3.843   1.439  11.898  1.00  0.00     0.006 C 
BRANCH  19  23
HETATM   23  C14 UNL     1      -4.748   6.600  13.324  1.00  0.00     0.314 C 
BRANCH  23  24
HETATM   24  N3  UNL     1      -3.298   6.451  13.537  1.00  0.00     0.096 N 
HETATM   25  C15 UNL     1      -2.535   7.463  12.779  1.00  0.00     0.299 C 
HETATM   26  C16 UNL     1      -2.084   8.657  13.636  1.00  0.00     0.198 C 
HETATM   27  O3  UNL     1      -1.246   8.277  14.735  1.00  0.00    -0.388 OA
HETATM   28  C17 UNL     1      -1.493   6.940  15.193  1.00  0.00     0.198 C 
HETATM   29  C18 UNL     1      -2.948   6.500  14.975  1.00  0.00     0.299 C 
ENDBRANCH  23  24
ENDBRANCH  19  23
ENDBRANCH   8  13
BRANCH   1  30
HETATM   30  S1  UNL     1     -12.824   8.879  13.112  1.00  0.00     0.258 S 
HETATM   31  O1  UNL     1     -13.793   9.500  13.988  1.00  0.00    -0.201 OA
HETATM   32  O2  UNL     1     -12.268   9.568  11.970  1.00  0.00    -0.201 OA
BRANCH  30  33
HETATM   33  N1  UNL     1     -13.506   7.450  12.582  1.00  0.00    -0.320 N 
HETATM   34  C1  UNL     1     -14.659   6.876  13.250  1.00  0.00     0.159 C 
HETATM   35  H4  UNL     1     -13.265   7.167  11.635  1.00  0.00     0.171 HD
ENDBRANCH  30  33
ENDBRANCH   1  30
TORSDOF 5
ENDMDL
MODEL 8
REMARK minimizedAffinity -8.50017643
REMARK  5 active torsions:
REMARK  status: ('A' for Active; 'I' for Inactive)
REMARK    1  A    between atoms: N1_2  and  S1_3 
REMARK    2  A    between atoms: S1_3  and  C2_6 
REMARK    3  A    between atoms: C9_13  and  C10_14 
REMARK    4  A    between atoms: C13_18  and  C14_19 
REMARK    5  A    between atoms: C14_19  and  N3_20 
ROOT
HETATM    1  C2  UNL     1       2.608   6.895  11.225  1.00  0.00     0.080 A 
HETATM    2  C3  UNL     1       3.468   7.358  12.243  1.00  0.00     0.027 A 
HETATM    3  C4  UNL     1       2.950   7.723  13.488  1.00  0.00     0.032 A 
HETATM    4  C5  UNL     1       1.585   7.602  13.668  1.00  0.00     0.046 A 
HETATM    5  C6  UNL     1       0.727   7.134  12.667  1.00  0.00     0.008 A 
HETATM    6  C7  UNL     1       1.226   6.766  11.430  1.00  0.00     0.040 A 
HETATM    7  C8  UNL     1      -0.623   7.144  13.246  1.00  0.00     0.047 A 
HETATM    8  C9  UNL     1      -1.731   6.756  12.597  1.00  0.00     0.048 C 
HETATM    9  C23 UNL     1      -0.489   7.669  14.658  1.00  0.00     0.257 A 
HETATM   10  O4  UNL     1      -1.345   7.870  15.496  1.00  0.00    -0.267 OA
HETATM   11  N4  UNL     1       0.870   7.910  14.818  1.00  0.00    -0.322 N 
HETATM   12  H28 UNL     1       1.252   8.267  15.679  1.00  0.00     0.169 HD
ENDROOT
BRANCH   8  13
HETATM   13  C10 UNL     1      -3.015   6.722  13.185  1.00  0.00     0.042 A 
HETATM   14  N2  UNL     1      -3.618   7.921  13.475  1.00  0.00    -0.359 N 
HETATM   15  C11 UNL     1      -4.854   7.690  14.007  1.00  0.00     0.016 A 
HETATM   16  H9  UNL     1      -3.204   8.832  13.336  1.00  0.00     0.166 HD
HETATM   17  C12 UNL     1      -5.062   6.327  14.050  1.00  0.00    -0.025 A 
HETATM   18  C22 UNL     1      -5.809   8.744  14.444  1.00  0.00     0.057 C 
HETATM   19  C13 UNL     1      -3.894   5.696  13.521  1.00  0.00     0.005 A 
HETATM   20  C19 UNL     1      -6.314   5.732  14.606  1.00  0.00     0.041 C 
HETATM   21  C20 UNL     1      -7.429   6.788  14.725  1.00  0.00     0.005 C 
HETATM   22  C21 UNL     1      -6.914   8.115  15.313  1.00  0.00     0.006 C 
BRANCH  19  23
HETATM   23  C14 UNL     1      -3.663   4.219  13.377  1.00  0.00     0.314 C 
BRANCH  23  24
HETATM   24  N3  UNL     1      -4.186   3.729  12.089  1.00  0.00     0.096 N 
HETATM   25  C15 UNL     1      -3.296   2.709  11.499  1.00  0.00     0.299 C 
HETATM   26  C16 UNL     1      -3.780   1.268  11.732  1.00  0.00     0.198 C 
HETATM   27  O3  UNL     1      -5.081   1.016  11.186  1.00  0.00    -0.388 OA
HETATM   28  C17 UNL     1      -5.899   2.193  11.118  1.00  0.00     0.198 C 
HETATM   29  C18 UNL     1      -5.565   3.208  12.220  1.00  0.00     0.299 C 
ENDBRANCH  23  24
ENDBRANCH  19  23
ENDBRANCH   8  13
BRANCH   1  30
HETATM   30  S1  UNL     1       3.308   6.425   9.658  1.00  0.00     0.258 S 
HETATM   31  O1  UNL     1       4.695   6.086   9.883  1.00  0.00    -0.201 OA
HETATM   32  O2  UNL     1       2.391   5.518   9.007  1.00  0.00    -0.201 OA
BRANCH  30  33
HETATM   33  N1  UNL     1       3.299   7.870   8.819  1.00  0.00    -0.320 N 
HETATM   34  C1  UNL     1       2.157   8.263   8.016  1.00  0.00     0.159 C 
HETATM   35  H4  UNL     1       3.982   8.562   9.118  1.00  0.00     0.171 HD
ENDBRANCH  30  33
ENDBRANCH   1  30
TORSDOF 5
ENDMDL
MODEL 9
REMARK minimizedAffinity -8.49053764
REMARK  5 active torsions:
REMARK  status: ('A' for Active; 'I' for Inactive)
REMARK    1  A    between atoms: N1_2  and  S1_3 
REMARK    2  A    between atoms: S1_3  and  C2_6 
REMARK    3  A    between atoms: C9_13  and  C10_14 
REMARK    4  A    between atoms: C13_18  and  C14_19 
REMARK    5  A    between atoms: C14_19  and  N3_20 
ROOT
HETATM    1  C2  UNL     1      -5.465   4.000  12.341  1.00  0.00     0.080 A 
HETATM    2  C3  UNL     1      -6.840   4.308  12.277  1.00  0.00     0.027 A 
HETATM    3  C4  UNL     1      -7.337   5.440  12.927  1.00  0.00     0.032 A 
HETATM    4  C5  UNL     1      -6.432   6.228  13.612  1.00  0.00     0.046 A 
HETATM    5  C6  UNL     1      -5.065   5.935  13.671  1.00  0.00     0.008 A 
HETATM    6  C7  UNL     1      -4.558   4.819  13.030  1.00  0.00     0.040 A 
HETATM    7  C8  UNL     1      -4.451   7.003  14.473  1.00  0.00     0.047 A 
HETATM    8  C9  UNL     1      -3.143   7.083  14.756  1.00  0.00     0.048 C 
HETATM    9  C23 UNL     1      -5.568   7.933  14.890  1.00  0.00     0.257 A 
HETATM   10  O4  UNL     1      -5.529   8.933  15.578  1.00  0.00    -0.267 OA
HETATM   11  N4  UNL     1      -6.713   7.388  14.321  1.00  0.00    -0.322 N 
HETATM   12  H28 UNL     1      -7.620   7.812  14.436  1.00  0.00     0.169 HD
ENDROOT
BRANCH   8  13
HETATM   13  C10 UNL     1      -2.560   8.144  15.483  1.00  0.00     0.042 A 
HETATM   14  N2  UNL     1      -3.065   8.417  16.732  1.00  0.00    -0.359 N 
HETATM   15  C11 UNL     1      -2.363   9.447  17.289  1.00  0.00     0.016 A 
HETATM   16  H9  UNL     1      -3.847   7.944  17.161  1.00  0.00     0.166 HD
HETATM   17  C12 UNL     1      -1.383   9.837  16.401  1.00  0.00    -0.025 A 
HETATM   18  C22 UNL     1      -2.616  10.025  18.636  1.00  0.00     0.057 C 
HETATM   19  C13 UNL     1      -1.495   9.007  15.243  1.00  0.00     0.005 A 
HETATM   20  C19 UNL     1      -0.450  10.967  16.693  1.00  0.00     0.041 C 
HETATM   21  C20 UNL     1      -0.464  11.328  18.191  1.00  0.00     0.005 C 
HETATM   22  C21 UNL     1      -1.891  11.377  18.765  1.00  0.00     0.006 C 
BRANCH  19  23
HETATM   23  C14 UNL     1      -0.639   9.072  14.010  1.00  0.00     0.314 C 
BRANCH  23  24
HETATM   24  N3  UNL     1      -1.083   8.083  13.011  1.00  0.00     0.096 N 
HETATM   25  C15 UNL     1      -1.436   8.731  11.731  1.00  0.00     0.299 C 
HETATM   26  C16 UNL     1      -0.325   8.637  10.673  1.00  0.00     0.198 C 
HETATM   27  O3  UNL     1       0.028   7.287  10.344  1.00  0.00    -0.388 OA
HETATM   28  C17 UNL     1      -0.208   6.368  11.420  1.00  0.00     0.198 C 
HETATM   29  C18 UNL     1      -0.068   7.026  12.800  1.00  0.00     0.299 C 
ENDBRANCH  23  24
ENDBRANCH  19  23
ENDBRANCH   8  13
BRANCH   1  30
HETATM   30  S1  UNL     1      -4.868   2.556  11.489  1.00  0.00     0.258 S 
HETATM   31  O1  UNL     1      -3.622   2.166  12.110  1.00  0.00    -0.201 OA
HETATM   32  O2  UNL     1      -5.971   1.636  11.333  1.00  0.00    -0.201 OA
BRANCH  30  33
HETATM   33  N1  UNL     1      -4.480   3.169   9.984  1.00  0.00    -0.320 N 
HETATM   34  C1  UNL     1      -5.489   3.319   8.953  1.00  0.00     0.159 C 
HETATM   35  H4  UNL     1      -3.602   3.680   9.924  1.00  0.00     0.171 HD
ENDBRANCH  30  33
ENDBRANCH   1  30
TORSDOF 5
ENDMDL
