MODEL 1
REMARK minimizedAffinity -9.65962029
REMARK  7 active torsions:
REMARK  status: ('A' for Active; 'I' for Inactive)
REMARK    1  A    between atoms: C1_2  and  O2_3 
REMARK    2  A    between atoms: C1_2  and  C2_4 
REMARK    3  A    between atoms: C2_4  and  C3_5 
REMARK    4  A    between atoms: C3_5  and  C4_6 
REMARK    5  A    between atoms: C5_7  and  C6_8 
REMARK    6  A    between atoms: C12_16  and  C13_17 
REMARK    7  A    between atoms: C13_17  and  O5_19 
ROOT
HETATM    1  C4  UNL     1      -4.225   3.874  12.107  1.00  0.00    -0.023 A 
HETATM    2  C5  UNL     1      -3.307   4.853  12.497  1.00  0.00     0.040 A 
HETATM    3  N2  UNL     1      -3.954   5.682  13.387  1.00  0.00    -0.359 N 
HETATM    4  C16 UNL     1      -5.237   5.255  13.573  1.00  0.00     0.016 A 
HETATM    5  C17 UNL     1      -5.446   4.142  12.791  1.00  0.00    -0.027 A 
HETATM    6  C18 UNL     1      -6.751   3.415  12.776  1.00  0.00     0.041 C 
HETATM    7  C19 UNL     1      -7.873   4.271  13.394  1.00  0.00     0.005 C 
HETATM    8  C20 UNL     1      -7.426   4.972  14.690  1.00  0.00     0.006 C 
HETATM    9  C21 UNL     1      -6.233   5.918  14.456  1.00  0.00     0.057 C 
HETATM   10  H12 UNL     1      -3.546   6.491  13.845  1.00  0.00     0.166 HD
ENDROOT
BRANCH   2  11
HETATM   11  C6  UNL     1      -1.949   5.054  12.118  1.00  0.00     0.048 C 
HETATM   12  C7  UNL     1      -1.035   5.909  12.609  1.00  0.00     0.047 A 
HETATM   13  C8  UNL     1      -1.125   6.938  13.712  1.00  0.00     0.257 A 
HETATM   14  C15 UNL     1       0.348   5.986  12.093  1.00  0.00     0.007 A 
HETATM   15  O3  UNL     1      -2.080   7.219  14.411  1.00  0.00    -0.267 OA
HETATM   16  N1  UNL     1       0.129   7.521  13.778  1.00  0.00    -0.322 N 
HETATM   17  C9  UNL     1       0.995   6.976  12.840  1.00  0.00     0.046 A 
HETATM   18  H7  UNL     1       0.354   8.251  14.436  1.00  0.00     0.169 HD
HETATM   19  C10 UNL     1       2.314   7.326  12.636  1.00  0.00     0.031 A 
HETATM   20  C11 UNL     1       3.009   6.647  11.631  1.00  0.00     0.020 A 
HETATM   21  C12 UNL     1       2.376   5.644  10.862  1.00  0.00     0.038 A 
HETATM   22  C14 UNL     1       1.031   5.309  11.094  1.00  0.00     0.033 A 
BRANCH  21  23
HETATM   23  C13 UNL     1       3.178   4.967   9.814  1.00  0.00     0.176 C 
HETATM   24  O4  UNL     1       3.816   5.520   8.937  1.00  0.00    -0.646 OA
BRANCH  23  25
HETATM   25  O5  UNL     1       3.141   3.627   9.915  1.00  0.00    -0.773 OA
HETATM   26  H10 UNL     1       3.699   3.316   9.171  1.00  0.00     0.167 HD
ENDBRANCH  23  25
ENDBRANCH  21  23
ENDBRANCH   2  11
BRANCH   1  27
HETATM   27  C3  UNL     1      -3.987   2.735  11.160  1.00  0.00     0.052 C 
BRANCH  27  28
HETATM   28  C2  UNL     1      -3.010   1.715  11.733  1.00  0.00     0.115 C 
BRANCH  28  29
HETATM   29  C1  UNL     1      -1.732   1.697  10.947  1.00  0.00     0.139 C 
HETATM   30  O1  UNL     1      -0.678   1.168  11.254  1.00  0.00    -0.650 OA
BRANCH  29  31
HETATM   31  O2  UNL     1      -1.854   2.347   9.772  1.00  0.00    -0.776 OA
HETATM   32  H1  UNL     1      -0.969   2.264   9.359  1.00  0.00     0.167 HD
ENDBRANCH  29  31
ENDBRANCH  28  29
ENDBRANCH  27  28
ENDBRANCH   1  27
TORSDOF 7
ENDMDL
MODEL 2
REMARK minimizedAffinity -9.48601437
REMARK  7 active torsions:
REMARK  status: ('A' for Active; 'I' for Inactive)
REMARK    1  A    between atoms: C1_2  and  O2_3 
REMARK    2  A    between atoms: C1_2  and  C2_4 
REMARK    3  A    between atoms: C2_4  and  C3_5 
REMARK    4  A    between atoms: C3_5  and  C4_6 
REMARK    5  A    between atoms: C5_7  and  C6_8 
REMARK    6  A    between atoms: C12_16  and  C13_17 
REMARK    7  A    between atoms: C13_17  and  O5_19 
ROOT
HETATM    1  C4  UNL     1      -0.181   6.268  12.933  1.00  0.00    -0.023 A 
HETATM    2  C5  UNL     1      -0.884   5.460  12.035  1.00  0.00     0.040 A 
HETATM    3  N2  UNL     1      -0.035   5.191  10.984  1.00  0.00    -0.359 N 
HETATM    4  C16 UNL     1       1.171   5.794  11.194  1.00  0.00     0.016 A 
HETATM    5  C17 UNL     1       1.118   6.477  12.387  1.00  0.00    -0.027 A 
HETATM    6  C18 UNL     1       2.288   7.236  12.921  1.00  0.00     0.041 C 
HETATM    7  C19 UNL     1       3.347   7.472  11.826  1.00  0.00     0.005 C 
HETATM    8  C20 UNL     1       3.600   6.212  10.977  1.00  0.00     0.006 C 
HETATM    9  C21 UNL     1       2.326   5.731  10.258  1.00  0.00     0.057 C 
HETATM   10  H12 UNL     1      -0.261   4.627  10.171  1.00  0.00     0.166 HD
ENDROOT
BRANCH   2  11
HETATM   11  C6  UNL     1      -2.213   4.952  12.090  1.00  0.00     0.048 C 
HETATM   12  C7  UNL     1      -2.679   3.725  11.800  1.00  0.00     0.047 A 
HETATM   13  C8  UNL     1      -1.971   2.478  11.323  1.00  0.00     0.257 A 
HETATM   14  C15 UNL     1      -4.108   3.363  11.914  1.00  0.00     0.007 A 
HETATM   15  O3  UNL     1      -0.788   2.319  11.091  1.00  0.00    -0.267 OA
HETATM   16  N1  UNL     1      -2.960   1.517  11.195  1.00  0.00    -0.322 N 
HETATM   17  C9  UNL     1      -4.208   2.021  11.535  1.00  0.00     0.046 A 
HETATM   18  H7  UNL     1      -2.766   0.576  10.887  1.00  0.00     0.169 HD
HETATM   19  C10 UNL     1      -5.405   1.334  11.519  1.00  0.00     0.031 A 
HETATM   20  C11 UNL     1      -6.552   2.037  11.901  1.00  0.00     0.020 A 
HETATM   21  C12 UNL     1      -6.475   3.394  12.287  1.00  0.00     0.038 A 
HETATM   22  C14 UNL     1      -5.242   4.066  12.294  1.00  0.00     0.033 A 
BRANCH  21  23
HETATM   23  C13 UNL     1      -7.734   4.074  12.680  1.00  0.00     0.176 C 
HETATM   24  O4  UNL     1      -7.952   5.269  12.601  1.00  0.00    -0.646 OA
BRANCH  23  25
HETATM   25  O5  UNL     1      -8.660   3.222  13.151  1.00  0.00    -0.773 OA
HETATM   26  H10 UNL     1      -9.424   3.796  13.371  1.00  0.00     0.167 HD
ENDBRANCH  23  25
ENDBRANCH  21  23
ENDBRANCH   2  11
BRANCH   1  27
HETATM   27  C3  UNL     1      -0.676   6.812  14.241  1.00  0.00     0.052 C 
BRANCH  27  28
HETATM   28  C2  UNL     1      -1.739   5.913  14.864  1.00  0.00     0.115 C 
BRANCH  28  29
HETATM   29  C1  UNL     1      -2.866   6.728  15.425  1.00  0.00     0.139 C 
HETATM   30  O1  UNL     1      -3.207   7.851  15.097  1.00  0.00    -0.650 OA
BRANCH  29  31
HETATM   31  O2  UNL     1      -3.540   6.062  16.386  1.00  0.00    -0.776 OA
HETATM   32  H1  UNL     1      -4.240   6.689  16.666  1.00  0.00     0.167 HD
ENDBRANCH  29  31
ENDBRANCH  28  29
ENDBRANCH  27  28
ENDBRANCH   1  27
TORSDOF 7
ENDMDL
MODEL 3
REMARK minimizedAffinity -9.45523262
REMARK  7 active torsions:
REMARK  status: ('A' for Active; 'I' for Inactive)
REMARK    1  A    between atoms: C1_2  and  O2_3 
REMARK    2  A    between atoms: C1_2  and  C2_4 
REMARK    3  A    between atoms: C2_4  and  C3_5 
REMARK    4  A    between atoms: C3_5  and  C4_6 
REMARK    5  A    between atoms: C5_7  and  C6_8 
REMARK    6  A    between atoms: C12_16  and  C13_17 
REMARK    7  A    between atoms: C13_17  and  O5_19 
ROOT
HETATM    1  C4  UNL     1      -0.253   4.513  11.608  1.00  0.00    -0.023 A 
HETATM    2  C5  UNL     1      -1.339   5.370  11.807  1.00  0.00     0.040 A 
HETATM    3  N2  UNL     1      -0.919   6.638  11.473  1.00  0.00    -0.359 N 
HETATM    4  C16 UNL     1       0.384   6.605  11.067  1.00  0.00     0.016 A 
HETATM    5  C17 UNL     1       0.835   5.308  11.144  1.00  0.00    -0.027 A 
HETATM    6  C18 UNL     1       2.224   4.925  10.752  1.00  0.00     0.041 C 
HETATM    7  C19 UNL     1       3.137   6.162  10.654  1.00  0.00     0.005 C 
HETATM    8  C20 UNL     1       2.455   7.336   9.927  1.00  0.00     0.006 C 
HETATM    9  C21 UNL     1       1.171   7.794  10.645  1.00  0.00     0.057 C 
HETATM   10  H12 UNL     1      -1.486   7.479  11.515  1.00  0.00     0.166 HD
ENDROOT
BRANCH   2  11
HETATM   11  C6  UNL     1      -2.662   5.100  12.260  1.00  0.00     0.048 C 
HETATM   12  C7  UNL     1      -3.366   5.671  13.252  1.00  0.00     0.047 A 
HETATM   13  C8  UNL     1      -3.009   6.778  14.217  1.00  0.00     0.257 A 
HETATM   14  C15 UNL     1      -4.746   5.265  13.592  1.00  0.00     0.007 A 
HETATM   15  O3  UNL     1      -1.970   7.405  14.302  1.00  0.00    -0.267 OA
HETATM   16  N1  UNL     1      -4.128   6.949  15.014  1.00  0.00    -0.322 N 
HETATM   17  C9  UNL     1      -5.146   6.074  14.661  1.00  0.00     0.046 A 
HETATM   18  H7  UNL     1      -4.168   7.633  15.755  1.00  0.00     0.169 HD
HETATM   19  C10 UNL     1      -6.390   5.977  15.248  1.00  0.00     0.031 A 
HETATM   20  C11 UNL     1      -7.269   5.020  14.734  1.00  0.00     0.020 A 
HETATM   21  C12 UNL     1      -6.888   4.191  13.655  1.00  0.00     0.038 A 
HETATM   22  C14 UNL     1      -5.613   4.313  13.077  1.00  0.00     0.033 A 
BRANCH  21  23
HETATM   23  C13 UNL     1      -7.874   3.198  13.163  1.00  0.00     0.176 C 
HETATM   24  O4  UNL     1      -7.640   2.034  12.895  1.00  0.00    -0.646 OA
BRANCH  23  25
HETATM   25  O5  UNL     1      -9.108   3.713  13.030  1.00  0.00    -0.773 OA
HETATM   26  H10 UNL     1      -9.646   2.962  12.700  1.00  0.00     0.167 HD
ENDBRANCH  23  25
ENDBRANCH  21  23
ENDBRANCH   2  11
BRANCH   1  27
HETATM   27  C3  UNL     1      -0.219   3.028  11.821  1.00  0.00     0.052 C 
BRANCH  27  28
HETATM   28  C2  UNL     1      -1.255   2.308  10.964  1.00  0.00     0.115 C 
BRANCH  28  29
HETATM   29  C1  UNL     1      -0.715   1.004  10.456  1.00  0.00     0.139 C 
HETATM   30  O1  UNL     1      -0.238   0.092  11.110  1.00  0.00    -0.650 OA
BRANCH  29  31
HETATM   31  O2  UNL     1      -0.825   0.900   9.116  1.00  0.00    -0.776 OA
HETATM   32  H1  UNL     1      -0.447   0.018   8.912  1.00  0.00     0.167 HD
ENDBRANCH  29  31
ENDBRANCH  28  29
ENDBRANCH  27  28
ENDBRANCH   1  27
TORSDOF 7
ENDMDL
MODEL 4
REMARK minimizedAffinity -9.05564404
REMARK  7 active torsions:
REMARK  status: ('A' for Active; 'I' for Inactive)
REMARK    1  A    between atoms: C1_2  and  O2_3 
REMARK    2  A    between atoms: C1_2  and  C2_4 
REMARK    3  A    between atoms: C2_4  and  C3_5 
REMARK    4  A    between atoms: C3_5  and  C4_6 
REMARK    5  A    between atoms: C5_7  and  C6_8 
REMARK    6  A    between atoms: C12_16  and  C13_17 
REMARK    7  A    between atoms: C13_17  and  O5_19 
ROOT
HETATM    1  C4  UNL     1      -3.887   5.290  12.894  1.00  0.00    -0.023 A 
HETATM    2  C5  UNL     1      -2.907   6.268  12.705  1.00  0.00     0.040 A 
HETATM    3  N2  UNL     1      -3.439   7.462  13.139  1.00  0.00    -0.359 N 
HETATM    4  C16 UNL     1      -4.710   7.266  13.598  1.00  0.00     0.016 A 
HETATM    5  C17 UNL     1      -5.027   5.935  13.455  1.00  0.00    -0.027 A 
HETATM    6  C18 UNL     1      -6.348   5.383  13.880  1.00  0.00     0.041 C 
HETATM    7  C19 UNL     1      -7.379   6.508  14.098  1.00  0.00     0.005 C 
HETATM    8  C20 UNL     1      -6.787   7.701  14.870  1.00  0.00     0.006 C 
HETATM    9  C21 UNL     1      -5.594   8.337  14.130  1.00  0.00     0.057 C 
HETATM   10  H12 UNL     1      -2.965   8.360  13.128  1.00  0.00     0.166 HD
ENDROOT
BRANCH   2  11
HETATM   11  C6  UNL     1      -1.587   6.169  12.180  1.00  0.00     0.048 C 
HETATM   12  C7  UNL     1      -0.621   7.098  12.097  1.00  0.00     0.047 A 
HETATM   13  C8  UNL     1      -0.595   8.549  12.523  1.00  0.00     0.257 A 
HETATM   14  C15 UNL     1       0.710   6.822  11.516  1.00  0.00     0.007 A 
HETATM   15  O3  UNL     1      -1.477   9.201  13.047  1.00  0.00    -0.267 OA
HETATM   16  N1  UNL     1       0.668   9.009  12.191  1.00  0.00    -0.322 N 
HETATM   17  C9  UNL     1       1.436   8.014  11.603  1.00  0.00     0.046 A 
HETATM   18  H7  UNL     1       0.963   9.958  12.366  1.00  0.00     0.169 HD
HETATM   19  C10 UNL     1       2.736   8.134  11.154  1.00  0.00     0.031 A 
HETATM   20  C11 UNL     1       3.325   6.999  10.589  1.00  0.00     0.020 A 
HETATM   21  C12 UNL     1       2.611   5.784  10.489  1.00  0.00     0.038 A 
HETATM   22  C14 UNL     1       1.289   5.693  10.956  1.00  0.00     0.033 A 
BRANCH  21  23
HETATM   23  C13 UNL     1       3.303   4.623   9.878  1.00  0.00     0.176 C 
HETATM   24  O4  UNL     1       4.293   4.674   9.173  1.00  0.00    -0.646 OA
BRANCH  23  25
HETATM   25  O5  UNL     1       2.719   3.451  10.181  1.00  0.00    -0.773 OA
HETATM   26  H10 UNL     1       3.267   2.783   9.717  1.00  0.00     0.167 HD
ENDBRANCH  23  25
ENDBRANCH  21  23
ENDBRANCH   2  11
BRANCH   1  27
HETATM   27  C3  UNL     1      -3.777   3.826  12.586  1.00  0.00     0.052 C 
BRANCH  27  28
HETATM   28  C2  UNL     1      -4.794   3.388  11.537  1.00  0.00     0.115 C 
BRANCH  28  29
HETATM   29  C1  UNL     1      -4.822   1.894  11.409  1.00  0.00     0.139 C 
HETATM   30  O1  UNL     1      -5.782   1.188  11.151  1.00  0.00    -0.650 OA
BRANCH  29  31
HETATM   31  O2  UNL     1      -3.603   1.349  11.598  1.00  0.00    -0.776 OA
HETATM   32  H1  UNL     1      -3.752   0.386  11.488  1.00  0.00     0.167 HD
ENDBRANCH  29  31
ENDBRANCH  28  29
ENDBRANCH  27  28
ENDBRANCH   1  27
TORSDOF 7
ENDMDL
MODEL 5
REMARK minimizedAffinity -8.98796177
REMARK  7 active torsions:
REMARK  status: ('A' for Active; 'I' for Inactive)
REMARK    1  A    between atoms: C1_2  and  O2_3 
REMARK    2  A    between atoms: C1_2  and  C2_4 
REMARK    3  A    between atoms: C2_4  and  C3_5 
REMARK    4  A    between atoms: C3_5  and  C4_6 
REMARK    5  A    between atoms: C5_7  and  C6_8 
REMARK    6  A    between atoms: C12_16  and  C13_17 
REMARK    7  A    between atoms: C13_17  and  O5_19 
ROOT
HETATM    1  C4  UNL     1      -3.170   3.637  11.975  1.00  0.00    -0.023 A 
HETATM    2  C5  UNL     1      -3.217   4.871  12.631  1.00  0.00     0.040 A 
HETATM    3  N2  UNL     1      -4.520   5.067  13.029  1.00  0.00    -0.359 N 
HETATM    4  C16 UNL     1      -5.287   4.002  12.655  1.00  0.00     0.016 A 
HETATM    5  C17 UNL     1      -4.489   3.099  11.992  1.00  0.00    -0.027 A 
HETATM    6  C18 UNL     1      -5.020   1.807  11.462  1.00  0.00     0.041 C 
HETATM    7  C19 UNL     1      -6.560   1.821  11.402  1.00  0.00     0.005 C 
HETATM    8  C20 UNL     1      -7.189   2.420  12.673  1.00  0.00     0.006 C 
HETATM    9  C21 UNL     1      -6.747   3.877  12.907  1.00  0.00     0.057 C 
HETATM   10  H12 UNL     1      -4.869   5.878  13.531  1.00  0.00     0.166 HD
ENDROOT
BRANCH   2  11
HETATM   11  C6  UNL     1      -2.188   5.820  12.894  1.00  0.00     0.048 C 
HETATM   12  C7  UNL     1      -1.926   6.519  14.011  1.00  0.00     0.047 A 
HETATM   13  C8  UNL     1      -2.619   6.545  15.355  1.00  0.00     0.257 A 
HETATM   14  C15 UNL     1      -0.803   7.474  14.115  1.00  0.00     0.007 A 
HETATM   15  O3  UNL     1      -3.594   5.916  15.718  1.00  0.00    -0.267 OA
HETATM   16  N1  UNL     1      -1.907   7.452  16.121  1.00  0.00    -0.322 N 
HETATM   17  C9  UNL     1      -0.848   8.001  15.410  1.00  0.00     0.046 A 
HETATM   18  H7  UNL     1      -2.153   7.669  17.075  1.00  0.00     0.169 HD
HETATM   19  C10 UNL     1       0.058   8.934  15.871  1.00  0.00     0.031 A 
HETATM   20  C11 UNL     1       1.052   9.355  14.983  1.00  0.00     0.020 A 
HETATM   21  C12 UNL     1       1.117   8.838  13.669  1.00  0.00     0.038 A 
HETATM   22  C14 UNL     1       0.180   7.888  13.229  1.00  0.00     0.033 A 
BRANCH  21  23
HETATM   23  C13 UNL     1       2.200   9.332  12.784  1.00  0.00     0.176 C 
HETATM   24  O4  UNL     1       2.717   8.709  11.876  1.00  0.00    -0.646 OA
BRANCH  23  25
HETATM   25  O5  UNL     1       2.582  10.586  13.080  1.00  0.00    -0.773 OA
HETATM   26  H10 UNL     1       3.292  10.779  12.432  1.00  0.00     0.167 HD
ENDBRANCH  23  25
ENDBRANCH  21  23
ENDBRANCH   2  11
BRANCH   1  27
HETATM   27  C3  UNL     1      -1.965   2.976  11.372  1.00  0.00     0.052 C 
BRANCH  27  28
HETATM   28  C2  UNL     1      -2.120   1.460  11.313  1.00  0.00     0.115 C 
BRANCH  28  29
HETATM   29  C1  UNL     1      -0.942   0.828  10.631  1.00  0.00     0.139 C 
HETATM   30  O1  UNL     1      -0.040   0.190  11.146  1.00  0.00    -0.650 OA
BRANCH  29  31
HETATM   31  O2  UNL     1      -0.969   1.020   9.297  1.00  0.00    -0.776 OA
HETATM   32  H1  UNL     1      -0.163   0.566   8.973  1.00  0.00     0.167 HD
ENDBRANCH  29  31
ENDBRANCH  28  29
ENDBRANCH  27  28
ENDBRANCH   1  27
TORSDOF 7
ENDMDL
MODEL 6
REMARK minimizedAffinity -8.86898232
REMARK  7 active torsions:
REMARK  status: ('A' for Active; 'I' for Inactive)
REMARK    1  A    between atoms: C1_2  and  O2_3 
REMARK    2  A    between atoms: C1_2  and  C2_4 
REMARK    3  A    between atoms: C2_4  and  C3_5 
REMARK    4  A    between atoms: C3_5  and  C4_6 
REMARK    5  A    between atoms: C5_7  and  C6_8 
REMARK    6  A    between atoms: C12_16  and  C13_17 
REMARK    7  A    between atoms: C13_17  and  O5_19 
ROOT
HETATM    1  C4  UNL     1      -7.717   6.813  14.748  1.00  0.00    -0.023 A 
HETATM    2  C5  UNL     1      -7.560   6.012  13.614  1.00  0.00     0.040 A 
HETATM    3  N2  UNL     1      -8.743   6.069  12.912  1.00  0.00    -0.359 N 
HETATM    4  C16 UNL     1      -9.630   6.879  13.559  1.00  0.00     0.016 A 
HETATM    5  C17 UNL     1      -9.035   7.353  14.705  1.00  0.00    -0.027 A 
HETATM    6  C18 UNL     1      -9.736   8.287  15.637  1.00  0.00     0.041 C 
HETATM    7  C19 UNL     1     -11.254   8.308  15.367  1.00  0.00     0.005 C 
HETATM    8  C20 UNL     1     -11.579   8.373  13.863  1.00  0.00     0.006 C 
HETATM    9  C21 UNL     1     -11.015   7.163  13.096  1.00  0.00     0.057 C 
HETATM   10  H12 UNL     1      -8.936   5.586  12.039  1.00  0.00     0.166 HD
ENDROOT
BRANCH   2  11
HETATM   11  C6  UNL     1      -6.446   5.244  13.169  1.00  0.00     0.048 C 
HETATM   12  C7  UNL     1      -6.392   3.969  12.748  1.00  0.00     0.047 A 
HETATM   13  C8  UNL     1      -7.472   2.921  12.603  1.00  0.00     0.257 A 
HETATM   14  C15 UNL     1      -5.136   3.320  12.315  1.00  0.00     0.007 A 
HETATM   15  O3  UNL     1      -8.659   3.017  12.847  1.00  0.00    -0.267 OA
HETATM   16  N1  UNL     1      -6.830   1.793  12.122  1.00  0.00    -0.322 N 
HETATM   17  C9  UNL     1      -5.470   2.012  11.951  1.00  0.00     0.046 A 
HETATM   18  H7  UNL     1      -7.318   0.931  11.931  1.00  0.00     0.169 HD
HETATM   19  C10 UNL     1      -4.540   1.102  11.491  1.00  0.00     0.031 A 
HETATM   20  C11 UNL     1      -3.214   1.533  11.397  1.00  0.00     0.020 A 
HETATM   21  C12 UNL     1      -2.852   2.850  11.760  1.00  0.00     0.038 A 
HETATM   22  C14 UNL     1      -3.822   3.754  12.225  1.00  0.00     0.033 A 
BRANCH  21  23
HETATM   23  C13 UNL     1      -1.425   3.235  11.633  1.00  0.00     0.176 C 
HETATM   24  O4  UNL     1      -0.533   2.530  11.199  1.00  0.00    -0.646 OA
BRANCH  23  25
HETATM   25  O5  UNL     1      -1.186   4.489  12.055  1.00  0.00    -0.773 OA
HETATM   26  H10 UNL     1      -0.222   4.606  11.920  1.00  0.00     0.167 HD
ENDBRANCH  23  25
ENDBRANCH  21  23
ENDBRANCH   2  11
BRANCH   1  27
HETATM   27  C3  UNL     1      -6.699   7.083  15.816  1.00  0.00     0.052 C 
BRANCH  27  28
HETATM   28  C2  UNL     1      -5.315   7.340  15.229  1.00  0.00     0.115 C 
BRANCH  28  29
HETATM   29  C1  UNL     1      -5.305   8.600  14.415  1.00  0.00     0.139 C 
HETATM   30  O1  UNL     1      -5.066   8.715  13.225  1.00  0.00    -0.650 OA
BRANCH  29  31
HETATM   31  O2  UNL     1      -5.622   9.681  15.156  1.00  0.00    -0.776 OA
HETATM   32  H1  UNL     1      -5.583  10.427  14.521  1.00  0.00     0.167 HD
ENDBRANCH  29  31
ENDBRANCH  28  29
ENDBRANCH  27  28
ENDBRANCH   1  27
TORSDOF 7
ENDMDL
MODEL 7
REMARK minimizedAffinity -8.85149193
REMARK  7 active torsions:
REMARK  status: ('A' for Active; 'I' for Inactive)
REMARK    1  A    between atoms: C1_2  and  O2_3 
REMARK    2  A    between atoms: C1_2  and  C2_4 
REMARK    3  A    between atoms: C2_4  and  C3_5 
REMARK    4  A    between atoms: C3_5  and  C4_6 
REMARK    5  A    between atoms: C5_7  and  C6_8 
REMARK    6  A    between atoms: C12_16  and  C13_17 
REMARK    7  A    between atoms: C13_17  and  O5_19 
ROOT
HETATM    1  C4  UNL     1      -0.705   4.828  11.457  1.00  0.00    -0.023 A 
HETATM    2  C5  UNL     1      -1.461   5.697  12.249  1.00  0.00     0.040 A 
HETATM    3  N2  UNL     1      -0.696   6.822  12.460  1.00  0.00    -0.359 N 
HETATM    4  C16 UNL     1       0.505   6.693  11.825  1.00  0.00     0.016 A 
HETATM    5  C17 UNL     1       0.542   5.469  11.199  1.00  0.00    -0.027 A 
HETATM    6  C18 UNL     1       1.719   5.021  10.397  1.00  0.00     0.041 C 
HETATM    7  C19 UNL     1       2.959   5.887  10.695  1.00  0.00     0.005 C 
HETATM    8  C20 UNL     1       2.623   7.389  10.751  1.00  0.00     0.006 C 
HETATM    9  C21 UNL     1       1.590   7.711  11.847  1.00  0.00     0.057 C 
HETATM   10  H12 UNL     1      -0.975   7.634  13.002  1.00  0.00     0.166 HD
ENDROOT
BRANCH   2  11
HETATM   11  C6  UNL     1      -2.772   5.554  12.788  1.00  0.00     0.048 C 
HETATM   12  C7  UNL     1      -3.817   4.842  12.336  1.00  0.00     0.047 A 
HETATM   13  C8  UNL     1      -3.968   3.959  11.118  1.00  0.00     0.257 A 
HETATM   14  C15 UNL     1      -5.122   4.804  13.029  1.00  0.00     0.007 A 
HETATM   15  O3  UNL     1      -3.145   3.702  10.261  1.00  0.00    -0.267 OA
HETATM   16  N1  UNL     1      -5.267   3.483  11.164  1.00  0.00    -0.322 N 
HETATM   17  C9  UNL     1      -5.950   3.969  12.272  1.00  0.00     0.046 A 
HETATM   18  H7  UNL     1      -5.644   2.863  10.464  1.00  0.00     0.169 HD
HETATM   19  C10 UNL     1      -7.257   3.695  12.619  1.00  0.00     0.031 A 
HETATM   20  C11 UNL     1      -7.749   4.293  13.782  1.00  0.00     0.020 A 
HETATM   21  C12 UNL     1      -6.933   5.142  14.563  1.00  0.00     0.038 A 
HETATM   22  C14 UNL     1      -5.605   5.402  14.184  1.00  0.00     0.033 A 
BRANCH  21  23
HETATM   23  C13 UNL     1      -7.525   5.741  15.784  1.00  0.00     0.176 C 
HETATM   24  O4  UNL     1      -7.173   6.780  16.310  1.00  0.00    -0.646 OA
BRANCH  23  25
HETATM   25  O5  UNL     1      -8.532   5.007  16.287  1.00  0.00    -0.773 OA
HETATM   26  H10 UNL     1      -8.822   5.509  17.078  1.00  0.00     0.167 HD
ENDBRANCH  23  25
ENDBRANCH  21  23
ENDBRANCH   2  11
BRANCH   1  27
HETATM   27  C3  UNL     1      -1.113   3.478  10.948  1.00  0.00     0.052 C 
BRANCH  27  28
HETATM   28  C2  UNL     1      -0.216   2.371  11.493  1.00  0.00     0.115 C 
BRANCH  28  29
HETATM   29  C1  UNL     1      -0.484   1.071  10.793  1.00  0.00     0.139 C 
HETATM   30  O1  UNL     1      -0.095  -0.039  11.112  1.00  0.00    -0.650 OA
BRANCH  29  31
HETATM   31  O2  UNL     1      -1.265   1.236   9.706  1.00  0.00    -0.776 OA
HETATM   32  H1  UNL     1      -1.367   0.330   9.345  1.00  0.00     0.167 HD
ENDBRANCH  29  31
ENDBRANCH  28  29
ENDBRANCH  27  28
ENDBRANCH   1  27
TORSDOF 7
ENDMDL
MODEL 8
REMARK minimizedAffinity -8.75697327
REMARK  7 active torsions:
REMARK  status: ('A' for Active; 'I' for Inactive)
REMARK    1  A    between atoms: C1_2  and  O2_3 
REMARK    2  A    between atoms: C1_2  and  C2_4 
REMARK    3  A    between atoms: C2_4  and  C3_5 
REMARK    4  A    between atoms: C3_5  and  C4_6 
REMARK    5  A    between atoms: C5_7  and  C6_8 
REMARK    6  A    between atoms: C12_16  and  C13_17 
REMARK    7  A    between atoms: C13_17  and  O5_19 
ROOT
HETATM    1  C4  UNL     1      -4.254   5.534  13.034  1.00  0.00    -0.023 A 
HETATM    2  C5  UNL     1      -3.365   4.901  12.162  1.00  0.00     0.040 A 
HETATM    3  N2  UNL     1      -3.954   3.719  11.771  1.00  0.00    -0.359 N 
HETATM    4  C16 UNL     1      -5.179   3.594  12.360  1.00  0.00     0.016 A 
HETATM    5  C17 UNL     1      -5.398   4.694  13.156  1.00  0.00    -0.027 A 
HETATM    6  C18 UNL     1      -6.661   4.875  13.932  1.00  0.00     0.041 C 
HETATM    7  C19 UNL     1      -7.448   3.553  14.033  1.00  0.00     0.005 C 
HETATM    8  C20 UNL     1      -7.500   2.800  12.692  1.00  0.00     0.006 C 
HETATM    9  C21 UNL     1      -6.094   2.435  12.177  1.00  0.00     0.057 C 
HETATM   10  H12 UNL     1      -3.549   3.037  11.138  1.00  0.00     0.166 HD
ENDROOT
BRANCH   2  11
HETATM   11  C6  UNL     1      -2.079   5.301  11.697  1.00  0.00     0.048 C 
HETATM   12  C7  UNL     1      -0.964   5.589  12.389  1.00  0.00     0.047 A 
HETATM   13  C8  UNL     1      -0.686   5.591  13.875  1.00  0.00     0.257 A 
HETATM   14  C15 UNL     1       0.301   5.991  11.738  1.00  0.00     0.007 A 
HETATM   15  O3  UNL     1      -1.443   5.324  14.788  1.00  0.00    -0.267 OA
HETATM   16  N1  UNL     1       0.640   5.967  14.003  1.00  0.00    -0.322 N 
HETATM   17  C9  UNL     1       1.225   6.204  12.766  1.00  0.00     0.046 A 
HETATM   18  H7  UNL     1       1.096   6.052  14.898  1.00  0.00     0.169 HD
HETATM   19  C10 UNL     1       2.528   6.594  12.533  1.00  0.00     0.031 A 
HETATM   20  C11 UNL     1       2.913   6.780  11.203  1.00  0.00     0.020 A 
HETATM   21  C12 UNL     1       1.997   6.572  10.147  1.00  0.00     0.038 A 
HETATM   22  C14 UNL     1       0.676   6.174  10.416  1.00  0.00     0.033 A 
BRANCH  21  23
HETATM   23  C13 UNL     1       2.478   6.788   8.760  1.00  0.00     0.176 C 
HETATM   24  O4  UNL     1       2.692   7.868   8.241  1.00  0.00    -0.646 OA
BRANCH  23  25
HETATM   25  O5  UNL     1       2.668   5.638   8.091  1.00  0.00    -0.773 OA
HETATM   26  H10 UNL     1       2.976   5.925   7.205  1.00  0.00     0.167 HD
ENDBRANCH  23  25
ENDBRANCH  21  23
ENDBRANCH   2  11
BRANCH   1  27
HETATM   27  C3  UNL     1      -4.068   6.858  13.715  1.00  0.00     0.052 C 
BRANCH  27  28
HETATM   28  C2  UNL     1      -5.064   7.899  13.214  1.00  0.00     0.115 C 
BRANCH  28  29
HETATM   29  C1  UNL     1      -5.727   8.601  14.362  1.00  0.00     0.139 C 
HETATM   30  O1  UNL     1      -6.794   8.328  14.884  1.00  0.00    -0.650 OA
BRANCH  29  31
HETATM   31  O2  UNL     1      -4.985   9.630  14.819  1.00  0.00    -0.776 OA
HETATM   32  H1  UNL     1      -5.516   9.999  15.557  1.00  0.00     0.167 HD
ENDBRANCH  29  31
ENDBRANCH  28  29
ENDBRANCH  27  28
ENDBRANCH   1  27
TORSDOF 7
ENDMDL
MODEL 9
REMARK minimizedAffinity -8.56315422
REMARK  7 active torsions:
REMARK  status: ('A' for Active; 'I' for Inactive)
REMARK    1  A    between atoms: C1_2  and  O2_3 
REMARK    2  A    between atoms: C1_2  and  C2_4 
REMARK    3  A    between atoms: C2_4  and  C3_5 
REMARK    4  A    between atoms: C3_5  and  C4_6 
REMARK    5  A    between atoms: C5_7  and  C6_8 
REMARK    6  A    between atoms: C12_16  and  C13_17 
REMARK    7  A    between atoms: C13_17  and  O5_19 
ROOT
HETATM    1  C4  UNL     1      -3.716   4.590  12.350  1.00  0.00    -0.023 A 
HETATM    2  C5  UNL     1      -4.253   5.642  13.098  1.00  0.00     0.040 A 
HETATM    3  N2  UNL     1      -5.563   5.317  13.370  1.00  0.00    -0.359 N 
HETATM    4  C16 UNL     1      -5.863   4.101  12.828  1.00  0.00     0.016 A 
HETATM    5  C17 UNL     1      -4.747   3.622  12.181  1.00  0.00    -0.027 A 
HETATM    6  C18 UNL     1      -4.736   2.297  11.492  1.00  0.00     0.041 C 
HETATM    7  C19 UNL     1      -6.167   1.772  11.268  1.00  0.00     0.005 C 
HETATM    8  C20 UNL     1      -7.058   1.958  12.510  1.00  0.00     0.006 C 
HETATM    9  C21 UNL     1      -7.192   3.439  12.911  1.00  0.00     0.057 C 
HETATM   10  H12 UNL     1      -6.217   5.887  13.897  1.00  0.00     0.166 HD
ENDROOT
BRANCH   2  11
HETATM   11  C6  UNL     1      -3.660   6.857  13.548  1.00  0.00     0.048 C 
HETATM   12  C7  UNL     1      -2.622   7.052  14.378  1.00  0.00     0.047 A 
HETATM   13  C8  UNL     1      -1.736   6.073  15.113  1.00  0.00     0.257 A 
HETATM   14  C15 UNL     1      -2.130   8.398  14.743  1.00  0.00     0.007 A 
HETATM   15  O3  UNL     1      -1.781   4.857  15.107  1.00  0.00    -0.267 OA
HETATM   16  N1  UNL     1      -0.832   6.848  15.819  1.00  0.00    -0.322 N 
HETATM   17  C9  UNL     1      -1.052   8.203  15.612  1.00  0.00     0.046 A 
HETATM   18  H7  UNL     1      -0.115   6.449  16.405  1.00  0.00     0.169 HD
HETATM   19  C10 UNL     1      -0.336   9.247  16.162  1.00  0.00     0.031 A 
HETATM   20  C11 UNL     1      -0.729  10.544  15.820  1.00  0.00     0.020 A 
HETATM   21  C12 UNL     1      -1.815  10.765  14.944  1.00  0.00     0.038 A 
HETATM   22  C14 UNL     1      -2.525   9.682  14.400  1.00  0.00     0.033 A 
BRANCH  21  23
HETATM   23  C13 UNL     1      -2.174  12.169  14.627  1.00  0.00     0.176 C 
HETATM   24  O4  UNL     1      -3.057  12.816  15.159  1.00  0.00    -0.646 OA
BRANCH  23  25
HETATM   25  O5  UNL     1      -1.406  12.696  13.658  1.00  0.00    -0.773 OA
HETATM   26  H10 UNL     1      -1.749  13.608  13.550  1.00  0.00     0.167 HD
ENDBRANCH  23  25
ENDBRANCH  21  23
ENDBRANCH   2  11
BRANCH   1  27
HETATM   27  C3  UNL     1      -2.315   4.474  11.827  1.00  0.00     0.052 C 
BRANCH  27  28
HETATM   28  C2  UNL     1      -2.237   3.552  10.614  1.00  0.00     0.115 C 
BRANCH  28  29
HETATM   29  C1  UNL     1      -1.258   2.440  10.849  1.00  0.00     0.139 C 
HETATM   30  O1  UNL     1      -0.379   2.389  11.693  1.00  0.00    -0.650 OA
BRANCH  29  31
HETATM   31  O2  UNL     1      -1.450   1.410  10.000  1.00  0.00    -0.776 OA
HETATM   32  H1  UNL     1      -0.762   0.759  10.252  1.00  0.00     0.167 HD
ENDBRANCH  29  31
ENDBRANCH  28  29
ENDBRANCH  27  28
ENDBRANCH   1  27
TORSDOF 7
ENDMDL
