MODEL 1
REMARK minimizedAffinity -8.49528408
REMARK  7 active torsions:
REMARK  status: ('A' for Active; 'I' for Inactive)
REMARK    1  A    between atoms: O1_2  and  C2_3 
REMARK    2  A    between atoms: C6_11  and  N3_12 
REMARK    3  A    between atoms: N3_12  and  C7_13 
REMARK    4  A    between atoms: C15_23  and  N4_24 
REMARK       I    between atoms: N4_24  and  C16_25 
REMARK    5  A    between atoms: C16_25  and  C17_27 
REMARK    6  A    between atoms: C18_29  and  C19_30 
REMARK    7  A    between atoms: C19_30  and  N5_31 
ROOT
HETATM    1  C2  UNL     1      -0.169  52.487 -26.013  1.00  0.00     0.097 A 
HETATM    2  C3  UNL     1       0.584  53.507 -25.426  1.00  0.00     0.069 A 
HETATM    3  C4  UNL     1       0.742  53.602 -24.049  1.00  0.00     0.049 A 
HETATM    4  N1  UNL     1       1.478  54.606 -23.568  1.00  0.00    -0.351 N 
ATOM      5  H1  UNL     1       1.924  55.286 -24.185  1.00  0.00     0.166 HD
HETATM    6  C5  UNL     1       1.603  54.679 -22.240  1.00  0.00     0.182 A 
HETATM    7  N2  UNL     1       1.069  53.838 -21.352  1.00  0.00    -0.338 N 
ATOM      8  H2  UNL     1       1.210  53.961 -20.349  1.00  0.00     0.168 HD
HETATM    9  C6  UNL     1       0.336  52.820 -21.838  1.00  0.00     0.119 A 
HETATM   10  C13 UNL     1       0.127  52.651 -23.224  1.00  0.00     0.037 A 
HETATM   11  C14 UNL     1      -0.645  51.618 -23.814  1.00  0.00     0.050 A 
HETATM   12  C15 UNL     1      -0.787  51.525 -25.198  1.00  0.00     0.069 A 
ENDROOT
BRANCH  12  13
HETATM   13  N4  UNL     1      -1.523  50.509 -25.845  1.00  0.00    -0.319 N 
HETATM   14  C16 UNL     1      -2.880  50.457 -26.082  1.00  0.00     0.284 C 
HETATM   15  O2  UNL     1      -3.705  51.317 -25.790  1.00  0.00    -0.265 OA
HETATM   16  H11 UNL     1      -0.944  49.745 -26.183  1.00  0.00     0.169 HD
BRANCH  14  17
HETATM   17  C17 UNL     1      -3.322  49.217 -26.788  1.00  0.00     0.182 C 
HETATM   18  F2  UNL     1      -2.726  48.085 -26.355  1.00  0.00    -0.201 F 
HETATM   19  C18 UNL     1      -4.170  49.184 -27.826  1.00  0.00     0.051 C 
BRANCH  19  20
HETATM   20  C19 UNL     1      -4.576  47.921 -28.523  1.00  0.00     0.302 C 
BRANCH  20  21
HETATM   21  N5  UNL     1      -5.858  48.091 -29.224  1.00  0.00     0.083 N 
HETATM   22  C20 UNL     1      -5.702  48.004 -30.679  1.00  0.00     0.309 C 
HETATM   23  C21 UNL     1      -6.814  47.071 -28.780  1.00  0.00     0.309 C 
ENDBRANCH  20  21
ENDBRANCH  19  20
ENDBRANCH  14  17
ENDBRANCH  12  13
BRANCH   1  24
HETATM   24  O1  UNL     1      -0.363  52.326 -27.366  1.00  0.00    -0.354 OA
HETATM   25  C1  UNL     1       0.754  51.886 -28.132  1.00  0.00     0.210 C 
ENDBRANCH   1  24
BRANCH   9  26
HETATM   26  N3  UNL     1      -0.251  51.893 -20.936  1.00  0.00    -0.342 N 
HETATM   27  H6  UNL     1      -0.443  51.021 -21.421  1.00  0.00     0.167 HD
BRANCH  26  28
HETATM   28  C7  UNL     1       0.021  51.686 -19.566  1.00  0.00     0.035 A 
HETATM   29  C8  UNL     1       0.743  52.670 -18.866  1.00  0.00     0.032 A 
HETATM   30  C9  UNL     1       1.088  52.495 -17.523  1.00  0.00     0.046 A 
HETATM   31  C10 UNL     1       0.734  51.320 -16.873  1.00  0.00     0.138 A 
HETATM   32  F1  UNL     1       1.074  51.169 -15.584  1.00  0.00    -0.204 F 
HETATM   33  C11 UNL     1       0.051  50.317 -17.553  1.00  0.00     0.074 A 
HETATM   34 CL1  UNL     1      -0.367  48.847 -16.758  1.00  0.00    -0.081 Cl
HETATM   35  C12 UNL     1      -0.291  50.495 -18.897  1.00  0.00     0.056 A 
ENDBRANCH  26  28
ENDBRANCH   9  26
TORSDOF 7
ENDMDL
MODEL 2
REMARK minimizedAffinity -8.49155712
REMARK  7 active torsions:
REMARK  status: ('A' for Active; 'I' for Inactive)
REMARK    1  A    between atoms: O1_2  and  C2_3 
REMARK    2  A    between atoms: C6_11  and  N3_12 
REMARK    3  A    between atoms: N3_12  and  C7_13 
REMARK    4  A    between atoms: C15_23  and  N4_24 
REMARK       I    between atoms: N4_24  and  C16_25 
REMARK    5  A    between atoms: C16_25  and  C17_27 
REMARK    6  A    between atoms: C18_29  and  C19_30 
REMARK    7  A    between atoms: C19_30  and  N5_31 
ROOT
HETATM    1  C2  UNL     1       0.527  53.036 -23.107  1.00  0.00     0.097 A 
HETATM    2  C3  UNL     1       0.625  53.916 -24.188  1.00  0.00     0.069 A 
HETATM    3  C4  UNL     1       0.090  53.611 -25.433  1.00  0.00     0.049 A 
HETATM    4  N1  UNL     1       0.227  54.507 -26.413  1.00  0.00    -0.351 N 
ATOM      5  H1  UNL     1       0.701  55.397 -26.261  1.00  0.00     0.166 HD
HETATM    6  C5  UNL     1      -0.288  54.182 -27.602  1.00  0.00     0.182 A 
HETATM    7  N2  UNL     1      -0.931  53.051 -27.898  1.00  0.00    -0.338 N 
ATOM      8  H2  UNL     1      -1.296  52.874 -28.835  1.00  0.00     0.168 HD
HETATM    9  C6  UNL     1      -1.077  52.152 -26.907  1.00  0.00     0.119 A 
HETATM   10  C13 UNL     1      -0.564  52.386 -25.613  1.00  0.00     0.037 A 
HETATM   11  C14 UNL     1      -0.659  51.484 -24.522  1.00  0.00     0.050 A 
HETATM   12  C15 UNL     1      -0.129  51.806 -23.274  1.00  0.00     0.069 A 
ENDROOT
BRANCH  12  13
HETATM   13  N4  UNL     1      -0.212  50.962 -22.145  1.00  0.00    -0.319 N 
HETATM   14  C16 UNL     1      -1.051  49.887 -21.942  1.00  0.00     0.284 C 
HETATM   15  O2  UNL     1      -1.876  49.446 -22.735  1.00  0.00    -0.265 OA
HETATM   16  H11 UNL     1       0.461  51.193 -21.418  1.00  0.00     0.169 HD
BRANCH  14  17
HETATM   17  C17 UNL     1      -0.871  49.223 -20.615  1.00  0.00     0.182 C 
HETATM   18  F2  UNL     1      -0.647  47.894 -20.681  1.00  0.00    -0.201 F 
HETATM   19  C18 UNL     1      -0.994  49.834 -19.428  1.00  0.00     0.051 C 
BRANCH  19  20
HETATM   20  C19 UNL     1      -0.825  49.131 -18.116  1.00  0.00     0.302 C 
BRANCH  20  21
HETATM   21  N5  UNL     1      -0.491  50.083 -17.044  1.00  0.00     0.083 N 
HETATM   22  C20 UNL     1       0.390  49.486 -16.036  1.00  0.00     0.309 C 
HETATM   23  C21 UNL     1       0.158  51.271 -17.610  1.00  0.00     0.309 C 
ENDBRANCH  20  21
ENDBRANCH  19  20
ENDBRANCH  14  17
ENDBRANCH  12  13
BRANCH   1  24
HETATM   24  O1  UNL     1       1.025  53.273 -21.847  1.00  0.00    -0.354 OA
HETATM   25  C1  UNL     1       1.737  54.491 -21.650  1.00  0.00     0.210 C 
ENDBRANCH   1  24
BRANCH   9  26
HETATM   26  N3  UNL     1      -1.758  50.934 -27.168  1.00  0.00    -0.342 N 
HETATM   27  H6  UNL     1      -1.124  50.278 -27.614  1.00  0.00     0.167 HD
BRANCH  26  28
HETATM   28  C7  UNL     1      -2.740  50.277 -26.394  1.00  0.00     0.035 A 
HETATM   29  C8  UNL     1      -2.960  48.903 -26.607  1.00  0.00     0.032 A 
HETATM   30  C9  UNL     1      -3.955  48.215 -25.908  1.00  0.00     0.046 A 
HETATM   31  C10 UNL     1      -4.757  48.899 -25.004  1.00  0.00     0.138 A 
HETATM   32  F1  UNL     1      -5.707  48.221 -24.343  1.00  0.00    -0.204 F 
HETATM   33  C11 UNL     1      -4.582  50.264 -24.803  1.00  0.00     0.074 A 
HETATM   34 CL1  UNL     1      -5.592  51.123 -23.703  1.00  0.00    -0.081 Cl
HETATM   35  C12 UNL     1      -3.587  50.951 -25.504  1.00  0.00     0.056 A 
ENDBRANCH  26  28
ENDBRANCH   9  26
TORSDOF 7
ENDMDL
MODEL 3
REMARK minimizedAffinity -8.30233097
REMARK  7 active torsions:
REMARK  status: ('A' for Active; 'I' for Inactive)
REMARK    1  A    between atoms: O1_2  and  C2_3 
REMARK    2  A    between atoms: C6_11  and  N3_12 
REMARK    3  A    between atoms: N3_12  and  C7_13 
REMARK    4  A    between atoms: C15_23  and  N4_24 
REMARK       I    between atoms: N4_24  and  C16_25 
REMARK    5  A    between atoms: C16_25  and  C17_27 
REMARK    6  A    between atoms: C18_29  and  C19_30 
REMARK    7  A    between atoms: C19_30  and  N5_31 
ROOT
HETATM    1  C2  UNL     1      -0.010  52.355 -25.718  1.00  0.00     0.097 A 
HETATM    2  C3  UNL     1       0.770  53.352 -25.126  1.00  0.00     0.069 A 
HETATM    3  C4  UNL     1       0.808  53.532 -23.749  1.00  0.00     0.049 A 
HETATM    4  N1  UNL     1       1.580  54.507 -23.263  1.00  0.00    -0.351 N 
ATOM      5  H1  UNL     1       2.136  55.103 -23.875  1.00  0.00     0.166 HD
HETATM    6  C5  UNL     1       1.587  54.664 -21.936  1.00  0.00     0.182 A 
HETATM    7  N2  UNL     1       0.903  53.934 -21.053  1.00  0.00    -0.338 N 
ATOM      8  H2  UNL     1       0.961  54.117 -20.051  1.00  0.00     0.168 HD
HETATM    9  C6  UNL     1       0.134  52.944 -21.543  1.00  0.00     0.119 A 
HETATM   10  C13 UNL     1       0.041  52.694 -22.929  1.00  0.00     0.037 A 
HETATM   11  C14 UNL     1      -0.760  51.686 -23.526  1.00  0.00     0.050 A 
HETATM   12  C15 UNL     1      -0.780  51.506 -24.907  1.00  0.00     0.069 A 
ENDROOT
BRANCH  12  13
HETATM   13  N4  UNL     1      -1.538  50.508 -25.558  1.00  0.00    -0.319 N 
HETATM   14  C16 UNL     1      -2.836  50.583 -26.015  1.00  0.00     0.284 C 
HETATM   15  O2  UNL     1      -3.573  51.562 -25.960  1.00  0.00    -0.265 OA
HETATM   16  H11 UNL     1      -1.022  49.645 -25.710  1.00  0.00     0.169 HD
BRANCH  14  17
HETATM   17  C17 UNL     1      -3.326  49.322 -26.649  1.00  0.00     0.182 C 
HETATM   18  F2  UNL     1      -2.927  48.192 -26.027  1.00  0.00    -0.201 F 
HETATM   19  C18 UNL     1      -4.033  49.258 -27.786  1.00  0.00     0.051 C 
BRANCH  19  20
HETATM   20  C19 UNL     1      -4.492  47.972 -28.404  1.00  0.00     0.302 C 
BRANCH  20  21
HETATM   21  N5  UNL     1      -5.763  48.154 -29.123  1.00  0.00     0.083 N 
HETATM   22  C20 UNL     1      -5.799  47.387 -30.372  1.00  0.00     0.309 C 
HETATM   23  C21 UNL     1      -6.885  47.744 -28.273  1.00  0.00     0.309 C 
ENDBRANCH  20  21
ENDBRANCH  19  20
ENDBRANCH  14  17
ENDBRANCH  12  13
BRANCH   1  24
HETATM   24  O1  UNL     1      -0.091  52.114 -27.070  1.00  0.00    -0.354 OA
HETATM   25  C1  UNL     1       1.113  51.749 -27.736  1.00  0.00     0.210 C 
ENDBRANCH   1  24
BRANCH   9  26
HETATM   26  N3  UNL     1      -0.611  52.133 -20.646  1.00  0.00    -0.342 N 
HETATM   27  H6  UNL     1      -1.222  51.517 -21.173  1.00  0.00     0.167 HD
BRANCH  26  28
HETATM   28  C7  UNL     1      -0.210  51.560 -19.419  1.00  0.00     0.035 A 
HETATM   29  C8  UNL     1      -0.632  50.252 -19.116  1.00  0.00     0.032 A 
HETATM   30  C9  UNL     1      -0.311  49.655 -17.895  1.00  0.00     0.046 A 
HETATM   31  C10 UNL     1       0.417  50.370 -16.952  1.00  0.00     0.138 A 
HETATM   32  F1  UNL     1       0.715  49.780 -15.785  1.00  0.00    -0.204 F 
HETATM   33  C11 UNL     1       0.816  51.676 -17.215  1.00  0.00     0.074 A 
HETATM   34 CL1  UNL     1       1.695  52.576 -16.039  1.00  0.00    -0.081 Cl
HETATM   35  C12 UNL     1       0.491  52.272 -18.437  1.00  0.00     0.056 A 
ENDBRANCH  26  28
ENDBRANCH   9  26
TORSDOF 7
ENDMDL
MODEL 4
REMARK minimizedAffinity -8.2137537
REMARK  7 active torsions:
REMARK  status: ('A' for Active; 'I' for Inactive)
REMARK    1  A    between atoms: O1_2  and  C2_3 
REMARK    2  A    between atoms: C6_11  and  N3_12 
REMARK    3  A    between atoms: N3_12  and  C7_13 
REMARK    4  A    between atoms: C15_23  and  N4_24 
REMARK       I    between atoms: N4_24  and  C16_25 
REMARK    5  A    between atoms: C16_25  and  C17_27 
REMARK    6  A    between atoms: C18_29  and  C19_30 
REMARK    7  A    between atoms: C19_30  and  N5_31 
ROOT
HETATM    1  C2  UNL     1       0.123  52.735 -25.005  1.00  0.00     0.097 A 
HETATM    2  C3  UNL     1       0.852  53.464 -24.062  1.00  0.00     0.069 A 
HETATM    3  C4  UNL     1       0.663  53.292 -22.696  1.00  0.00     0.049 A 
HETATM    4  N1  UNL     1       1.400  54.027 -21.862  1.00  0.00    -0.351 N 
ATOM      5  H1  UNL     1       2.091  54.694 -22.205  1.00  0.00     0.166 HD
HETATM    6  C5  UNL     1       1.189  53.847 -20.554  1.00  0.00     0.182 A 
HETATM    7  N2  UNL     1       0.318  52.997 -20.007  1.00  0.00    -0.338 N 
ATOM      8  H2  UNL     1       0.214  52.919 -18.996  1.00  0.00     0.168 HD
HETATM    9  C6  UNL     1      -0.417  52.249 -20.850  1.00  0.00     0.119 A 
HETATM   10  C13 UNL     1      -0.286  52.363 -22.250  1.00  0.00     0.037 A 
HETATM   11  C14 UNL     1      -1.035  51.626 -23.204  1.00  0.00     0.050 A 
HETATM   12  C15 UNL     1      -0.829  51.798 -24.571  1.00  0.00     0.069 A 
ENDROOT
BRANCH  12  13
HETATM   13  N4  UNL     1      -1.526  51.080 -25.567  1.00  0.00    -0.319 N 
HETATM   14  C16 UNL     1      -2.638  51.471 -26.282  1.00  0.00     0.284 C 
HETATM   15  O2  UNL     1      -3.217  52.548 -26.197  1.00  0.00    -0.265 OA
HETATM   16  H11 UNL     1      -1.115  50.172 -25.771  1.00  0.00     0.169 HD
BRANCH  14  17
HETATM   17  C17 UNL     1      -3.120  50.445 -27.255  1.00  0.00     0.182 C 
HETATM   18  F2  UNL     1      -3.359  50.921 -28.496  1.00  0.00    -0.201 F 
HETATM   19  C18 UNL     1      -3.389  49.167 -26.954  1.00  0.00     0.051 C 
BRANCH  19  20
HETATM   20  C19 UNL     1      -3.890  48.169 -27.954  1.00  0.00     0.302 C 
BRANCH  20  21
HETATM   21  N5  UNL     1      -5.295  48.432 -28.306  1.00  0.00     0.083 N 
HETATM   22  C20 UNL     1      -5.573  48.121 -29.712  1.00  0.00     0.309 C 
HETATM   23  C21 UNL     1      -6.185  47.641 -27.451  1.00  0.00     0.309 C 
ENDBRANCH  20  21
ENDBRANCH  19  20
ENDBRANCH  14  17
ENDBRANCH  12  13
BRANCH   1  24
HETATM   24  O1  UNL     1       0.260  52.848 -26.369  1.00  0.00    -0.354 OA
HETATM   25  C1  UNL     1      -0.023  54.119 -26.946  1.00  0.00     0.210 C 
ENDBRANCH   1  24
BRANCH   9  26
HETATM   26  N3  UNL     1      -1.356  51.324 -20.319  1.00  0.00    -0.342 N 
HETATM   27  H6  UNL     1      -1.783  51.714 -19.484  1.00  0.00     0.167 HD
BRANCH  26  28
HETATM   28  C7  UNL     1      -2.231  50.451 -21.002  1.00  0.00     0.035 A 
HETATM   29  C8  UNL     1      -1.756  49.182 -21.383  1.00  0.00     0.032 A 
HETATM   30  C9  UNL     1      -2.560  48.298 -22.107  1.00  0.00     0.046 A 
HETATM   31  C10 UNL     1      -3.841  48.684 -22.479  1.00  0.00     0.138 A 
HETATM   32  F1  UNL     1      -4.598  47.823 -23.175  1.00  0.00    -0.204 F 
HETATM   33  C11 UNL     1      -4.320  49.947 -22.145  1.00  0.00     0.074 A 
HETATM   34 CL1  UNL     1      -5.898  50.440 -22.628  1.00  0.00    -0.081 Cl
HETATM   35  C12 UNL     1      -3.513  50.830 -21.422  1.00  0.00     0.056 A 
ENDBRANCH  26  28
ENDBRANCH   9  26
TORSDOF 7
ENDMDL
MODEL 5
REMARK minimizedAffinity -8.17620277
REMARK  7 active torsions:
REMARK  status: ('A' for Active; 'I' for Inactive)
REMARK    1  A    between atoms: O1_2  and  C2_3 
REMARK    2  A    between atoms: C6_11  and  N3_12 
REMARK    3  A    between atoms: N3_12  and  C7_13 
REMARK    4  A    between atoms: C15_23  and  N4_24 
REMARK       I    between atoms: N4_24  and  C16_25 
REMARK    5  A    between atoms: C16_25  and  C17_27 
REMARK    6  A    between atoms: C18_29  and  C19_30 
REMARK    7  A    between atoms: C19_30  and  N5_31 
ROOT
HETATM    1  C2  UNL     1      -0.414  52.738 -25.994  1.00  0.00     0.097 A 
HETATM    2  C3  UNL     1       0.298  53.769 -25.376  1.00  0.00     0.069 A 
HETATM    3  C4  UNL     1       0.679  53.700 -24.041  1.00  0.00     0.049 A 
HETATM    4  N1  UNL     1       1.357  54.728 -23.527  1.00  0.00    -0.351 N 
ATOM      5  H1  UNL     1       1.602  55.542 -24.090  1.00  0.00     0.166 HD
HETATM    6  C5  UNL     1       1.700  54.638 -22.239  1.00  0.00     0.182 A 
HETATM    7  N2  UNL     1       1.436  53.615 -21.423  1.00  0.00    -0.338 N 
ATOM      8  H2  UNL     1       1.732  53.622 -20.447  1.00  0.00     0.168 HD
HETATM    9  C6  UNL     1       0.761  52.575 -21.946  1.00  0.00     0.119 A 
HETATM   10  C13 UNL     1       0.338  52.566 -23.292  1.00  0.00     0.037 A 
HETATM   11  C14 UNL     1      -0.392  51.520 -23.912  1.00  0.00     0.050 A 
HETATM   12  C15 UNL     1      -0.758  51.595 -25.255  1.00  0.00     0.069 A 
ENDROOT
BRANCH  12  13
HETATM   13  N4  UNL     1      -1.465  50.578 -25.934  1.00  0.00    -0.319 N 
HETATM   14  C16 UNL     1      -2.828  50.386 -26.005  1.00  0.00     0.284 C 
HETATM   15  O2  UNL     1      -3.691  51.097 -25.501  1.00  0.00    -0.265 OA
HETATM   16  H11 UNL     1      -0.860  49.936 -26.440  1.00  0.00     0.169 HD
BRANCH  14  17
HETATM   17  C17 UNL     1      -3.228  49.192 -26.808  1.00  0.00     0.182 C 
HETATM   18  F2  UNL     1      -2.542  48.067 -26.515  1.00  0.00    -0.201 F 
HETATM   19  C18 UNL     1      -4.126  49.201 -27.804  1.00  0.00     0.051 C 
BRANCH  19  20
HETATM   20  C19 UNL     1      -4.489  47.986 -28.601  1.00  0.00     0.302 C 
BRANCH  20  21
HETATM   21  N5  UNL     1      -5.851  48.096 -29.145  1.00  0.00     0.083 N 
HETATM   22  C20 UNL     1      -5.845  48.351 -30.590  1.00  0.00     0.309 C 
HETATM   23  C21 UNL     1      -6.602  46.866 -28.876  1.00  0.00     0.309 C 
ENDBRANCH  20  21
ENDBRANCH  19  20
ENDBRANCH  14  17
ENDBRANCH  12  13
BRANCH   1  24
HETATM   24  O1  UNL     1      -0.818  52.734 -27.309  1.00  0.00    -0.354 OA
HETATM   25  C1  UNL     1      -0.473  53.870 -28.096  1.00  0.00     0.210 C 
ENDBRANCH   1  24
BRANCH   9  26
HETATM   26  N3  UNL     1       0.458  51.458 -21.122  1.00  0.00    -0.342 N 
HETATM   27  H6  UNL     1       0.965  51.535 -20.245  1.00  0.00     0.167 HD
BRANCH  26  28
HETATM   28  C7  UNL     1      -0.766  50.770 -20.967  1.00  0.00     0.035 A 
HETATM   29  C8  UNL     1      -1.855  51.451 -20.393  1.00  0.00     0.032 A 
HETATM   30  C9  UNL     1      -3.072  50.803 -20.167  1.00  0.00     0.046 A 
HETATM   31  C10 UNL     1      -3.205  49.459 -20.491  1.00  0.00     0.138 A 
HETATM   32  F1  UNL     1      -4.381  48.854 -20.266  1.00  0.00    -0.204 F 
HETATM   33  C11 UNL     1      -2.131  48.756 -21.026  1.00  0.00     0.074 A 
HETATM   34 CL1  UNL     1      -2.282  47.082 -21.404  1.00  0.00    -0.081 Cl
HETATM   35  C12 UNL     1      -0.914  49.405 -21.250  1.00  0.00     0.056 A 
ENDBRANCH  26  28
ENDBRANCH   9  26
TORSDOF 7
ENDMDL
MODEL 6
REMARK minimizedAffinity -8.16900921
REMARK  7 active torsions:
REMARK  status: ('A' for Active; 'I' for Inactive)
REMARK    1  A    between atoms: O1_2  and  C2_3 
REMARK    2  A    between atoms: C6_11  and  N3_12 
REMARK    3  A    between atoms: N3_12  and  C7_13 
REMARK    4  A    between atoms: C15_23  and  N4_24 
REMARK       I    between atoms: N4_24  and  C16_25 
REMARK    5  A    between atoms: C16_25  and  C17_27 
REMARK    6  A    between atoms: C18_29  and  C19_30 
REMARK    7  A    between atoms: C19_30  and  N5_31 
ROOT
HETATM    1  C2  UNL     1       0.461  52.814 -23.238  1.00  0.00     0.097 A 
HETATM    2  C3  UNL     1       0.667  53.731 -24.272  1.00  0.00     0.069 A 
HETATM    3  C4  UNL     1      -0.000  53.630 -25.486  1.00  0.00     0.049 A 
HETATM    4  N1  UNL     1       0.253  54.547 -26.422  1.00  0.00    -0.351 N 
ATOM      5  H1  UNL     1       0.909  55.310 -26.259  1.00  0.00     0.166 HD
HETATM    6  C5  UNL     1      -0.395  54.416 -27.584  1.00  0.00     0.182 A 
HETATM    7  N2  UNL     1      -1.276  53.462 -27.891  1.00  0.00    -0.338 N 
ATOM      8  H2  UNL     1      -1.730  53.430 -28.804  1.00  0.00     0.168 HD
HETATM    9  C6  UNL     1      -1.538  52.544 -26.943  1.00  0.00     0.119 A 
HETATM   10  C13 UNL     1      -0.904  52.577 -25.683  1.00  0.00     0.037 A 
HETATM   11  C14 UNL     1      -1.111  51.638 -24.639  1.00  0.00     0.050 A 
HETATM   12  C15 UNL     1      -0.445  51.757 -23.421  1.00  0.00     0.069 A 
ENDROOT
BRANCH  12  13
HETATM   13  N4  UNL     1      -0.625  50.869 -22.338  1.00  0.00    -0.319 N 
HETATM   14  C16 UNL     1      -1.702  50.772 -21.482  1.00  0.00     0.284 C 
HETATM   15  O2  UNL     1      -2.731  51.439 -21.528  1.00  0.00    -0.265 OA
HETATM   16  H11 UNL     1       0.148  50.219 -22.216  1.00  0.00     0.169 HD
BRANCH  14  17
HETATM   17  C17 UNL     1      -1.548  49.718 -20.435  1.00  0.00     0.182 C 
HETATM   18  F2  UNL     1      -0.344  49.710 -19.824  1.00  0.00    -0.201 F 
HETATM   19  C18 UNL     1      -2.463  48.782 -20.147  1.00  0.00     0.051 C 
BRANCH  19  20
HETATM   20  C19 UNL     1      -2.266  47.726 -19.102  1.00  0.00     0.302 C 
BRANCH  20  21
HETATM   21  N5  UNL     1      -3.434  47.637 -18.212  1.00  0.00     0.083 N 
HETATM   22  C20 UNL     1      -3.621  48.863 -17.430  1.00  0.00     0.309 C 
HETATM   23  C21 UNL     1      -4.645  47.375 -18.997  1.00  0.00     0.309 C 
ENDBRANCH  20  21
ENDBRANCH  19  20
ENDBRANCH  14  17
ENDBRANCH  12  13
BRANCH   1  24
HETATM   24  O1  UNL     1       1.079  52.856 -22.010  1.00  0.00    -0.354 OA
HETATM   25  C1  UNL     1       1.439  54.140 -21.509  1.00  0.00     0.210 C 
ENDBRANCH   1  24
BRANCH   9  26
HETATM   26  N3  UNL     1      -2.472  51.509 -27.217  1.00  0.00    -0.342 N 
HETATM   27  H6  UNL     1      -2.217  51.041 -28.081  1.00  0.00     0.167 HD
BRANCH  26  28
HETATM   28  C7  UNL     1      -3.130  50.640 -26.318  1.00  0.00     0.035 A 
HETATM   29  C8  UNL     1      -3.009  49.252 -26.512  1.00  0.00     0.032 A 
HETATM   30  C9  UNL     1      -3.682  48.347 -25.687  1.00  0.00     0.046 A 
HETATM   31  C10 UNL     1      -4.502  48.823 -24.672  1.00  0.00     0.138 A 
HETATM   32  F1  UNL     1      -5.140  47.939 -23.891  1.00  0.00    -0.204 F 
HETATM   33  C11 UNL     1      -4.665  50.191 -24.484  1.00  0.00     0.074 A 
HETATM   34 CL1  UNL     1      -5.703  50.787 -23.244  1.00  0.00    -0.081 Cl
HETATM   35  C12 UNL     1      -3.993  51.095 -25.311  1.00  0.00     0.056 A 
ENDBRANCH  26  28
ENDBRANCH   9  26
TORSDOF 7
ENDMDL
MODEL 7
REMARK minimizedAffinity -8.12949467
REMARK  7 active torsions:
REMARK  status: ('A' for Active; 'I' for Inactive)
REMARK    1  A    between atoms: O1_2  and  C2_3 
REMARK    2  A    between atoms: C6_11  and  N3_12 
REMARK    3  A    between atoms: N3_12  and  C7_13 
REMARK    4  A    between atoms: C15_23  and  N4_24 
REMARK       I    between atoms: N4_24  and  C16_25 
REMARK    5  A    between atoms: C16_25  and  C17_27 
REMARK    6  A    between atoms: C18_29  and  C19_30 
REMARK    7  A    between atoms: C19_30  and  N5_31 
ROOT
HETATM    1  C2  UNL     1      -0.602  52.295 -25.564  1.00  0.00     0.097 A 
HETATM    2  C3  UNL     1       0.340  53.231 -25.130  1.00  0.00     0.069 A 
HETATM    3  C4  UNL     1       0.589  53.450 -23.780  1.00  0.00     0.049 A 
HETATM    4  N1  UNL     1       1.505  54.362 -23.449  1.00  0.00    -0.351 N 
ATOM      5  H1  UNL     1       2.020  54.884 -24.158  1.00  0.00     0.166 HD
HETATM    6  C5  UNL     1       1.714  54.558 -22.144  1.00  0.00     0.182 A 
HETATM    7  N2  UNL     1       1.101  53.923 -21.144  1.00  0.00    -0.338 N 
ATOM      8  H2  UNL     1       1.316  54.131 -20.169  1.00  0.00     0.168 HD
HETATM    9  C6  UNL     1       0.185  52.996 -21.479  1.00  0.00     0.119 A 
HETATM   10  C13 UNL     1      -0.126  52.714 -22.826  1.00  0.00     0.037 A 
HETATM   11  C14 UNL     1      -1.090  51.768 -23.262  1.00  0.00     0.050 A 
HETATM   12  C15 UNL     1      -1.322  51.548 -24.618  1.00  0.00     0.069 A 
ENDROOT
BRANCH  12  13
HETATM   13  N4  UNL     1      -2.250  50.606 -25.113  1.00  0.00    -0.319 N 
HETATM   14  C16 UNL     1      -2.738  49.478 -24.488  1.00  0.00     0.284 C 
HETATM   15  O2  UNL     1      -2.466  49.098 -23.354  1.00  0.00    -0.265 OA
HETATM   16  H11 UNL     1      -2.597  50.831 -26.042  1.00  0.00     0.169 HD
BRANCH  14  17
HETATM   17  C17 UNL     1      -3.706  48.699 -25.318  1.00  0.00     0.182 C 
HETATM   18  F2  UNL     1      -3.161  48.104 -26.401  1.00  0.00    -0.201 F 
HETATM   19  C18 UNL     1      -5.027  48.634 -25.099  1.00  0.00     0.051 C 
BRANCH  19  20
HETATM   20  C19 UNL     1      -5.971  47.857 -25.966  1.00  0.00     0.302 C 
BRANCH  20  21
HETATM   21  N5  UNL     1      -7.135  47.392 -25.196  1.00  0.00     0.083 N 
HETATM   22  C20 UNL     1      -7.941  48.509 -24.693  1.00  0.00     0.309 C 
HETATM   23  C21 UNL     1      -7.977  46.527 -26.030  1.00  0.00     0.309 C 
ENDBRANCH  20  21
ENDBRANCH  19  20
ENDBRANCH  14  17
ENDBRANCH  12  13
BRANCH   1  24
HETATM   24  O1  UNL     1      -0.895  52.021 -26.880  1.00  0.00    -0.354 OA
HETATM   25  C1  UNL     1       0.205  51.879 -27.773  1.00  0.00     0.210 C 
ENDBRANCH   1  24
BRANCH   9  26
HETATM   26  N3  UNL     1      -0.495  52.287 -20.453  1.00  0.00    -0.342 N 
HETATM   27  H6  UNL     1      -1.083  51.570 -20.867  1.00  0.00     0.167 HD
BRANCH  26  28
HETATM   28  C7  UNL     1      -0.036  51.919 -19.169  1.00  0.00     0.035 A 
HETATM   29  C8  UNL     1       0.848  52.781 -18.495  1.00  0.00     0.032 A 
HETATM   30  C9  UNL     1       1.376  52.443 -17.247  1.00  0.00     0.046 A 
HETATM   31  C10 UNL     1       1.042  51.225 -16.669  1.00  0.00     0.138 A 
HETATM   32  F1  UNL     1       1.559  50.917 -15.470  1.00  0.00    -0.204 F 
HETATM   33  C11 UNL     1       0.198  50.340 -17.331  1.00  0.00     0.074 A 
HETATM   34 CL1  UNL     1      -0.197  48.816 -16.631  1.00  0.00    -0.081 Cl
HETATM   35  C12 UNL     1      -0.327  50.681 -18.581  1.00  0.00     0.056 A 
ENDBRANCH  26  28
ENDBRANCH   9  26
TORSDOF 7
ENDMDL
MODEL 8
REMARK minimizedAffinity -8.10620308
REMARK  7 active torsions:
REMARK  status: ('A' for Active; 'I' for Inactive)
REMARK    1  A    between atoms: O1_2  and  C2_3 
REMARK    2  A    between atoms: C6_11  and  N3_12 
REMARK    3  A    between atoms: N3_12  and  C7_13 
REMARK    4  A    between atoms: C15_23  and  N4_24 
REMARK       I    between atoms: N4_24  and  C16_25 
REMARK    5  A    between atoms: C16_25  and  C17_27 
REMARK    6  A    between atoms: C18_29  and  C19_30 
REMARK    7  A    between atoms: C19_30  and  N5_31 
ROOT
HETATM    1  C2  UNL     1       0.485  53.432 -22.788  1.00  0.00     0.097 A 
HETATM    2  C3  UNL     1       0.463  54.067 -24.033  1.00  0.00     0.069 A 
HETATM    3  C4  UNL     1       0.083  53.399 -25.190  1.00  0.00     0.049 A 
HETATM    4  N1  UNL     1       0.089  54.077 -26.339  1.00  0.00    -0.351 N 
ATOM      5  H1  UNL     1       0.355  55.061 -26.377  1.00  0.00     0.166 HD
HETATM    6  C5  UNL     1      -0.270  53.405 -27.437  1.00  0.00     0.182 A 
HETATM    7  N2  UNL     1      -0.642  52.125 -27.490  1.00  0.00    -0.338 N 
ATOM      8  H2  UNL     1      -0.902  51.681 -28.371  1.00  0.00     0.168 HD
HETATM    9  C6  UNL     1      -0.657  51.444 -26.329  1.00  0.00     0.119 A 
HETATM   10  C13 UNL     1      -0.286  52.049 -25.109  1.00  0.00     0.037 A 
HETATM   11  C14 UNL     1      -0.258  51.398 -23.849  1.00  0.00     0.050 A 
HETATM   12  C15 UNL     1       0.113  52.081 -22.693  1.00  0.00     0.069 A 
ENDROOT
BRANCH  12  13
HETATM   13  N4  UNL     1       0.139  51.495 -21.409  1.00  0.00    -0.319 N 
HETATM   14  C16 UNL     1      -0.927  51.159 -20.601  1.00  0.00     0.284 C 
HETATM   15  O2  UNL     1      -2.116  51.288 -20.872  1.00  0.00    -0.265 OA
HETATM   16  H11 UNL     1       1.079  51.290 -21.078  1.00  0.00     0.169 HD
BRANCH  14  17
HETATM   17  C17 UNL     1      -0.526  50.562 -19.292  1.00  0.00     0.182 C 
HETATM   18  F2  UNL     1      -0.704  49.226 -19.209  1.00  0.00    -0.201 F 
HETATM   19  C18 UNL     1      -0.101  51.258 -18.228  1.00  0.00     0.051 C 
BRANCH  19  20
HETATM   20  C19 UNL     1       0.275  50.626 -16.922  1.00  0.00     0.302 C 
BRANCH  20  21
HETATM   21  N5  UNL     1       0.960  51.589 -16.045  1.00  0.00     0.083 N 
HETATM   22  C20 UNL     1       1.685  50.921 -14.960  1.00  0.00     0.309 C 
HETATM   23  C21 UNL     1       1.899  52.401 -16.826  1.00  0.00     0.309 C 
ENDBRANCH  20  21
ENDBRANCH  19  20
ENDBRANCH  14  17
ENDBRANCH  12  13
BRANCH   1  24
HETATM   24  O1  UNL     1       0.842  54.031 -21.602  1.00  0.00    -0.354 OA
HETATM   25  C1  UNL     1       2.062  53.604 -21.003  1.00  0.00     0.210 C 
ENDBRANCH   1  24
BRANCH   9  26
HETATM   26  N3  UNL     1      -1.050  50.079 -26.329  1.00  0.00    -0.342 N 
HETATM   27  H6  UNL     1      -0.360  49.527 -25.828  1.00  0.00     0.167 HD
BRANCH  26  28
HETATM   28  C7  UNL     1      -2.344  49.523 -26.231  1.00  0.00     0.035 A 
HETATM   29  C8  UNL     1      -2.844  49.196 -24.957  1.00  0.00     0.032 A 
HETATM   30  C9  UNL     1      -4.095  48.594 -24.804  1.00  0.00     0.046 A 
HETATM   31  C10 UNL     1      -4.851  48.290 -25.930  1.00  0.00     0.138 A 
HETATM   32  F1  UNL     1      -6.050  47.711 -25.764  1.00  0.00    -0.204 F 
HETATM   33  C11 UNL     1      -4.363  48.570 -27.201  1.00  0.00     0.074 A 
HETATM   34 CL1  UNL     1      -5.285  48.170 -28.601  1.00  0.00    -0.081 Cl
HETATM   35  C12 UNL     1      -3.110  49.171 -27.351  1.00  0.00     0.056 A 
ENDBRANCH  26  28
ENDBRANCH   9  26
TORSDOF 7
ENDMDL
MODEL 9
REMARK minimizedAffinity -8.03396511
REMARK  7 active torsions:
REMARK  status: ('A' for Active; 'I' for Inactive)
REMARK    1  A    between atoms: O1_2  and  C2_3 
REMARK    2  A    between atoms: C6_11  and  N3_12 
REMARK    3  A    between atoms: N3_12  and  C7_13 
REMARK    4  A    between atoms: C15_23  and  N4_24 
REMARK       I    between atoms: N4_24  and  C16_25 
REMARK    5  A    between atoms: C16_25  and  C17_27 
REMARK    6  A    between atoms: C18_29  and  C19_30 
REMARK    7  A    between atoms: C19_30  and  N5_31 
ROOT
HETATM    1  C2  UNL     1      -2.567  49.747 -25.619  1.00  0.00     0.097 A 
HETATM    2  C3  UNL     1      -1.453  49.919 -26.445  1.00  0.00     0.069 A 
HETATM    3  C4  UNL     1      -0.478  50.871 -26.172  1.00  0.00     0.049 A 
HETATM    4  N1  UNL     1       0.555  50.972 -27.011  1.00  0.00    -0.351 N 
ATOM      5  H1  UNL     1       0.641  50.367 -27.828  1.00  0.00     0.166 HD
HETATM    6  C5  UNL     1       1.471  51.903 -26.729  1.00  0.00     0.182 A 
HETATM    7  N2  UNL     1       1.453  52.733 -25.684  1.00  0.00    -0.338 N 
ATOM      8  H2  UNL     1       2.192  53.421 -25.538  1.00  0.00     0.168 HD
HETATM    9  C6  UNL     1       0.417  52.624 -24.833  1.00  0.00     0.119 A 
HETATM   10  C13 UNL     1      -0.615  51.683 -25.038  1.00  0.00     0.037 A 
HETATM   11  C14 UNL     1      -1.748  51.517 -24.201  1.00  0.00     0.050 A 
HETATM   12  C15 UNL     1      -2.714  50.551 -24.478  1.00  0.00     0.069 A 
ENDROOT
BRANCH  12  13
HETATM   13  N4  UNL     1      -3.850  50.324 -23.671  1.00  0.00    -0.319 N 
HETATM   14  C16 UNL     1      -4.602  51.246 -22.975  1.00  0.00     0.284 C 
HETATM   15  O2  UNL     1      -4.429  52.460 -22.953  1.00  0.00    -0.265 OA
HETATM   16  H11 UNL     1      -4.134  49.347 -23.640  1.00  0.00     0.169 HD
BRANCH  14  17
HETATM   17  C17 UNL     1      -5.737  50.646 -22.212  1.00  0.00     0.182 C 
HETATM   18  F2  UNL     1      -6.874  50.497 -22.925  1.00  0.00    -0.201 F 
HETATM   19  C18 UNL     1      -5.710  50.341 -20.906  1.00  0.00     0.051 C 
BRANCH  19  20
HETATM   20  C19 UNL     1      -6.876  49.756 -20.169  1.00  0.00     0.302 C 
BRANCH  20  21
HETATM   21  N5  UNL     1      -6.446  48.671 -19.273  1.00  0.00     0.083 N 
HETATM   22  C20 UNL     1      -7.354  48.511 -18.132  1.00  0.00     0.309 C 
HETATM   23  C21 UNL     1      -6.374  47.407 -20.013  1.00  0.00     0.309 C 
ENDBRANCH  20  21
ENDBRANCH  19  20
ENDBRANCH  14  17
ENDBRANCH  12  13
BRANCH   1  24
HETATM   24  O1  UNL     1      -3.566  48.823 -25.822  1.00  0.00    -0.354 OA
HETATM   25  C1  UNL     1      -3.751  48.351 -27.153  1.00  0.00     0.210 C 
ENDBRANCH   1  24
BRANCH   9  26
HETATM   26  N3  UNL     1       0.352  53.481 -23.702  1.00  0.00    -0.342 N 
HETATM   27  H6  UNL     1      -0.335  54.210 -23.867  1.00  0.00     0.167 HD
BRANCH  26  28
HETATM   28  C7  UNL     1       0.463  53.159 -22.332  1.00  0.00     0.035 A 
HETATM   29  C8  UNL     1       1.143  54.050 -21.482  1.00  0.00     0.032 A 
HETATM   30  C9  UNL     1       1.330  53.758 -20.129  1.00  0.00     0.046 A 
HETATM   31  C10 UNL     1       0.858  52.556 -19.616  1.00  0.00     0.138 A 
HETATM   32  F1  UNL     1       1.047  52.292 -18.314  1.00  0.00    -0.204 F 
HETATM   33  C11 UNL     1       0.213  51.643 -20.443  1.00  0.00     0.074 A 
HETATM   34 CL1  UNL     1      -0.350  50.140 -19.818  1.00  0.00    -0.081 Cl
HETATM   35  C12 UNL     1       0.029  51.938 -21.797  1.00  0.00     0.056 A 
ENDBRANCH  26  28
ENDBRANCH   9  26
TORSDOF 7
ENDMDL
