MODEL 1
REMARK minimizedAffinity -9.66799831
REMARK  8 active torsions:
REMARK  status: ('A' for Active; 'I' for Inactive)
REMARK    1  A    between atoms: C2_2  and  S1_3 
REMARK    2  A    between atoms: S1_3  and  C3_6 
REMARK    3  A    between atoms: C10_13  and  C11_14 
REMARK    4  A    between atoms: C14_18  and  C15_19 
REMARK    5  A    between atoms: C15_19  and  C16_20 
REMARK    6  A    between atoms: C16_20  and  C17_21 
REMARK    7  A    between atoms: C17_21  and  N2_22 
REMARK    8  A    between atoms: C20_25  and  O3_26 
ROOT
HETATM    1  C11 UNL     1      -3.274   4.315  11.779  1.00  0.00     0.040 A 
HETATM    2  N1  UNL     1      -3.541   3.009  11.443  1.00  0.00    -0.359 N 
HETATM    3  C12 UNL     1      -4.805   2.685  11.843  1.00  0.00     0.016 A 
HETATM    4  C13 UNL     1      -5.362   3.786  12.458  1.00  0.00    -0.027 A 
HETATM    5  C14 UNL     1      -4.390   4.832  12.428  1.00  0.00    -0.023 A 
HETATM    6  C23 UNL     1      -6.759   3.781  12.986  1.00  0.00     0.041 C 
HETATM    7  C24 UNL     1      -7.297   2.344  13.121  1.00  0.00     0.005 C 
HETATM    8  C25 UNL     1      -6.967   1.481  11.889  1.00  0.00     0.006 C 
HETATM    9  C26 UNL     1      -5.451   1.359  11.654  1.00  0.00     0.057 C 
HETATM   10  H10 UNL     1      -2.910   2.390  10.950  1.00  0.00     0.166 HD
ENDROOT
BRANCH   1  11
HETATM   11  C10 UNL     1      -1.993   4.821  11.463  1.00  0.00     0.048 C 
HETATM   12  C9  UNL     1      -1.125   5.286  12.373  1.00  0.00     0.047 A 
HETATM   13  C7  UNL     1       0.224   5.780  12.060  1.00  0.00     0.008 A 
HETATM   14  C27 UNL     1      -1.304   5.426  13.868  1.00  0.00     0.257 A 
HETATM   15  C6  UNL     1       0.793   6.163  13.279  1.00  0.00     0.046 A 
HETATM   16  C8  UNL     1       0.942   5.903  10.882  1.00  0.00     0.038 A 
HETATM   17  C5  UNL     1       2.074   6.670  13.381  1.00  0.00     0.032 A 
HETATM   18  N3  UNL     1      -0.101   5.953  14.321  1.00  0.00    -0.322 N 
HETATM   19  C4  UNL     1       2.809   6.801  12.201  1.00  0.00     0.026 A 
HETATM   20  C3  UNL     1       2.237   6.434  10.965  1.00  0.00     0.060 A 
HETATM   21  H35 UNL     1       0.063   6.148  15.296  1.00  0.00     0.169 HD
HETATM   22  O4  UNL     1      -2.266   5.166  14.561  1.00  0.00    -0.267 OA
BRANCH  20  23
HETATM   23  S1  UNL     1       3.198   6.594   9.473  1.00  0.00     0.175 S 
HETATM   24  O1  UNL     1       2.988   5.375   8.714  1.00  0.00    -0.223 OA
HETATM   25  O2  UNL     1       4.535   7.007   9.853  1.00  0.00    -0.223 OA
BRANCH  23  26
HETATM   26  C2  UNL     1       2.424   7.929   8.585  1.00  0.00     0.141 C 
HETATM   27  C1  UNL     1       1.904   7.528   7.219  1.00  0.00     0.021 C 
ENDBRANCH  23  26
ENDBRANCH  20  23
ENDBRANCH   1  11
BRANCH   5  28
HETATM   28  C15 UNL     1      -4.558   6.213  12.984  1.00  0.00     0.043 C 
BRANCH  28  29
HETATM   29  C16 UNL     1      -5.997   6.540  13.401  1.00  0.00     0.035 C 
BRANCH  29  30
HETATM   30  C17 UNL     1      -6.089   7.054  14.847  1.00  0.00     0.272 C 
BRANCH  30  31
HETATM   31  N2  UNL     1      -7.441   7.365  15.327  1.00  0.00     0.088 N 
HETATM   32  C18 UNL     1      -7.848   8.752  15.094  1.00  0.00     0.275 C 
HETATM   33  C19 UNL     1      -9.267   8.996  15.608  1.00  0.00     0.062 C 
HETATM   34  C20 UNL     1     -10.279   8.079  14.922  1.00  0.00     0.121 C 
HETATM   35  C21 UNL     1      -9.620   6.914  14.185  1.00  0.00     0.062 C 
HETATM   36  C22 UNL     1      -8.445   6.356  14.980  1.00  0.00     0.275 C 
BRANCH  34  37
HETATM   37  O3  UNL     1     -11.051   8.842  13.994  1.00  0.00    -0.395 OA
HETATM   38  H22 UNL     1     -11.703   8.241  13.594  1.00  0.00     0.210 HD
ENDBRANCH  34  37
ENDBRANCH  30  31
ENDBRANCH  29  30
ENDBRANCH  28  29
ENDBRANCH   5  28
TORSDOF 8
ENDMDL
MODEL 2
REMARK minimizedAffinity -9.4761734
REMARK  8 active torsions:
REMARK  status: ('A' for Active; 'I' for Inactive)
REMARK    1  A    between atoms: C2_2  and  S1_3 
REMARK    2  A    between atoms: S1_3  and  C3_6 
REMARK    3  A    between atoms: C10_13  and  C11_14 
REMARK    4  A    between atoms: C14_18  and  C15_19 
REMARK    5  A    between atoms: C15_19  and  C16_20 
REMARK    6  A    between atoms: C16_20  and  C17_21 
REMARK    7  A    between atoms: C17_21  and  N2_22 
REMARK    8  A    between atoms: C20_25  and  O3_26 
ROOT
HETATM    1  C11 UNL     1      -0.721   5.622  12.097  1.00  0.00     0.040 A 
HETATM    2  N1  UNL     1      -0.121   5.462  10.870  1.00  0.00    -0.359 N 
HETATM    3  C12 UNL     1       1.156   5.939  10.922  1.00  0.00     0.016 A 
HETATM    4  C13 UNL     1       1.386   6.428  12.191  1.00  0.00    -0.027 A 
HETATM    5  C14 UNL     1       0.191   6.236  12.948  1.00  0.00    -0.023 A 
HETATM    6  C23 UNL     1       2.706   6.996  12.597  1.00  0.00     0.041 C 
HETATM    7  C24 UNL     1       3.571   7.328  11.366  1.00  0.00     0.005 C 
HETATM    8  C25 UNL     1       3.540   6.204  10.313  1.00  0.00     0.006 C 
HETATM    9  C26 UNL     1       2.118   5.939   9.788  1.00  0.00     0.057 C 
HETATM   10  H10 UNL     1      -0.550   5.032  10.061  1.00  0.00     0.166 HD
ENDROOT
BRANCH   1  11
HETATM   11  C10 UNL     1      -2.065   5.204  12.226  1.00  0.00     0.048 C 
HETATM   12  C9  UNL     1      -2.508   3.989  11.874  1.00  0.00     0.047 A 
HETATM   13  C7  UNL     1      -3.896   3.530  12.039  1.00  0.00     0.008 A 
HETATM   14  C27 UNL     1      -1.744   2.846  11.243  1.00  0.00     0.257 A 
HETATM   15  C6  UNL     1      -3.933   2.217  11.556  1.00  0.00     0.046 A 
HETATM   16  C8  UNL     1      -5.039   4.122  12.548  1.00  0.00     0.038 A 
HETATM   17  C5  UNL     1      -5.082   1.450  11.561  1.00  0.00     0.032 A 
HETATM   18  N3  UNL     1      -2.680   1.831  11.098  1.00  0.00    -0.322 N 
HETATM   19  C4  UNL     1      -6.243   2.035  12.070  1.00  0.00     0.026 A 
HETATM   20  C3  UNL     1      -6.219   3.364  12.542  1.00  0.00     0.060 A 
HETATM   21  H35 UNL     1      -2.440   0.937  10.700  1.00  0.00     0.169 HD
HETATM   22  O4  UNL     1      -0.579   2.787  10.906  1.00  0.00    -0.267 OA
BRANCH  20  23
HETATM   23  S1  UNL     1      -7.708   4.086  13.202  1.00  0.00     0.175 S 
HETATM   24  O1  UNL     1      -7.467   4.311  14.615  1.00  0.00    -0.223 OA
HETATM   25  O2  UNL     1      -8.824   3.271  12.763  1.00  0.00    -0.223 OA
BRANCH  23  26
HETATM   26  C2  UNL     1      -7.822   5.676  12.409  1.00  0.00     0.141 C 
HETATM   27  C1  UNL     1      -9.084   5.857  11.592  1.00  0.00     0.021 C 
ENDBRANCH  23  26
ENDBRANCH  20  23
ENDBRANCH   1  11
BRANCH   5  28
HETATM   28  C15 UNL     1      -0.019   6.618  14.381  1.00  0.00     0.043 C 
BRANCH  28  29
HETATM   29  C16 UNL     1      -0.129   8.130  14.608  1.00  0.00     0.035 C 
BRANCH  29  30
HETATM   30  C17 UNL     1      -1.407   8.521  15.369  1.00  0.00     0.272 C 
BRANCH  30  31
HETATM   31  N2  UNL     1      -2.644   7.880  14.907  1.00  0.00     0.088 N 
HETATM   32  C18 UNL     1      -3.068   6.747  15.731  1.00  0.00     0.275 C 
HETATM   33  C19 UNL     1      -4.365   6.141  15.197  1.00  0.00     0.062 C 
HETATM   34  C20 UNL     1      -5.498   7.167  15.177  1.00  0.00     0.121 C 
HETATM   35  C21 UNL     1      -5.001   8.603  15.330  1.00  0.00     0.062 C 
HETATM   36  C22 UNL     1      -3.708   8.823  14.552  1.00  0.00     0.275 C 
BRANCH  34  37
HETATM   37  O3  UNL     1      -6.416   6.876  16.231  1.00  0.00    -0.395 OA
HETATM   38  H22 UNL     1      -7.138   7.525  16.177  1.00  0.00     0.210 HD
ENDBRANCH  34  37
ENDBRANCH  30  31
ENDBRANCH  29  30
ENDBRANCH  28  29
ENDBRANCH   5  28
TORSDOF 8
ENDMDL
MODEL 3
REMARK minimizedAffinity -9.44174004
REMARK  8 active torsions:
REMARK  status: ('A' for Active; 'I' for Inactive)
REMARK    1  A    between atoms: C2_2  and  S1_3 
REMARK    2  A    between atoms: S1_3  and  C3_6 
REMARK    3  A    between atoms: C10_13  and  C11_14 
REMARK    4  A    between atoms: C14_18  and  C15_19 
REMARK    5  A    between atoms: C15_19  and  C16_20 
REMARK    6  A    between atoms: C16_20  and  C17_21 
REMARK    7  A    between atoms: C17_21  and  N2_22 
REMARK    8  A    between atoms: C20_25  and  O3_26 
ROOT
HETATM    1  C11 UNL     1      -2.976   4.697  13.077  1.00  0.00     0.040 A 
HETATM    2  N1  UNL     1      -2.872   3.428  12.559  1.00  0.00    -0.359 N 
HETATM    3  C12 UNL     1      -4.118   2.952  12.269  1.00  0.00     0.016 A 
HETATM    4  C13 UNL     1      -5.043   3.914  12.615  1.00  0.00    -0.027 A 
HETATM    5  C14 UNL     1      -4.324   5.031  13.138  1.00  0.00    -0.023 A 
HETATM    6  C23 UNL     1      -6.508   3.725  12.396  1.00  0.00     0.041 C 
HETATM    7  C24 UNL     1      -6.846   2.243  12.146  1.00  0.00     0.005 C 
HETATM    8  C25 UNL     1      -5.858   1.578  11.170  1.00  0.00     0.006 C 
HETATM    9  C26 UNL     1      -4.411   1.613  11.693  1.00  0.00     0.057 C 
HETATM   10  H10 UNL     1      -2.006   2.932  12.392  1.00  0.00     0.166 HD
ENDROOT
BRANCH   1  11
HETATM   11  C10 UNL     1      -1.779   5.344  13.462  1.00  0.00     0.048 C 
HETATM   12  C9  UNL     1      -0.741   5.550  12.638  1.00  0.00     0.047 A 
HETATM   13  C7  UNL     1       0.493   6.256  13.016  1.00  0.00     0.008 A 
HETATM   14  C27 UNL     1      -0.576   5.125  11.196  1.00  0.00     0.257 A 
HETATM   15  C6  UNL     1       1.307   6.256  11.878  1.00  0.00     0.046 A 
HETATM   16  C8  UNL     1       0.922   6.861  14.185  1.00  0.00     0.038 A 
HETATM   17  C5  UNL     1       2.555   6.846  11.851  1.00  0.00     0.032 A 
HETATM   18  N3  UNL     1       0.677   5.598  10.829  1.00  0.00    -0.322 N 
HETATM   19  C4  UNL     1       3.002   7.458  13.024  1.00  0.00     0.026 A 
HETATM   20  C3  UNL     1       2.195   7.448  14.180  1.00  0.00     0.060 A 
HETATM   21  H35 UNL     1       1.050   5.457   9.903  1.00  0.00     0.169 HD
HETATM   22  O4  UNL     1      -1.331   4.497  10.483  1.00  0.00    -0.267 OA
BRANCH  20  23
HETATM   23  S1  UNL     1       2.778   8.248  15.662  1.00  0.00     0.175 S 
HETATM   24  O1  UNL     1       4.217   8.062  15.693  1.00  0.00    -0.223 OA
HETATM   25  O2  UNL     1       1.950   7.793  16.762  1.00  0.00    -0.223 OA
BRANCH  23  26
HETATM   26  C2  UNL     1       2.458   9.978  15.391  1.00  0.00     0.141 C 
HETATM   27  C1  UNL     1       1.040  10.393  15.728  1.00  0.00     0.021 C 
ENDBRANCH  23  26
ENDBRANCH  20  23
ENDBRANCH   1  11
BRANCH   5  28
HETATM   28  C15 UNL     1      -4.920   6.310  13.642  1.00  0.00     0.043 C 
BRANCH  28  29
HETATM   29  C16 UNL     1      -5.332   6.262  15.118  1.00  0.00     0.035 C 
BRANCH  29  30
HETATM   30  C17 UNL     1      -6.270   7.417  15.507  1.00  0.00     0.272 C 
BRANCH  30  31
HETATM   31  N2  UNL     1      -7.504   7.528  14.720  1.00  0.00     0.088 N 
HETATM   32  C18 UNL     1      -8.160   6.245  14.462  1.00  0.00     0.275 C 
HETATM   33  C19 UNL     1      -9.440   6.442  13.651  1.00  0.00     0.062 C 
HETATM   34  C20 UNL     1     -10.432   7.350  14.378  1.00  0.00     0.121 C 
HETATM   35  C21 UNL     1      -9.794   8.126  15.528  1.00  0.00     0.062 C 
HETATM   36  C22 UNL     1      -8.395   8.606  15.156  1.00  0.00     0.275 C 
BRANCH  34  37
HETATM   37  O3  UNL     1     -11.507   6.559  14.888  1.00  0.00    -0.395 OA
HETATM   38  H22 UNL     1     -12.135   7.164  15.320  1.00  0.00     0.210 HD
ENDBRANCH  34  37
ENDBRANCH  30  31
ENDBRANCH  29  30
ENDBRANCH  28  29
ENDBRANCH   5  28
TORSDOF 8
ENDMDL
MODEL 4
REMARK minimizedAffinity -9.32938004
REMARK  8 active torsions:
REMARK  status: ('A' for Active; 'I' for Inactive)
REMARK    1  A    between atoms: C2_2  and  S1_3 
REMARK    2  A    between atoms: S1_3  and  C3_6 
REMARK    3  A    between atoms: C10_13  and  C11_14 
REMARK    4  A    between atoms: C14_18  and  C15_19 
REMARK    5  A    between atoms: C15_19  and  C16_20 
REMARK    6  A    between atoms: C16_20  and  C17_21 
REMARK    7  A    between atoms: C17_21  and  N2_22 
REMARK    8  A    between atoms: C20_25  and  O3_26 
ROOT
HETATM    1  C11 UNL     1      -0.712   5.658  12.125  1.00  0.00     0.040 A 
HETATM    2  N1  UNL     1      -0.067   5.589  10.913  1.00  0.00    -0.359 N 
HETATM    3  C12 UNL     1       1.203   6.070  11.047  1.00  0.00     0.016 A 
HETATM    4  C13 UNL     1       1.383   6.468  12.354  1.00  0.00    -0.027 A 
HETATM    5  C14 UNL     1       0.163   6.215  13.051  1.00  0.00    -0.023 A 
HETATM    6  C23 UNL     1       2.682   7.014  12.849  1.00  0.00     0.041 C 
HETATM    7  C24 UNL     1       3.588   7.440  11.678  1.00  0.00     0.005 C 
HETATM    8  C25 UNL     1       3.606   6.394  10.547  1.00  0.00     0.006 C 
HETATM    9  C26 UNL     1       2.206   6.158   9.952  1.00  0.00     0.057 C 
HETATM   10  H10 UNL     1      -0.461   5.216  10.060  1.00  0.00     0.166 HD
ENDROOT
BRANCH   1  11
HETATM   11  C10 UNL     1      -2.056   5.223  12.174  1.00  0.00     0.048 C 
HETATM   12  C9  UNL     1      -2.455   3.983  11.852  1.00  0.00     0.047 A 
HETATM   13  C7  UNL     1      -3.844   3.508  11.936  1.00  0.00     0.008 A 
HETATM   14  C27 UNL     1      -1.628   2.825  11.340  1.00  0.00     0.257 A 
HETATM   15  C6  UNL     1      -3.826   2.173  11.520  1.00  0.00     0.046 A 
HETATM   16  C8  UNL     1      -5.031   4.105  12.326  1.00  0.00     0.038 A 
HETATM   17  C5  UNL     1      -4.961   1.387  11.477  1.00  0.00     0.032 A 
HETATM   18  N3  UNL     1      -2.536   1.787  11.177  1.00  0.00    -0.322 N 
HETATM   19  C4  UNL     1      -6.166   1.976  11.867  1.00  0.00     0.026 A 
HETATM   20  C3  UNL     1      -6.196   3.326  12.271  1.00  0.00     0.060 A 
HETATM   21  H35 UNL     1      -2.254   0.878  10.845  1.00  0.00     0.169 HD
HETATM   22  O4  UNL     1      -0.440   2.769  11.095  1.00  0.00    -0.267 OA
BRANCH  20  23
HETATM   23  S1  UNL     1      -7.741   4.055  12.779  1.00  0.00     0.175 S 
HETATM   24  O1  UNL     1      -8.695   2.967  12.884  1.00  0.00    -0.223 OA
HETATM   25  O2  UNL     1      -8.002   5.185  11.908  1.00  0.00    -0.223 OA
BRANCH  23  26
HETATM   26  C2  UNL     1      -7.428   4.666  14.421  1.00  0.00     0.141 C 
HETATM   27  C1  UNL     1      -7.786   6.127  14.603  1.00  0.00     0.021 C 
ENDBRANCH  23  26
ENDBRANCH  20  23
ENDBRANCH   1  11
BRANCH   5  28
HETATM   28  C15 UNL     1      -0.103   6.492  14.499  1.00  0.00     0.043 C 
BRANCH  28  29
HETATM   29  C16 UNL     1      -1.127   7.607  14.737  1.00  0.00     0.035 C 
BRANCH  29  30
HETATM   30  C17 UNL     1      -0.658   8.965  14.189  1.00  0.00     0.272 C 
BRANCH  30  31
HETATM   31  N2  UNL     1       0.065   9.820  15.139  1.00  0.00     0.088 N 
HETATM   32  C18 UNL     1      -0.335   9.625  16.534  1.00  0.00     0.275 C 
HETATM   33  C19 UNL     1       0.467  10.538  17.462  1.00  0.00     0.062 C 
HETATM   34  C20 UNL     1       1.968  10.272  17.352  1.00  0.00     0.121 C 
HETATM   35  C21 UNL     1       2.338   9.453  16.117  1.00  0.00     0.062 C 
HETATM   36  C22 UNL     1       1.510   9.879  14.909  1.00  0.00     0.275 C 
BRANCH  34  37
HETATM   37  O3  UNL     1       2.409   9.579  18.521  1.00  0.00    -0.395 OA
HETATM   38  H22 UNL     1       3.369   9.448  18.437  1.00  0.00     0.210 HD
ENDBRANCH  34  37
ENDBRANCH  30  31
ENDBRANCH  29  30
ENDBRANCH  28  29
ENDBRANCH   5  28
TORSDOF 8
ENDMDL
MODEL 5
REMARK minimizedAffinity -9.31511593
REMARK  8 active torsions:
REMARK  status: ('A' for Active; 'I' for Inactive)
REMARK    1  A    between atoms: C2_2  and  S1_3 
REMARK    2  A    between atoms: S1_3  and  C3_6 
REMARK    3  A    between atoms: C10_13  and  C11_14 
REMARK    4  A    between atoms: C14_18  and  C15_19 
REMARK    5  A    between atoms: C15_19  and  C16_20 
REMARK    6  A    between atoms: C16_20  and  C17_21 
REMARK    7  A    between atoms: C17_21  and  N2_22 
REMARK    8  A    between atoms: C20_25  and  O3_26 
ROOT
HETATM    1  C11 UNL     1      -0.720   5.645  12.094  1.00  0.00     0.040 A 
HETATM    2  N1  UNL     1      -0.062   5.517  10.893  1.00  0.00    -0.359 N 
HETATM    3  C12 UNL     1       1.209   5.998  11.017  1.00  0.00     0.016 A 
HETATM    4  C13 UNL     1       1.377   6.456  12.307  1.00  0.00    -0.027 A 
HETATM    5  C14 UNL     1       0.148   6.240  13.002  1.00  0.00    -0.023 A 
HETATM    6  C23 UNL     1       2.673   7.019  12.789  1.00  0.00     0.041 C 
HETATM    7  C24 UNL     1       3.594   7.385  11.608  1.00  0.00     0.005 C 
HETATM    8  C25 UNL     1       3.618   6.287  10.528  1.00  0.00     0.006 C 
HETATM    9  C26 UNL     1       2.223   6.029   9.930  1.00  0.00     0.057 C 
HETATM   10  H10 UNL     1      -0.450   5.105  10.054  1.00  0.00     0.166 HD
ENDROOT
BRANCH   1  11
HETATM   11  C10 UNL     1      -2.066   5.218  12.149  1.00  0.00     0.048 C 
HETATM   12  C9  UNL     1      -2.473   3.979  11.837  1.00  0.00     0.047 A 
HETATM   13  C7  UNL     1      -3.865   3.513  11.927  1.00  0.00     0.008 A 
HETATM   14  C27 UNL     1      -1.655   2.812  11.331  1.00  0.00     0.257 A 
HETATM   15  C6  UNL     1      -3.856   2.174  11.520  1.00  0.00     0.046 A 
HETATM   16  C8  UNL     1      -5.047   4.119  12.316  1.00  0.00     0.038 A 
HETATM   17  C5  UNL     1      -4.996   1.395  11.486  1.00  0.00     0.032 A 
HETATM   18  N3  UNL     1      -2.570   1.778  11.178  1.00  0.00    -0.322 N 
HETATM   19  C4  UNL     1      -6.196   1.995  11.874  1.00  0.00     0.026 A 
HETATM   20  C3  UNL     1      -6.217   3.348  12.269  1.00  0.00     0.060 A 
HETATM   21  H35 UNL     1      -2.294   0.865  10.852  1.00  0.00     0.169 HD
HETATM   22  O4  UNL     1      -0.468   2.747  11.084  1.00  0.00    -0.267 OA
BRANCH  20  23
HETATM   23  S1  UNL     1      -7.756   4.089  12.775  1.00  0.00     0.175 S 
HETATM   24  O1  UNL     1      -8.711   3.005  12.914  1.00  0.00    -0.223 OA
HETATM   25  O2  UNL     1      -8.025   5.200  11.881  1.00  0.00    -0.223 OA
BRANCH  23  26
HETATM   26  C2  UNL     1      -7.427   4.738  14.400  1.00  0.00     0.141 C 
HETATM   27  C1  UNL     1      -7.293   6.246  14.436  1.00  0.00     0.021 C 
ENDBRANCH  23  26
ENDBRANCH  20  23
ENDBRANCH   1  11
BRANCH   5  28
HETATM   28  C15 UNL     1      -0.131   6.586  14.432  1.00  0.00     0.043 C 
BRANCH  28  29
HETATM   29  C16 UNL     1      -0.592   8.033  14.640  1.00  0.00     0.035 C 
BRANCH  29  30
HETATM   30  C17 UNL     1      -0.282   8.553  16.054  1.00  0.00     0.272 C 
BRANCH  30  31
HETATM   31  N2  UNL     1      -1.179   9.599  16.558  1.00  0.00     0.088 N 
HETATM   32  C18 UNL     1      -1.252  10.783  15.699  1.00  0.00     0.275 C 
HETATM   33  C19 UNL     1      -2.212  11.820  16.282  1.00  0.00     0.062 C 
HETATM   34  C20 UNL     1      -3.624  11.254  16.438  1.00  0.00     0.121 C 
HETATM   35  C21 UNL     1      -3.667   9.731  16.335  1.00  0.00     0.062 C 
HETATM   36  C22 UNL     1      -2.470   9.099  17.037  1.00  0.00     0.275 C 
BRANCH  34  37
HETATM   37  O3  UNL     1      -4.468  11.814  15.431  1.00  0.00    -0.395 OA
HETATM   38  H22 UNL     1      -5.363  11.459  15.571  1.00  0.00     0.210 HD
ENDBRANCH  34  37
ENDBRANCH  30  31
ENDBRANCH  29  30
ENDBRANCH  28  29
ENDBRANCH   5  28
TORSDOF 8
ENDMDL
MODEL 6
REMARK minimizedAffinity -9.28255653
REMARK  8 active torsions:
REMARK  status: ('A' for Active; 'I' for Inactive)
REMARK    1  A    between atoms: C2_2  and  S1_3 
REMARK    2  A    between atoms: S1_3  and  C3_6 
REMARK    3  A    between atoms: C10_13  and  C11_14 
REMARK    4  A    between atoms: C14_18  and  C15_19 
REMARK    5  A    between atoms: C15_19  and  C16_20 
REMARK    6  A    between atoms: C16_20  and  C17_21 
REMARK    7  A    between atoms: C17_21  and  N2_22 
REMARK    8  A    between atoms: C20_25  and  O3_26 
ROOT
HETATM    1  C11 UNL     1      -2.653   5.974  13.882  1.00  0.00     0.040 A 
HETATM    2  N1  UNL     1      -4.019   5.911  14.028  1.00  0.00    -0.359 N 
HETATM    3  C12 UNL     1      -4.519   4.938  13.212  1.00  0.00     0.016 A 
HETATM    4  C13 UNL     1      -3.471   4.371  12.518  1.00  0.00    -0.027 A 
HETATM    5  C14 UNL     1      -2.275   5.030  12.934  1.00  0.00    -0.023 A 
HETATM    6  C23 UNL     1      -3.670   3.244  11.558  1.00  0.00     0.041 C 
HETATM    7  C24 UNL     1      -5.152   3.106  11.161  1.00  0.00     0.005 C 
HETATM    8  C25 UNL     1      -6.092   3.219  12.377  1.00  0.00     0.006 C 
HETATM    9  C26 UNL     1      -5.956   4.575  13.092  1.00  0.00     0.057 C 
HETATM   10  H10 UNL     1      -4.567   6.478  14.661  1.00  0.00     0.166 HD
ENDROOT
BRANCH   1  11
HETATM   11  C10 UNL     1      -1.961   6.948  14.636  1.00  0.00     0.048 C 
HETATM   12  C9  UNL     1      -2.563   7.894  15.372  1.00  0.00     0.047 A 
HETATM   13  C7  UNL     1      -1.854   8.888  16.191  1.00  0.00     0.008 A 
HETATM   14  C27 UNL     1      -4.041   8.173  15.531  1.00  0.00     0.257 A 
HETATM   15  C6  UNL     1      -2.842   9.675  16.792  1.00  0.00     0.046 A 
HETATM   16  C8  UNL     1      -0.514   9.134  16.439  1.00  0.00     0.038 A 
HETATM   17  C5  UNL     1      -2.549  10.717  17.651  1.00  0.00     0.032 A 
HETATM   18  N3  UNL     1      -4.106   9.251  16.403  1.00  0.00    -0.322 N 
HETATM   19  C4  UNL     1      -1.201  10.977  17.910  1.00  0.00     0.026 A 
HETATM   20  C3  UNL     1      -0.199  10.200  17.294  1.00  0.00     0.060 A 
HETATM   21  H35 UNL     1      -4.985   9.652  16.693  1.00  0.00     0.169 HD
HETATM   22  O4  UNL     1      -4.993   7.618  15.020  1.00  0.00    -0.267 OA
BRANCH  20  23
HETATM   23  S1  UNL     1       1.514  10.538  17.649  1.00  0.00     0.175 S 
HETATM   24  O1  UNL     1       1.993  11.404  16.587  1.00  0.00    -0.223 OA
HETATM   25  O2  UNL     1       2.166   9.272  17.920  1.00  0.00    -0.223 OA
BRANCH  23  26
HETATM   26  C2  UNL     1       1.479  11.490  19.154  1.00  0.00     0.141 C 
HETATM   27  C1  UNL     1       1.444  10.641  20.408  1.00  0.00     0.021 C 
ENDBRANCH  23  26
ENDBRANCH  20  23
ENDBRANCH   1  11
BRANCH   5  28
HETATM   28  C15 UNL     1      -0.889   4.741  12.443  1.00  0.00     0.043 C 
BRANCH  28  29
HETATM   29  C16 UNL     1      -0.507   5.519  11.178  1.00  0.00     0.035 C 
BRANCH  29  30
HETATM   30  C17 UNL     1       0.209   6.842  11.493  1.00  0.00     0.272 C 
BRANCH  30  31
HETATM   31  N2  UNL     1       1.120   7.337  10.455  1.00  0.00     0.088 N 
HETATM   32  C18 UNL     1       1.797   6.275   9.706  1.00  0.00     0.275 C 
HETATM   33  C19 UNL     1       2.717   6.865   8.638  1.00  0.00     0.062 C 
HETATM   34  C20 UNL     1       1.942   7.731   7.645  1.00  0.00     0.121 C 
HETATM   35  C21 UNL     1       0.547   8.103   8.143  1.00  0.00     0.062 C 
HETATM   36  C22 UNL     1       0.563   8.416   9.636  1.00  0.00     0.275 C 
BRANCH  34  37
HETATM   37  O3  UNL     1       1.824   7.033   6.404  1.00  0.00    -0.395 OA
HETATM   38  H22 UNL     1       1.353   7.617   5.785  1.00  0.00     0.210 HD
ENDBRANCH  34  37
ENDBRANCH  30  31
ENDBRANCH  29  30
ENDBRANCH  28  29
ENDBRANCH   5  28
TORSDOF 8
ENDMDL
MODEL 7
REMARK minimizedAffinity -9.19562244
REMARK  8 active torsions:
REMARK  status: ('A' for Active; 'I' for Inactive)
REMARK    1  A    between atoms: C2_2  and  S1_3 
REMARK    2  A    between atoms: S1_3  and  C3_6 
REMARK    3  A    between atoms: C10_13  and  C11_14 
REMARK    4  A    between atoms: C14_18  and  C15_19 
REMARK    5  A    between atoms: C15_19  and  C16_20 
REMARK    6  A    between atoms: C16_20  and  C17_21 
REMARK    7  A    between atoms: C17_21  and  N2_22 
REMARK    8  A    between atoms: C20_25  and  O3_26 
ROOT
HETATM    1  C11 UNL     1      -3.627   4.925  12.287  1.00  0.00     0.040 A 
HETATM    2  N1  UNL     1      -4.091   3.719  11.817  1.00  0.00    -0.359 N 
HETATM    3  C12 UNL     1      -5.318   3.463  12.355  1.00  0.00     0.016 A 
HETATM    4  C13 UNL     1      -5.652   4.505  13.194  1.00  0.00    -0.027 A 
HETATM    5  C14 UNL     1      -4.575   5.442  13.162  1.00  0.00    -0.023 A 
HETATM    6  C23 UNL     1      -6.955   4.555  13.921  1.00  0.00     0.041 C 
HETATM    7  C24 UNL     1      -7.638   3.174  13.936  1.00  0.00     0.005 C 
HETATM    8  C25 UNL     1      -7.582   2.484  12.560  1.00  0.00     0.006 C 
HETATM    9  C26 UNL     1      -6.137   2.251  12.084  1.00  0.00     0.057 C 
HETATM   10  H10 UNL     1      -3.610   3.125  11.154  1.00  0.00     0.166 HD
ENDROOT
BRANCH   1  11
HETATM   11  C10 UNL     1      -2.349   5.346  11.854  1.00  0.00     0.048 C 
HETATM   12  C9  UNL     1      -1.327   5.609  12.680  1.00  0.00     0.047 A 
HETATM   13  C7  UNL     1       0.017   6.012  12.239  1.00  0.00     0.008 A 
HETATM   14  C27 UNL     1      -1.297   5.574  14.192  1.00  0.00     0.257 A 
HETATM   15  C6  UNL     1       0.776   6.181  13.402  1.00  0.00     0.046 A 
HETATM   16  C8  UNL     1       0.588   6.215  10.994  1.00  0.00     0.038 A 
HETATM   17  C5  UNL     1       2.107   6.550  13.381  1.00  0.00     0.032 A 
HETATM   18  N3  UNL     1       0.004   5.924  14.528  1.00  0.00    -0.322 N 
HETATM   19  C4  UNL     1       2.695   6.761  12.132  1.00  0.00     0.026 A 
HETATM   20  C3  UNL     1       1.933   6.609  10.955  1.00  0.00     0.060 A 
HETATM   21  H35 UNL     1       0.312   5.978  15.487  1.00  0.00     0.169 HD
HETATM   22  O4  UNL     1      -2.186   5.318  14.979  1.00  0.00    -0.267 OA
BRANCH  20  23
HETATM   23  S1  UNL     1       2.707   6.868   9.371  1.00  0.00     0.175 S 
HETATM   24  O1  UNL     1       2.270   5.780   8.515  1.00  0.00    -0.223 OA
HETATM   25  O2  UNL     1       4.119   7.102   9.604  1.00  0.00    -0.223 OA
BRANCH  23  26
HETATM   26  C2  UNL     1       1.977   8.371   8.757  1.00  0.00     0.141 C 
HETATM   27  C1  UNL     1       0.595   8.177   8.167  1.00  0.00     0.021 C 
ENDBRANCH  23  26
ENDBRANCH  20  23
ENDBRANCH   1  11
BRANCH   5  28
HETATM   28  C15 UNL     1      -4.501   6.731  13.923  1.00  0.00     0.043 C 
BRANCH  28  29
HETATM   29  C16 UNL     1      -4.556   7.978  13.033  1.00  0.00     0.035 C 
BRANCH  29  30
HETATM   30  C17 UNL     1      -3.213   8.726  12.984  1.00  0.00     0.272 C 
BRANCH  30  31
HETATM   31  N2  UNL     1      -2.903   9.555  14.155  1.00  0.00     0.088 N 
HETATM   32  C18 UNL     1      -4.080   9.938  14.939  1.00  0.00     0.275 C 
HETATM   33  C19 UNL     1      -3.678  10.787  16.144  1.00  0.00     0.062 C 
HETATM   34  C20 UNL     1      -2.715  10.037  17.064  1.00  0.00     0.121 C 
HETATM   35  C21 UNL     1      -2.101   8.804  16.402  1.00  0.00     0.062 C 
HETATM   36  C22 UNL     1      -1.763   9.077  14.941  1.00  0.00     0.275 C 
BRANCH  34  37
HETATM   37  O3  UNL     1      -3.409   9.635  18.246  1.00  0.00    -0.395 OA
HETATM   38  H22 UNL     1      -2.767   9.187  18.823  1.00  0.00     0.210 HD
ENDBRANCH  34  37
ENDBRANCH  30  31
ENDBRANCH  29  30
ENDBRANCH  28  29
ENDBRANCH   5  28
TORSDOF 8
ENDMDL
MODEL 8
REMARK minimizedAffinity -9.04459858
REMARK  8 active torsions:
REMARK  status: ('A' for Active; 'I' for Inactive)
REMARK    1  A    between atoms: C2_2  and  S1_3 
REMARK    2  A    between atoms: S1_3  and  C3_6 
REMARK    3  A    between atoms: C10_13  and  C11_14 
REMARK    4  A    between atoms: C14_18  and  C15_19 
REMARK    5  A    between atoms: C15_19  and  C16_20 
REMARK    6  A    between atoms: C16_20  and  C17_21 
REMARK    7  A    between atoms: C17_21  and  N2_22 
REMARK    8  A    between atoms: C20_25  and  O3_26 
ROOT
HETATM    1  C11 UNL     1      -0.992   6.949  13.652  1.00  0.00     0.040 A 
HETATM    2  N1  UNL     1      -0.269   6.656  14.784  1.00  0.00    -0.359 N 
HETATM    3  C12 UNL     1       0.887   7.381  14.784  1.00  0.00     0.016 A 
HETATM    4  C13 UNL     1       0.924   8.143  13.636  1.00  0.00    -0.027 A 
HETATM    5  C14 UNL     1      -0.270   7.870  12.902  1.00  0.00    -0.023 A 
HETATM    6  C23 UNL     1       2.046   9.083  13.340  1.00  0.00     0.041 C 
HETATM    7  C24 UNL     1       3.272   8.782  14.224  1.00  0.00     0.005 C 
HETATM    8  C25 UNL     1       2.881   8.532  15.693  1.00  0.00     0.006 C 
HETATM    9  C26 UNL     1       1.928   7.333  15.845  1.00  0.00     0.057 C 
HETATM   10  H10 UNL     1      -0.559   6.022  15.517  1.00  0.00     0.166 HD
ENDROOT
BRANCH   1  11
HETATM   11  C10 UNL     1      -2.218   6.269  13.467  1.00  0.00     0.048 C 
HETATM   12  C9  UNL     1      -2.341   5.119  12.787  1.00  0.00     0.047 A 
HETATM   13  C7  UNL     1      -3.603   4.383  12.621  1.00  0.00     0.008 A 
HETATM   14  C27 UNL     1      -1.279   4.334  12.051  1.00  0.00     0.257 A 
HETATM   15  C6  UNL     1      -3.297   3.250  11.860  1.00  0.00     0.046 A 
HETATM   16  C8  UNL     1      -4.898   4.605  13.057  1.00  0.00     0.038 A 
HETATM   17  C5  UNL     1      -4.243   2.306  11.509  1.00  0.00     0.032 A 
HETATM   18  N3  UNL     1      -1.947   3.231  11.535  1.00  0.00    -0.322 N 
HETATM   19  C4  UNL     1      -5.554   2.518  11.942  1.00  0.00     0.026 A 
HETATM   20  C3  UNL     1      -5.874   3.666  12.694  1.00  0.00     0.060 A 
HETATM   21  H35 UNL     1      -1.473   2.526  10.993  1.00  0.00     0.169 HD
HETATM   22  O4  UNL     1      -0.099   4.580  11.901  1.00  0.00    -0.267 OA
BRANCH  20  23
HETATM   23  S1  UNL     1      -7.550   3.910  13.249  1.00  0.00     0.175 S 
HETATM   24  O1  UNL     1      -7.473   4.253  14.657  1.00  0.00    -0.223 OA
HETATM   25  O2  UNL     1      -8.330   2.769  12.809  1.00  0.00    -0.223 OA
BRANCH  23  26
HETATM   26  C2  UNL     1      -8.108   5.352  12.366  1.00  0.00     0.141 C 
HETATM   27  C1  UNL     1      -9.105   6.189  13.140  1.00  0.00     0.021 C 
ENDBRANCH  23  26
ENDBRANCH  20  23
ENDBRANCH   1  11
BRANCH   5  28
HETATM   28  C15 UNL     1      -0.657   8.473  11.586  1.00  0.00     0.043 C 
BRANCH  28  29
HETATM   29  C16 UNL     1      -0.327   7.589  10.379  1.00  0.00     0.035 C 
BRANCH  29  30
HETATM   30  C17 UNL     1       0.660   8.260   9.409  1.00  0.00     0.272 C 
BRANCH  30  31
HETATM   31  N2  UNL     1       2.002   7.670   9.356  1.00  0.00     0.088 N 
HETATM   32  C18 UNL     1       3.011   8.423  10.105  1.00  0.00     0.275 C 
HETATM   33  C19 UNL     1       4.376   7.743  10.013  1.00  0.00     0.062 C 
HETATM   34  C20 UNL     1       4.333   6.319  10.568  1.00  0.00     0.121 C 
HETATM   35  C21 UNL     1       2.910   5.788  10.732  1.00  0.00     0.062 C 
HETATM   36  C22 UNL     1       2.026   6.220   9.567  1.00  0.00     0.275 C 
BRANCH  34  37
HETATM   37  O3  UNL     1       4.992   6.288  11.836  1.00  0.00    -0.395 OA
HETATM   38  H22 UNL     1       4.974   5.368  12.151  1.00  0.00     0.210 HD
ENDBRANCH  34  37
ENDBRANCH  30  31
ENDBRANCH  29  30
ENDBRANCH  28  29
ENDBRANCH   5  28
TORSDOF 8
ENDMDL
MODEL 9
REMARK minimizedAffinity -8.9720192
REMARK  8 active torsions:
REMARK  status: ('A' for Active; 'I' for Inactive)
REMARK    1  A    between atoms: C2_2  and  S1_3 
REMARK    2  A    between atoms: S1_3  and  C3_6 
REMARK    3  A    between atoms: C10_13  and  C11_14 
REMARK    4  A    between atoms: C14_18  and  C15_19 
REMARK    5  A    between atoms: C15_19  and  C16_20 
REMARK    6  A    between atoms: C16_20  and  C17_21 
REMARK    7  A    between atoms: C17_21  and  N2_22 
REMARK    8  A    between atoms: C20_25  and  O3_26 
ROOT
HETATM    1  C11 UNL     1      -6.529   5.304  13.168  1.00  0.00     0.040 A 
HETATM    2  N1  UNL     1      -6.738   4.108  12.521  1.00  0.00    -0.359 N 
HETATM    3  C12 UNL     1      -5.536   3.509  12.275  1.00  0.00     0.016 A 
HETATM    4  C13 UNL     1      -4.536   4.327  12.754  1.00  0.00    -0.027 A 
HETATM    5  C14 UNL     1      -5.159   5.480  13.321  1.00  0.00    -0.023 A 
HETATM    6  C23 UNL     1      -3.093   3.949  12.675  1.00  0.00     0.041 C 
HETATM    7  C24 UNL     1      -2.873   2.801  11.671  1.00  0.00     0.005 C 
HETATM    8  C25 UNL     1      -3.924   1.686  11.824  1.00  0.00     0.006 C 
HETATM    9  C26 UNL     1      -5.356   2.201  11.591  1.00  0.00     0.057 C 
HETATM   10  H10 UNL     1      -7.641   3.719  12.287  1.00  0.00     0.166 HD
ENDROOT
BRANCH   1  11
HETATM   11  C10 UNL     1      -7.666   6.082  13.483  1.00  0.00     0.048 C 
HETATM   12  C9  UNL     1      -7.938   6.547  14.711  1.00  0.00     0.047 A 
HETATM   13  C7  UNL     1      -9.098   7.389  15.044  1.00  0.00     0.008 A 
HETATM   14  C27 UNL     1      -7.174   6.331  15.998  1.00  0.00     0.257 A 
HETATM   15  C6  UNL     1      -9.007   7.655  16.414  1.00  0.00     0.046 A 
HETATM   16  C8  UNL     1     -10.140   7.909  14.296  1.00  0.00     0.038 A 
HETATM   17  C5  UNL     1      -9.927   8.435  17.087  1.00  0.00     0.032 A 
HETATM   18  N3  UNL     1      -7.888   7.037  16.957  1.00  0.00    -0.322 N 
HETATM   19  C4  UNL     1     -10.986   8.964  16.346  1.00  0.00     0.026 A 
HETATM   20  C3  UNL     1     -11.094   8.687  14.968  1.00  0.00     0.060 A 
HETATM   21  H35 UNL     1      -7.598   7.070  17.922  1.00  0.00     0.169 HD
HETATM   22  O4  UNL     1      -6.168   5.681  16.202  1.00  0.00    -0.267 OA
BRANCH  20  23
HETATM   23  S1  UNL     1     -12.444   9.385  14.037  1.00  0.00     0.175 S 
HETATM   24  O1  UNL     1     -11.865   9.952  12.833  1.00  0.00    -0.223 OA
HETATM   25  O2  UNL     1     -13.222  10.210  14.942  1.00  0.00    -0.223 OA
BRANCH  23  26
HETATM   26  C2  UNL     1     -13.430   7.982  13.560  1.00  0.00     0.141 C 
HETATM   27  C1  UNL     1     -13.661   6.993  14.684  1.00  0.00     0.021 C 
ENDBRANCH  23  26
ENDBRANCH  20  23
ENDBRANCH   1  11
BRANCH   5  28
HETATM   28  C15 UNL     1      -4.458   6.640  13.961  1.00  0.00     0.043 C 
BRANCH  28  29
HETATM   29  C16 UNL     1      -4.564   7.943  13.162  1.00  0.00     0.035 C 
BRANCH  29  30
HETATM   30  C17 UNL     1      -3.189   8.490  12.741  1.00  0.00     0.272 C 
BRANCH  30  31
HETATM   31  N2  UNL     1      -2.252   8.769  13.835  1.00  0.00     0.088 N 
HETATM   32  C18 UNL     1      -2.538   8.024  15.064  1.00  0.00     0.275 C 
HETATM   33  C19 UNL     1      -1.516   8.357  16.151  1.00  0.00     0.062 C 
HETATM   34  C20 UNL     1      -0.093   8.019  15.707  1.00  0.00     0.121 C 
HETATM   35  C21 UNL     1       0.021   7.790  14.201  1.00  0.00     0.062 C 
HETATM   36  C22 UNL     1      -0.845   8.780  13.429  1.00  0.00     0.275 C 
BRANCH  34  37
HETATM   37  O3  UNL     1       0.348   6.846  16.392  1.00  0.00    -0.395 OA
HETATM   38  H22 UNL     1       1.263   6.672  16.112  1.00  0.00     0.210 HD
ENDBRANCH  34  37
ENDBRANCH  30  31
ENDBRANCH  29  30
ENDBRANCH  28  29
ENDBRANCH   5  28
TORSDOF 8
ENDMDL
