MODEL 1
REMARK minimizedAffinity -9.34257603
REMARK CNNscore 0.564816594
REMARK CNNaffinity 7.65261793
REMARK  10 active torsions:
REMARK  status: ('A' for Active; 'I' for Inactive)
REMARK    1  A    between atoms: C2_2  and  S1_3 
REMARK    2  A    between atoms: S1_3  and  C3_6 
REMARK    3  A    between atoms: C10_13  and  C11_14 
REMARK    4  A    between atoms: C14_18  and  C15_19 
REMARK    5  A    between atoms: C15_19  and  C16_20 
REMARK    6  A    between atoms: C16_20  and  C17_21 
REMARK    7  A    between atoms: C17_21  and  N2_22 
REMARK    8  A    between atoms: N3_25  and  C20_26 
REMARK    9  A    between atoms: C20_26  and  C21_27 
REMARK   10  A    between atoms: C21_27  and  O4_29 
ROOT
HETATM    1  C11 UNL     1      -6.881   6.697  14.226  1.00  0.00     0.040 A 
HETATM    2  N1  UNL     1      -8.147   6.201  13.998  1.00  0.00    -0.359 N 
HETATM    3  C12 UNL     1      -9.082   7.091  14.436  1.00  0.00     0.016 A 
HETATM    4  C13 UNL     1      -8.436   8.182  14.969  1.00  0.00    -0.027 A 
HETATM    5  C14 UNL     1      -7.035   7.920  14.888  1.00  0.00    -0.023 A 
HETATM    6  C24 UNL     1      -9.175   9.375  15.483  1.00  0.00     0.041 C 
HETATM    7  C25 UNL     1     -10.684   9.093  15.627  1.00  0.00     0.005 C 
HETATM    8  C26 UNL     1     -11.259   8.248  14.471  1.00  0.00     0.006 C 
HETATM    9  C27 UNL     1     -10.553   6.889  14.356  1.00  0.00     0.057 C 
HETATM   10  H10 UNL     1      -8.367   5.314  13.556  1.00  0.00     0.166 HD
ENDROOT
BRANCH   1  11
HETATM   11  C10 UNL     1      -5.707   6.012  13.800  1.00  0.00     0.048 C 
HETATM   12  C9  UNL     1      -5.582   4.846  13.145  1.00  0.00     0.047 A 
HETATM   13  C7  UNL     1      -4.282   4.317  12.683  1.00  0.00     0.008 A 
HETATM   14  C28 UNL     1      -6.621   3.849  12.683  1.00  0.00     0.257 A 
HETATM   15  C6  UNL     1      -4.556   3.124  12.003  1.00  0.00     0.046 A 
HETATM   16  C8  UNL     1      -2.980   4.783  12.772  1.00  0.00     0.038 A 
HETATM   17  C5  UNL     1      -3.578   2.366  11.389  1.00  0.00     0.032 A 
HETATM   18  N4  UNL     1      -5.916   2.855  12.023  1.00  0.00    -0.322 N 
HETATM   19  C4  UNL     1      -2.262   2.830  11.466  1.00  0.00     0.026 A 
HETATM   20  C3  UNL     1      -1.972   4.019  12.166  1.00  0.00     0.060 A 
HETATM   21  H36 UNL     1      -6.372   2.069  11.582  1.00  0.00     0.169 HD
HETATM   22  O5  UNL     1      -7.832   3.889  12.829  1.00  0.00    -0.267 OA
BRANCH  20  23
HETATM   23  S1  UNL     1      -0.292   4.617  12.213  1.00  0.00     0.175 S 
HETATM   24  O1  UNL     1       0.090   4.734  13.606  1.00  0.00    -0.223 OA
HETATM   25  O2  UNL     1       0.470   3.777  11.309  1.00  0.00    -0.223 OA
BRANCH  23  26
HETATM   26  C2  UNL     1      -0.380   6.250  11.506  1.00  0.00     0.141 C 
HETATM   27  C1  UNL     1       0.556   6.451  10.332  1.00  0.00     0.021 C 
ENDBRANCH  23  26
ENDBRANCH  20  23
ENDBRANCH   1  11
BRANCH   5  28
HETATM   28  C15 UNL     1      -5.954   8.810  15.428  1.00  0.00     0.043 C 
BRANCH  28  29
HETATM   29  C16 UNL     1      -4.859   9.127  14.406  1.00  0.00     0.035 C 
BRANCH  29  30
HETATM   30  C17 UNL     1      -3.579   9.625  15.090  1.00  0.00     0.273 C 
BRANCH  30  31
HETATM   31  N2  UNL     1      -3.163   8.728  16.179  1.00  0.00     0.091 N 
HETATM   32  C18 UNL     1      -2.741   7.405  15.679  1.00  0.00     0.302 C 
HETATM   33  C19 UNL     1      -1.368   7.386  14.974  1.00  0.00     0.303 C 
HETATM   34  N3  UNL     1      -0.295   7.923  15.834  1.00  0.00     0.101 N 
HETATM   35  C22 UNL     1      -0.665   9.271  16.307  1.00  0.00     0.303 C 
HETATM   36  C23 UNL     1      -2.058   9.299  16.985  1.00  0.00     0.302 C 
BRANCH  34  37
HETATM   37  C20 UNL     1       1.002   7.956  15.122  1.00  0.00     0.381 C 
BRANCH  37  38
HETATM   38  C21 UNL     1       2.194   7.765  16.059  1.00  0.00     0.169 C 
HETATM   39  O3  UNL     1       2.602   8.496  16.947  1.00  0.00    -0.649 OA
BRANCH  38  40
HETATM   40  O4  UNL     1       2.841   6.600  15.812  1.00  0.00    -0.775 OA
HETATM   41  H23 UNL     1       3.579   6.607  16.458  1.00  0.00     0.167 HD
ENDBRANCH  38  40
ENDBRANCH  37  38
ENDBRANCH  34  37
ENDBRANCH  30  31
ENDBRANCH  29  30
ENDBRANCH  28  29
ENDBRANCH   5  28
TORSDOF 10
ENDMDL
MODEL 2
REMARK minimizedAffinity -7.28923607
REMARK CNNscore 0.247142717
REMARK CNNaffinity 5.89478111
REMARK  10 active torsions:
REMARK  status: ('A' for Active; 'I' for Inactive)
REMARK    1  A    between atoms: C2_2  and  S1_3 
REMARK    2  A    between atoms: S1_3  and  C3_6 
REMARK    3  A    between atoms: C10_13  and  C11_14 
REMARK    4  A    between atoms: C14_18  and  C15_19 
REMARK    5  A    between atoms: C15_19  and  C16_20 
REMARK    6  A    between atoms: C16_20  and  C17_21 
REMARK    7  A    between atoms: C17_21  and  N2_22 
REMARK    8  A    between atoms: N3_25  and  C20_26 
REMARK    9  A    between atoms: C20_26  and  C21_27 
REMARK   10  A    between atoms: C21_27  and  O4_29 
ROOT
HETATM    1  C11 UNL     1     -11.111   9.599  22.957  1.00  0.00     0.040 A 
HETATM    2  N1  UNL     1     -10.504  10.451  23.855  1.00  0.00    -0.359 N 
HETATM    3  C12 UNL     1     -10.073  11.574  23.213  1.00  0.00     0.016 A 
HETATM    4  C13 UNL     1     -10.385  11.466  21.878  1.00  0.00    -0.027 A 
HETATM    5  C14 UNL     1     -10.999  10.190  21.694  1.00  0.00    -0.023 A 
HETATM    6  C24 UNL     1     -10.106  12.561  20.901  1.00  0.00     0.041 C 
HETATM    7  C25 UNL     1      -9.175  13.636  21.499  1.00  0.00     0.005 C 
HETATM    8  C26 UNL     1      -9.487  13.957  22.976  1.00  0.00     0.006 C 
HETATM    9  C27 UNL     1      -9.370  12.710  23.865  1.00  0.00     0.057 C 
HETATM   10  H10 UNL     1     -10.400  10.289  24.851  1.00  0.00     0.166 HD
ENDROOT
BRANCH   1  11
HETATM   11  C10 UNL     1     -11.724   8.379  23.362  1.00  0.00     0.048 C 
HETATM   12  C9  UNL     1     -12.635   8.151  24.323  1.00  0.00     0.047 A 
HETATM   13  C7  UNL     1     -13.251   6.828  24.551  1.00  0.00     0.008 A 
HETATM   14  C28 UNL     1     -13.277   9.085  25.324  1.00  0.00     0.257 A 
HETATM   15  C6  UNL     1     -14.178   6.994  25.587  1.00  0.00     0.046 A 
HETATM   16  C8  UNL     1     -13.103   5.592  23.943  1.00  0.00     0.038 A 
HETATM   17  C5  UNL     1     -14.984   5.971  26.048  1.00  0.00     0.032 A 
HETATM   18  N4  UNL     1     -14.173   8.305  26.038  1.00  0.00    -0.322 N 
HETATM   19  C4  UNL     1     -14.848   4.722  25.437  1.00  0.00     0.026 A 
HETATM   20  C3  UNL     1     -13.903   4.537  24.406  1.00  0.00     0.060 A 
HETATM   21  H36 UNL     1     -14.767   8.687  26.761  1.00  0.00     0.169 HD
HETATM   22  O5  UNL     1     -13.084  10.279  25.484  1.00  0.00    -0.267 OA
BRANCH  20  23
HETATM   23  S1  UNL     1     -13.778   2.947  23.610  1.00  0.00     0.175 S 
HETATM   24  O1  UNL     1     -14.623   2.024  24.341  1.00  0.00    -0.223 OA
HETATM   25  O2  UNL     1     -13.993   3.177  22.194  1.00  0.00    -0.223 OA
BRANCH  23  26
HETATM   26  C2  UNL     1     -12.077   2.466  23.838  1.00  0.00     0.141 C 
HETATM   27  C1  UNL     1     -11.838   1.679  25.110  1.00  0.00     0.021 C 
ENDBRANCH  23  26
ENDBRANCH  20  23
ENDBRANCH   1  11
BRANCH   5  28
HETATM   28  C15 UNL     1     -11.429   9.617  20.375  1.00  0.00     0.043 C 
BRANCH  28  29
HETATM   29  C16 UNL     1     -11.208  10.569  19.196  1.00  0.00     0.035 C 
BRANCH  29  30
HETATM   30  C17 UNL     1     -11.894  10.055  17.923  1.00  0.00     0.273 C 
BRANCH  30  31
HETATM   31  N2  UNL     1     -11.759  11.010  16.813  1.00  0.00     0.091 N 
HETATM   32  C18 UNL     1     -10.462  10.878  16.120  1.00  0.00     0.302 C 
HETATM   33  C19 UNL     1     -10.330   9.629  15.223  1.00  0.00     0.303 C 
HETATM   34  N3  UNL     1     -11.406   9.553  14.215  1.00  0.00     0.101 N 
HETATM   35  C22 UNL     1     -12.720   9.628  14.884  1.00  0.00     0.303 C 
HETATM   36  C23 UNL     1     -12.842  10.864  15.812  1.00  0.00     0.302 C 
BRANCH  34  37
HETATM   37  C20 UNL     1     -11.302   8.319  13.406  1.00  0.00     0.381 C 
BRANCH  37  38
HETATM   38  C21 UNL     1     -10.638   7.171  14.165  1.00  0.00     0.169 C 
HETATM   39  O3  UNL     1      -9.457   6.877  14.240  1.00  0.00    -0.649 OA
BRANCH  38  40
HETATM   40  O4  UNL     1     -11.551   6.415  14.824  1.00  0.00    -0.775 OA
HETATM   41  H23 UNL     1     -11.007   5.718  15.248  1.00  0.00     0.167 HD
ENDBRANCH  38  40
ENDBRANCH  37  38
ENDBRANCH  34  37
ENDBRANCH  30  31
ENDBRANCH  29  30
ENDBRANCH  28  29
ENDBRANCH   5  28
TORSDOF 10
ENDMDL
MODEL 3
REMARK minimizedAffinity -7.78491783
REMARK CNNscore 0.214999169
REMARK CNNaffinity 7.11432028
REMARK  10 active torsions:
REMARK  status: ('A' for Active; 'I' for Inactive)
REMARK    1  A    between atoms: C2_2  and  S1_3 
REMARK    2  A    between atoms: S1_3  and  C3_6 
REMARK    3  A    between atoms: C10_13  and  C11_14 
REMARK    4  A    between atoms: C14_18  and  C15_19 
REMARK    5  A    between atoms: C15_19  and  C16_20 
REMARK    6  A    between atoms: C16_20  and  C17_21 
REMARK    7  A    between atoms: C17_21  and  N2_22 
REMARK    8  A    between atoms: N3_25  and  C20_26 
REMARK    9  A    between atoms: C20_26  and  C21_27 
REMARK   10  A    between atoms: C21_27  and  O4_29 
ROOT
HETATM    1  C11 UNL     1      -1.190   6.739  12.714  1.00  0.00     0.040 A 
HETATM    2  N1  UNL     1       0.042   6.205  12.401  1.00  0.00    -0.359 N 
HETATM    3  C12 UNL     1       1.025   7.107  12.681  1.00  0.00     0.016 A 
HETATM    4  C13 UNL     1       0.445   8.253  13.173  1.00  0.00    -0.027 A 
HETATM    5  C14 UNL     1      -0.968   8.050  13.149  1.00  0.00    -0.023 A 
HETATM    6  C24 UNL     1       1.252   9.421  13.639  1.00  0.00     0.041 C 
HETATM    7  C25 UNL     1       2.729   9.301  13.212  1.00  0.00     0.005 C 
HETATM    8  C26 UNL     1       3.281   7.864  13.327  1.00  0.00     0.006 C 
HETATM    9  C27 UNL     1       2.478   6.876  12.467  1.00  0.00     0.057 C 
HETATM   10  H10 UNL     1       0.211   5.274  12.033  1.00  0.00     0.166 HD
ENDROOT
BRANCH   1  11
HETATM   11  C10 UNL     1      -2.395   5.989  12.596  1.00  0.00     0.048 C 
HETATM   12  C9  UNL     1      -2.621   4.814  11.985  1.00  0.00     0.047 A 
HETATM   13  C7  UNL     1      -3.922   4.115  12.041  1.00  0.00     0.008 A 
HETATM   14  C28 UNL     1      -1.704   3.919  11.183  1.00  0.00     0.257 A 
HETATM   15  C6  UNL     1      -3.758   2.914  11.341  1.00  0.00     0.046 A 
HETATM   16  C8  UNL     1      -5.134   4.408  12.644  1.00  0.00     0.038 A 
HETATM   17  C5  UNL     1      -4.760   1.970  11.219  1.00  0.00     0.032 A 
HETATM   18  N4  UNL     1      -2.471   2.819  10.834  1.00  0.00    -0.322 N 
HETATM   19  C4  UNL     1      -5.985   2.252  11.829  1.00  0.00     0.026 A 
HETATM   20  C3  UNL     1      -6.168   3.468  12.520  1.00  0.00     0.060 A 
HETATM   21  H36 UNL     1      -2.094   2.039  10.313  1.00  0.00     0.169 HD
HETATM   22  O5  UNL     1      -0.530   4.091  10.899  1.00  0.00    -0.267 OA
BRANCH  20  23
HETATM   23  S1  UNL     1      -7.724   3.787  13.330  1.00  0.00     0.175 S 
HETATM   24  O1  UNL     1      -8.707   2.890  12.756  1.00  0.00    -0.223 OA
HETATM   25  O2  UNL     1      -7.457   3.771  14.755  1.00  0.00    -0.223 OA
BRANCH  23  26
HETATM   26  C2  UNL     1      -8.135   5.457  12.864  1.00  0.00     0.141 C 
HETATM   27  C1  UNL     1      -7.989   6.453  13.997  1.00  0.00     0.021 C 
ENDBRANCH  23  26
ENDBRANCH  20  23
ENDBRANCH   1  11
BRANCH   5  28
HETATM   28  C15 UNL     1      -1.998   9.075  13.525  1.00  0.00     0.043 C 
BRANCH  28  29
HETATM   29  C16 UNL     1      -2.454   8.974  14.983  1.00  0.00     0.035 C 
BRANCH  29  30
HETATM   30  C17 UNL     1      -1.628   9.890  15.895  1.00  0.00     0.273 C 
BRANCH  30  31
HETATM   31  N2  UNL     1      -2.115   9.856  17.282  1.00  0.00     0.091 N 
HETATM   32  C18 UNL     1      -1.272  10.660  18.189  1.00  0.00     0.302 C 
HETATM   33  C19 UNL     1      -1.436  12.188  18.040  1.00  0.00     0.303 C 
HETATM   34  N3  UNL     1      -2.839  12.615  18.208  1.00  0.00     0.101 N 
HETATM   35  C22 UNL     1      -3.701  11.865  17.274  1.00  0.00     0.303 C 
HETATM   36  C23 UNL     1      -3.514  10.331  17.398  1.00  0.00     0.302 C 
BRANCH  34  37
HETATM   37  C20 UNL     1      -2.988  14.072  18.000  1.00  0.00     0.381 C 
BRANCH  37  38
HETATM   38  C21 UNL     1      -4.268  14.628  18.624  1.00  0.00     0.169 C 
HETATM   39  O3  UNL     1      -5.130  15.329  18.121  1.00  0.00    -0.649 OA
BRANCH  38  40
HETATM   40  O4  UNL     1      -4.396  14.248  19.920  1.00  0.00    -0.775 OA
HETATM   41  H23 UNL     1      -5.233  14.676  20.200  1.00  0.00     0.167 HD
ENDBRANCH  38  40
ENDBRANCH  37  38
ENDBRANCH  34  37
ENDBRANCH  30  31
ENDBRANCH  29  30
ENDBRANCH  28  29
ENDBRANCH   5  28
TORSDOF 10
ENDMDL
MODEL 4
REMARK minimizedAffinity -8.52171135
REMARK CNNscore 0.157438934
REMARK CNNaffinity 7.20706129
REMARK  10 active torsions:
REMARK  status: ('A' for Active; 'I' for Inactive)
REMARK    1  A    between atoms: C2_2  and  S1_3 
REMARK    2  A    between atoms: S1_3  and  C3_6 
REMARK    3  A    between atoms: C10_13  and  C11_14 
REMARK    4  A    between atoms: C14_18  and  C15_19 
REMARK    5  A    between atoms: C15_19  and  C16_20 
REMARK    6  A    between atoms: C16_20  and  C17_21 
REMARK    7  A    between atoms: C17_21  and  N2_22 
REMARK    8  A    between atoms: N3_25  and  C20_26 
REMARK    9  A    between atoms: C20_26  and  C21_27 
REMARK   10  A    between atoms: C21_27  and  O4_29 
ROOT
HETATM    1  C11 UNL     1      -0.970   6.184  11.562  1.00  0.00     0.040 A 
HETATM    2  N1  UNL     1       0.003   5.234  11.335  1.00  0.00    -0.359 N 
HETATM    3  C12 UNL     1       1.179   5.841  11.009  1.00  0.00     0.016 A 
HETATM    4  C13 UNL     1       0.987   7.203  11.009  1.00  0.00    -0.027 A 
HETATM    5  C14 UNL     1      -0.390   7.431  11.308  1.00  0.00    -0.023 A 
HETATM    6  C24 UNL     1       2.100   8.166  10.754  1.00  0.00     0.041 C 
HETATM    7  C25 UNL     1       3.353   7.458  10.198  1.00  0.00     0.005 C 
HETATM    8  C26 UNL     1       3.627   6.095  10.867  1.00  0.00     0.006 C 
HETATM    9  C27 UNL     1       2.446   5.129  10.695  1.00  0.00     0.057 C 
HETATM   10  H10 UNL     1      -0.118   4.229  11.411  1.00  0.00     0.166 HD
ENDROOT
BRANCH   1  11
HETATM   11  C10 UNL     1      -2.283   5.839  11.995  1.00  0.00     0.048 C 
HETATM   12  C9  UNL     1      -3.011   4.739  11.741  1.00  0.00     0.047 A 
HETATM   13  C7  UNL     1      -4.331   4.488  12.356  1.00  0.00     0.008 A 
HETATM   14  C28 UNL     1      -2.717   3.529  10.884  1.00  0.00     0.257 A 
HETATM   15  C6  UNL     1      -4.751   3.234  11.899  1.00  0.00     0.046 A 
HETATM   16  C8  UNL     1      -5.117   5.201  13.247  1.00  0.00     0.038 A 
HETATM   17  C5  UNL     1      -5.933   2.641  12.302  1.00  0.00     0.032 A 
HETATM   18  N4  UNL     1      -3.812   2.693  11.033  1.00  0.00    -0.322 N 
HETATM   19  C4  UNL     1      -6.729   3.349  13.205  1.00  0.00     0.026 A 
HETATM   20  C3  UNL     1      -6.327   4.623  13.657  1.00  0.00     0.060 A 
HETATM   21  H36 UNL     1      -3.867   1.787  10.588  1.00  0.00     0.169 HD
HETATM   22  O5  UNL     1      -1.729   3.298  10.207  1.00  0.00    -0.267 OA
BRANCH  20  23
HETATM   23  S1  UNL     1      -7.337   5.488  14.845  1.00  0.00     0.175 S 
HETATM   24  O1  UNL     1      -7.792   4.518  15.820  1.00  0.00    -0.223 OA
HETATM   25  O2  UNL     1      -6.576   6.650  15.263  1.00  0.00    -0.223 OA
BRANCH  23  26
HETATM   26  C2  UNL     1      -8.741   6.057  13.906  1.00  0.00     0.141 C 
HETATM   27  C1  UNL     1      -8.581   5.875  12.411  1.00  0.00     0.021 C 
ENDBRANCH  23  26
ENDBRANCH  20  23
ENDBRANCH   1  11
BRANCH   5  28
HETATM   28  C15 UNL     1      -1.060   8.773  11.334  1.00  0.00     0.043 C 
BRANCH  28  29
HETATM   29  C16 UNL     1      -1.212   9.352  12.743  1.00  0.00     0.035 C 
BRANCH  29  30
HETATM   30  C17 UNL     1      -2.600   9.056  13.326  1.00  0.00     0.273 C 
BRANCH  30  31
HETATM   31  N2  UNL     1      -2.617   9.207  14.788  1.00  0.00     0.091 N 
HETATM   32  C18 UNL     1      -2.457   7.915  15.484  1.00  0.00     0.302 C 
HETATM   33  C19 UNL     1      -1.031   7.327  15.440  1.00  0.00     0.303 C 
HETATM   34  N3  UNL     1      -0.025   8.269  15.970  1.00  0.00     0.101 N 
HETATM   35  C22 UNL     1      -0.125   9.556  15.255  1.00  0.00     0.303 C 
HETATM   36  C23 UNL     1      -1.564  10.132  15.269  1.00  0.00     0.302 C 
BRANCH  34  37
HETATM   37  C20 UNL     1       1.342   7.715  15.862  1.00  0.00     0.381 C 
BRANCH  37  38
HETATM   38  C21 UNL     1       2.389   8.592  16.549  1.00  0.00     0.169 C 
HETATM   39  O3  UNL     1       2.304   9.220  17.592  1.00  0.00    -0.649 OA
BRANCH  38  40
HETATM   40  O4  UNL     1       3.547   8.632  15.844  1.00  0.00    -0.775 OA
HETATM   41  H23 UNL     1       4.116   9.229  16.375  1.00  0.00     0.167 HD
ENDBRANCH  38  40
ENDBRANCH  37  38
ENDBRANCH  34  37
ENDBRANCH  30  31
ENDBRANCH  29  30
ENDBRANCH  28  29
ENDBRANCH   5  28
TORSDOF 10
ENDMDL
MODEL 5
REMARK minimizedAffinity -8.92521954
REMARK CNNscore 0.157263428
REMARK CNNaffinity 7.27696371
REMARK  10 active torsions:
REMARK  status: ('A' for Active; 'I' for Inactive)
REMARK    1  A    between atoms: C2_2  and  S1_3 
REMARK    2  A    between atoms: S1_3  and  C3_6 
REMARK    3  A    between atoms: C10_13  and  C11_14 
REMARK    4  A    between atoms: C14_18  and  C15_19 
REMARK    5  A    between atoms: C15_19  and  C16_20 
REMARK    6  A    between atoms: C16_20  and  C17_21 
REMARK    7  A    between atoms: C17_21  and  N2_22 
REMARK    8  A    between atoms: N3_25  and  C20_26 
REMARK    9  A    between atoms: C20_26  and  C21_27 
REMARK   10  A    between atoms: C21_27  and  O4_29 
ROOT
HETATM    1  C11 UNL     1      -0.821   6.107  12.613  1.00  0.00     0.040 A 
HETATM    2  N1  UNL     1      -0.018   6.313  11.511  1.00  0.00    -0.359 N 
HETATM    3  C12 UNL     1       1.190   6.810  11.901  1.00  0.00     0.016 A 
HETATM    4  C13 UNL     1       1.189   6.945  13.270  1.00  0.00    -0.027 A 
HETATM    5  C14 UNL     1      -0.104   6.550  13.729  1.00  0.00    -0.023 A 
HETATM    6  C24 UNL     1       2.391   7.407  14.028  1.00  0.00     0.041 C 
HETATM    7  C25 UNL     1       3.468   7.991  13.091  1.00  0.00     0.005 C 
HETATM    8  C26 UNL     1       3.620   7.202  11.774  1.00  0.00     0.006 C 
HETATM    9  C27 UNL     1       2.305   7.157  10.982  1.00  0.00     0.057 C 
HETATM   10  H10 UNL     1      -0.268   6.115  10.547  1.00  0.00     0.166 HD
ENDROOT
BRANCH   1  11
HETATM   11  C10 UNL     1      -2.115   5.521  12.511  1.00  0.00     0.048 C 
HETATM   12  C9  UNL     1      -2.489   4.346  11.977  1.00  0.00     0.047 A 
HETATM   13  C7  UNL     1      -3.874   3.836  12.043  1.00  0.00     0.008 A 
HETATM   14  C28 UNL     1      -1.687   3.277  11.268  1.00  0.00     0.257 A 
HETATM   15  C6  UNL     1      -3.863   2.575  11.434  1.00  0.00     0.046 A 
HETATM   16  C8  UNL     1      -5.046   4.334  12.587  1.00  0.00     0.038 A 
HETATM   17  C5  UNL     1      -4.983   1.770  11.349  1.00  0.00     0.032 A 
HETATM   18  N4  UNL     1      -2.591   2.269  10.975  1.00  0.00    -0.322 N 
HETATM   19  C4  UNL     1      -6.169   2.260  11.900  1.00  0.00     0.026 A 
HETATM   20  C3  UNL     1      -6.197   3.537  12.498  1.00  0.00     0.060 A 
HETATM   21  H36 UNL     1      -2.314   1.409  10.522  1.00  0.00     0.169 HD
HETATM   22  O5  UNL     1      -0.495   3.267  11.009  1.00  0.00    -0.267 OA
BRANCH  20  23
HETATM   23  S1  UNL     1      -7.711   4.124  13.236  1.00  0.00     0.175 S 
HETATM   24  O1  UNL     1      -8.772   3.225  12.828  1.00  0.00    -0.223 OA
HETATM   25  O2  UNL     1      -7.428   4.338  14.642  1.00  0.00    -0.223 OA
BRANCH  23  26
HETATM   26  C2  UNL     1      -7.988   5.714  12.481  1.00  0.00     0.141 C 
HETATM   27  C1  UNL     1      -8.984   5.675  11.341  1.00  0.00     0.021 C 
ENDBRANCH  23  26
ENDBRANCH  20  23
ENDBRANCH   1  11
BRANCH   5  28
HETATM   28  C15 UNL     1      -0.576   6.615  15.152  1.00  0.00     0.043 C 
BRANCH  28  29
HETATM   29  C16 UNL     1      -1.335   7.902  15.484  1.00  0.00     0.035 C 
BRANCH  29  30
HETATM   30  C17 UNL     1      -2.850   7.721  15.314  1.00  0.00     0.273 C 
BRANCH  30  31
HETATM   31  N2  UNL     1      -3.470   8.900  14.693  1.00  0.00     0.091 N 
HETATM   32  C18 UNL     1      -4.258   8.550  13.494  1.00  0.00     0.302 C 
HETATM   33  C19 UNL     1      -5.600   7.845  13.785  1.00  0.00     0.303 C 
HETATM   34  N3  UNL     1      -6.457   8.636  14.690  1.00  0.00     0.101 N 
HETATM   35  C22 UNL     1      -5.713   8.957  15.924  1.00  0.00     0.303 C 
HETATM   36  C23 UNL     1      -4.349   9.634  15.634  1.00  0.00     0.302 C 
BRANCH  34  37
HETATM   37  C20 UNL     1      -7.712   7.919  15.008  1.00  0.00     0.381 C 
BRANCH  37  38
HETATM   38  C21 UNL     1      -8.775   8.834  15.615  1.00  0.00     0.169 C 
HETATM   39  O3  UNL     1      -9.619   8.582  16.459  1.00  0.00    -0.649 OA
BRANCH  38  40
HETATM   40  O4  UNL     1      -8.712  10.085  15.095  1.00  0.00    -0.775 OA
HETATM   41  H23 UNL     1      -9.443  10.557  15.548  1.00  0.00     0.167 HD
ENDBRANCH  38  40
ENDBRANCH  37  38
ENDBRANCH  34  37
ENDBRANCH  30  31
ENDBRANCH  29  30
ENDBRANCH  28  29
ENDBRANCH   5  28
TORSDOF 10
ENDMDL
MODEL 6
REMARK minimizedAffinity -8.70749378
REMARK CNNscore 0.143704668
REMARK CNNaffinity 7.12056971
REMARK  10 active torsions:
REMARK  status: ('A' for Active; 'I' for Inactive)
REMARK    1  A    between atoms: C2_2  and  S1_3 
REMARK    2  A    between atoms: S1_3  and  C3_6 
REMARK    3  A    between atoms: C10_13  and  C11_14 
REMARK    4  A    between atoms: C14_18  and  C15_19 
REMARK    5  A    between atoms: C15_19  and  C16_20 
REMARK    6  A    between atoms: C16_20  and  C17_21 
REMARK    7  A    between atoms: C17_21  and  N2_22 
REMARK    8  A    between atoms: N3_25  and  C20_26 
REMARK    9  A    between atoms: C20_26  and  C21_27 
REMARK   10  A    between atoms: C21_27  and  O4_29 
ROOT
HETATM    1  C11 UNL     1      -0.777   5.668  11.993  1.00  0.00     0.040 A 
HETATM    2  N1  UNL     1      -0.007   5.782  10.854  1.00  0.00    -0.359 N 
HETATM    3  C12 UNL     1       1.229   6.260  11.173  1.00  0.00     0.016 A 
HETATM    4  C13 UNL     1       1.280   6.477  12.531  1.00  0.00    -0.027 A 
HETATM    5  C14 UNL     1      -0.007   6.153  13.055  1.00  0.00    -0.023 A 
HETATM    6  C24 UNL     1       2.522   6.942  13.219  1.00  0.00     0.041 C 
HETATM    7  C25 UNL     1       3.583   7.433  12.212  1.00  0.00     0.005 C 
HETATM    8  C26 UNL     1       3.665   6.561  10.941  1.00  0.00     0.006 C 
HETATM    9  C27 UNL     1       2.322   6.514  10.198  1.00  0.00     0.057 C 
HETATM   10  H10 UNL     1      -0.297   5.535   9.913  1.00  0.00     0.166 HD
ENDROOT
BRANCH   1  11
HETATM   11  C10 UNL     1      -2.092   5.121  11.970  1.00  0.00     0.048 C 
HETATM   12  C9  UNL     1      -2.502   3.879  11.663  1.00  0.00     0.047 A 
HETATM   13  C7  UNL     1      -3.908   3.442  11.788  1.00  0.00     0.008 A 
HETATM   14  C28 UNL     1      -1.731   2.665  11.197  1.00  0.00     0.257 A 
HETATM   15  C6  UNL     1      -3.937   2.088  11.435  1.00  0.00     0.046 A 
HETATM   16  C8  UNL     1      -5.070   4.079  12.192  1.00  0.00     0.038 A 
HETATM   17  C5  UNL     1      -5.086   1.323  11.476  1.00  0.00     0.032 A 
HETATM   18  N4  UNL     1      -2.669   1.652  11.079  1.00  0.00    -0.322 N 
HETATM   19  C4  UNL     1      -6.263   1.953  11.888  1.00  0.00     0.026 A 
HETATM   20  C3  UNL     1      -6.250   3.322  12.226  1.00  0.00     0.060 A 
HETATM   21  H36 UNL     1      -2.419   0.711  10.810  1.00  0.00     0.169 HD
HETATM   22  O5  UNL     1      -0.535   2.561  10.979  1.00  0.00    -0.267 OA
BRANCH  20  23
HETATM   23  S1  UNL     1      -7.753   4.096  12.794  1.00  0.00     0.175 S 
HETATM   24  O1  UNL     1      -8.017   5.227  11.927  1.00  0.00    -0.223 OA
HETATM   25  O2  UNL     1      -8.733   3.036  12.939  1.00  0.00    -0.223 OA
BRANCH  23  26
HETATM   26  C2  UNL     1      -7.355   4.704  14.421  1.00  0.00     0.141 C 
HETATM   27  C1  UNL     1      -7.385   6.215  14.525  1.00  0.00     0.021 C 
ENDBRANCH  23  26
ENDBRANCH  20  23
ENDBRANCH   1  11
BRANCH   5  28
HETATM   28  C15 UNL     1      -0.427   6.318  14.487  1.00  0.00     0.043 C 
BRANCH  28  29
HETATM   29  C16 UNL     1      -0.940   7.723  14.813  1.00  0.00     0.035 C 
BRANCH  29  30
HETATM   30  C17 UNL     1      -2.465   7.739  14.985  1.00  0.00     0.273 C 
BRANCH  30  31
HETATM   31  N2  UNL     1      -3.102   8.709  14.082  1.00  0.00     0.091 N 
HETATM   32  C18 UNL     1      -4.411   9.166  14.589  1.00  0.00     0.302 C 
HETATM   33  C19 UNL     1      -4.338  10.141  15.783  1.00  0.00     0.303 C 
HETATM   34  N3  UNL     1      -3.516  11.329  15.482  1.00  0.00     0.101 N 
HETATM   35  C22 UNL     1      -2.179  10.904  15.021  1.00  0.00     0.303 C 
HETATM   36  C23 UNL     1      -2.250   9.898  13.844  1.00  0.00     0.302 C 
BRANCH  34  37
HETATM   37  C20 UNL     1      -3.404  12.221  16.656  1.00  0.00     0.381 C 
BRANCH  37  38
HETATM   38  C21 UNL     1      -3.065  11.466  17.940  1.00  0.00     0.169 C 
HETATM   39  O3  UNL     1      -3.807  11.088  18.832  1.00  0.00    -0.649 OA
BRANCH  38  40
HETATM   40  O4  UNL     1      -1.735  11.216  18.035  1.00  0.00    -0.775 OA
HETATM   41  H23 UNL     1      -1.652  10.750  18.894  1.00  0.00     0.167 HD
ENDBRANCH  38  40
ENDBRANCH  37  38
ENDBRANCH  34  37
ENDBRANCH  30  31
ENDBRANCH  29  30
ENDBRANCH  28  29
ENDBRANCH   5  28
TORSDOF 10
ENDMDL
MODEL 7
REMARK minimizedAffinity -8.65150356
REMARK CNNscore 0.143621117
REMARK CNNaffinity 6.98023272
REMARK  10 active torsions:
REMARK  status: ('A' for Active; 'I' for Inactive)
REMARK    1  A    between atoms: C2_2  and  S1_3 
REMARK    2  A    between atoms: S1_3  and  C3_6 
REMARK    3  A    between atoms: C10_13  and  C11_14 
REMARK    4  A    between atoms: C14_18  and  C15_19 
REMARK    5  A    between atoms: C15_19  and  C16_20 
REMARK    6  A    between atoms: C16_20  and  C17_21 
REMARK    7  A    between atoms: C17_21  and  N2_22 
REMARK    8  A    between atoms: N3_25  and  C20_26 
REMARK    9  A    between atoms: C20_26  and  C21_27 
REMARK   10  A    between atoms: C21_27  and  O4_29 
ROOT
HETATM    1  C11 UNL     1      -0.806   5.718  12.055  1.00  0.00     0.040 A 
HETATM    2  N1  UNL     1       0.082   5.585  11.009  1.00  0.00    -0.359 N 
HETATM    3  C12 UNL     1       1.279   6.148  11.339  1.00  0.00     0.016 A 
HETATM    4  C13 UNL     1       1.185   6.669  12.609  1.00  0.00    -0.027 A 
HETATM    5  C14 UNL     1      -0.154   6.448  13.054  1.00  0.00    -0.023 A 
HETATM    6  C24 UNL     1       2.347   7.303  13.301  1.00  0.00     0.041 C 
HETATM    7  C25 UNL     1       3.513   7.573  12.327  1.00  0.00     0.005 C 
HETATM    8  C26 UNL     1       3.727   6.437  11.304  1.00  0.00     0.006 C 
HETATM    9  C27 UNL     1       2.472   6.195  10.453  1.00  0.00     0.057 C 
HETATM   10  H10 UNL     1      -0.106   5.125  10.124  1.00  0.00     0.166 HD
ENDROOT
BRANCH   1  11
HETATM   11  C10 UNL     1      -2.114   5.154  12.018  1.00  0.00     0.048 C 
HETATM   12  C9  UNL     1      -2.504   3.906  11.711  1.00  0.00     0.047 A 
HETATM   13  C7  UNL     1      -3.906   3.451  11.820  1.00  0.00     0.008 A 
HETATM   14  C28 UNL     1      -1.712   2.700  11.260  1.00  0.00     0.257 A 
HETATM   15  C6  UNL     1      -3.913   2.095  11.473  1.00  0.00     0.046 A 
HETATM   16  C8  UNL     1      -5.081   4.074  12.207  1.00  0.00     0.038 A 
HETATM   17  C5  UNL     1      -5.053   1.315  11.502  1.00  0.00     0.032 A 
HETATM   18  N4  UNL     1      -2.635   1.674  11.134  1.00  0.00    -0.322 N 
HETATM   19  C4  UNL     1      -6.242   1.932  11.898  1.00  0.00     0.026 A 
HETATM   20  C3  UNL     1      -6.252   3.302  12.230  1.00  0.00     0.060 A 
HETATM   21  H36 UNL     1      -2.369   0.735  10.872  1.00  0.00     0.169 HD
HETATM   22  O5  UNL     1      -0.512   2.610  11.056  1.00  0.00    -0.267 OA
BRANCH  20  23
HETATM   23  S1  UNL     1      -7.772   4.058  12.776  1.00  0.00     0.175 S 
HETATM   24  O1  UNL     1      -8.040   5.182  11.900  1.00  0.00    -0.223 OA
HETATM   25  O2  UNL     1      -8.738   2.987  12.915  1.00  0.00    -0.223 OA
BRANCH  23  26
HETATM   26  C2  UNL     1      -7.401   4.681  14.404  1.00  0.00     0.141 C 
HETATM   27  C1  UNL     1      -7.171   6.178  14.441  1.00  0.00     0.021 C 
ENDBRANCH  23  26
ENDBRANCH  20  23
ENDBRANCH   1  11
BRANCH   5  28
HETATM   28  C15 UNL     1      -0.724   6.926  14.357  1.00  0.00     0.043 C 
BRANCH  28  29
HETATM   29  C16 UNL     1      -1.685   8.108  14.204  1.00  0.00     0.035 C 
BRANCH  29  30
HETATM   30  C17 UNL     1      -0.926   9.422  13.977  1.00  0.00     0.273 C 
BRANCH  30  31
HETATM   31  N2  UNL     1      -1.293  10.439  14.974  1.00  0.00     0.091 N 
HETATM   32  C18 UNL     1      -1.345   9.885  16.341  1.00  0.00     0.302 C 
HETATM   33  C19 UNL     1       0.032   9.587  16.972  1.00  0.00     0.303 C 
HETATM   34  N3  UNL     1       0.906  10.777  16.985  1.00  0.00     0.101 N 
HETATM   35  C22 UNL     1       1.021  11.324  15.618  1.00  0.00     0.303 C 
HETATM   36  C23 UNL     1      -0.362  11.591  14.970  1.00  0.00     0.302 C 
BRANCH  34  37
HETATM   37  C20 UNL     1       2.242  10.460  17.534  1.00  0.00     0.381 C 
BRANCH  37  38
HETATM   38  C21 UNL     1       2.365  10.801  19.019  1.00  0.00     0.169 C 
HETATM   39  O3  UNL     1       2.247  11.881  19.574  1.00  0.00    -0.649 OA
BRANCH  38  40
HETATM   40  O4  UNL     1       2.647   9.702  19.761  1.00  0.00    -0.775 OA
HETATM   41  H23 UNL     1       2.714  10.054  20.674  1.00  0.00     0.167 HD
ENDBRANCH  38  40
ENDBRANCH  37  38
ENDBRANCH  34  37
ENDBRANCH  30  31
ENDBRANCH  29  30
ENDBRANCH  28  29
ENDBRANCH   5  28
TORSDOF 10
ENDMDL
MODEL 8
REMARK minimizedAffinity -7.54315376
REMARK CNNscore 0.119866051
REMARK CNNaffinity 5.87581253
REMARK  10 active torsions:
REMARK  status: ('A' for Active; 'I' for Inactive)
REMARK    1  A    between atoms: C2_2  and  S1_3 
REMARK    2  A    between atoms: S1_3  and  C3_6 
REMARK    3  A    between atoms: C10_13  and  C11_14 
REMARK    4  A    between atoms: C14_18  and  C15_19 
REMARK    5  A    between atoms: C15_19  and  C16_20 
REMARK    6  A    between atoms: C16_20  and  C17_21 
REMARK    7  A    between atoms: C17_21  and  N2_22 
REMARK    8  A    between atoms: N3_25  and  C20_26 
REMARK    9  A    between atoms: C20_26  and  C21_27 
REMARK   10  A    between atoms: C21_27  and  O4_29 
ROOT
HETATM    1  C11 UNL     1     -13.347   7.658  14.957  1.00  0.00     0.040 A 
HETATM    2  N1  UNL     1     -13.935   8.832  15.379  1.00  0.00    -0.359 N 
HETATM    3  C12 UNL     1     -13.063   9.870  15.229  1.00  0.00     0.016 A 
HETATM    4  C13 UNL     1     -11.884   9.383  14.714  1.00  0.00    -0.027 A 
HETATM    5  C14 UNL     1     -12.035   7.970  14.586  1.00  0.00    -0.023 A 
HETATM    6  C24 UNL     1     -10.736  10.274  14.368  1.00  0.00     0.041 C 
HETATM    7  C25 UNL     1     -10.922  11.695  14.941  1.00  0.00     0.005 C 
HETATM    8  C26 UNL     1     -12.375  12.205  14.840  1.00  0.00     0.006 C 
HETATM    9  C27 UNL     1     -13.354  11.284  15.584  1.00  0.00     0.057 C 
HETATM   10  H10 UNL     1     -14.880   8.930  15.735  1.00  0.00     0.166 HD
ENDROOT
BRANCH   1  11
HETATM   11  C10 UNL     1     -14.054   6.422  14.929  1.00  0.00     0.048 C 
HETATM   12  C9  UNL     1     -15.225   6.113  14.347  1.00  0.00     0.047 A 
HETATM   13  C7  UNL     1     -15.776   4.743  14.326  1.00  0.00     0.008 A 
HETATM   14  C28 UNL     1     -16.207   6.967  13.577  1.00  0.00     0.257 A 
HETATM   15  C6  UNL     1     -16.968   4.805  13.594  1.00  0.00     0.046 A 
HETATM   16  C8  UNL     1     -15.332   3.530  14.827  1.00  0.00     0.038 A 
HETATM   17  C5  UNL     1     -17.745   3.695  13.324  1.00  0.00     0.032 A 
HETATM   18  N4  UNL     1     -17.215   6.105  13.177  1.00  0.00    -0.322 N 
HETATM   19  C4  UNL     1     -17.302   2.466  13.819  1.00  0.00     0.026 A 
HETATM   20  C3  UNL     1     -16.115   2.394  14.575  1.00  0.00     0.060 A 
HETATM   21  H36 UNL     1     -17.996   6.409  12.612  1.00  0.00     0.169 HD
HETATM   22  O5  UNL     1     -16.147   8.160  13.328  1.00  0.00    -0.267 OA
BRANCH  20  23
HETATM   23  S1  UNL     1     -15.544   0.808  15.158  1.00  0.00     0.175 S 
HETATM   24  O1  UNL     1     -15.502  -0.087  14.019  1.00  0.00    -0.223 OA
HETATM   25  O2  UNL     1     -14.348   1.062  15.938  1.00  0.00    -0.223 OA
BRANCH  23  26
HETATM   26  C2  UNL     1     -16.821   0.256  16.271  1.00  0.00     0.141 C 
HETATM   27  C1  UNL     1     -16.299  -0.576  17.424  1.00  0.00     0.021 C 
ENDBRANCH  23  26
ENDBRANCH  20  23
ENDBRANCH   1  11
BRANCH   5  28
HETATM   28  C15 UNL     1     -10.962   7.021  14.138  1.00  0.00     0.043 C 
BRANCH  28  29
HETATM   29  C16 UNL     1      -9.799   6.904  15.127  1.00  0.00     0.035 C 
BRANCH  29  30
HETATM   30  C17 UNL     1      -8.453   7.193  14.447  1.00  0.00     0.273 C 
BRANCH  30  31
HETATM   31  N2  UNL     1      -7.333   6.599  15.191  1.00  0.00     0.091 N 
HETATM   32  C18 UNL     1      -7.573   5.180  15.522  1.00  0.00     0.302 C 
HETATM   33  C19 UNL     1      -7.456   4.208  14.329  1.00  0.00     0.303 C 
HETATM   34  N3  UNL     1      -6.147   4.313  13.653  1.00  0.00     0.101 N 
HETATM   35  C22 UNL     1      -5.901   5.715  13.262  1.00  0.00     0.303 C 
HETATM   36  C23 UNL     1      -6.052   6.697  14.452  1.00  0.00     0.302 C 
BRANCH  34  37
HETATM   37  C20 UNL     1      -6.074   3.421  12.475  1.00  0.00     0.381 C 
BRANCH  37  38
HETATM   38  C21 UNL     1      -7.224   2.416  12.426  1.00  0.00     0.169 C 
HETATM   39  O3  UNL     1      -8.399   2.572  12.716  1.00  0.00    -0.649 OA
BRANCH  38  40
HETATM   40  O4  UNL     1      -6.806   1.202  11.989  1.00  0.00    -0.775 OA
HETATM   41  H23 UNL     1      -7.621   0.656  12.018  1.00  0.00     0.167 HD
ENDBRANCH  38  40
ENDBRANCH  37  38
ENDBRANCH  34  37
ENDBRANCH  30  31
ENDBRANCH  29  30
ENDBRANCH  28  29
ENDBRANCH   5  28
TORSDOF 10
ENDMDL
MODEL 9
REMARK minimizedAffinity -7.99300575
REMARK CNNscore 0.118973158
REMARK CNNaffinity 6.90419436
REMARK  10 active torsions:
REMARK  status: ('A' for Active; 'I' for Inactive)
REMARK    1  A    between atoms: C2_2  and  S1_3 
REMARK    2  A    between atoms: S1_3  and  C3_6 
REMARK    3  A    between atoms: C10_13  and  C11_14 
REMARK    4  A    between atoms: C14_18  and  C15_19 
REMARK    5  A    between atoms: C15_19  and  C16_20 
REMARK    6  A    between atoms: C16_20  and  C17_21 
REMARK    7  A    between atoms: C17_21  and  N2_22 
REMARK    8  A    between atoms: N3_25  and  C20_26 
REMARK    9  A    between atoms: C20_26  and  C21_27 
REMARK   10  A    between atoms: C21_27  and  O4_29 
ROOT
HETATM    1  C11 UNL     1      -8.345   6.080  14.000  1.00  0.00     0.040 A 
HETATM    2  N1  UNL     1      -8.798   4.843  13.593  1.00  0.00    -0.359 N 
HETATM    3  C12 UNL     1      -7.782   4.143  13.013  1.00  0.00     0.016 A 
HETATM    4  C13 UNL     1      -6.648   4.921  13.023  1.00  0.00    -0.027 A 
HETATM    5  C14 UNL     1      -7.008   6.176  13.601  1.00  0.00    -0.023 A 
HETATM    6  C24 UNL     1      -5.333   4.425  12.517  1.00  0.00     0.041 C 
HETATM    7  C25 UNL     1      -5.486   3.110  11.725  1.00  0.00     0.005 C 
HETATM    8  C26 UNL     1      -6.509   2.138  12.351  1.00  0.00     0.006 C 
HETATM    9  C27 UNL     1      -7.905   2.771  12.453  1.00  0.00     0.057 C 
HETATM   10  H10 UNL     1      -9.740   4.484  13.715  1.00  0.00     0.166 HD
ENDROOT
BRANCH   1  11
HETATM   11  C10 UNL     1      -9.174   6.998  14.708  1.00  0.00     0.048 C 
HETATM   12  C9  UNL     1     -10.292   7.629  14.312  1.00  0.00     0.047 A 
HETATM   13  C7  UNL     1     -11.097   8.480  15.212  1.00  0.00     0.008 A 
HETATM   14  C28 UNL     1     -11.019   7.625  12.986  1.00  0.00     0.257 A 
HETATM   15  C6  UNL     1     -12.199   8.916  14.468  1.00  0.00     0.046 A 
HETATM   16  C8  UNL     1     -10.969   8.845  16.543  1.00  0.00     0.038 A 
HETATM   17  C5  UNL     1     -13.203   9.703  14.998  1.00  0.00     0.032 A 
HETATM   18  N4  UNL     1     -12.135   8.425  13.172  1.00  0.00    -0.322 N 
HETATM   19  C4  UNL     1     -13.088  10.071  16.341  1.00  0.00     0.026 A 
HETATM   20  C3  UNL     1     -11.972   9.655  17.095  1.00  0.00     0.060 A 
HETATM   21  H36 UNL     1     -12.822   8.574  12.446  1.00  0.00     0.169 HD
HETATM   22  O5  UNL     1     -10.723   7.039  11.958  1.00  0.00    -0.267 OA
BRANCH  20  23
HETATM   23  S1  UNL     1     -11.868  10.098  18.820  1.00  0.00     0.175 S 
HETATM   24  O1  UNL     1     -13.206  10.433  19.266  1.00  0.00    -0.223 OA
HETATM   25  O2  UNL     1     -11.118   9.042  19.472  1.00  0.00    -0.223 OA
BRANCH  23  26
HETATM   26  C2  UNL     1     -10.873  11.576  18.842  1.00  0.00     0.141 C 
HETATM   27  C1  UNL     1     -10.457  12.044  17.463  1.00  0.00     0.021 C 
ENDBRANCH  23  26
ENDBRANCH  20  23
ENDBRANCH   1  11
BRANCH   5  28
HETATM   28  C15 UNL     1      -6.096   7.361  13.738  1.00  0.00     0.043 C 
BRANCH  28  29
HETATM   29  C16 UNL     1      -4.881   7.094  14.630  1.00  0.00     0.035 C 
BRANCH  29  30
HETATM   30  C17 UNL     1      -3.575   7.511  13.940  1.00  0.00     0.273 C 
BRANCH  30  31
HETATM   31  N2  UNL     1      -2.397   7.064  14.698  1.00  0.00     0.091 N 
HETATM   32  C18 UNL     1      -2.261   5.594  14.700  1.00  0.00     0.302 C 
HETATM   33  C19 UNL     1      -1.785   4.985  13.364  1.00  0.00     0.303 C 
HETATM   34  N3  UNL     1      -0.507   5.569  12.911  1.00  0.00     0.101 N 
HETATM   35  C22 UNL     1      -0.629   7.039  12.847  1.00  0.00     0.303 C 
HETATM   36  C23 UNL     1      -1.139   7.650  14.177  1.00  0.00     0.302 C 
BRANCH  34  37
HETATM   37  C20 UNL     1      -0.097   5.021  11.600  1.00  0.00     0.381 C 
BRANCH  37  38
HETATM   38  C21 UNL     1      -0.613   3.601  11.368  1.00  0.00     0.169 C 
HETATM   39  O3  UNL     1      -0.217   2.550  11.842  1.00  0.00    -0.649 OA
BRANCH  38  40
HETATM   40  O4  UNL     1      -1.656   3.585  10.501  1.00  0.00    -0.775 OA
HETATM   41  H23 UNL     1      -1.877   2.632  10.429  1.00  0.00     0.167 HD
ENDBRANCH  38  40
ENDBRANCH  37  38
ENDBRANCH  34  37
ENDBRANCH  30  31
ENDBRANCH  29  30
ENDBRANCH  28  29
ENDBRANCH   5  28
TORSDOF 10
ENDMDL
