MODEL 1
REMARK minimizedAffinity -8.07015133
REMARK  9 active torsions:
REMARK  status: ('A' for Active; 'I' for Inactive)
REMARK    1  A    between atoms: O1_2  and  C2_3 
REMARK    2  A    between atoms: C7_8  and  N1_9 
REMARK    3  A    between atoms: N1_9  and  C8_10 
REMARK    4  A    between atoms: C12_18  and  O2_19 
REMARK    5  A    between atoms: O2_19  and  C13_20 
REMARK    6  A    between atoms: C13_20  and  C14_21 
REMARK    7  A    between atoms: C14_21  and  C15_22 
REMARK    8  A    between atoms: C15_22  and  N4_23 
REMARK    9  A    between atoms: C20_29  and  O4_30 
ROOT
HETATM    1  C8  UNL     1       0.450  52.603 -19.096  1.00  0.00     0.098 A 
HETATM    2  N2  UNL     1       1.162  53.715 -19.356  1.00  0.00    -0.342 N 
ATOM      3  H2  UNL     1       1.550  54.293 -18.611  1.00  0.00     0.167 HD
HETATM    4  C9  UNL     1       1.332  54.017 -20.645  1.00  0.00     0.182 A 
HETATM    5  N3  UNL     1       0.847  53.337 -21.689  1.00  0.00    -0.351 N 
ATOM      6  H3  UNL     1       1.033  53.626 -22.649  1.00  0.00     0.166 HD
HETATM    7  C10 UNL     1       0.106  52.258 -21.413  1.00  0.00     0.049 A 
HETATM    8  C11 UNL     1      -0.428  51.541 -22.477  1.00  0.00     0.070 A 
HETATM    9  C12 UNL     1      -1.224  50.407 -22.285  1.00  0.00     0.104 A 
HETATM   10  C20 UNL     1      -1.510  49.980 -20.980  1.00  0.00     0.102 A 
HETATM   11  C22 UNL     1      -0.986  50.698 -19.905  1.00  0.00     0.056 A 
HETATM   12  C23 UNL     1      -0.155  51.830 -20.108  1.00  0.00     0.032 A 
ENDROOT
BRANCH   1  13
HETATM   13  N1  UNL     1       0.326  52.304 -17.721  1.00  0.00    -0.242 NA
HETATM   14  H8  UNL     1      -0.256  53.068 -17.373  1.00  0.00     0.135 HD
BRANCH  13  15
HETATM   15  C7  UNL     1       1.390  52.117 -16.794  1.00  0.00     0.047 A 
HETATM   16  C2  UNL     1       1.358  51.204 -15.717  1.00  0.00     0.089 A 
HETATM   17  C3  UNL     1       2.484  51.061 -14.896  1.00  0.00     0.038 A 
HETATM   18  C4  UNL     1       3.637  51.809 -15.136  1.00  0.00     0.003 A 
HETATM   19  C5  UNL     1       3.687  52.685 -16.215  1.00  0.00     0.002 A 
HETATM   20  C6  UNL     1       2.576  52.825 -17.045  1.00  0.00     0.027 A 
BRANCH  16  21
HETATM   21  O1  UNL     1       0.228  50.443 -15.564  1.00  0.00    -0.354 OA
HETATM   22  C1  UNL     1       0.176  49.237 -16.317  1.00  0.00     0.210 C 
ENDBRANCH  16  21
ENDBRANCH  13  15
ENDBRANCH   1  13
BRANCH  10  23
HETATM   23  O4  UNL     1      -2.298  48.863 -20.862  1.00  0.00    -0.353 OA
HETATM   24  C21 UNL     1      -1.767  47.757 -20.145  1.00  0.00     0.210 C 
ENDBRANCH  10  23
BRANCH   9  25
HETATM   25  O2  UNL     1      -1.776  49.664 -23.298  1.00  0.00    -0.348 OA
BRANCH  25  26
HETATM   26  C13 UNL     1      -2.615  50.331 -24.236  1.00  0.00     0.177 C 
BRANCH  26  27
HETATM   27  C14 UNL     1      -2.364  49.761 -25.628  1.00  0.00     0.046 C 
BRANCH  27  28
HETATM   28  C15 UNL     1      -2.223  50.787 -26.768  1.00  0.00     0.119 C 
BRANCH  28  29
HETATM   29  N4  UNL     1      -0.904  51.309 -27.105  1.00  0.00    -0.408 N 
HETATM   30  C16 UNL     1      -0.801  52.748 -27.367  1.00  0.00     0.143 C 
HETATM   31  C17 UNL     1       0.085  53.481 -26.348  1.00  0.00     0.187 C 
HETATM   32  O3  UNL     1       1.414  52.951 -26.246  1.00  0.00    -0.388 OA
HETATM   33  C18 UNL     1       1.502  51.562 -26.596  1.00  0.00     0.187 C 
HETATM   34  C19 UNL     1       0.208  50.783 -26.309  1.00  0.00     0.143 C 
ENDBRANCH  28  29
ENDBRANCH  27  28
ENDBRANCH  26  27
ENDBRANCH  25  26
ENDBRANCH   9  25
TORSDOF 9
ENDMDL
MODEL 2
REMARK minimizedAffinity -7.9439435
REMARK  9 active torsions:
REMARK  status: ('A' for Active; 'I' for Inactive)
REMARK    1  A    between atoms: O1_2  and  C2_3 
REMARK    2  A    between atoms: C7_8  and  N1_9 
REMARK    3  A    between atoms: N1_9  and  C8_10 
REMARK    4  A    between atoms: C12_18  and  O2_19 
REMARK    5  A    between atoms: O2_19  and  C13_20 
REMARK    6  A    between atoms: C13_20  and  C14_21 
REMARK    7  A    between atoms: C14_21  and  C15_22 
REMARK    8  A    between atoms: C15_22  and  N4_23 
REMARK    9  A    between atoms: C20_29  and  O4_30 
ROOT
HETATM    1  C8  UNL     1       0.362  52.693 -23.210  1.00  0.00     0.098 A 
HETATM    2  N2  UNL     1       1.003  53.818 -23.578  1.00  0.00    -0.342 N 
ATOM      3  H2  UNL     1       1.153  54.056 -24.557  1.00  0.00     0.167 HD
HETATM    4  C9  UNL     1       1.429  54.603 -22.587  1.00  0.00     0.182 A 
HETATM    5  N3  UNL     1       1.298  54.367 -21.276  1.00  0.00    -0.351 N 
ATOM      6  H3  UNL     1       1.641  55.027 -20.577  1.00  0.00     0.166 HD
HETATM    7  C10 UNL     1       0.697  53.226 -20.927  1.00  0.00     0.049 A 
HETATM    8  C11 UNL     1       0.563  52.943 -19.573  1.00  0.00     0.070 A 
HETATM    9  C12 UNL     1      -0.041  51.769 -19.114  1.00  0.00     0.104 A 
HETATM   10  C20 UNL     1      -0.520  50.832 -20.043  1.00  0.00     0.102 A 
HETATM   11  C22 UNL     1      -0.382  51.102 -21.405  1.00  0.00     0.056 A 
HETATM   12  C23 UNL     1       0.206  52.310 -21.862  1.00  0.00     0.032 A 
ENDROOT
BRANCH   1  13
HETATM   13  N1  UNL     1      -0.101  51.911 -24.292  1.00  0.00    -0.242 NA
HETATM   14  H8  UNL     1      -0.022  50.958 -23.935  1.00  0.00     0.135 HD
BRANCH  13  15
HETATM   15  C7  UNL     1       0.406  51.917 -25.622  1.00  0.00     0.047 A 
HETATM   16  C2  UNL     1      -0.296  52.413 -26.742  1.00  0.00     0.089 A 
HETATM   17  C3  UNL     1       0.321  52.419 -27.999  1.00  0.00     0.038 A 
HETATM   18  C4  UNL     1       1.625  51.945 -28.153  1.00  0.00     0.003 A 
HETATM   19  C5  UNL     1       2.334  51.486 -27.049  1.00  0.00     0.002 A 
HETATM   20  C6  UNL     1       1.733  51.487 -25.791  1.00  0.00     0.027 A 
BRANCH  16  21
HETATM   21  O1  UNL     1      -1.547  52.930 -26.527  1.00  0.00    -0.354 OA
HETATM   22  C1  UNL     1      -2.642  52.080 -26.847  1.00  0.00     0.210 C 
ENDBRANCH  16  21
ENDBRANCH  13  15
ENDBRANCH   1  13
BRANCH  10  23
HETATM   23  O4  UNL     1      -1.099  49.701 -19.526  1.00  0.00    -0.353 OA
HETATM   24  C21 UNL     1      -0.942  48.492 -20.255  1.00  0.00     0.210 C 
ENDBRANCH  10  23
BRANCH   9  25
HETATM   25  O2  UNL     1      -0.198  51.440 -17.791  1.00  0.00    -0.348 OA
BRANCH  25  26
HETATM   26  C13 UNL     1       0.930  51.570 -16.932  1.00  0.00     0.177 C 
BRANCH  26  27
HETATM   27  C14 UNL     1       0.582  51.007 -15.557  1.00  0.00     0.046 C 
BRANCH  27  28
HETATM   28  C15 UNL     1       0.963  51.880 -14.348  1.00  0.00     0.119 C 
BRANCH  28  29
HETATM   29  N4  UNL     1      -0.089  52.429 -13.499  1.00  0.00    -0.408 N 
HETATM   30  C16 UNL     1      -1.376  51.728 -13.492  1.00  0.00     0.143 C 
HETATM   31  C17 UNL     1      -1.727  51.134 -12.119  1.00  0.00     0.187 C 
HETATM   32  O3  UNL     1      -1.739  52.096 -11.055  1.00  0.00    -0.388 OA
HETATM   33  C18 UNL     1      -0.877  53.219 -11.293  1.00  0.00     0.187 C 
HETATM   34  C19 UNL     1       0.337  52.873 -12.169  1.00  0.00     0.143 C 
ENDBRANCH  28  29
ENDBRANCH  27  28
ENDBRANCH  26  27
ENDBRANCH  25  26
ENDBRANCH   9  25
TORSDOF 9
ENDMDL
MODEL 3
REMARK minimizedAffinity -7.86995983
REMARK  9 active torsions:
REMARK  status: ('A' for Active; 'I' for Inactive)
REMARK    1  A    between atoms: O1_2  and  C2_3 
REMARK    2  A    between atoms: C7_8  and  N1_9 
REMARK    3  A    between atoms: N1_9  and  C8_10 
REMARK    4  A    between atoms: C12_18  and  O2_19 
REMARK    5  A    between atoms: O2_19  and  C13_20 
REMARK    6  A    between atoms: C13_20  and  C14_21 
REMARK    7  A    between atoms: C14_21  and  C15_22 
REMARK    8  A    between atoms: C15_22  and  N4_23 
REMARK    9  A    between atoms: C20_29  and  O4_30 
ROOT
HETATM    1  C8  UNL     1       0.294  52.738 -23.208  1.00  0.00     0.098 A 
HETATM    2  N2  UNL     1       1.008  53.826 -23.551  1.00  0.00    -0.342 N 
ATOM      3  H2  UNL     1       1.188  54.066 -24.525  1.00  0.00     0.167 HD
HETATM    4  C9  UNL     1       1.466  54.571 -22.544  1.00  0.00     0.182 A 
HETATM    5  N3  UNL     1       1.300  54.328 -21.239  1.00  0.00    -0.351 N 
ATOM      6  H3  UNL     1       1.672  54.956 -20.526  1.00  0.00     0.166 HD
HETATM    7  C10 UNL     1       0.625  53.221 -20.914  1.00  0.00     0.049 A 
HETATM    8  C11 UNL     1       0.453  52.931 -19.565  1.00  0.00     0.070 A 
HETATM    9  C12 UNL     1      -0.229  51.789 -19.131  1.00  0.00     0.104 A 
HETATM   10  C20 UNL     1      -0.749  50.895 -20.079  1.00  0.00     0.102 A 
HETATM   11  C22 UNL     1      -0.573  51.173 -21.435  1.00  0.00     0.056 A 
HETATM   12  C23 UNL     1       0.094  52.348 -21.868  1.00  0.00     0.032 A 
ENDROOT
BRANCH   1  13
HETATM   13  N1  UNL     1      -0.199  51.999 -24.307  1.00  0.00    -0.242 NA
HETATM   14  H8  UNL     1      -0.204  51.041 -23.954  1.00  0.00     0.135 HD
BRANCH  13  15
HETATM   15  C7  UNL     1       0.344  51.970 -25.623  1.00  0.00     0.047 A 
HETATM   16  C2  UNL     1      -0.320  52.454 -26.771  1.00  0.00     0.089 A 
HETATM   17  C3  UNL     1       0.329  52.426 -28.011  1.00  0.00     0.038 A 
HETATM   18  C4  UNL     1       1.629  51.930 -28.121  1.00  0.00     0.003 A 
HETATM   19  C5  UNL     1       2.302  51.483 -26.989  1.00  0.00     0.002 A 
HETATM   20  C6  UNL     1       1.668  51.518 -25.747  1.00  0.00     0.027 A 
BRANCH  16  21
HETATM   21  O1  UNL     1      -1.569  52.994 -26.600  1.00  0.00    -0.354 OA
HETATM   22  C1  UNL     1      -2.668  52.136 -26.879  1.00  0.00     0.210 C 
ENDBRANCH  16  21
ENDBRANCH  13  15
ENDBRANCH   1  13
BRANCH  10  23
HETATM   23  O4  UNL     1      -1.403  49.796 -19.586  1.00  0.00    -0.353 OA
HETATM   24  C21 UNL     1      -1.094  48.534 -20.162  1.00  0.00     0.210 C 
ENDBRANCH  10  23
BRANCH   9  25
HETATM   25  O2  UNL     1      -0.426  51.455 -17.815  1.00  0.00    -0.348 OA
BRANCH  25  26
HETATM   26  C13 UNL     1       0.675  50.918 -17.090  1.00  0.00     0.177 C 
BRANCH  26  27
HETATM   27  C14 UNL     1       1.170  51.955 -16.087  1.00  0.00     0.046 C 
BRANCH  27  28
HETATM   28  C15 UNL     1       0.894  51.654 -14.603  1.00  0.00     0.119 C 
BRANCH  28  29
HETATM   29  N4  UNL     1       1.893  50.938 -13.817  1.00  0.00    -0.408 N 
HETATM   30  C16 UNL     1       1.511  49.625 -13.287  1.00  0.00     0.143 C 
HETATM   31  C17 UNL     1       2.353  48.477 -13.866  1.00  0.00     0.187 C 
HETATM   32  O3  UNL     1       3.766  48.640 -13.678  1.00  0.00    -0.388 OA
HETATM   33  C18 UNL     1       4.172  50.012 -13.569  1.00  0.00     0.187 C 
HETATM   34  C19 UNL     1       3.259  50.975 -14.345  1.00  0.00     0.143 C 
ENDBRANCH  28  29
ENDBRANCH  27  28
ENDBRANCH  26  27
ENDBRANCH  25  26
ENDBRANCH   9  25
TORSDOF 9
ENDMDL
MODEL 4
REMARK minimizedAffinity -7.80723667
REMARK  9 active torsions:
REMARK  status: ('A' for Active; 'I' for Inactive)
REMARK    1  A    between atoms: O1_2  and  C2_3 
REMARK    2  A    between atoms: C7_8  and  N1_9 
REMARK    3  A    between atoms: N1_9  and  C8_10 
REMARK    4  A    between atoms: C12_18  and  O2_19 
REMARK    5  A    between atoms: O2_19  and  C13_20 
REMARK    6  A    between atoms: C13_20  and  C14_21 
REMARK    7  A    between atoms: C14_21  and  C15_22 
REMARK    8  A    between atoms: C15_22  and  N4_23 
REMARK    9  A    between atoms: C20_29  and  O4_30 
ROOT
HETATM    1  C8  UNL     1       0.176  52.597 -25.147  1.00  0.00     0.098 A 
HETATM    2  N2  UNL     1       0.552  53.808 -25.595  1.00  0.00    -0.342 N 
ATOM      3  H2  UNL     1       1.252  54.369 -25.110  1.00  0.00     0.167 HD
HETATM    4  C9  UNL     1      -0.044  54.234 -26.711  1.00  0.00     0.182 A 
HETATM    5  N3  UNL     1      -0.984  53.583 -27.405  1.00  0.00    -0.351 N 
ATOM      6  H3  UNL     1      -1.383  53.972 -28.260  1.00  0.00     0.166 HD
HETATM    7  C10 UNL     1      -1.377  52.399 -26.923  1.00  0.00     0.049 A 
HETATM    8  C11 UNL     1      -2.367  51.708 -27.612  1.00  0.00     0.070 A 
HETATM    9  C12 UNL     1      -2.849  50.469 -27.177  1.00  0.00     0.104 A 
HETATM   10  C20 UNL     1      -2.332  49.904 -26.002  1.00  0.00     0.102 A 
HETATM   11  C22 UNL     1      -1.345  50.594 -25.298  1.00  0.00     0.056 A 
HETATM   12  C23 UNL     1      -0.840  51.837 -25.762  1.00  0.00     0.032 A 
ENDROOT
BRANCH   1  13
HETATM   13  N1  UNL     1       0.858  52.173 -23.984  1.00  0.00    -0.242 NA
HETATM   14  H8  UNL     1       0.790  51.156 -24.037  1.00  0.00     0.135 HD
BRANCH  13  15
HETATM   15  C7  UNL     1       0.567  52.555 -22.643  1.00  0.00     0.047 A 
HETATM   16  C2  UNL     1      -0.207  51.788 -21.745  1.00  0.00     0.089 A 
HETATM   17  C3  UNL     1      -0.385  52.233 -20.429  1.00  0.00     0.038 A 
HETATM   18  C4  UNL     1       0.199  53.425 -19.997  1.00  0.00     0.003 A 
HETATM   19  C5  UNL     1       0.990  54.168 -20.867  1.00  0.00     0.002 A 
HETATM   20  C6  UNL     1       1.183  53.727 -22.175  1.00  0.00     0.027 A 
BRANCH  16  21
HETATM   21  O1  UNL     1      -0.702  50.592 -22.197  1.00  0.00    -0.354 OA
HETATM   22  C1  UNL     1      -1.187  49.698 -21.202  1.00  0.00     0.210 C 
ENDBRANCH  16  21
ENDBRANCH  13  15
ENDBRANCH   1  13
BRANCH  10  23
HETATM   23  O4  UNL     1      -2.850  48.689 -25.630  1.00  0.00    -0.353 OA
HETATM   24  C21 UNL     1      -3.187  48.510 -24.261  1.00  0.00     0.210 C 
ENDBRANCH  10  23
BRANCH   9  25
HETATM   25  O2  UNL     1      -3.823  49.745 -27.817  1.00  0.00    -0.348 OA
BRANCH  25  26
HETATM   26  C13 UNL     1      -4.167  48.471 -27.282  1.00  0.00     0.177 C 
BRANCH  26  27
HETATM   27  C14 UNL     1      -5.343  47.898 -28.068  1.00  0.00     0.046 C 
BRANCH  27  28
HETATM   28  C15 UNL     1      -5.381  48.226 -29.572  1.00  0.00     0.119 C 
BRANCH  28  29
HETATM   29  N4  UNL     1      -6.586  47.934 -30.340  1.00  0.00    -0.408 N 
HETATM   30  C16 UNL     1      -6.454  47.887 -31.799  1.00  0.00     0.143 C 
HETATM   31  C17 UNL     1      -6.748  46.497 -32.383  1.00  0.00     0.187 C 
HETATM   32  O3  UNL     1      -8.041  45.982 -32.036  1.00  0.00    -0.388 OA
HETATM   33  C18 UNL     1      -8.548  46.502 -30.798  1.00  0.00     0.187 C 
HETATM   34  C19 UNL     1      -7.440  46.872 -29.800  1.00  0.00     0.143 C 
ENDBRANCH  28  29
ENDBRANCH  27  28
ENDBRANCH  26  27
ENDBRANCH  25  26
ENDBRANCH   9  25
TORSDOF 9
ENDMDL
MODEL 5
REMARK minimizedAffinity -7.75833082
REMARK  9 active torsions:
REMARK  status: ('A' for Active; 'I' for Inactive)
REMARK    1  A    between atoms: O1_2  and  C2_3 
REMARK    2  A    between atoms: C7_8  and  N1_9 
REMARK    3  A    between atoms: N1_9  and  C8_10 
REMARK    4  A    between atoms: C12_18  and  O2_19 
REMARK    5  A    between atoms: O2_19  and  C13_20 
REMARK    6  A    between atoms: C13_20  and  C14_21 
REMARK    7  A    between atoms: C14_21  and  C15_22 
REMARK    8  A    between atoms: C15_22  and  N4_23 
REMARK    9  A    between atoms: C20_29  and  O4_30 
ROOT
HETATM    1  C8  UNL     1       0.743  52.909 -18.792  1.00  0.00     0.098 A 
HETATM    2  N2  UNL     1       1.281  53.937 -19.474  1.00  0.00    -0.342 N 
ATOM      3  H2  UNL     1       1.668  54.754 -19.002  1.00  0.00     0.167 HD
HETATM    4  C9  UNL     1       1.278  53.826 -20.804  1.00  0.00     0.182 A 
HETATM    5  N3  UNL     1       0.777  52.808 -21.513  1.00  0.00    -0.351 N 
ATOM      6  H3  UNL     1       0.826  52.792 -22.532  1.00  0.00     0.166 HD
HETATM    7  C10 UNL     1       0.210  51.815 -20.822  1.00  0.00     0.049 A 
HETATM    8  C11 UNL     1      -0.337  50.753 -21.532  1.00  0.00     0.070 A 
HETATM    9  C12 UNL     1      -0.961  49.675 -20.896  1.00  0.00     0.104 A 
HETATM   10  C20 UNL     1      -1.056  49.663 -19.496  1.00  0.00     0.102 A 
HETATM   11  C22 UNL     1      -0.519  50.730 -18.774  1.00  0.00     0.056 A 
HETATM   12  C23 UNL     1       0.140  51.805 -19.426  1.00  0.00     0.032 A 
ENDROOT
BRANCH   1  13
HETATM   13  N1  UNL     1       0.800  53.055 -17.387  1.00  0.00    -0.242 NA
HETATM   14  H8  UNL     1       0.809  54.069 -17.263  1.00  0.00     0.135 HD
BRANCH  13  15
HETATM   15  C7  UNL     1       1.781  52.505 -16.515  1.00  0.00     0.047 A 
HETATM   16  C2  UNL     1       1.502  51.599 -15.470  1.00  0.00     0.089 A 
HETATM   17  C3  UNL     1       2.553  51.077 -14.705  1.00  0.00     0.038 A 
HETATM   18  C4  UNL     1       3.873  51.442 -14.971  1.00  0.00     0.003 A 
HETATM   19  C5  UNL     1       4.159  52.308 -16.021  1.00  0.00     0.002 A 
HETATM   20  C6  UNL     1       3.120  52.823 -16.795  1.00  0.00     0.027 A 
BRANCH  16  21
HETATM   21  O1  UNL     1       0.196  51.219 -15.292  1.00  0.00    -0.354 OA
HETATM   22  C1  UNL     1      -0.391  51.556 -14.041  1.00  0.00     0.210 C 
ENDBRANCH  16  21
ENDBRANCH  13  15
ENDBRANCH   1  13
BRANCH  10  23
HETATM   23  O4  UNL     1      -1.682  48.579 -18.935  1.00  0.00    -0.353 OA
HETATM   24  C21 UNL     1      -2.674  48.830 -17.950  1.00  0.00     0.210 C 
ENDBRANCH  10  23
BRANCH   9  25
HETATM   25  O2  UNL     1      -1.517  48.602 -21.546  1.00  0.00    -0.348 OA
BRANCH  25  26
HETATM   26  C13 UNL     1      -2.855  48.728 -22.018  1.00  0.00     0.177 C 
BRANCH  26  27
HETATM   27  C14 UNL     1      -2.886  48.454 -23.518  1.00  0.00     0.046 C 
BRANCH  27  28
HETATM   28  C15 UNL     1      -4.090  49.022 -24.290  1.00  0.00     0.119 C 
BRANCH  28  29
HETATM   29  N4  UNL     1      -4.017  50.370 -24.844  1.00  0.00    -0.408 N 
HETATM   30  C16 UNL     1      -4.274  51.484 -23.928  1.00  0.00     0.143 C 
HETATM   31  C17 UNL     1      -3.052  52.395 -23.733  1.00  0.00     0.187 C 
HETATM   32  O3  UNL     1      -2.528  52.935 -24.954  1.00  0.00    -0.388 OA
HETATM   33  C18 UNL     1      -2.794  52.113 -26.100  1.00  0.00     0.187 C 
HETATM   34  C19 UNL     1      -2.900  50.618 -25.760  1.00  0.00     0.143 C 
ENDBRANCH  28  29
ENDBRANCH  27  28
ENDBRANCH  26  27
ENDBRANCH  25  26
ENDBRANCH   9  25
TORSDOF 9
ENDMDL
MODEL 6
REMARK minimizedAffinity -7.67704153
REMARK  9 active torsions:
REMARK  status: ('A' for Active; 'I' for Inactive)
REMARK    1  A    between atoms: O1_2  and  C2_3 
REMARK    2  A    between atoms: C7_8  and  N1_9 
REMARK    3  A    between atoms: N1_9  and  C8_10 
REMARK    4  A    between atoms: C12_18  and  O2_19 
REMARK    5  A    between atoms: O2_19  and  C13_20 
REMARK    6  A    between atoms: C13_20  and  C14_21 
REMARK    7  A    between atoms: C14_21  and  C15_22 
REMARK    8  A    between atoms: C15_22  and  N4_23 
REMARK    9  A    between atoms: C20_29  and  O4_30 
ROOT
HETATM    1  C8  UNL     1       6.386  62.397 -34.703  1.00  0.00     0.098 A 
HETATM    2  N2  UNL     1       5.497  61.519 -34.205  1.00  0.00    -0.342 N 
ATOM      3  H2  UNL     1       5.701  60.522 -34.145  1.00  0.00     0.167 HD
HETATM    4  C9  UNL     1       4.335  62.028 -33.793  1.00  0.00     0.182 A 
HETATM    5  N3  UNL     1       3.968  63.313 -33.849  1.00  0.00    -0.351 N 
ATOM      6  H3  UNL     1       3.062  63.627 -33.500  1.00  0.00     0.166 HD
HETATM    7  C10 UNL     1       4.846  64.167 -34.385  1.00  0.00     0.049 A 
HETATM    8  C11 UNL     1       4.485  65.506 -34.476  1.00  0.00     0.070 A 
HETATM    9  C12 UNL     1       5.334  66.469 -35.032  1.00  0.00     0.104 A 
HETATM   10  C20 UNL     1       6.585  66.078 -35.531  1.00  0.00     0.102 A 
HETATM   11  C22 UNL     1       6.953  64.734 -35.454  1.00  0.00     0.056 A 
HETATM   12  C23 UNL     1       6.099  63.768 -34.861  1.00  0.00     0.032 A 
ENDROOT
BRANCH   1  13
HETATM   13  N1  UNL     1       7.615  61.818 -35.094  1.00  0.00    -0.242 NA
HETATM   14  H8  UNL     1       7.628  60.939 -34.576  1.00  0.00     0.135 HD
BRANCH  13  15
HETATM   15  C7  UNL     1       8.906  62.406 -34.977  1.00  0.00     0.047 A 
HETATM   16  C2  UNL     1       9.677  62.409 -33.794  1.00  0.00     0.089 A 
HETATM   17  C3  UNL     1      10.961  62.969 -33.805  1.00  0.00     0.038 A 
HETATM   18  C4  UNL     1      11.485  63.521 -34.975  1.00  0.00     0.003 A 
HETATM   19  C5  UNL     1      10.744  63.492 -36.151  1.00  0.00     0.002 A 
HETATM   20  C6  UNL     1       9.470  62.925 -36.154  1.00  0.00     0.027 A 
BRANCH  16  21
HETATM   21  O1  UNL     1       9.146  61.794 -32.690  1.00  0.00    -0.354 OA
HETATM   22  C1  UNL     1      10.075  61.369 -31.700  1.00  0.00     0.210 C 
ENDBRANCH  16  21
ENDBRANCH  13  15
ENDBRANCH   1  13
BRANCH  10  23
HETATM   23  O4  UNL     1       7.366  67.071 -36.066  1.00  0.00    -0.353 OA
HETATM   24  C21 UNL     1       8.094  66.769 -37.248  1.00  0.00     0.210 C 
ENDBRANCH  10  23
BRANCH   9  25
HETATM   25  O2  UNL     1       5.029  67.802 -35.146  1.00  0.00    -0.348 OA
BRANCH  25  26
HETATM   26  C13 UNL     1       4.664  68.296 -36.431  1.00  0.00     0.177 C 
BRANCH  26  27
HETATM   27  C14 UNL     1       3.239  67.858 -36.751  1.00  0.00     0.046 C 
BRANCH  27  28
HETATM   28  C15 UNL     1       3.036  67.125 -38.090  1.00  0.00     0.119 C 
BRANCH  28  29
HETATM   29  N4  UNL     1       1.683  66.901 -38.588  1.00  0.00    -0.408 N 
HETATM   30  C16 UNL     1       0.595  67.610 -37.909  1.00  0.00     0.143 C 
HETATM   31  C17 UNL     1      -0.129  68.611 -38.821  1.00  0.00     0.187 C 
HETATM   32  O3  UNL     1      -0.657  68.029 -40.021  1.00  0.00    -0.388 OA
HETATM   33  C18 UNL     1       0.058  66.861 -40.450  1.00  0.00     0.187 C 
HETATM   34  C19 UNL     1       1.541  66.879 -40.046  1.00  0.00     0.143 C 
ENDBRANCH  28  29
ENDBRANCH  27  28
ENDBRANCH  26  27
ENDBRANCH  25  26
ENDBRANCH   9  25
TORSDOF 9
ENDMDL
MODEL 7
REMARK minimizedAffinity -7.6250906
REMARK  9 active torsions:
REMARK  status: ('A' for Active; 'I' for Inactive)
REMARK    1  A    between atoms: O1_2  and  C2_3 
REMARK    2  A    between atoms: C7_8  and  N1_9 
REMARK    3  A    between atoms: N1_9  and  C8_10 
REMARK    4  A    between atoms: C12_18  and  O2_19 
REMARK    5  A    between atoms: O2_19  and  C13_20 
REMARK    6  A    between atoms: C13_20  and  C14_21 
REMARK    7  A    between atoms: C14_21  and  C15_22 
REMARK    8  A    between atoms: C15_22  and  N4_23 
REMARK    9  A    between atoms: C20_29  and  O4_30 
ROOT
HETATM    1  C8  UNL     1      -1.783  52.636 -25.596  1.00  0.00     0.098 A 
HETATM    2  N2  UNL     1      -1.171  53.263 -26.617  1.00  0.00    -0.342 N 
ATOM      3  H2  UNL     1      -1.613  53.363 -27.530  1.00  0.00     0.167 HD
HETATM    4  C9  UNL     1       0.048  53.745 -26.366  1.00  0.00     0.182 A 
HETATM    5  N3  UNL     1       0.717  53.645 -25.212  1.00  0.00    -0.351 N 
ATOM      6  H3  UNL     1       1.644  54.054 -25.094  1.00  0.00     0.166 HD
HETATM    7  C10 UNL     1       0.112  52.983 -24.221  1.00  0.00     0.049 A 
HETATM    8  C11 UNL     1       0.791  52.846 -23.016  1.00  0.00     0.070 A 
HETATM    9  C12 UNL     1       0.243  52.159 -21.927  1.00  0.00     0.104 A 
HETATM   10  C20 UNL     1      -1.027  51.576 -22.050  1.00  0.00     0.102 A 
HETATM   11  C22 UNL     1      -1.712  51.699 -23.259  1.00  0.00     0.056 A 
HETATM   12  C23 UNL     1      -1.162  52.423 -24.349  1.00  0.00     0.032 A 
ENDROOT
BRANCH   1  13
HETATM   13  N1  UNL     1      -3.083  52.173 -25.898  1.00  0.00    -0.242 NA
HETATM   14  H8  UNL     1      -3.652  52.590 -25.160  1.00  0.00     0.135 HD
BRANCH  13  15
HETATM   15  C7  UNL     1      -3.490  50.815 -26.039  1.00  0.00     0.047 A 
HETATM   16  C2  UNL     1      -4.303  50.126 -25.113  1.00  0.00     0.089 A 
HETATM   17  C3  UNL     1      -4.688  48.806 -25.377  1.00  0.00     0.038 A 
HETATM   18  C4  UNL     1      -4.281  48.168 -26.550  1.00  0.00     0.003 A 
HETATM   19  C5  UNL     1      -3.508  48.852 -27.482  1.00  0.00     0.002 A 
HETATM   20  C6  UNL     1      -3.129  50.171 -27.233  1.00  0.00     0.027 A 
BRANCH  16  21
HETATM   21  O1  UNL     1      -4.734  50.818 -24.010  1.00  0.00    -0.354 OA
HETATM   22  C1  UNL     1      -5.932  50.348 -23.403  1.00  0.00     0.210 C 
ENDBRANCH  16  21
ENDBRANCH  13  15
ENDBRANCH   1  13
BRANCH  10  23
HETATM   23  O4  UNL     1      -1.505  50.916 -20.947  1.00  0.00    -0.353 OA
HETATM   24  C21 UNL     1      -2.831  51.208 -20.530  1.00  0.00     0.210 C 
ENDBRANCH  10  23
BRANCH   9  25
HETATM   25  O2  UNL     1       0.868  51.994 -20.716  1.00  0.00    -0.348 OA
BRANCH  25  26
HETATM   26  C13 UNL     1       1.070  53.147 -19.906  1.00  0.00     0.177 C 
BRANCH  26  27
HETATM   27  C14 UNL     1       0.256  53.007 -18.623  1.00  0.00     0.046 C 
BRANCH  27  28
HETATM   28  C15 UNL     1       0.103  51.580 -18.066  1.00  0.00     0.119 C 
BRANCH  28  29
HETATM   29  N4  UNL     1       0.889  51.174 -16.906  1.00  0.00    -0.408 N 
HETATM   30  C16 UNL     1       1.338  52.234 -15.999  1.00  0.00     0.143 C 
HETATM   31  C17 UNL     1       0.734  52.115 -14.591  1.00  0.00     0.187 C 
HETATM   32  O3  UNL     1       0.983  50.852 -13.957  1.00  0.00    -0.388 OA
HETATM   33  C18 UNL     1       1.175  49.776 -14.887  1.00  0.00     0.187 C 
HETATM   34  C19 UNL     1       0.414  49.976 -16.208  1.00  0.00     0.143 C 
ENDBRANCH  28  29
ENDBRANCH  27  28
ENDBRANCH  26  27
ENDBRANCH  25  26
ENDBRANCH   9  25
TORSDOF 9
ENDMDL
MODEL 8
REMARK minimizedAffinity -7.56177998
REMARK  9 active torsions:
REMARK  status: ('A' for Active; 'I' for Inactive)
REMARK    1  A    between atoms: O1_2  and  C2_3 
REMARK    2  A    between atoms: C7_8  and  N1_9 
REMARK    3  A    between atoms: N1_9  and  C8_10 
REMARK    4  A    between atoms: C12_18  and  O2_19 
REMARK    5  A    between atoms: O2_19  and  C13_20 
REMARK    6  A    between atoms: C13_20  and  C14_21 
REMARK    7  A    between atoms: C14_21  and  C15_22 
REMARK    8  A    between atoms: C15_22  and  N4_23 
REMARK    9  A    between atoms: C20_29  and  O4_30 
ROOT
HETATM    1  C8  UNL     1      -0.298  52.314 -20.101  1.00  0.00     0.098 A 
HETATM    2  N2  UNL     1       0.886  52.932 -20.268  1.00  0.00    -0.342 N 
ATOM      3  H2  UNL     1       1.417  53.301 -19.480  1.00  0.00     0.167 HD
HETATM    4  C9  UNL     1       1.324  53.035 -21.524  1.00  0.00     0.182 A 
HETATM    5  N3  UNL     1       0.691  52.604 -22.621  1.00  0.00    -0.351 N 
ATOM      6  H3  UNL     1       1.101  52.708 -23.550  1.00  0.00     0.166 HD
HETATM    7  C10 UNL     1      -0.502  52.030 -22.442  1.00  0.00     0.049 A 
HETATM    8  C11 UNL     1      -1.192  51.589 -23.565  1.00  0.00     0.070 A 
HETATM    9  C12 UNL     1      -2.452  50.987 -23.476  1.00  0.00     0.104 A 
HETATM   10  C20 UNL     1      -3.053  50.831 -22.218  1.00  0.00     0.102 A 
HETATM   11  C22 UNL     1      -2.372  51.279 -21.085  1.00  0.00     0.056 A 
HETATM   12  C23 UNL     1      -1.082  51.862 -21.181  1.00  0.00     0.032 A 
ENDROOT
BRANCH   1  13
HETATM   13  N1  UNL     1      -0.704  52.198 -18.752  1.00  0.00    -0.242 NA
HETATM   14  H8  UNL     1      -0.459  53.109 -18.361  1.00  0.00     0.135 HD
BRANCH  13  15
HETATM   15  C7  UNL     1      -0.288  51.203 -17.823  1.00  0.00     0.047 A 
HETATM   16  C2  UNL     1       0.693  51.403 -16.827  1.00  0.00     0.089 A 
HETATM   17  C3  UNL     1       0.987  50.370 -15.928  1.00  0.00     0.038 A 
HETATM   18  C4  UNL     1       0.317  49.148 -16.006  1.00  0.00     0.003 A 
HETATM   19  C5  UNL     1      -0.673  48.957 -16.963  1.00  0.00     0.002 A 
HETATM   20  C6  UNL     1      -0.982  49.983 -17.854  1.00  0.00     0.027 A 
BRANCH  16  21
HETATM   21  O1  UNL     1       1.273  52.642 -16.748  1.00  0.00    -0.354 OA
HETATM   22  C1  UNL     1       2.693  52.666 -16.654  1.00  0.00     0.210 C 
ENDBRANCH  16  21
ENDBRANCH  13  15
ENDBRANCH   1  13
BRANCH  10  23
HETATM   23  O4  UNL     1      -4.288  50.236 -22.201  1.00  0.00    -0.353 OA
HETATM   24  C21 UNL     1      -4.838  49.899 -20.935  1.00  0.00     0.210 C 
ENDBRANCH  10  23
BRANCH   9  25
HETATM   25  O2  UNL     1      -3.176  50.535 -24.551  1.00  0.00    -0.348 OA
BRANCH  25  26
HETATM   26  C13 UNL     1      -2.786  49.303 -25.148  1.00  0.00     0.177 C 
BRANCH  26  27
HETATM   27  C14 UNL     1      -2.559  49.518 -26.641  1.00  0.00     0.046 C 
BRANCH  27  28
HETATM   28  C15 UNL     1      -2.432  50.980 -27.106  1.00  0.00     0.119 C 
BRANCH  28  29
HETATM   29  N4  UNL     1      -1.116  51.516 -27.437  1.00  0.00    -0.408 N 
HETATM   30  C16 UNL     1      -0.976  52.975 -27.465  1.00  0.00     0.143 C 
HETATM   31  C17 UNL     1      -0.006  53.504 -26.398  1.00  0.00     0.187 C 
HETATM   32  O3  UNL     1       1.307  52.930 -26.469  1.00  0.00    -0.388 OA
HETATM   33  C18 UNL     1       1.323  51.617 -27.047  1.00  0.00     0.187 C 
HETATM   34  C19 UNL     1       0.021  50.836 -26.809  1.00  0.00     0.143 C 
ENDBRANCH  28  29
ENDBRANCH  27  28
ENDBRANCH  26  27
ENDBRANCH  25  26
ENDBRANCH   9  25
TORSDOF 9
ENDMDL
MODEL 9
REMARK minimizedAffinity -7.46796608
REMARK  9 active torsions:
REMARK  status: ('A' for Active; 'I' for Inactive)
REMARK    1  A    between atoms: O1_2  and  C2_3 
REMARK    2  A    between atoms: C7_8  and  N1_9 
REMARK    3  A    between atoms: N1_9  and  C8_10 
REMARK    4  A    between atoms: C12_18  and  O2_19 
REMARK    5  A    between atoms: O2_19  and  C13_20 
REMARK    6  A    between atoms: C13_20  and  C14_21 
REMARK    7  A    between atoms: C14_21  and  C15_22 
REMARK    8  A    between atoms: C15_22  and  N4_23 
REMARK    9  A    between atoms: C20_29  and  O4_30 
ROOT
HETATM    1  C8  UNL     1      -1.503  50.888 -23.827  1.00  0.00     0.098 A 
HETATM    2  N2  UNL     1      -2.287  49.938 -24.368  1.00  0.00    -0.342 N 
ATOM      3  H2  UNL     1      -2.614  49.995 -25.332  1.00  0.00     0.167 HD
HETATM    4  C9  UNL     1      -2.610  48.918 -23.571  1.00  0.00     0.182 A 
HETATM    5  N3  UNL     1      -2.249  48.766 -22.293  1.00  0.00    -0.351 N 
ATOM      6  H3  UNL     1      -2.528  47.946 -21.752  1.00  0.00     0.166 HD
HETATM    7  C10 UNL     1      -1.505  49.739 -21.757  1.00  0.00     0.049 A 
HETATM    8  C11 UNL     1      -1.131  49.618 -20.424  1.00  0.00     0.070 A 
HETATM    9  C12 UNL     1      -0.363  50.592 -19.776  1.00  0.00     0.104 A 
HETATM   10  C20 UNL     1       0.034  51.737 -20.482  1.00  0.00     0.102 A 
HETATM   11  C22 UNL     1      -0.345  51.872 -21.818  1.00  0.00     0.056 A 
HETATM   12  C23 UNL     1      -1.098  50.866 -22.477  1.00  0.00     0.032 A 
ENDROOT
BRANCH   1  13
HETATM   13  N1  UNL     1      -1.158  51.930 -24.717  1.00  0.00    -0.242 NA
HETATM   14  H8  UNL     1      -2.067  52.257 -25.049  1.00  0.00     0.135 HD
BRANCH  13  15
HETATM   15  C7  UNL     1      -0.298  51.831 -25.847  1.00  0.00     0.047 A 
HETATM   16  C2  UNL     1      -0.728  51.923 -27.188  1.00  0.00     0.089 A 
HETATM   17  C3  UNL     1       0.213  51.866 -28.224  1.00  0.00     0.038 A 
HETATM   18  C4  UNL     1       1.573  51.725 -27.941  1.00  0.00     0.003 A 
HETATM   19  C5  UNL     1       2.007  51.668 -26.621  1.00  0.00     0.002 A 
HETATM   20  C6  UNL     1       1.078  51.736 -25.583  1.00  0.00     0.027 A 
BRANCH  16  21
HETATM   21  O1  UNL     1      -2.065  52.130 -27.412  1.00  0.00    -0.354 OA
HETATM   22  C1  UNL     1      -2.814  50.996 -27.831  1.00  0.00     0.210 C 
ENDBRANCH  16  21
ENDBRANCH  13  15
ENDBRANCH   1  13
BRANCH  10  23
HETATM   23  O4  UNL     1       0.782  52.653 -19.787  1.00  0.00    -0.353 OA
HETATM   24  C21 UNL     1       1.023  53.910 -20.406  1.00  0.00     0.210 C 
ENDBRANCH  10  23
BRANCH   9  25
HETATM   25  O2  UNL     1       0.034  50.524 -18.464  1.00  0.00    -0.348 OA
BRANCH  25  26
HETATM   26  C13 UNL     1      -0.822  49.858 -17.541  1.00  0.00     0.177 C 
BRANCH  26  27
HETATM   27  C14 UNL     1      -1.762  50.876 -16.904  1.00  0.00     0.046 C 
BRANCH  27  28
HETATM   28  C15 UNL     1      -2.504  50.417 -15.636  1.00  0.00     0.119 C 
BRANCH  28  29
HETATM   29  N4  UNL     1      -1.947  50.730 -14.324  1.00  0.00    -0.408 N 
HETATM   30  C16 UNL     1      -0.486  50.762 -14.209  1.00  0.00     0.143 C 
HETATM   31  C17 UNL     1       0.057  52.154 -13.851  1.00  0.00     0.187 C 
HETATM   32  O3  UNL     1      -0.497  52.701 -12.646  1.00  0.00    -0.388 OA
HETATM   33  C18 UNL     1      -1.809  52.204 -12.345  1.00  0.00     0.187 C 
HETATM   34  C19 UNL     1      -2.610  51.816 -13.598  1.00  0.00     0.143 C 
ENDBRANCH  28  29
ENDBRANCH  27  28
ENDBRANCH  26  27
ENDBRANCH  25  26
ENDBRANCH   9  25
TORSDOF 9
ENDMDL
