MODEL 1
REMARK minimizedAffinity -7.6259923
REMARK CNNscore 0.72556144
REMARK CNNaffinity 7.38709116
REMARK  10 active torsions:
REMARK  status: ('A' for Active; 'I' for Inactive)
REMARK    1  A    between atoms: C2_2  and  N1_3 
REMARK    2  A    between atoms: N1_3  and  C3_4 
REMARK    3  A    between atoms: N1_3  and  C5_6 
REMARK    4  A    between atoms: C5_6  and  C6_7 
REMARK    5  A    between atoms: C6_7  and  C7_8 
REMARK    6  A    between atoms: C7_8  and  C8_9 
REMARK    7  A    between atoms: C8_9  and  N2_10 
REMARK    8  A    between atoms: N2_10  and  C9_11 
REMARK    9  A    between atoms: C12_16  and  O1_17 
REMARK   10  A    between atoms: C13_18  and  C14_19 
ROOT
HETATM    1  C9  UNL     1       0.772  52.711 -18.892  1.00  0.00     0.082 A 
HETATM    2  C10 UNL     1       1.159  53.493 -19.978  1.00  0.00     0.072 A 
HETATM    3  C11 UNL     1       0.781  53.151 -21.264  1.00  0.00     0.049 A 
HETATM    4  N3  UNL     1       1.157  53.926 -22.299  1.00  0.00    -0.336 N 
ATOM      5  H3  UNL     1       1.717  54.767 -22.158  1.00  0.00     0.168 HD
HETATM    6  C12 UNL     1       0.763  53.543 -23.528  1.00  0.00     0.151 A 
HETATM    7  C13 UNL     1       0.002  52.421 -23.833  1.00  0.00     0.029 A 
HETATM    8  C20 UNL     1      -0.380  51.631 -22.746  1.00  0.00     0.032 A 
HETATM    9  C21 UNL     1       0.011  51.994 -21.444  1.00  0.00     0.007 A 
HETATM   10  C22 UNL     1      -0.326  51.259 -20.312  1.00  0.00     0.103 A 
HETATM   11  N4  UNL     1       0.040  51.594 -19.056  1.00  0.00    -0.356 N 
ATOM     12  H4  UNL     1      -0.230  51.020 -18.258  1.00  0.00     0.166 HD
ENDROOT
BRANCH   1  13
HETATM   13  N2  UNL     1       1.216  53.091 -17.613  1.00  0.00    -0.279 NA
HETATM   14  H19 UNL     1       0.445  53.528 -17.115  1.00  0.00     0.129 HD
BRANCH  13  15
HETATM   15  C8  UNL     1       1.833  52.016 -16.839  1.00  0.00     0.094 C 
BRANCH  15  16
HETATM   16  C7  UNL     1       3.134  52.535 -16.219  1.00  0.00     0.016 C 
BRANCH  16  17
HETATM   17  C6  UNL     1       3.468  51.886 -14.871  1.00  0.00     0.021 C 
BRANCH  17  18
HETATM   18  C5  UNL     1       2.236  51.670 -13.983  1.00  0.00     0.117 C 
BRANCH  18  19
HETATM   19  N1  UNL     1       1.953  50.289 -13.614  1.00  0.00    -0.413 N 
BRANCH  19  20
HETATM   20  C2  UNL     1       3.080  49.410 -13.340  1.00  0.00     0.112 C 
HETATM   21  C1  UNL     1       3.765  49.592 -11.991  1.00  0.00     0.026 C 
ENDBRANCH  19  20
BRANCH  19  22
HETATM   22  C3  UNL     1       0.729  49.689 -14.125  1.00  0.00     0.112 C 
HETATM   23  C4  UNL     1       0.901  48.577 -15.151  1.00  0.00     0.026 C 
ENDBRANCH  19  22
ENDBRANCH  18  19
ENDBRANCH  17  18
ENDBRANCH  16  17
ENDBRANCH  15  16
ENDBRANCH  13  15
ENDBRANCH   1  13
BRANCH   6  24
HETATM   24  O1  UNL     1       1.192  54.387 -24.503  1.00  0.00    -0.345 OA
HETATM   25  H21 UNL     1       1.684  55.031 -23.961  1.00  0.00     0.219 HD
ENDBRANCH   6  24
BRANCH   7  26
HETATM   26  C14 UNL     1      -0.386  52.077 -25.208  1.00  0.00     0.022 A 
HETATM   27  C15 UNL     1      -1.722  52.194 -25.645  1.00  0.00     0.046 A 
HETATM   28 CL1  UNL     1      -2.985  52.722 -24.582  1.00  0.00    -0.083 Cl
HETATM   29  C16 UNL     1      -2.087  51.877 -26.959  1.00  0.00     0.025 A 
HETATM   30  C17 UNL     1      -1.128  51.440 -27.868  1.00  0.00     0.003 A 
HETATM   31  C18 UNL     1       0.197  51.314 -27.462  1.00  0.00     0.025 A 
HETATM   32  C19 UNL     1       0.565  51.629 -26.148  1.00  0.00     0.046 A 
HETATM   33 CL2  UNL     1       2.235  51.426 -25.728  1.00  0.00    -0.083 Cl
ENDBRANCH   7  26
TORSDOF 10
ENDMDL
MODEL 2
REMARK minimizedAffinity -7.72901535
REMARK CNNscore 0.682922423
REMARK CNNaffinity 7.36891747
REMARK  10 active torsions:
REMARK  status: ('A' for Active; 'I' for Inactive)
REMARK    1  A    between atoms: C2_2  and  N1_3 
REMARK    2  A    between atoms: N1_3  and  C3_4 
REMARK    3  A    between atoms: N1_3  and  C5_6 
REMARK    4  A    between atoms: C5_6  and  C6_7 
REMARK    5  A    between atoms: C6_7  and  C7_8 
REMARK    6  A    between atoms: C7_8  and  C8_9 
REMARK    7  A    between atoms: C8_9  and  N2_10 
REMARK    8  A    between atoms: N2_10  and  C9_11 
REMARK    9  A    between atoms: C12_16  and  O1_17 
REMARK   10  A    between atoms: C13_18  and  C14_19 
ROOT
HETATM    1  C9  UNL     1       0.738  52.735 -18.890  1.00  0.00     0.082 A 
HETATM    2  C10 UNL     1       1.087  53.531 -19.978  1.00  0.00     0.072 A 
HETATM    3  C11 UNL     1       0.718  53.171 -21.262  1.00  0.00     0.049 A 
HETATM    4  N3  UNL     1       1.057  53.960 -22.301  1.00  0.00    -0.336 N 
ATOM      5  H3  UNL     1       1.583  54.823 -22.163  1.00  0.00     0.168 HD
HETATM    6  C12 UNL     1       0.673  53.559 -23.527  1.00  0.00     0.151 A 
HETATM    7  C13 UNL     1      -0.043  52.407 -23.827  1.00  0.00     0.029 A 
HETATM    8  C20 UNL     1      -0.387  51.604 -22.737  1.00  0.00     0.032 A 
HETATM    9  C21 UNL     1      -0.005  51.984 -21.438  1.00  0.00     0.007 A 
HETATM   10  C22 UNL     1      -0.306  51.238 -20.303  1.00  0.00     0.103 A 
HETATM   11  N4  UNL     1       0.052  51.589 -19.049  1.00  0.00    -0.356 N 
ATOM     12  H4  UNL     1      -0.191  51.005 -18.249  1.00  0.00     0.166 HD
ENDROOT
BRANCH   1  13
HETATM   13  N2  UNL     1       1.172  53.136 -17.614  1.00  0.00    -0.279 NA
HETATM   14  H19 UNL     1       0.368  53.452 -17.078  1.00  0.00     0.129 HD
BRANCH  13  15
HETATM   15  C8  UNL     1       1.953  52.131 -16.894  1.00  0.00     0.094 C 
BRANCH  15  16
HETATM   16  C7  UNL     1       3.294  52.745 -16.485  1.00  0.00     0.016 C 
BRANCH  16  17
HETATM   17  C6  UNL     1       3.982  51.999 -15.336  1.00  0.00     0.021 C 
BRANCH  17  18
HETATM   18  C5  UNL     1       3.037  51.688 -14.168  1.00  0.00     0.117 C 
BRANCH  18  19
HETATM   19  N1  UNL     1       2.761  50.276 -13.932  1.00  0.00    -0.413 N 
BRANCH  19  20
HETATM   20  C2  UNL     1       1.374  49.871 -13.758  1.00  0.00     0.112 C 
HETATM   21  C1  UNL     1       0.340  50.989 -13.745  1.00  0.00     0.026 C 
ENDBRANCH  19  20
BRANCH  19  22
HETATM   22  C3  UNL     1       3.790  49.486 -13.272  1.00  0.00     0.112 C 
HETATM   23  C4  UNL     1       4.281  50.006 -11.927  1.00  0.00     0.026 C 
ENDBRANCH  19  22
ENDBRANCH  18  19
ENDBRANCH  17  18
ENDBRANCH  16  17
ENDBRANCH  15  16
ENDBRANCH  13  15
ENDBRANCH   1  13
BRANCH   6  24
HETATM   24  O1  UNL     1       1.062  54.419 -24.505  1.00  0.00    -0.345 OA
HETATM   25  H21 UNL     1       1.530  55.083 -23.967  1.00  0.00     0.219 HD
ENDBRANCH   6  24
BRANCH   7  26
HETATM   26  C14 UNL     1      -0.422  52.045 -25.199  1.00  0.00     0.022 A 
HETATM   27  C15 UNL     1       0.542  51.633 -26.143  1.00  0.00     0.046 A 
HETATM   28 CL1  UNL     1       2.229  51.558 -25.748  1.00  0.00    -0.083 Cl
HETATM   29  C16 UNL     1       0.178  51.275 -27.447  1.00  0.00     0.025 A 
HETATM   30  C17 UNL     1      -1.156  51.317 -27.839  1.00  0.00     0.003 A 
HETATM   31  C18 UNL     1      -2.128  51.721 -26.928  1.00  0.00     0.025 A 
HETATM   32  C19 UNL     1      -1.766  52.081 -25.623  1.00  0.00     0.046 A 
HETATM   33 CL2  UNL     1      -3.042  52.587 -24.564  1.00  0.00    -0.083 Cl
ENDBRANCH   7  26
TORSDOF 10
ENDMDL
MODEL 3
REMARK minimizedAffinity -7.3882308
REMARK CNNscore 0.497391194
REMARK CNNaffinity 7.09425116
REMARK  10 active torsions:
REMARK  status: ('A' for Active; 'I' for Inactive)
REMARK    1  A    between atoms: C2_2  and  N1_3 
REMARK    2  A    between atoms: N1_3  and  C3_4 
REMARK    3  A    between atoms: N1_3  and  C5_6 
REMARK    4  A    between atoms: C5_6  and  C6_7 
REMARK    5  A    between atoms: C6_7  and  C7_8 
REMARK    6  A    between atoms: C7_8  and  C8_9 
REMARK    7  A    between atoms: C8_9  and  N2_10 
REMARK    8  A    between atoms: N2_10  and  C9_11 
REMARK    9  A    between atoms: C12_16  and  O1_17 
REMARK   10  A    between atoms: C13_18  and  C14_19 
ROOT
HETATM    1  C9  UNL     1       0.715  52.717 -18.897  1.00  0.00     0.082 A 
HETATM    2  C10 UNL     1       1.063  53.526 -19.976  1.00  0.00     0.072 A 
HETATM    3  C11 UNL     1       0.719  53.166 -21.268  1.00  0.00     0.049 A 
HETATM    4  N3  UNL     1       1.057  53.967 -22.297  1.00  0.00    -0.336 N 
ATOM      5  H3  UNL     1       1.564  54.840 -22.147  1.00  0.00     0.168 HD
HETATM    6  C12 UNL     1       0.699  53.565 -23.531  1.00  0.00     0.151 A 
HETATM    7  C13 UNL     1       0.010  52.401 -23.846  1.00  0.00     0.029 A 
HETATM    8  C20 UNL     1      -0.333  51.585 -22.765  1.00  0.00     0.032 A 
HETATM    9  C21 UNL     1       0.023  51.966 -21.459  1.00  0.00     0.007 A 
HETATM   10  C22 UNL     1      -0.279  51.207 -20.333  1.00  0.00     0.103 A 
HETATM   11  N4  UNL     1       0.054  51.559 -19.072  1.00  0.00    -0.356 N 
ATOM     12  H4  UNL     1      -0.188  50.966 -18.279  1.00  0.00     0.166 HD
ENDROOT
BRANCH   1  13
HETATM   13  N2  UNL     1       1.123  53.119 -17.613  1.00  0.00    -0.279 NA
HETATM   14  H19 UNL     1       0.301  53.384 -17.075  1.00  0.00     0.129 HD
BRANCH  13  15
HETATM   15  C8  UNL     1       1.953  52.146 -16.906  1.00  0.00     0.094 C 
BRANCH  15  16
HETATM   16  C7  UNL     1       1.063  51.006 -16.403  1.00  0.00     0.016 C 
BRANCH  16  17
HETATM   17  C6  UNL     1       1.072  50.851 -14.878  1.00  0.00     0.021 C 
BRANCH  17  18
HETATM   18  C5  UNL     1      -0.320  50.588 -14.290  1.00  0.00     0.117 C 
BRANCH  18  19
HETATM   19  N1  UNL     1      -0.812  51.585 -13.349  1.00  0.00    -0.413 N 
BRANCH  19  20
HETATM   20  C2  UNL     1      -2.252  51.767 -13.236  1.00  0.00     0.112 C 
HETATM   21  C1  UNL     1      -3.078  51.387 -14.459  1.00  0.00     0.026 C 
ENDBRANCH  19  20
BRANCH  19  22
HETATM   22  C3  UNL     1       0.043  52.728 -13.063  1.00  0.00     0.112 C 
HETATM   23  C4  UNL     1       0.605  52.814 -11.649  1.00  0.00     0.026 C 
ENDBRANCH  19  22
ENDBRANCH  18  19
ENDBRANCH  17  18
ENDBRANCH  16  17
ENDBRANCH  15  16
ENDBRANCH  13  15
ENDBRANCH   1  13
BRANCH   6  24
HETATM   24  O1  UNL     1       1.084  54.438 -24.498  1.00  0.00    -0.345 OA
HETATM   25  H21 UNL     1       1.531  55.108 -23.950  1.00  0.00     0.219 HD
ENDBRANCH   6  24
BRANCH   7  26
HETATM   26  C14 UNL     1      -0.343  52.039 -25.226  1.00  0.00     0.022 A 
HETATM   27  C15 UNL     1      -1.674  52.110 -25.686  1.00  0.00     0.046 A 
HETATM   28 CL1  UNL     1      -2.972  52.600 -24.646  1.00  0.00    -0.083 Cl
HETATM   29  C16 UNL     1      -2.007  51.777 -27.005  1.00  0.00     0.025 A 
HETATM   30  C17 UNL     1      -1.019  51.368 -27.895  1.00  0.00     0.003 A 
HETATM   31  C18 UNL     1       0.302  51.287 -27.467  1.00  0.00     0.025 A 
HETATM   32  C19 UNL     1       0.638  51.619 -26.148  1.00  0.00     0.046 A 
HETATM   33 CL2  UNL     1       2.306  51.472 -25.699  1.00  0.00    -0.083 Cl
ENDBRANCH   7  26
TORSDOF 10
ENDMDL
MODEL 4
REMARK minimizedAffinity -7.34240484
REMARK CNNscore 0.494572043
REMARK CNNaffinity 7.14516592
REMARK  10 active torsions:
REMARK  status: ('A' for Active; 'I' for Inactive)
REMARK    1  A    between atoms: C2_2  and  N1_3 
REMARK    2  A    between atoms: N1_3  and  C3_4 
REMARK    3  A    between atoms: N1_3  and  C5_6 
REMARK    4  A    between atoms: C5_6  and  C6_7 
REMARK    5  A    between atoms: C6_7  and  C7_8 
REMARK    6  A    between atoms: C7_8  and  C8_9 
REMARK    7  A    between atoms: C8_9  and  N2_10 
REMARK    8  A    between atoms: N2_10  and  C9_11 
REMARK    9  A    between atoms: C12_16  and  O1_17 
REMARK   10  A    between atoms: C13_18  and  C14_19 
ROOT
HETATM    1  C9  UNL     1       0.687  52.602 -18.782  1.00  0.00     0.082 A 
HETATM    2  C10 UNL     1       1.067  53.403 -19.855  1.00  0.00     0.072 A 
HETATM    3  C11 UNL     1       0.705  53.070 -21.148  1.00  0.00     0.049 A 
HETATM    4  N3  UNL     1       1.076  53.864 -22.172  1.00  0.00    -0.336 N 
ATOM      5  H3  UNL     1       1.620  54.713 -22.016  1.00  0.00     0.168 HD
HETATM    6  C12 UNL     1       0.697  53.489 -23.408  1.00  0.00     0.151 A 
HETATM    7  C13 UNL     1      -0.042  52.358 -23.731  1.00  0.00     0.029 A 
HETATM    8  C20 UNL     1      -0.418  51.549 -22.656  1.00  0.00     0.032 A 
HETATM    9  C21 UNL     1      -0.043  51.903 -21.348  1.00  0.00     0.007 A 
HETATM   10  C22 UNL     1      -0.376  51.149 -20.227  1.00  0.00     0.103 A 
HETATM   11  N4  UNL     1      -0.025  51.475 -18.965  1.00  0.00    -0.356 N 
ATOM     12  H4  UNL     1      -0.291  50.887 -18.176  1.00  0.00     0.166 HD
ENDROOT
BRANCH   1  13
HETATM   13  N2  UNL     1       1.114  52.975 -17.495  1.00  0.00    -0.279 NA
HETATM   14  H19 UNL     1       0.443  52.631 -16.813  1.00  0.00     0.129 HD
BRANCH  13  15
HETATM   15  C8  UNL     1       2.483  52.578 -17.170  1.00  0.00     0.094 C 
BRANCH  15  16
HETATM   16  C7  UNL     1       2.519  52.053 -15.732  1.00  0.00     0.016 C 
BRANCH  16  17
HETATM   17  C6  UNL     1       1.352  51.119 -15.394  1.00  0.00     0.021 C 
BRANCH  17  18
HETATM   18  C5  UNL     1       0.516  51.606 -14.203  1.00  0.00     0.117 C 
BRANCH  18  19
HETATM   19  N1  UNL     1      -0.848  51.098 -14.134  1.00  0.00    -0.413 N 
BRANCH  19  20
HETATM   20  C2  UNL     1      -1.316  50.245 -15.217  1.00  0.00     0.112 C 
HETATM   21  C1  UNL     1      -2.485  50.776 -16.038  1.00  0.00     0.026 C 
ENDBRANCH  19  20
BRANCH  19  22
HETATM   22  C3  UNL     1      -1.834  51.899 -13.424  1.00  0.00     0.112 C 
HETATM   23  C4  UNL     1      -2.496  51.243 -12.219  1.00  0.00     0.026 C 
ENDBRANCH  19  22
ENDBRANCH  18  19
ENDBRANCH  17  18
ENDBRANCH  16  17
ENDBRANCH  15  16
ENDBRANCH  13  15
ENDBRANCH   1  13
BRANCH   6  24
HETATM   24  O1  UNL     1       1.118  54.352 -24.369  1.00  0.00    -0.345 OA
HETATM   25  H21 UNL     1       1.595  54.997 -23.816  1.00  0.00     0.219 HD
ENDBRANCH   6  24
BRANCH   7  26
HETATM   26  C14 UNL     1      -0.413  52.023 -25.113  1.00  0.00     0.022 A 
HETATM   27  C15 UNL     1       0.551  51.593 -26.048  1.00  0.00     0.046 A 
HETATM   28 CL1  UNL     1       2.229  51.463 -25.632  1.00  0.00    -0.083 Cl
HETATM   29  C16 UNL     1       0.195  51.262 -27.361  1.00  0.00     0.025 A 
HETATM   30  C17 UNL     1      -1.133  51.349 -27.770  1.00  0.00     0.003 A 
HETATM   31  C18 UNL     1      -2.104  51.771 -26.868  1.00  0.00     0.025 A 
HETATM   32  C19 UNL     1      -1.750  52.105 -25.555  1.00  0.00     0.046 A 
HETATM   33 CL2  UNL     1      -3.024  52.637 -24.506  1.00  0.00    -0.083 Cl
ENDBRANCH   7  26
TORSDOF 10
ENDMDL
MODEL 5
REMARK minimizedAffinity -7.2799468
REMARK CNNscore 0.394556403
REMARK CNNaffinity 6.93755579
REMARK  10 active torsions:
REMARK  status: ('A' for Active; 'I' for Inactive)
REMARK    1  A    between atoms: C2_2  and  N1_3 
REMARK    2  A    between atoms: N1_3  and  C3_4 
REMARK    3  A    between atoms: N1_3  and  C5_6 
REMARK    4  A    between atoms: C5_6  and  C6_7 
REMARK    5  A    between atoms: C6_7  and  C7_8 
REMARK    6  A    between atoms: C7_8  and  C8_9 
REMARK    7  A    between atoms: C8_9  and  N2_10 
REMARK    8  A    between atoms: N2_10  and  C9_11 
REMARK    9  A    between atoms: C12_16  and  O1_17 
REMARK   10  A    between atoms: C13_18  and  C14_19 
ROOT
HETATM    1  C9  UNL     1       0.772  52.670 -18.823  1.00  0.00     0.082 A 
HETATM    2  C10 UNL     1       1.155  53.448 -19.912  1.00  0.00     0.072 A 
HETATM    3  C11 UNL     1       0.766  53.107 -21.195  1.00  0.00     0.049 A 
HETATM    4  N3  UNL     1       1.139  53.878 -22.235  1.00  0.00    -0.336 N 
ATOM      5  H3  UNL     1       1.705  54.716 -22.099  1.00  0.00     0.168 HD
HETATM    6  C12 UNL     1       0.733  53.496 -23.460  1.00  0.00     0.151 A 
HETATM    7  C13 UNL     1      -0.038  52.380 -23.758  1.00  0.00     0.029 A 
HETATM    8  C20 UNL     1      -0.416  51.594 -22.666  1.00  0.00     0.032 A 
HETATM    9  C21 UNL     1      -0.014  51.955 -21.368  1.00  0.00     0.007 A 
HETATM   10  C22 UNL     1      -0.347  51.224 -20.233  1.00  0.00     0.103 A 
HETATM   11  N4  UNL     1       0.031  51.558 -18.980  1.00  0.00    -0.356 N 
ATOM     12  H4  UNL     1      -0.237  50.986 -18.180  1.00  0.00     0.166 HD
ENDROOT
BRANCH   1  13
HETATM   13  N2  UNL     1       1.227  53.049 -17.548  1.00  0.00    -0.279 NA
HETATM   14  H19 UNL     1       0.491  53.567 -17.076  1.00  0.00     0.129 HD
BRANCH  13  15
HETATM   15  C8  UNL     1       1.736  51.948 -16.731  1.00  0.00     0.094 C 
BRANCH  15  16
HETATM   16  C7  UNL     1       0.585  51.375 -15.900  1.00  0.00     0.016 C 
BRANCH  16  17
HETATM   17  C6  UNL     1       0.798  49.913 -15.490  1.00  0.00     0.021 C 
BRANCH  17  18
HETATM   18  C5  UNL     1      -0.401  49.014 -15.817  1.00  0.00     0.117 C 
BRANCH  18  19
HETATM   19  N1  UNL     1      -1.690  49.685 -15.923  1.00  0.00    -0.413 N 
BRANCH  19  20
HETATM   20  C2  UNL     1      -2.526  49.751 -14.733  1.00  0.00     0.112 C 
HETATM   21  C1  UNL     1      -2.901  51.145 -14.247  1.00  0.00     0.026 C 
ENDBRANCH  19  20
BRANCH  19  22
HETATM   22  C3  UNL     1      -2.350  49.685 -17.220  1.00  0.00     0.112 C 
HETATM   23  C4  UNL     1      -3.667  48.924 -17.306  1.00  0.00     0.026 C 
ENDBRANCH  19  22
ENDBRANCH  18  19
ENDBRANCH  17  18
ENDBRANCH  16  17
ENDBRANCH  15  16
ENDBRANCH  13  15
ENDBRANCH   1  13
BRANCH   6  24
HETATM   24  O1  UNL     1       1.160  54.337 -24.439  1.00  0.00    -0.345 OA
HETATM   25  H21 UNL     1       1.660  54.978 -23.902  1.00  0.00     0.219 HD
ENDBRANCH   6  24
BRANCH   7  26
HETATM   26  C14 UNL     1      -0.438  52.036 -25.129  1.00  0.00     0.022 A 
HETATM   27  C15 UNL     1      -1.784  52.116 -25.543  1.00  0.00     0.046 A 
HETATM   28 CL1  UNL     1      -3.045  52.594 -24.453  1.00  0.00    -0.083 Cl
HETATM   29  C16 UNL     1      -2.162  51.800 -26.853  1.00  0.00     0.025 A 
HETATM   30  C17 UNL     1      -1.206  51.401 -27.782  1.00  0.00     0.003 A 
HETATM   31  C18 UNL     1       0.129  51.313 -27.400  1.00  0.00     0.025 A 
HETATM   32  C19 UNL     1       0.510  51.626 -26.089  1.00  0.00     0.046 A 
HETATM   33 CL2  UNL     1       2.192  51.471 -25.699  1.00  0.00    -0.083 Cl
ENDBRANCH   7  26
TORSDOF 10
ENDMDL
MODEL 6
REMARK minimizedAffinity -7.11684132
REMARK CNNscore 0.315783143
REMARK CNNaffinity 6.74429893
REMARK  10 active torsions:
REMARK  status: ('A' for Active; 'I' for Inactive)
REMARK    1  A    between atoms: C2_2  and  N1_3 
REMARK    2  A    between atoms: N1_3  and  C3_4 
REMARK    3  A    between atoms: N1_3  and  C5_6 
REMARK    4  A    between atoms: C5_6  and  C6_7 
REMARK    5  A    between atoms: C6_7  and  C7_8 
REMARK    6  A    between atoms: C7_8  and  C8_9 
REMARK    7  A    between atoms: C8_9  and  N2_10 
REMARK    8  A    between atoms: N2_10  and  C9_11 
REMARK    9  A    between atoms: C12_16  and  O1_17 
REMARK   10  A    between atoms: C13_18  and  C14_19 
ROOT
HETATM    1  C9  UNL     1       0.797  52.985 -19.143  1.00  0.00     0.082 A 
HETATM    2  C10 UNL     1       0.067  51.979 -19.771  1.00  0.00     0.072 A 
HETATM    3  C11 UNL     1      -0.053  51.950 -21.149  1.00  0.00     0.049 A 
HETATM    4  N3  UNL     1      -0.757  50.963 -21.738  1.00  0.00    -0.336 N 
ATOM      5  H3  UNL     1      -1.206  50.229 -21.189  1.00  0.00     0.168 HD
HETATM    6  C12 UNL     1      -0.842  50.986 -23.081  1.00  0.00     0.151 A 
HETATM    7  C13 UNL     1      -0.271  51.932 -23.922  1.00  0.00     0.029 A 
HETATM    8  C20 UNL     1       0.456  52.947 -23.293  1.00  0.00     0.032 A 
HETATM    9  C21 UNL     1       0.569  52.961 -21.892  1.00  0.00     0.007 A 
HETATM   10  C22 UNL     1       1.272  53.937 -21.192  1.00  0.00     0.103 A 
HETATM   11  N4  UNL     1       1.391  53.965 -19.847  1.00  0.00    -0.356 N 
ATOM     12  H4  UNL     1       1.915  54.705 -19.381  1.00  0.00     0.166 HD
ENDROOT
BRANCH   1  13
HETATM   13  N2  UNL     1       0.854  52.980 -17.738  1.00  0.00    -0.279 NA
HETATM   14  H19 UNL     1       0.050  52.474 -17.378  1.00  0.00     0.129 HD
BRANCH  13  15
HETATM   15  C8  UNL     1       2.112  52.483 -17.183  1.00  0.00     0.094 C 
BRANCH  15  16
HETATM   16  C7  UNL     1       1.856  51.959 -15.767  1.00  0.00     0.016 C 
BRANCH  16  17
HETATM   17  C6  UNL     1       3.140  51.688 -14.976  1.00  0.00     0.021 C 
BRANCH  17  18
HETATM   18  C5  UNL     1       2.892  51.483 -13.476  1.00  0.00     0.117 C 
BRANCH  18  19
HETATM   19  N1  UNL     1       3.225  50.165 -12.950  1.00  0.00    -0.413 N 
BRANCH  19  20
HETATM   20  C2  UNL     1       4.382  50.051 -12.075  1.00  0.00     0.112 C 
HETATM   21  C1  UNL     1       4.213  50.583 -10.657  1.00  0.00     0.026 C 
ENDBRANCH  19  20
BRANCH  19  22
HETATM   22  C3  UNL     1       2.856  49.004 -13.747  1.00  0.00     0.112 C 
HETATM   23  C4  UNL     1       1.374  48.654 -13.783  1.00  0.00     0.026 C 
ENDBRANCH  19  22
ENDBRANCH  18  19
ENDBRANCH  17  18
ENDBRANCH  16  17
ENDBRANCH  15  16
ENDBRANCH  13  15
ENDBRANCH   1  13
BRANCH   6  24
HETATM   24  O1  UNL     1      -1.570  49.952 -23.578  1.00  0.00    -0.345 OA
HETATM   25  H21 UNL     1      -1.817  49.507 -22.747  1.00  0.00     0.219 HD
ENDBRANCH   6  24
BRANCH   7  26
HETATM   26  C14 UNL     1      -0.414  51.882 -25.384  1.00  0.00     0.022 A 
HETATM   27  C15 UNL     1       0.677  51.557 -26.217  1.00  0.00     0.046 A 
HETATM   28 CL1  UNL     1       2.252  51.228 -25.570  1.00  0.00    -0.083 Cl
HETATM   29  C16 UNL     1       0.537  51.496 -27.609  1.00  0.00     0.025 A 
HETATM   30  C17 UNL     1      -0.696  51.755 -28.202  1.00  0.00     0.003 A 
HETATM   31  C18 UNL     1      -1.788  52.079 -27.403  1.00  0.00     0.025 A 
HETATM   32  C19 UNL     1      -1.650  52.142 -26.010  1.00  0.00     0.046 A 
HETATM   33 CL2  UNL     1      -3.060  52.569 -25.097  1.00  0.00    -0.083 Cl
ENDBRANCH   7  26
TORSDOF 10
ENDMDL
MODEL 7
REMARK minimizedAffinity -7.44724655
REMARK CNNscore 0.270956039
REMARK CNNaffinity 6.43831825
REMARK  10 active torsions:
REMARK  status: ('A' for Active; 'I' for Inactive)
REMARK    1  A    between atoms: C2_2  and  N1_3 
REMARK    2  A    between atoms: N1_3  and  C3_4 
REMARK    3  A    between atoms: N1_3  and  C5_6 
REMARK    4  A    between atoms: C5_6  and  C6_7 
REMARK    5  A    between atoms: C6_7  and  C7_8 
REMARK    6  A    between atoms: C7_8  and  C8_9 
REMARK    7  A    between atoms: C8_9  and  N2_10 
REMARK    8  A    between atoms: N2_10  and  C9_11 
REMARK    9  A    between atoms: C12_16  and  O1_17 
REMARK   10  A    between atoms: C13_18  and  C14_19 
ROOT
HETATM    1  C9  UNL     1       1.059  52.943 -19.096  1.00  0.00     0.082 A 
HETATM    2  C10 UNL     1       0.331  51.860 -19.582  1.00  0.00     0.072 A 
HETATM    3  C11 UNL     1      -0.039  51.799 -20.914  1.00  0.00     0.049 A 
HETATM    4  N3  UNL     1      -0.735  50.738 -21.366  1.00  0.00    -0.336 N 
ATOM      5  H3  UNL     1      -0.998  49.971 -20.747  1.00  0.00     0.168 HD
HETATM    6  C12 UNL     1      -1.070  50.734 -22.670  1.00  0.00     0.151 A 
HETATM    7  C13 UNL     1      -0.764  51.722 -23.598  1.00  0.00     0.029 A 
HETATM    8  C20 UNL     1      -0.041  52.813 -23.110  1.00  0.00     0.032 A 
HETATM    9  C21 UNL     1       0.329  52.858 -21.754  1.00  0.00     0.007 A 
HETATM   10  C22 UNL     1       1.046  53.910 -21.192  1.00  0.00     0.103 A 
HETATM   11  N4  UNL     1       1.409  53.968 -19.893  1.00  0.00    -0.356 N 
ATOM     12  H4  UNL     1       1.933  54.764 -19.528  1.00  0.00     0.166 HD
ENDROOT
BRANCH   1  13
HETATM   13  N2  UNL     1       1.376  52.963 -17.726  1.00  0.00    -0.279 NA
HETATM   14  H19 UNL     1       1.031  53.830 -17.321  1.00  0.00     0.129 HD
BRANCH  13  15
HETATM   15  C8  UNL     1       0.925  51.790 -16.980  1.00  0.00     0.094 C 
BRANCH  15  16
HETATM   16  C7  UNL     1       1.373  51.925 -15.522  1.00  0.00     0.016 C 
BRANCH  16  17
HETATM   17  C6  UNL     1       0.274  51.582 -14.511  1.00  0.00     0.021 C 
BRANCH  17  18
HETATM   18  C5  UNL     1       0.234  52.541 -13.315  1.00  0.00     0.117 C 
BRANCH  18  19
HETATM   19  N1  UNL     1      -0.925  52.418 -12.440  1.00  0.00    -0.413 N 
BRANCH  19  20
HETATM   20  C2  UNL     1      -2.194  52.027 -13.036  1.00  0.00     0.112 C 
HETATM   21  C1  UNL     1      -3.178  51.309 -12.121  1.00  0.00     0.026 C 
ENDBRANCH  19  20
BRANCH  19  22
HETATM   22  C3  UNL     1      -0.962  53.247 -11.244  1.00  0.00     0.112 C 
HETATM   23  C4  UNL     1       0.255  54.129 -10.996  1.00  0.00     0.026 C 
ENDBRANCH  19  22
ENDBRANCH  18  19
ENDBRANCH  17  18
ENDBRANCH  16  17
ENDBRANCH  15  16
ENDBRANCH  13  15
ENDBRANCH   1  13
BRANCH   6  24
HETATM   24  O1  UNL     1      -1.768  49.625 -23.028  1.00  0.00    -0.345 OA
HETATM   25  H21 UNL     1      -1.810  49.169 -22.168  1.00  0.00     0.219 HD
ENDBRANCH   6  24
BRANCH   7  26
HETATM   26  C14 UNL     1      -1.170  51.637 -25.008  1.00  0.00     0.022 A 
HETATM   27  C15 UNL     1      -0.231  51.371 -26.027  1.00  0.00     0.046 A 
HETATM   28 CL1  UNL     1       1.454  51.159 -25.680  1.00  0.00    -0.083 Cl
HETATM   29  C16 UNL     1      -0.621  51.277 -27.369  1.00  0.00     0.025 A 
HETATM   30  C17 UNL     1      -1.956  51.443 -27.724  1.00  0.00     0.003 A 
HETATM   31  C18 UNL     1      -2.903  51.707 -26.739  1.00  0.00     0.025 A 
HETATM   32  C19 UNL     1      -2.515  51.803 -25.396  1.00  0.00     0.046 A 
HETATM   33 CL2  UNL     1      -3.759  52.152 -24.241  1.00  0.00    -0.083 Cl
ENDBRANCH   7  26
TORSDOF 10
ENDMDL
MODEL 8
REMARK minimizedAffinity -6.55230761
REMARK CNNscore 0.257553697
REMARK CNNaffinity 6.02468348
REMARK  10 active torsions:
REMARK  status: ('A' for Active; 'I' for Inactive)
REMARK    1  A    between atoms: C2_2  and  N1_3 
REMARK    2  A    between atoms: N1_3  and  C3_4 
REMARK    3  A    between atoms: N1_3  and  C5_6 
REMARK    4  A    between atoms: C5_6  and  C6_7 
REMARK    5  A    between atoms: C6_7  and  C7_8 
REMARK    6  A    between atoms: C7_8  and  C8_9 
REMARK    7  A    between atoms: C8_9  and  N2_10 
REMARK    8  A    between atoms: N2_10  and  C9_11 
REMARK    9  A    between atoms: C12_16  and  O1_17 
REMARK   10  A    between atoms: C13_18  and  C14_19 
ROOT
HETATM    1  C9  UNL     1       1.306  51.001 -15.388  1.00  0.00     0.082 A 
HETATM    2  C10 UNL     1       0.662  50.074 -16.204  1.00  0.00     0.072 A 
HETATM    3  C11 UNL     1       0.169  50.446 -17.442  1.00  0.00     0.049 A 
HETATM    4  N3  UNL     1      -0.443  49.533 -18.220  1.00  0.00    -0.336 N 
ATOM      5  H3  UNL     1      -0.551  48.564 -17.918  1.00  0.00     0.168 HD
HETATM    6  C12 UNL     1      -0.904  49.952 -19.413  1.00  0.00     0.151 A 
HETATM    7  C13 UNL     1      -0.810  51.241 -19.922  1.00  0.00     0.029 A 
HETATM    8  C20 UNL     1      -0.171  52.174 -19.101  1.00  0.00     0.032 A 
HETATM    9  C21 UNL     1       0.326  51.779 -17.846  1.00  0.00     0.007 A 
HETATM   10  C22 UNL     1       0.971  52.647 -16.972  1.00  0.00     0.103 A 
HETATM   11  N4  UNL     1       1.455  52.284 -15.764  1.00  0.00    -0.356 N 
ATOM     12  H4  UNL     1       1.917  52.960 -15.157  1.00  0.00     0.166 HD
ENDROOT
BRANCH   1  13
HETATM   13  N2  UNL     1       1.756  50.570 -14.128  1.00  0.00    -0.279 NA
HETATM   14  H19 UNL     1       2.036  49.595 -14.193  1.00  0.00     0.129 HD
BRANCH  13  15
HETATM   15  C8  UNL     1       2.801  51.405 -13.537  1.00  0.00     0.094 C 
BRANCH  15  16
HETATM   16  C7  UNL     1       2.239  52.098 -12.293  1.00  0.00     0.016 C 
BRANCH  16  17
HETATM   17  C6  UNL     1       3.318  52.528 -11.293  1.00  0.00     0.021 C 
BRANCH  17  18
HETATM   18  C5  UNL     1       2.812  53.538 -10.257  1.00  0.00     0.117 C 
BRANCH  18  19
HETATM   19  N1  UNL     1       3.824  54.404  -9.665  1.00  0.00    -0.413 N 
BRANCH  19  20
HETATM   20  C2  UNL     1       3.607  55.843  -9.717  1.00  0.00     0.112 C 
HETATM   21  C1  UNL     1       3.429  56.449 -11.104  1.00  0.00     0.026 C 
ENDBRANCH  19  20
BRANCH  19  22
HETATM   22  C3  UNL     1       5.197  53.923  -9.640  1.00  0.00     0.112 C 
HETATM   23  C4  UNL     1       6.275  54.971  -9.391  1.00  0.00     0.026 C 
ENDBRANCH  19  22
ENDBRANCH  18  19
ENDBRANCH  17  18
ENDBRANCH  16  17
ENDBRANCH  15  16
ENDBRANCH  13  15
ENDBRANCH   1  13
BRANCH   6  24
HETATM   24  O1  UNL     1      -1.504  48.959 -20.121  1.00  0.00    -0.345 OA
HETATM   25  H21 UNL     1      -1.406  48.222 -19.491  1.00  0.00     0.219 HD
ENDBRANCH   6  24
BRANCH   7  26
HETATM   26  C14 UNL     1      -1.343  51.614 -21.240  1.00  0.00     0.022 A 
HETATM   27  C15 UNL     1      -2.732  51.650 -21.486  1.00  0.00     0.046 A 
HETATM   28 CL1  UNL     1      -3.885  51.230 -20.261  1.00  0.00    -0.083 Cl
HETATM   29  C16 UNL     1      -3.239  52.018 -22.738  1.00  0.00     0.025 A 
HETATM   30  C17 UNL     1      -2.374  52.361 -23.772  1.00  0.00     0.003 A 
HETATM   31  C18 UNL     1      -0.999  52.333 -23.556  1.00  0.00     0.025 A 
HETATM   32  C19 UNL     1      -0.489  51.964 -22.305  1.00  0.00     0.046 A 
HETATM   33 CL2  UNL     1       1.236  51.940 -22.134  1.00  0.00    -0.083 Cl
ENDBRANCH   7  26
TORSDOF 10
ENDMDL
MODEL 9
REMARK minimizedAffinity -6.95099306
REMARK CNNscore 0.255774707
REMARK CNNaffinity 6.52409744
REMARK  10 active torsions:
REMARK  status: ('A' for Active; 'I' for Inactive)
REMARK    1  A    between atoms: C2_2  and  N1_3 
REMARK    2  A    between atoms: N1_3  and  C3_4 
REMARK    3  A    between atoms: N1_3  and  C5_6 
REMARK    4  A    between atoms: C5_6  and  C6_7 
REMARK    5  A    between atoms: C6_7  and  C7_8 
REMARK    6  A    between atoms: C7_8  and  C8_9 
REMARK    7  A    between atoms: C8_9  and  N2_10 
REMARK    8  A    between atoms: N2_10  and  C9_11 
REMARK    9  A    between atoms: C12_16  and  O1_17 
REMARK   10  A    between atoms: C13_18  and  C14_19 
ROOT
HETATM    1  C9  UNL     1       1.039  52.946 -19.036  1.00  0.00     0.082 A 
HETATM    2  C10 UNL     1       0.322  51.849 -19.507  1.00  0.00     0.072 A 
HETATM    3  C11 UNL     1      -0.070  51.778 -20.832  1.00  0.00     0.049 A 
HETATM    4  N3  UNL     1      -0.755  50.703 -21.270  1.00  0.00    -0.336 N 
ATOM      5  H3  UNL     1      -0.992  49.933 -20.644  1.00  0.00     0.168 HD
HETATM    6  C12 UNL     1      -1.112  50.690 -22.568  1.00  0.00     0.151 A 
HETATM    7  C13 UNL     1      -0.842  51.680 -23.503  1.00  0.00     0.029 A 
HETATM    8  C20 UNL     1      -0.130  52.786 -23.030  1.00  0.00     0.032 A 
HETATM    9  C21 UNL     1       0.263  52.842 -21.681  1.00  0.00     0.007 A 
HETATM   10  C22 UNL     1       0.970  53.907 -21.135  1.00  0.00     0.103 A 
HETATM   11  N4  UNL     1       1.356  53.975 -19.842  1.00  0.00    -0.356 N 
ATOM     12  H4  UNL     1       1.871  54.781 -19.489  1.00  0.00     0.166 HD
ENDROOT
BRANCH   1  13
HETATM   13  N2  UNL     1       1.380  52.976 -17.673  1.00  0.00    -0.279 NA
HETATM   14  H19 UNL     1       0.902  53.757 -17.231  1.00  0.00     0.129 HD
BRANCH  13  15
HETATM   15  C8  UNL     1       1.153  51.719 -16.962  1.00  0.00     0.094 C 
BRANCH  15  16
HETATM   16  C7  UNL     1       0.961  52.018 -15.473  1.00  0.00     0.016 C 
BRANCH  16  17
HETATM   17  C6  UNL     1       1.716  51.052 -14.553  1.00  0.00     0.021 C 
BRANCH  17  18
HETATM   18  C5  UNL     1       1.135  50.991 -13.135  1.00  0.00     0.117 C 
BRANCH  18  19
HETATM   19  N1  UNL     1      -0.271  51.355 -13.007  1.00  0.00    -0.413 N 
BRANCH  19  20
HETATM   20  C2  UNL     1      -0.596  52.596 -12.319  1.00  0.00     0.112 C 
HETATM   21  C1  UNL     1       0.556  53.296 -11.608  1.00  0.00     0.026 C 
ENDBRANCH  19  20
BRANCH  19  22
HETATM   22  C3  UNL     1      -1.249  50.278 -12.966  1.00  0.00     0.112 C 
HETATM   23  C4  UNL     1      -1.853  49.967 -11.603  1.00  0.00     0.026 C 
ENDBRANCH  19  22
ENDBRANCH  18  19
ENDBRANCH  17  18
ENDBRANCH  16  17
ENDBRANCH  15  16
ENDBRANCH  13  15
ENDBRANCH   1  13
BRANCH   6  24
HETATM   24  O1  UNL     1      -1.797  49.567 -22.910  1.00  0.00    -0.345 OA
HETATM   25  H21 UNL     1      -1.815  49.113 -22.049  1.00  0.00     0.219 HD
ENDBRANCH   6  24
BRANCH   7  26
HETATM   26  C14 UNL     1      -1.271  51.584 -24.905  1.00  0.00     0.022 A 
HETATM   27  C15 UNL     1      -2.620  51.768 -25.274  1.00  0.00     0.046 A 
HETATM   28 CL1  UNL     1      -3.851  52.088 -24.095  1.00  0.00    -0.083 Cl
HETATM   29  C16 UNL     1      -3.026  51.689 -26.612  1.00  0.00     0.025 A 
HETATM   30  C17 UNL     1      -2.095  51.428 -27.613  1.00  0.00     0.003 A 
HETATM   31  C18 UNL     1      -0.757  51.241 -27.276  1.00  0.00     0.025 A 
HETATM   32  C19 UNL     1      -0.349  51.318 -25.938  1.00  0.00     0.046 A 
HETATM   33 CL2  UNL     1       1.333  51.056 -25.612  1.00  0.00    -0.083 Cl
ENDBRANCH   7  26
TORSDOF 10
ENDMDL
