MODEL 1
REMARK minimizedAffinity -7.55472946
REMARK CNNscore 0.759160519
REMARK CNNaffinity 6.17691803
REMARK  9 active torsions:
REMARK  status: ('A' for Active; 'I' for Inactive)
REMARK    1  A    between atoms: C2_2  and  O2_4 
REMARK    2  A    between atoms: O2_4  and  C3_5 
REMARK    3  A    between atoms: C3_5  and  C6_8 
REMARK    4  A    between atoms: C7_9  and  C8_10 
REMARK    5  A    between atoms: C8_10  and  C9_12 
REMARK    6  A    between atoms: C9_12  and  O4_14 
REMARK    7  A    between atoms: C9_12  and  C11_15 
REMARK    8  A    between atoms: C12_16  and  O5_17 
REMARK    9  A    between atoms: C22_27  and  O6_28 
ROOT
HETATM    1  C11 UNL     1     -12.016  45.486 -27.269  1.00  0.00     0.066 C 
HETATM    2  C12 UNL     1     -13.130  45.287 -28.329  1.00  0.00     0.127 C 
HETATM    3  C13 UNL     1     -12.538  45.697 -29.699  1.00  0.00     0.042 C 
HETATM    4  C14 UNL     1     -11.034  45.943 -29.444  1.00  0.00    -0.029 C 
HETATM    5  C15 UNL     1     -10.346  44.545 -29.556  1.00  0.00     0.016 C 
HETATM    6  C16 UNL     1     -10.367  46.985 -30.410  1.00  0.00     0.014 C 
HETATM    7  C17 UNL     1     -10.341  46.543 -31.890  1.00  0.00     0.034 C 
HETATM    8  C18 UNL     1      -9.244  45.574 -32.195  1.00  0.00    -0.022 C 
HETATM    9  C19 UNL     1      -8.031  45.644 -31.610  1.00  0.00    -0.063 C 
HETATM   10  C20 UNL     1      -7.734  46.883 -30.764  1.00  0.00     0.034 C 
HETATM   11  C21 UNL     1      -6.415  46.763 -29.987  1.00  0.00     0.050 C 
HETATM   12  C22 UNL     1      -5.247  46.408 -30.893  1.00  0.00     0.189 C 
HETATM   13  C23 UNL     1      -5.539  45.291 -31.887  1.00  0.00     0.167 C 
HETATM   14  O7  UNL     1      -4.646  44.957 -32.678  1.00  0.00    -0.294 OA
HETATM   15  C24 UNL     1      -6.917  44.603 -31.852  1.00  0.00     0.039 C 
HETATM   16  C25 UNL     1      -6.902  43.545 -30.735  1.00  0.00     0.028 C 
HETATM   17  C26 UNL     1      -7.085  43.843 -33.192  1.00  0.00     0.028 C 
HETATM   18  C27 UNL     1      -8.948  47.496 -29.930  1.00  0.00     0.029 C 
HETATM   19  C28 UNL     1      -8.904  49.034 -30.236  1.00  0.00     0.025 C 
HETATM   20  C29 UNL     1      -8.741  47.426 -28.379  1.00  0.00     0.137 C 
HETATM   21  O8  UNL     1      -7.842  48.079 -27.829  1.00  0.00    -0.297 OA
HETATM   22  C30 UNL     1      -9.614  46.547 -27.491  1.00  0.00     0.089 C 
HETATM   23  C31 UNL     1     -11.060  46.510 -27.975  1.00  0.00    -0.021 C 
HETATM   24  C32 UNL     1     -11.659  47.936 -27.840  1.00  0.00     0.017 C 
ENDROOT
BRANCH   1  25
HETATM   25  C9  UNL     1     -12.472  45.685 -25.790  1.00  0.00     0.125 C 
HETATM   26  C10 UNL     1     -12.506  44.341 -25.032  1.00  0.00     0.055 C 
BRANCH  25  27
HETATM   27  C8  UNL     1     -13.832  46.418 -25.551  1.00  0.00     0.183 C 
HETATM   28  O3  UNL     1     -13.959  47.638 -25.674  1.00  0.00    -0.290 OA
BRANCH  27  29
HETATM   29  C7  UNL     1     -15.031  45.614 -25.158  1.00  0.00     0.052 C 
HETATM   30  C6  UNL     1     -15.818  46.023 -24.149  1.00  0.00     0.014 C 
BRANCH  30  31
HETATM   31  C3  UNL     1     -17.098  45.357 -23.665  1.00  0.00     0.081 C 
HETATM   32  C4  UNL     1     -16.767  43.900 -23.318  1.00  0.00     0.051 C 
HETATM   33  C5  UNL     1     -17.592  46.138 -22.440  1.00  0.00     0.051 C 
BRANCH  31  34
HETATM   34  O2  UNL     1     -18.061  45.433 -24.747  1.00  0.00    -0.307 OA
BRANCH  34  35
HETATM   35  C2  UNL     1     -19.200  46.157 -24.604  1.00  0.00     0.255 C 
HETATM   36  C1  UNL     1     -20.303  45.270 -24.114  1.00  0.00     0.126 C 
HETATM   37  O1  UNL     1     -19.337  47.349 -24.842  1.00  0.00    -0.266 OA
ENDBRANCH  34  35
ENDBRANCH  31  34
ENDBRANCH  30  31
ENDBRANCH  27  29
ENDBRANCH  25  27
BRANCH  25  38
HETATM   38  O4  UNL     1     -11.438  46.474 -25.167  1.00  0.00    -0.382 OA
HETATM   39  H15 UNL     1     -10.860  45.890 -24.641  1.00  0.00     0.211 HD
ENDBRANCH  25  38
ENDBRANCH   1  25
BRANCH   2  40
HETATM   40  O5  UNL     1     -13.552  43.934 -28.331  1.00  0.00    -0.395 OA
HETATM   41  H18 UNL     1     -14.133  43.800 -29.101  1.00  0.00     0.210 HD
ENDBRANCH   2  40
BRANCH  12  42
HETATM   42  O6  UNL     1      -4.863  47.563 -31.644  1.00  0.00    -0.388 OA
HETATM   43  H32 UNL     1      -4.130  47.276 -32.224  1.00  0.00     0.210 HD
ENDBRANCH  12  42
TORSDOF 9
ENDMDL
MODEL 2
REMARK minimizedAffinity -8.07738304
REMARK CNNscore 0.644721508
REMARK CNNaffinity 5.94270325
REMARK  9 active torsions:
REMARK  status: ('A' for Active; 'I' for Inactive)
REMARK    1  A    between atoms: C2_2  and  O2_4 
REMARK    2  A    between atoms: O2_4  and  C3_5 
REMARK    3  A    between atoms: C3_5  and  C6_8 
REMARK    4  A    between atoms: C7_9  and  C8_10 
REMARK    5  A    between atoms: C8_10  and  C9_12 
REMARK    6  A    between atoms: C9_12  and  O4_14 
REMARK    7  A    between atoms: C9_12  and  C11_15 
REMARK    8  A    between atoms: C12_16  and  O5_17 
REMARK    9  A    between atoms: C22_27  and  O6_28 
ROOT
HETATM    1  C11 UNL     1     -15.992  46.045 -25.349  1.00  0.00     0.066 C 
HETATM    2  C12 UNL     1     -15.311  46.814 -24.187  1.00  0.00     0.127 C 
HETATM    3  C13 UNL     1     -13.782  46.667 -24.372  1.00  0.00     0.042 C 
HETATM    4  C14 UNL     1     -13.595  45.979 -25.744  1.00  0.00    -0.029 C 
HETATM    5  C15 UNL     1     -13.622  47.125 -26.805  1.00  0.00     0.016 C 
HETATM    6  C16 UNL     1     -12.292  45.115 -25.872  1.00  0.00     0.014 C 
HETATM    7  C17 UNL     1     -10.984  45.931 -25.777  1.00  0.00     0.034 C 
HETATM    8  C18 UNL     1     -10.633  46.630 -27.052  1.00  0.00    -0.022 C 
HETATM    9  C19 UNL     1     -10.868  46.087 -28.264  1.00  0.00    -0.063 C 
HETATM   10  C20 UNL     1     -11.324  44.628 -28.301  1.00  0.00     0.034 C 
HETATM   11  C21 UNL     1     -11.755  44.181 -29.704  1.00  0.00     0.050 C 
HETATM   12  C22 UNL     1     -10.686  44.462 -30.748  1.00  0.00     0.189 C 
HETATM   13  C23 UNL     1     -10.063  45.848 -30.653  1.00  0.00     0.167 C 
HETATM   14  O7  UNL     1      -9.167  46.148 -31.454  1.00  0.00    -0.294 OA
HETATM   15  C24 UNL     1     -10.588  46.830 -29.588  1.00  0.00     0.039 C 
HETATM   16  C25 UNL     1     -11.868  47.491 -30.129  1.00  0.00     0.028 C 
HETATM   17  C26 UNL     1      -9.531  47.952 -29.437  1.00  0.00     0.028 C 
HETATM   18  C27 UNL     1     -12.280  44.140 -27.120  1.00  0.00     0.029 C 
HETATM   19  C28 UNL     1     -11.647  42.794 -26.625  1.00  0.00     0.025 C 
HETATM   20  C29 UNL     1     -13.708  43.717 -27.605  1.00  0.00     0.137 C 
HETATM   21  O8  UNL     1     -13.862  42.727 -28.334  1.00  0.00    -0.297 OA
HETATM   22  C30 UNL     1     -14.954  44.506 -27.221  1.00  0.00     0.089 C 
HETATM   23  C31 UNL     1     -14.865  45.049 -25.797  1.00  0.00    -0.021 C 
HETATM   24  C32 UNL     1     -14.833  43.848 -24.815  1.00  0.00     0.017 C 
ENDROOT
BRANCH   1  25
HETATM   25  C9  UNL     1     -17.459  45.564 -25.118  1.00  0.00     0.125 C 
HETATM   26  C10 UNL     1     -18.146  45.214 -26.454  1.00  0.00     0.055 C 
BRANCH  25  27
HETATM   27  C8  UNL     1     -18.405  46.510 -24.311  1.00  0.00     0.183 C 
HETATM   28  O3  UNL     1     -18.806  47.588 -24.758  1.00  0.00    -0.290 OA
BRANCH  27  29
HETATM   29  C7  UNL     1     -18.847  46.099 -22.943  1.00  0.00     0.052 C 
HETATM   30  C6  UNL     1     -18.221  46.581 -21.857  1.00  0.00     0.014 C 
BRANCH  30  31
HETATM   31  C3  UNL     1     -18.579  46.311 -20.402  1.00  0.00     0.081 C 
HETATM   32  C4  UNL     1     -17.305  45.851 -19.682  1.00  0.00     0.051 C 
HETATM   33  C5  UNL     1     -19.132  47.615 -19.811  1.00  0.00     0.051 C 
BRANCH  31  34
HETATM   34  O2  UNL     1     -19.591  45.272 -20.392  1.00  0.00    -0.307 OA
BRANCH  34  35
HETATM   35  C2  UNL     1     -19.818  44.544 -19.269  1.00  0.00     0.255 C 
HETATM   36  C1  UNL     1     -19.414  43.121 -19.501  1.00  0.00     0.126 C 
HETATM   37  O1  UNL     1     -20.289  44.959 -18.219  1.00  0.00    -0.266 OA
ENDBRANCH  34  35
ENDBRANCH  31  34
ENDBRANCH  30  31
ENDBRANCH  27  29
ENDBRANCH  25  27
BRANCH  25  38
HETATM   38  O4  UNL     1     -17.351  44.328 -24.383  1.00  0.00    -0.382 OA
HETATM   39  H15 UNL     1     -17.473  43.577 -24.994  1.00  0.00     0.211 HD
ENDBRANCH  25  38
ENDBRANCH   1  25
BRANCH   2  40
HETATM   40  O5  UNL     1     -15.709  48.174 -24.217  1.00  0.00    -0.395 OA
HETATM   41  H18 UNL     1     -15.155  48.664 -23.583  1.00  0.00     0.210 HD
ENDBRANCH   2  40
BRANCH  12  42
HETATM   42  O6  UNL     1      -9.631  43.505 -30.613  1.00  0.00    -0.388 OA
HETATM   43  H32 UNL     1      -8.964  43.744 -31.287  1.00  0.00     0.210 HD
ENDBRANCH  12  42
TORSDOF 9
ENDMDL
MODEL 3
REMARK minimizedAffinity -8.1625576
REMARK CNNscore 0.630846202
REMARK CNNaffinity 6.44304037
REMARK  9 active torsions:
REMARK  status: ('A' for Active; 'I' for Inactive)
REMARK    1  A    between atoms: C2_2  and  O2_4 
REMARK    2  A    between atoms: O2_4  and  C3_5 
REMARK    3  A    between atoms: C3_5  and  C6_8 
REMARK    4  A    between atoms: C7_9  and  C8_10 
REMARK    5  A    between atoms: C8_10  and  C9_12 
REMARK    6  A    between atoms: C9_12  and  O4_14 
REMARK    7  A    between atoms: C9_12  and  C11_15 
REMARK    8  A    between atoms: C12_16  and  O5_17 
REMARK    9  A    between atoms: C22_27  and  O6_28 
ROOT
HETATM    1  C11 UNL     1      -8.913  46.801 -27.539  1.00  0.00     0.066 C 
HETATM    2  C12 UNL     1      -9.070  48.312 -27.851  1.00  0.00     0.127 C 
HETATM    3  C13 UNL     1      -8.760  48.505 -29.355  1.00  0.00     0.042 C 
HETATM    4  C14 UNL     1      -8.616  47.079 -29.934  1.00  0.00    -0.029 C 
HETATM    5  C15 UNL     1     -10.064  46.611 -30.286  1.00  0.00     0.016 C 
HETATM    6  C16 UNL     1      -7.665  46.970 -31.178  1.00  0.00     0.014 C 
HETATM    7  C17 UNL     1      -8.165  47.739 -32.421  1.00  0.00     0.034 C 
HETATM    8  C18 UNL     1      -9.225  47.005 -33.180  1.00  0.00    -0.022 C 
HETATM    9  C19 UNL     1      -9.221  45.663 -33.315  1.00  0.00    -0.063 C 
HETATM   10  C20 UNL     1      -7.976  44.915 -32.837  1.00  0.00     0.034 C 
HETATM   11  C21 UNL     1      -8.163  43.392 -32.850  1.00  0.00     0.050 C 
HETATM   12  C22 UNL     1      -8.639  42.885 -34.202  1.00  0.00     0.189 C 
HETATM   13  C23 UNL     1      -9.769  43.700 -34.817  1.00  0.00     0.167 C 
HETATM   14  O7  UNL     1     -10.199  43.365 -35.930  1.00  0.00    -0.294 OA
HETATM   15  C24 UNL     1     -10.351  44.885 -34.024  1.00  0.00     0.039 C 
HETATM   16  C25 UNL     1     -11.363  44.334 -33.003  1.00  0.00     0.028 C 
HETATM   17  C26 UNL     1     -11.149  45.759 -35.023  1.00  0.00     0.028 C 
HETATM   18  C27 UNL     1      -7.242  45.489 -31.541  1.00  0.00     0.029 C 
HETATM   19  C28 UNL     1      -5.725  45.545 -31.936  1.00  0.00     0.025 C 
HETATM   20  C29 UNL     1      -7.267  44.507 -30.322  1.00  0.00     0.137 C 
HETATM   21  O8  UNL     1      -6.660  43.426 -30.366  1.00  0.00    -0.297 OA
HETATM   22  C30 UNL     1      -8.043  44.824 -29.050  1.00  0.00     0.089 C 
HETATM   23  C31 UNL     1      -7.991  46.311 -28.710  1.00  0.00    -0.021 C 
HETATM   24  C32 UNL     1      -6.521  46.689 -28.387  1.00  0.00     0.017 C 
ENDROOT
BRANCH   1  25
HETATM   25  C9  UNL     1      -8.623  46.409 -26.056  1.00  0.00     0.125 C 
HETATM   26  C10 UNL     1      -9.909  45.947 -25.341  1.00  0.00     0.055 C 
BRANCH  25  27
HETATM   27  C8  UNL     1      -7.917  47.476 -25.158  1.00  0.00     0.183 C 
HETATM   28  O3  UNL     1      -8.489  48.042 -24.224  1.00  0.00    -0.290 OA
BRANCH  27  29
HETATM   29  C7  UNL     1      -6.490  47.828 -25.436  1.00  0.00     0.052 C 
HETATM   30  C6  UNL     1      -5.808  48.611 -24.583  1.00  0.00     0.014 C 
BRANCH  30  31
HETATM   31  C3  UNL     1      -4.344  49.013 -24.686  1.00  0.00     0.081 C 
HETATM   32  C4  UNL     1      -3.638  48.550 -23.405  1.00  0.00     0.051 C 
HETATM   33  C5  UNL     1      -3.765  48.336 -25.936  1.00  0.00     0.051 C 
BRANCH  31  34
HETATM   34  O2  UNL     1      -4.301  50.457 -24.816  1.00  0.00    -0.307 OA
BRANCH  34  35
HETATM   35  C2  UNL     1      -3.187  51.146 -24.459  1.00  0.00     0.255 C 
HETATM   36  C1  UNL     1      -3.528  52.135 -23.388  1.00  0.00     0.126 C 
HETATM   37  O1  UNL     1      -2.066  51.009 -24.931  1.00  0.00    -0.266 OA
ENDBRANCH  34  35
ENDBRANCH  31  34
ENDBRANCH  30  31
ENDBRANCH  27  29
ENDBRANCH  25  27
BRANCH  25  38
HETATM   38  O4  UNL     1      -7.760  45.256 -26.121  1.00  0.00    -0.382 OA
HETATM   39  H15 UNL     1      -8.286  44.450 -25.962  1.00  0.00     0.211 HD
ENDBRANCH  25  38
ENDBRANCH   1  25
BRANCH   2  40
HETATM   40  O5  UNL     1     -10.388  48.730 -27.536  1.00  0.00    -0.395 OA
HETATM   41  H18 UNL     1     -10.509  49.633 -27.882  1.00  0.00     0.210 HD
ENDBRANCH   2  40
BRANCH  12  42
HETATM   42  O6  UNL     1      -7.546  42.900 -35.124  1.00  0.00    -0.388 OA
HETATM   43  H32 UNL     1      -7.909  42.589 -35.977  1.00  0.00     0.210 HD
ENDBRANCH  12  42
TORSDOF 9
ENDMDL
MODEL 4
REMARK minimizedAffinity -7.78837442
REMARK CNNscore 0.552079737
REMARK CNNaffinity 6.32452536
REMARK  9 active torsions:
REMARK  status: ('A' for Active; 'I' for Inactive)
REMARK    1  A    between atoms: C2_2  and  O2_4 
REMARK    2  A    between atoms: O2_4  and  C3_5 
REMARK    3  A    between atoms: C3_5  and  C6_8 
REMARK    4  A    between atoms: C7_9  and  C8_10 
REMARK    5  A    between atoms: C8_10  and  C9_12 
REMARK    6  A    between atoms: C9_12  and  O4_14 
REMARK    7  A    between atoms: C9_12  and  C11_15 
REMARK    8  A    between atoms: C12_16  and  O5_17 
REMARK    9  A    between atoms: C22_27  and  O6_28 
ROOT
HETATM    1  C11 UNL     1     -10.390  44.964 -34.250  1.00  0.00     0.066 C 
HETATM    2  C12 UNL     1     -10.929  43.539 -33.961  1.00  0.00     0.127 C 
HETATM    3  C13 UNL     1     -10.662  43.241 -32.466  1.00  0.00     0.042 C 
HETATM    4  C14 UNL     1     -10.148  44.569 -31.866  1.00  0.00    -0.029 C 
HETATM    5  C15 UNL     1     -11.421  45.389 -31.483  1.00  0.00     0.016 C 
HETATM    6  C16 UNL     1      -9.187  44.403 -30.636  1.00  0.00     0.014 C 
HETATM    7  C17 UNL     1      -9.854  43.765 -29.398  1.00  0.00     0.034 C 
HETATM    8  C18 UNL     1     -10.679  44.732 -28.609  1.00  0.00    -0.022 C 
HETATM    9  C19 UNL     1     -10.327  46.024 -28.452  1.00  0.00    -0.063 C 
HETATM   10  C20 UNL     1      -8.936  46.434 -28.937  1.00  0.00     0.034 C 
HETATM   11  C21 UNL     1      -8.722  47.954 -28.896  1.00  0.00     0.050 C 
HETATM   12  C22 UNL     1      -9.035  48.539 -27.529  1.00  0.00     0.189 C 
HETATM   13  C23 UNL     1     -10.330  48.031 -26.908  1.00  0.00     0.167 C 
HETATM   14  O7  UNL     1     -10.646  48.443 -25.784  1.00  0.00    -0.294 OA
HETATM   15  C24 UNL     1     -11.208  47.054 -27.712  1.00  0.00     0.039 C 
HETATM   16  C25 UNL     1     -12.054  47.868 -28.707  1.00  0.00     0.028 C 
HETATM   17  C26 UNL     1     -12.194  46.395 -26.715  1.00  0.00     0.028 C 
HETATM   18  C27 UNL     1      -8.390  45.717 -30.255  1.00  0.00     0.029 C 
HETATM   19  C28 UNL     1      -6.935  45.262 -29.886  1.00  0.00     0.025 C 
HETATM   20  C29 UNL     1      -8.174  46.697 -31.457  1.00  0.00     0.137 C 
HETATM   21  O8  UNL     1      -7.308  47.583 -31.404  1.00  0.00    -0.297 OA
HETATM   22  C30 UNL     1      -9.020  46.617 -32.721  1.00  0.00     0.089 C 
HETATM   23  C31 UNL     1      -9.359  45.174 -33.087  1.00  0.00    -0.021 C 
HETATM   24  C32 UNL     1      -8.041  44.435 -33.440  1.00  0.00     0.017 C 
ENDROOT
BRANCH   1  25
HETATM   25  C9  UNL     1     -10.026  45.297 -35.731  1.00  0.00     0.125 C 
HETATM   26  C10 UNL     1      -9.150  46.564 -35.817  1.00  0.00     0.055 C 
BRANCH  25  27
HETATM   27  C8  UNL     1     -11.207  45.447 -36.744  1.00  0.00     0.183 C 
HETATM   28  O3  UNL     1     -11.949  44.508 -37.042  1.00  0.00    -0.290 OA
BRANCH  27  29
HETATM   29  C7  UNL     1     -11.454  46.778 -37.379  1.00  0.00     0.052 C 
HETATM   30  C6  UNL     1     -12.543  46.972 -38.141  1.00  0.00     0.014 C 
BRANCH  30  31
HETATM   31  C3  UNL     1     -12.969  48.272 -38.807  1.00  0.00     0.081 C 
HETATM   32  C4  UNL     1     -14.463  48.477 -38.525  1.00  0.00     0.051 C 
HETATM   33  C5  UNL     1     -12.115  49.400 -38.213  1.00  0.00     0.051 C 
BRANCH  31  34
HETATM   34  O2  UNL     1     -12.720  48.132 -40.229  1.00  0.00    -0.307 OA
BRANCH  34  35
HETATM   35  C2  UNL     1     -13.742  48.213 -41.119  1.00  0.00     0.255 C 
HETATM   36  C1  UNL     1     -14.022  46.858 -41.690  1.00  0.00     0.126 C 
HETATM   37  O1  UNL     1     -14.352  49.227 -41.432  1.00  0.00    -0.266 OA
ENDBRANCH  34  35
ENDBRANCH  31  34
ENDBRANCH  30  31
ENDBRANCH  27  29
ENDBRANCH  25  27
BRANCH  25  38
HETATM   38  O4  UNL     1      -9.201  44.204 -36.184  1.00  0.00    -0.382 OA
HETATM   39  H15 UNL     1      -8.265  44.476 -36.162  1.00  0.00     0.211 HD
ENDBRANCH  25  38
ENDBRANCH   1  25
BRANCH   2  40
HETATM   40  O5  UNL     1     -12.313  43.482 -34.262  1.00  0.00    -0.395 OA
HETATM   41  H18 UNL     1     -12.660  42.635 -33.929  1.00  0.00     0.210 HD
ENDBRANCH   2  40
BRANCH  12  42
HETATM   42  O6  UNL     1      -7.972  48.222 -26.625  1.00  0.00    -0.388 OA
HETATM   43  H32 UNL     1      -8.233  48.599 -25.761  1.00  0.00     0.210 HD
ENDBRANCH  12  42
TORSDOF 9
ENDMDL
MODEL 5
REMARK minimizedAffinity -7.91693926
REMARK CNNscore 0.549925089
REMARK CNNaffinity 6.46394157
REMARK  9 active torsions:
REMARK  status: ('A' for Active; 'I' for Inactive)
REMARK    1  A    between atoms: C2_2  and  O2_4 
REMARK    2  A    between atoms: O2_4  and  C3_5 
REMARK    3  A    between atoms: C3_5  and  C6_8 
REMARK    4  A    between atoms: C7_9  and  C8_10 
REMARK    5  A    between atoms: C8_10  and  C9_12 
REMARK    6  A    between atoms: C9_12  and  O4_14 
REMARK    7  A    between atoms: C9_12  and  C11_15 
REMARK    8  A    between atoms: C12_16  and  O5_17 
REMARK    9  A    between atoms: C22_27  and  O6_28 
ROOT
HETATM    1  C11 UNL     1      -2.380  49.447 -17.207  1.00  0.00     0.066 C 
HETATM    2  C12 UNL     1      -2.931  48.089 -16.698  1.00  0.00     0.127 C 
HETATM    3  C13 UNL     1      -2.469  47.928 -15.230  1.00  0.00     0.042 C 
HETATM    4  C14 UNL     1      -1.822  49.279 -14.849  1.00  0.00    -0.029 C 
HETATM    5  C15 UNL     1      -2.995  50.201 -14.386  1.00  0.00     0.016 C 
HETATM    6  C16 UNL     1      -0.706  49.183 -13.749  1.00  0.00     0.014 C 
HETATM    7  C17 UNL     1      -1.219  48.709 -12.372  1.00  0.00     0.034 C 
HETATM    8  C18 UNL     1      -1.885  49.793 -11.586  1.00  0.00    -0.022 C 
HETATM    9  C19 UNL     1      -1.462  51.073 -11.615  1.00  0.00    -0.063 C 
HETATM   10  C20 UNL     1      -0.137  51.356 -12.325  1.00  0.00     0.034 C 
HETATM   11  C21 UNL     1       0.142  52.858 -12.475  1.00  0.00     0.050 C 
HETATM   12  C22 UNL     1       0.047  53.592 -11.147  1.00  0.00     0.189 C 
HETATM   13  C23 UNL     1      -1.167  53.221 -10.307  1.00  0.00     0.167 C 
HETATM   14  O7  UNL     1      -1.306  53.760  -9.200  1.00  0.00    -0.294 OA
HETATM   15  C24 UNL     1      -2.188  52.218 -10.877  1.00  0.00     0.039 C 
HETATM   16  C25 UNL     1      -3.132  52.975 -11.829  1.00  0.00     0.028 C 
HETATM   17  C26 UNL     1      -3.051  51.717  -9.691  1.00  0.00     0.028 C 
HETATM   18  C27 UNL     1       0.189  50.483 -13.621  1.00  0.00     0.029 C 
HETATM   19  C28 UNL     1       1.661  49.988 -13.406  1.00  0.00     0.025 C 
HETATM   20  C29 UNL     1       0.274  51.325 -14.938  1.00  0.00     0.137 C 
HETATM   21  O8  UNL     1       1.175  52.163 -15.097  1.00  0.00    -0.297 OA
HETATM   22  C30 UNL     1      -0.744  51.166 -16.061  1.00  0.00     0.089 C 
HETATM   23  C31 UNL     1      -1.188  49.715 -16.222  1.00  0.00    -0.021 C 
HETATM   24  C32 UNL     1       0.037  48.874 -16.670  1.00  0.00     0.017 C 
ENDROOT
BRANCH   1  25
HETATM   25  C9  UNL     1      -2.213  49.611 -18.750  1.00  0.00     0.125 C 
HETATM   26  C10 UNL     1      -0.910  48.949 -19.243  1.00  0.00     0.055 C 
BRANCH  25  27
HETATM   27  C8  UNL     1      -2.276  51.062 -19.328  1.00  0.00     0.183 C 
HETATM   28  O3  UNL     1      -2.725  52.014 -18.685  1.00  0.00    -0.290 OA
BRANCH  27  29
HETATM   29  C7  UNL     1      -1.773  51.314 -20.714  1.00  0.00     0.052 C 
HETATM   30  C6  UNL     1      -2.628  51.338 -21.750  1.00  0.00     0.014 C 
BRANCH  30  31
HETATM   31  C3  UNL     1      -2.290  51.635 -23.203  1.00  0.00     0.081 C 
HETATM   32  C4  UNL     1      -1.972  50.302 -23.893  1.00  0.00     0.051 C 
HETATM   33  C5  UNL     1      -3.508  52.327 -23.830  1.00  0.00     0.051 C 
BRANCH  31  34
HETATM   34  O2  UNL     1      -1.138  52.516 -23.209  1.00  0.00    -0.307 OA
BRANCH  34  35
HETATM   35  C2  UNL     1      -0.575  52.906 -24.381  1.00  0.00     0.255 C 
HETATM   36  C1  UNL     1       0.724  52.188 -24.579  1.00  0.00     0.126 C 
HETATM   37  O1  UNL     1      -1.032  53.723 -25.169  1.00  0.00    -0.266 OA
ENDBRANCH  34  35
ENDBRANCH  31  34
ENDBRANCH  30  31
ENDBRANCH  27  29
ENDBRANCH  25  27
BRANCH  25  38
HETATM   38  O4  UNL     1      -3.295  48.862 -19.340  1.00  0.00    -0.382 OA
HETATM   39  H15 UNL     1      -2.959  48.002 -19.653  1.00  0.00     0.211 HD
ENDBRANCH  25  38
ENDBRANCH   1  25
BRANCH   2  40
HETATM   40  O5  UNL     1      -4.344  48.079 -16.801  1.00  0.00    -0.395 OA
HETATM   41  H18 UNL     1      -4.675  47.289 -16.337  1.00  0.00     0.210 HD
ENDBRANCH   2  40
BRANCH  12  42
HETATM   42  O6  UNL     1       1.213  53.310 -10.367  1.00  0.00    -0.388 OA
HETATM   43  H32 UNL     1       1.091  53.784  -9.520  1.00  0.00     0.210 HD
ENDBRANCH  12  42
TORSDOF 9
ENDMDL
MODEL 6
REMARK minimizedAffinity -8.22923565
REMARK CNNscore 0.540168703
REMARK CNNaffinity 6.38517523
REMARK  9 active torsions:
REMARK  status: ('A' for Active; 'I' for Inactive)
REMARK    1  A    between atoms: C2_2  and  O2_4 
REMARK    2  A    between atoms: O2_4  and  C3_5 
REMARK    3  A    between atoms: C3_5  and  C6_8 
REMARK    4  A    between atoms: C7_9  and  C8_10 
REMARK    5  A    between atoms: C8_10  and  C9_12 
REMARK    6  A    between atoms: C9_12  and  O4_14 
REMARK    7  A    between atoms: C9_12  and  C11_15 
REMARK    8  A    between atoms: C12_16  and  O5_17 
REMARK    9  A    between atoms: C22_27  and  O6_28 
ROOT
HETATM    1  C11 UNL     1      -6.817  47.297 -20.567  1.00  0.00     0.066 C 
HETATM    2  C12 UNL     1      -6.075  46.029 -20.072  1.00  0.00     0.127 C 
HETATM    3  C13 UNL     1      -4.612  46.130 -20.569  1.00  0.00     0.042 C 
HETATM    4  C14 UNL     1      -4.479  47.544 -21.178  1.00  0.00    -0.029 C 
HETATM    5  C15 UNL     1      -4.148  48.496 -19.985  1.00  0.00     0.016 C 
HETATM    6  C16 UNL     1      -3.409  47.668 -22.319  1.00  0.00     0.014 C 
HETATM    7  C17 UNL     1      -1.958  47.417 -21.850  1.00  0.00     0.034 C 
HETATM    8  C18 UNL     1      -1.349  48.598 -21.164  1.00  0.00    -0.022 C 
HETATM    9  C19 UNL     1      -1.603  49.867 -21.544  1.00  0.00    -0.063 C 
HETATM   10  C20 UNL     1      -2.384  50.065 -22.844  1.00  0.00     0.034 C 
HETATM   11  C21 UNL     1      -2.790  51.528 -23.070  1.00  0.00     0.050 C 
HETATM   12  C22 UNL     1      -1.602  52.472 -22.978  1.00  0.00     0.189 C 
HETATM   13  C23 UNL     1      -0.681  52.212 -21.794  1.00  0.00     0.167 C 
HETATM   14  O7  UNL     1       0.323  52.925 -21.660  1.00  0.00    -0.294 OA
HETATM   15  C24 UNL     1      -1.048  51.098 -20.795  1.00  0.00     0.039 C 
HETATM   16  C25 UNL     1      -2.089  51.656 -19.808  1.00  0.00     0.028 C 
HETATM   17  C26 UNL     1       0.226  50.778 -19.975  1.00  0.00     0.028 C 
HETATM   18  C27 UNL     1      -3.523  48.996 -23.173  1.00  0.00     0.029 C 
HETATM   19  C28 UNL     1      -3.266  48.588 -24.665  1.00  0.00     0.025 C 
HETATM   20  C29 UNL     1      -4.964  49.607 -23.203  1.00  0.00     0.137 C 
HETATM   21  O8  UNL     1      -5.285  50.432 -24.071  1.00  0.00    -0.297 OA
HETATM   22  C30 UNL     1      -6.018  49.232 -22.168  1.00  0.00     0.089 C 
HETATM   23  C31 UNL     1      -5.922  47.762 -21.768  1.00  0.00    -0.021 C 
HETATM   24  C32 UNL     1      -6.254  46.893 -23.011  1.00  0.00     0.017 C 
ENDROOT
BRANCH   1  25
HETATM   25  C9  UNL     1      -8.370  47.204 -20.696  1.00  0.00     0.125 C 
HETATM   26  C10 UNL     1      -8.849  47.749 -22.057  1.00  0.00     0.055 C 
BRANCH  25  27
HETATM   27  C8  UNL     1      -9.225  47.871 -19.571  1.00  0.00     0.183 C 
HETATM   28  O3  UNL     1      -8.794  48.784 -18.862  1.00  0.00    -0.290 OA
BRANCH  27  29
HETATM   29  C7  UNL     1     -10.622  47.391 -19.339  1.00  0.00     0.052 C 
HETATM   30  C6  UNL     1     -11.658  48.235 -19.474  1.00  0.00     0.014 C 
BRANCH  30  31
HETATM   31  C3  UNL     1     -13.135  47.895 -19.333  1.00  0.00     0.081 C 
HETATM   32  C4  UNL     1     -13.370  47.414 -17.895  1.00  0.00     0.051 C 
HETATM   33  C5  UNL     1     -13.936  49.165 -19.649  1.00  0.00     0.051 C 
BRANCH  31  34
HETATM   34  O2  UNL     1     -13.432  46.848 -20.291  1.00  0.00    -0.307 OA
BRANCH  34  35
HETATM   35  C2  UNL     1     -14.061  47.141 -21.458  1.00  0.00     0.255 C 
HETATM   36  C1  UNL     1     -15.519  46.823 -21.338  1.00  0.00     0.126 C 
HETATM   37  O1  UNL     1     -13.539  47.587 -22.471  1.00  0.00    -0.266 OA
ENDBRANCH  34  35
ENDBRANCH  31  34
ENDBRANCH  30  31
ENDBRANCH  27  29
ENDBRANCH  25  27
BRANCH  25  38
HETATM   38  O4  UNL     1      -8.676  45.795 -20.695  1.00  0.00    -0.382 OA
HETATM   39  H15 UNL     1      -8.839  45.499 -21.611  1.00  0.00     0.211 HD
ENDBRANCH  25  38
ENDBRANCH   1  25
BRANCH   2  40
HETATM   40  O5  UNL     1      -6.138  45.959 -18.657  1.00  0.00    -0.395 OA
HETATM   41  H18 UNL     1      -5.539  45.250 -18.363  1.00  0.00     0.210 HD
ENDBRANCH   2  40
BRANCH  12  42
HETATM   42  O6  UNL     1      -0.816  52.359 -24.168  1.00  0.00    -0.388 OA
HETATM   43  H32 UNL     1      -0.058  52.966 -24.048  1.00  0.00     0.210 HD
ENDBRANCH  12  42
TORSDOF 9
ENDMDL
MODEL 7
REMARK minimizedAffinity -7.64509964
REMARK CNNscore 0.523233235
REMARK CNNaffinity 7.06544733
REMARK  9 active torsions:
REMARK  status: ('A' for Active; 'I' for Inactive)
REMARK    1  A    between atoms: C2_2  and  O2_4 
REMARK    2  A    between atoms: O2_4  and  C3_5 
REMARK    3  A    between atoms: C3_5  and  C6_8 
REMARK    4  A    between atoms: C7_9  and  C8_10 
REMARK    5  A    between atoms: C8_10  and  C9_12 
REMARK    6  A    between atoms: C9_12  and  O4_14 
REMARK    7  A    between atoms: C9_12  and  C11_15 
REMARK    8  A    between atoms: C12_16  and  O5_17 
REMARK    9  A    between atoms: C22_27  and  O6_28 
ROOT
HETATM    1  C11 UNL     1      -1.841  52.574 -11.647  1.00  0.00     0.066 C 
HETATM    2  C12 UNL     1      -2.772  53.339 -10.670  1.00  0.00     0.127 C 
HETATM    3  C13 UNL     1      -1.922  53.727  -9.436  1.00  0.00     0.042 C 
HETATM    4  C14 UNL     1      -0.468  53.351  -9.801  1.00  0.00    -0.029 C 
HETATM    5  C15 UNL     1       0.106  54.571 -10.589  1.00  0.00     0.016 C 
HETATM    6  C16 UNL     1       0.442  52.987  -8.574  1.00  0.00     0.014 C 
HETATM    7  C17 UNL     1       0.681  54.161  -7.599  1.00  0.00     0.034 C 
HETATM    8  C18 UNL     1       1.726  55.119  -8.076  1.00  0.00    -0.022 C 
HETATM    9  C19 UNL     1       2.824  54.718  -8.749  1.00  0.00    -0.063 C 
HETATM   10  C20 UNL     1       3.079  53.212  -8.838  1.00  0.00     0.034 C 
HETATM   11  C21 UNL     1       4.230  52.865  -9.791  1.00  0.00     0.050 C 
HETATM   12  C22 UNL     1       5.500  53.631  -9.458  1.00  0.00     0.189 C 
HETATM   13  C23 UNL     1       5.286  55.114  -9.184  1.00  0.00     0.167 C 
HETATM   14  O7  UNL     1       6.269  55.806  -8.883  1.00  0.00    -0.294 OA
HETATM   15  C24 UNL     1       3.868  55.700  -9.320  1.00  0.00     0.039 C 
HETATM   16  C25 UNL     1       3.601  55.982 -10.810  1.00  0.00     0.028 C 
HETATM   17  C26 UNL     1       3.865  57.069  -8.595  1.00  0.00     0.028 C 
HETATM   18  C27 UNL     1       1.797  52.269  -8.964  1.00  0.00     0.029 C 
HETATM   19  C28 UNL     1       2.026  51.143  -7.896  1.00  0.00     0.025 C 
HETATM   20  C29 UNL     1       1.730  51.482 -10.316  1.00  0.00     0.137 C 
HETATM   21  O8  UNL     1       2.576  50.616 -10.589  1.00  0.00    -0.297 OA
HETATM   22  C30 UNL     1       0.647  51.756 -11.352  1.00  0.00     0.089 C 
HETATM   23  C31 UNL     1      -0.694  52.078 -10.699  1.00  0.00    -0.021 C 
HETATM   24  C32 UNL     1      -1.181  50.820  -9.932  1.00  0.00     0.017 C 
ENDROOT
BRANCH   1  25
HETATM   25  C9  UNL     1      -2.524  51.613 -12.671  1.00  0.00     0.125 C 
HETATM   26  C10 UNL     1      -3.648  50.795 -12.003  1.00  0.00     0.055 C 
BRANCH  25  27
HETATM   27  C8  UNL     1      -1.599  50.627 -13.456  1.00  0.00     0.183 C 
HETATM   28  O3  UNL     1      -1.319  49.502 -13.037  1.00  0.00    -0.290 OA
BRANCH  27  29
HETATM   29  C7  UNL     1      -1.028  51.059 -14.770  1.00  0.00     0.052 C 
HETATM   30  C6  UNL     1      -1.351  50.401 -15.895  1.00  0.00     0.014 C 
BRANCH  30  31
HETATM   31  C3  UNL     1      -0.907  50.743 -17.310  1.00  0.00     0.081 C 
HETATM   32  C4  UNL     1       0.421  51.506 -17.214  1.00  0.00     0.051 C 
HETATM   33  C5  UNL     1      -0.755  49.425 -18.081  1.00  0.00     0.051 C 
BRANCH  31  34
HETATM   34  O2  UNL     1      -1.943  51.568 -17.901  1.00  0.00    -0.307 OA
BRANCH  34  35
HETATM   35  C2  UNL     1      -2.591  51.161 -19.023  1.00  0.00     0.255 C 
HETATM   36  C1  UNL     1      -1.827  51.603 -20.233  1.00  0.00     0.126 C 
HETATM   37  O1  UNL     1      -3.643  50.538 -19.068  1.00  0.00    -0.266 OA
ENDBRANCH  34  35
ENDBRANCH  31  34
ENDBRANCH  30  31
ENDBRANCH  27  29
ENDBRANCH  25  27
BRANCH  25  38
HETATM   38  O4  UNL     1      -3.166  52.469 -13.638  1.00  0.00    -0.382 OA
HETATM   39  H15 UNL     1      -4.120  52.520 -13.440  1.00  0.00     0.211 HD
ENDBRANCH  25  38
ENDBRANCH   1  25
BRANCH   2  40
HETATM   40  O5  UNL     1      -3.303  54.484 -11.315  1.00  0.00    -0.395 OA
HETATM   41  H18 UNL     1      -3.753  55.027 -10.643  1.00  0.00     0.210 HD
ENDBRANCH   2  40
BRANCH  12  42
HETATM   42  O6  UNL     1       6.105  53.061  -8.294  1.00  0.00    -0.388 OA
HETATM   43  H32 UNL     1       6.899  53.602  -8.111  1.00  0.00     0.210 HD
ENDBRANCH  12  42
TORSDOF 9
ENDMDL
MODEL 8
REMARK minimizedAffinity -7.39703608
REMARK CNNscore 0.449139476
REMARK CNNaffinity 6.01826715
REMARK  9 active torsions:
REMARK  status: ('A' for Active; 'I' for Inactive)
REMARK    1  A    between atoms: C2_2  and  O2_4 
REMARK    2  A    between atoms: O2_4  and  C3_5 
REMARK    3  A    between atoms: C3_5  and  C6_8 
REMARK    4  A    between atoms: C7_9  and  C8_10 
REMARK    5  A    between atoms: C8_10  and  C9_12 
REMARK    6  A    between atoms: C9_12  and  O4_14 
REMARK    7  A    between atoms: C9_12  and  C11_15 
REMARK    8  A    between atoms: C12_16  and  O5_17 
REMARK    9  A    between atoms: C22_27  and  O6_28 
ROOT
HETATM    1  C11 UNL     1      -9.629  47.475 -28.258  1.00  0.00     0.066 C 
HETATM    2  C12 UNL     1      -8.369  48.306 -28.612  1.00  0.00     0.127 C 
HETATM    3  C13 UNL     1      -7.694  47.622 -29.825  1.00  0.00     0.042 C 
HETATM    4  C14 UNL     1      -8.676  46.518 -30.277  1.00  0.00    -0.029 C 
HETATM    5  C15 UNL     1      -9.698  47.215 -31.229  1.00  0.00     0.016 C 
HETATM    6  C16 UNL     1      -8.000  45.284 -30.973  1.00  0.00     0.014 C 
HETATM    7  C17 UNL     1      -7.306  45.620 -32.312  1.00  0.00     0.034 C 
HETATM    8  C18 UNL     1      -8.261  45.730 -33.458  1.00  0.00    -0.022 C 
HETATM    9  C19 UNL     1      -9.348  44.941 -33.573  1.00  0.00    -0.063 C 
HETATM   10  C20 UNL     1      -9.473  43.774 -32.592  1.00  0.00     0.034 C 
HETATM   11  C21 UNL     1     -10.836  43.074 -32.681  1.00  0.00     0.050 C 
HETATM   12  C22 UNL     1     -11.171  42.651 -34.102  1.00  0.00     0.189 C 
HETATM   13  C23 UNL     1     -10.900  43.717 -35.155  1.00  0.00     0.167 C 
HETATM   14  O7  UNL     1     -11.126  43.443 -36.343  1.00  0.00    -0.294 OA
HETATM   15  C24 UNL     1     -10.387  45.097 -34.704  1.00  0.00     0.039 C 
HETATM   16  C25 UNL     1     -11.591  45.932 -34.233  1.00  0.00     0.028 C 
HETATM   17  C26 UNL     1      -9.810  45.805 -35.956  1.00  0.00     0.028 C 
HETATM   18  C27 UNL     1      -8.942  44.019 -31.107  1.00  0.00     0.029 C 
HETATM   19  C28 UNL     1      -8.051  42.767 -30.792  1.00  0.00     0.025 C 
HETATM   20  C29 UNL     1     -10.067  43.951 -30.020  1.00  0.00     0.137 C 
HETATM   21  O8  UNL     1     -10.661  42.887 -29.789  1.00  0.00    -0.297 OA
HETATM   22  C30 UNL     1     -10.490  45.178 -29.223  1.00  0.00     0.089 C 
HETATM   23  C31 UNL     1      -9.303  46.081 -28.900  1.00  0.00    -0.021 C 
HETATM   24  C32 UNL     1      -8.338  45.307 -27.963  1.00  0.00     0.017 C 
ENDROOT
BRANCH   1  25
HETATM   25  C9  UNL     1     -10.168  47.592 -26.798  1.00  0.00     0.125 C 
HETATM   26  C10 UNL     1     -11.695  47.810 -26.784  1.00  0.00     0.055 C 
BRANCH  25  27
HETATM   27  C8  UNL     1      -9.511  48.669 -25.875  1.00  0.00     0.183 C 
HETATM   28  O3  UNL     1      -9.828  49.860 -25.912  1.00  0.00    -0.290 OA
BRANCH  27  29
HETATM   29  C7  UNL     1      -8.454  48.244 -24.904  1.00  0.00     0.052 C 
HETATM   30  C6  UNL     1      -7.772  49.165 -24.202  1.00  0.00     0.014 C 
BRANCH  30  31
HETATM   31  C3  UNL     1      -6.714  48.901 -23.141  1.00  0.00     0.081 C 
HETATM   32  C4  UNL     1      -7.234  49.463 -21.811  1.00  0.00     0.051 C 
HETATM   33  C5  UNL     1      -6.493  47.384 -23.073  1.00  0.00     0.051 C 
BRANCH  31  34
HETATM   34  O2  UNL     1      -5.503  49.580 -23.559  1.00  0.00    -0.307 OA
BRANCH  34  35
HETATM   35  C2  UNL     1      -4.290  49.155 -23.122  1.00  0.00     0.255 C 
HETATM   36  C1  UNL     1      -3.487  48.649 -24.279  1.00  0.00     0.126 C 
HETATM   37  O1  UNL     1      -3.892  49.164 -21.965  1.00  0.00    -0.266 OA
ENDBRANCH  34  35
ENDBRANCH  31  34
ENDBRANCH  30  31
ENDBRANCH  27  29
ENDBRANCH  25  27
BRANCH  25  38
HETATM   38  O4  UNL     1      -9.938  46.304 -26.194  1.00  0.00    -0.382 OA
HETATM   39  H15 UNL     1     -10.771  45.797 -26.187  1.00  0.00     0.211 HD
ENDBRANCH  25  38
ENDBRANCH   1  25
BRANCH   2  40
HETATM   40  O5  UNL     1      -8.745  49.640 -28.912  1.00  0.00    -0.395 OA
HETATM   41  H18 UNL     1      -7.968  50.097 -29.279  1.00  0.00     0.210 HD
ENDBRANCH   2  40
BRANCH  12  42
HETATM   42  O6  UNL     1     -10.398  41.498 -34.447  1.00  0.00    -0.388 OA
HETATM   43  H32 UNL     1     -10.632  41.284 -35.372  1.00  0.00     0.210 HD
ENDBRANCH  12  42
TORSDOF 9
ENDMDL
MODEL 9
REMARK minimizedAffinity -7.93216276
REMARK CNNscore 0.425376117
REMARK CNNaffinity 6.40157843
REMARK  9 active torsions:
REMARK  status: ('A' for Active; 'I' for Inactive)
REMARK    1  A    between atoms: C2_2  and  O2_4 
REMARK    2  A    between atoms: O2_4  and  C3_5 
REMARK    3  A    between atoms: C3_5  and  C6_8 
REMARK    4  A    between atoms: C7_9  and  C8_10 
REMARK    5  A    between atoms: C8_10  and  C9_12 
REMARK    6  A    between atoms: C9_12  and  O4_14 
REMARK    7  A    between atoms: C9_12  and  C11_15 
REMARK    8  A    between atoms: C12_16  and  O5_17 
REMARK    9  A    between atoms: C22_27  and  O6_28 
ROOT
HETATM    1  C11 UNL     1      -1.070  50.709 -15.802  1.00  0.00     0.066 C 
HETATM    2  C12 UNL     1      -2.208  49.831 -15.219  1.00  0.00     0.127 C 
HETATM    3  C13 UNL     1      -1.902  49.620 -13.717  1.00  0.00     0.042 C 
HETATM    4  C14 UNL     1      -0.696  50.536 -13.408  1.00  0.00    -0.029 C 
HETATM    5  C15 UNL     1      -1.296  51.944 -13.095  1.00  0.00     0.016 C 
HETATM    6  C16 UNL     1       0.223  50.036 -12.238  1.00  0.00     0.014 C 
HETATM    7  C17 UNL     1      -0.475  50.002 -10.860  1.00  0.00     0.034 C 
HETATM    8  C18 UNL     1      -0.557  51.345 -10.208  1.00  0.00    -0.022 C 
HETATM    9  C19 UNL     1       0.424  52.263 -10.315  1.00  0.00    -0.063 C 
HETATM   10  C20 UNL     1       1.735  51.814 -10.963  1.00  0.00     0.034 C 
HETATM   11  C21 UNL     1       2.698  52.983 -11.217  1.00  0.00     0.050 C 
HETATM   12  C22 UNL     1       2.943  53.805  -9.962  1.00  0.00     0.189 C 
HETATM   13  C23 UNL     1       1.685  54.137  -9.171  1.00  0.00     0.167 C 
HETATM   14  O7  UNL     1       1.802  54.786  -8.122  1.00  0.00    -0.294 OA
HETATM   15  C24 UNL     1       0.319  53.683  -9.718  1.00  0.00     0.039 C 
HETATM   16  C25 UNL     1      -0.137  54.696 -10.785  1.00  0.00     0.028 C 
HETATM   17  C26 UNL     1      -0.696  53.771  -8.551  1.00  0.00     0.028 C 
HETATM   18  C27 UNL     1       1.627  50.765 -12.161  1.00  0.00     0.029 C 
HETATM   19  C28 UNL     1       2.683  49.658 -11.816  1.00  0.00     0.025 C 
HETATM   20  C29 UNL     1       2.122  51.330 -13.534  1.00  0.00     0.137 C 
HETATM   21  O8  UNL     1       3.315  51.623 -13.706  1.00  0.00    -0.297 OA
HETATM   22  C30 UNL     1       1.169  51.558 -14.701  1.00  0.00     0.089 C 
HETATM   23  C31 UNL     1       0.090  50.481 -14.771  1.00  0.00    -0.021 C 
HETATM   24  C32 UNL     1       0.774  49.120 -15.072  1.00  0.00     0.017 C 
ENDROOT
BRANCH   1  25
HETATM   25  C9  UNL     1      -0.822  50.618 -17.340  1.00  0.00     0.125 C 
HETATM   26  C10 UNL     1       0.603  51.085 -17.703  1.00  0.00     0.055 C 
BRANCH  25  27
HETATM   27  C8  UNL     1      -1.834  51.358 -18.275  1.00  0.00     0.183 C 
HETATM   28  O3  UNL     1      -3.002  51.578 -17.947  1.00  0.00    -0.290 OA
BRANCH  27  29
HETATM   29  C7  UNL     1      -1.374  51.820 -19.620  1.00  0.00     0.052 C 
HETATM   30  C6  UNL     1      -1.821  51.214 -20.733  1.00  0.00     0.014 C 
BRANCH  30  31
HETATM   31  C3  UNL     1      -1.499  51.595 -22.171  1.00  0.00     0.081 C 
HETATM   32  C4  UNL     1      -0.210  52.428 -22.158  1.00  0.00     0.051 C 
HETATM   33  C5  UNL     1      -1.333  50.296 -22.969  1.00  0.00     0.051 C 
BRANCH  31  34
HETATM   34  O2  UNL     1      -2.617  52.369 -22.674  1.00  0.00    -0.307 OA
BRANCH  34  35
HETATM   35  C2  UNL     1      -2.818  52.501 -24.010  1.00  0.00     0.255 C 
HETATM   36  C1  UNL     1      -4.155  51.936 -24.377  1.00  0.00     0.126 C 
HETATM   37  O1  UNL     1      -2.038  52.993 -24.815  1.00  0.00    -0.266 OA
ENDBRANCH  34  35
ENDBRANCH  31  34
ENDBRANCH  30  31
ENDBRANCH  27  29
ENDBRANCH  25  27
BRANCH  25  38
HETATM   38  O4  UNL     1      -0.881  49.214 -17.661  1.00  0.00    -0.382 OA
HETATM   39  H15 UNL     1       0.025  48.866 -17.754  1.00  0.00     0.211 HD
ENDBRANCH  25  38
ENDBRANCH   1  25
BRANCH   2  40
HETATM   40  O5  UNL     1      -3.455  50.479 -15.408  1.00  0.00    -0.395 OA
HETATM   41  H18 UNL     1      -4.129  49.990 -14.902  1.00  0.00     0.210 HD
ENDBRANCH   2  40
BRANCH  12  42
HETATM   42  O6  UNL     1       3.822  53.086  -9.091  1.00  0.00    -0.388 OA
HETATM   43  H32 UNL     1       3.927  53.644  -8.295  1.00  0.00     0.210 HD
ENDBRANCH  12  42
TORSDOF 9
ENDMDL
