REMARK  7 active torsions:
REMARK  status: ('A' for Active; 'I' for Inactive)
REMARK    1  A    between atoms: C2_2  and  C3_3 
REMARK       I    between atoms: C3_3  and  N1_5 
REMARK    2  A    between atoms: N1_5  and  C4_6 
REMARK    3  A    between atoms: C7_9  and  N2_10 
REMARK    4  A    between atoms: C8_13  and  C9_14 
REMARK    5  A    between atoms: C12_17  and  O2_18 
REMARK    6  A    between atoms: O2_18  and  C13_19 
REMARK    7  A    between atoms: C22_28  and  N4_29 
ROOT
HETATM    1  N2  UNL     1      -1.258   1.225   0.037  1.00  0.00    -0.270 N 
HETATM    2  N3  UNL     1      -0.381   0.203  -0.015  1.00  0.00    -0.295 N 
ATOM      3  H3  UNL     1      -0.586  -0.792  -0.105  1.00  0.00     0.187 HD
HETATM    4  C8  UNL     1       0.825   0.791   0.079  1.00  0.00     0.075 A 
HETATM    5  C21 UNL     1       0.699   2.202   0.259  1.00  0.00     0.076 A 
HETATM    6  C22 UNL     1       1.522   3.316   0.463  1.00  0.00     0.095 A 
HETATM    7  N5  UNL     1       0.949   4.533   0.575  1.00  0.00    -0.342 N 
ATOM      8  H5  UNL     1       1.520   5.366   0.720  1.00  0.00     0.167 HD
HETATM    9  C23 UNL     1      -0.392   4.626   0.491  1.00  0.00     0.183 A 
HETATM   10  N6  UNL     1      -1.278   3.635   0.317  1.00  0.00    -0.337 N 
ATOM     11  H6  UNL     1      -2.288   3.768   0.271  1.00  0.00     0.168 HD
HETATM   12  C24 UNL     1      -0.664   2.443   0.211  1.00  0.00     0.139 A 
ENDROOT
BRANCH   4  13
HETATM   13  C9  UNL     1       2.038  -0.020   0.002  1.00  0.00    -0.007 A 
HETATM   14  C10 UNL     1       2.129  -1.215   0.730  1.00  0.00     0.016 A 
HETATM   15  C11 UNL     1       3.279  -2.004   0.656  1.00  0.00     0.038 A 
HETATM   16  C12 UNL     1       4.351  -1.603  -0.143  1.00  0.00     0.076 A 
HETATM   17  C19 UNL     1       4.259  -0.431  -0.896  1.00  0.00     0.038 A 
HETATM   18  C20 UNL     1       3.107   0.359  -0.822  1.00  0.00     0.016 A 
BRANCH  16  19
HETATM   19  O2  UNL     1       5.428  -2.460  -0.198  1.00  0.00    -0.311 OA
BRANCH  19  20
HETATM   20  C13 UNL     1       6.679  -1.897  -0.272  1.00  0.00     0.076 A 
HETATM   21  C14 UNL     1       7.144  -0.996   0.690  1.00  0.00     0.037 A 
HETATM   22  C15 UNL     1       8.437  -0.481   0.585  1.00  0.00     0.003 A 
HETATM   23  C16 UNL     1       9.266  -0.881  -0.467  1.00  0.00     0.000 A 
HETATM   24  C17 UNL     1       8.806  -1.800  -1.412  1.00  0.00     0.003 A 
HETATM   25  C18 UNL     1       7.514  -2.316  -1.310  1.00  0.00     0.037 A 
ENDBRANCH  19  20
ENDBRANCH  16  19
ENDBRANCH   4  13
BRANCH   1  26
HETATM   26  C7  UNL     1      -2.689   0.969  -0.077  1.00  0.00     0.110 C 
HETATM   27  C6  UNL     1      -3.032   0.217  -1.373  1.00  0.00     0.029 C 
HETATM   28  C5  UNL     1      -4.533  -0.042  -1.486  1.00  0.00     0.027 C 
HETATM   29  C4  UNL     1      -5.070  -0.790  -0.260  1.00  0.00     0.084 C 
HETATM   30  C26 UNL     1      -4.728  -0.039   1.033  1.00  0.00     0.027 C 
HETATM   31  C25 UNL     1      -3.228   0.227   1.154  1.00  0.00     0.029 C 
BRANCH  29  32
HETATM   32  N1  UNL     1      -6.509  -0.980  -0.379  1.00  0.00    -0.353 N 
HETATM   33  C3  UNL     1      -7.157  -1.994   0.288  1.00  0.00     0.240 C 
HETATM   34  O1  UNL     1      -6.595  -2.847   0.961  1.00  0.00    -0.269 OA
HETATM   35  H4  UNL     1      -7.055  -0.252  -0.818  1.00  0.00     0.163 HD
BRANCH  33  36
HETATM   36  C2  UNL     1      -8.631  -1.943   0.120  1.00  0.00     0.064 C 
HETATM   37  C1  UNL     1      -9.412  -2.841   0.731  1.00  0.00     0.017 C 
ENDBRANCH  33  36
ENDBRANCH  29  32
ENDBRANCH   1  26
BRANCH   6  38
HETATM   38  N4  UNL     1       2.903   3.274   0.587  1.00  0.00    -0.288 NA
HETATM   39  H20 UNL     1       3.251   4.136   0.992  1.00  0.00     0.125 HD
HETATM   40  H21 UNL     1       3.277   2.419   0.981  1.00  0.00     0.125 HD
ENDBRANCH   6  38
TORSDOF 7
