REMARK  6 active torsions:
REMARK  status: ('A' for Active; 'I' for Inactive)
REMARK    1  A    between atoms: O1_2  and  C2_3 
REMARK    2  A    between atoms: C4_5  and  N1_6 
REMARK    3  A    between atoms: N1_6  and  C5_7 
REMARK    4  A    between atoms: C9_15  and  O2_16 
REMARK    5  A    between atoms: C11_18  and  O3_19 
REMARK    6  A    between atoms: C16_24  and  O4_25 
ROOT
HETATM    1  C5  UNL     1       0.671  -0.719  -0.092  1.00  0.00     0.073 A 
HETATM    2  N2  UNL     1       0.353  -1.975  -0.395  1.00  0.00    -0.350 N 
ATOM      3  H2  UNL     1      -0.637  -2.220  -0.396  1.00  0.00     0.166 HD
HETATM    4  C6  UNL     1       1.226  -2.945  -0.699  1.00  0.00     0.181 A 
HETATM    5  N3  UNL     1       2.545  -2.630  -0.701  1.00  0.00    -0.352 N 
ATOM      6  H3  UNL     1       3.230  -3.351  -0.929  1.00  0.00     0.166 HD
HETATM    7  C7  UNL     1       2.969  -1.389  -0.409  1.00  0.00     0.048 A 
HETATM    8  C8  UNL     1       4.316  -1.133  -0.429  1.00  0.00     0.070 A 
HETATM    9  C9  UNL     1       4.799   0.126  -0.137  1.00  0.00     0.103 A 
HETATM   10  C11 UNL     1       3.886   1.112   0.174  1.00  0.00     0.102 A 
HETATM   11  C13 UNL     1       2.520   0.833   0.189  1.00  0.00     0.055 A 
HETATM   12  C14 UNL     1       2.023  -0.404  -0.096  1.00  0.00     0.022 A 
ENDROOT
BRANCH   1  13
HETATM   13  N1  UNL     1      -0.273   0.273   0.222  1.00  0.00     0.000 N 
HETATM   14  H5  UNL     1       0.043   1.225   0.512  1.00  0.00     0.000 HD
HETATM   15  H20 UNL     1      -0.687   0.000   0.000  1.00  0.00     0.145 HD
HETATM   16 CL1  UNL     1       0.687   0.000   0.000  1.00  0.00    -0.145 Cl
BRANCH  13  17
HETATM   17  C4  UNL     1      -1.687   0.101   0.185  1.00  0.00    -0.021 A 
HETATM   18  C3  UNL     1      -2.327  -0.916  -0.473  1.00  0.00     0.049 A 
HETATM   19  C2  UNL     1      -3.714  -1.027  -0.456  1.00  0.00     0.071 A 
HETATM   20  C18 UNL     1      -4.508  -0.125   0.219  1.00  0.00     0.073 A 
HETATM   21  C16 UNL     1      -3.875   0.902   0.883  1.00  0.00     0.071 A 
HETATM   22  C15 UNL     1      -2.514   1.006   0.863  1.00  0.00     0.049 A 
BRANCH  19  23
HETATM   23  O1  UNL     1      -4.316  -2.069  -1.133  1.00  0.00    -0.356 OA
HETATM   24  C1  UNL     1      -5.717  -2.250  -1.164  1.00  0.00     0.210 C 
ENDBRANCH  19  23
BRANCH  21  25
HETATM   25  O4  UNL     1      -4.587   1.864   1.594  1.00  0.00    -0.356 OA
HETATM   26  C17 UNL     1      -5.996   1.763   1.620  1.00  0.00     0.210 C 
ENDBRANCH  21  25
ENDBRANCH  13  17
ENDBRANCH   1  13
BRANCH  10  27
HETATM   27  O3  UNL     1       4.358   2.373   0.466  1.00  0.00    -0.353 OA
HETATM   28  C12 UNL     1       3.543   3.469   0.799  1.00  0.00     0.210 C 
ENDBRANCH  10  27
BRANCH   9  29
HETATM   29  O2  UNL     1       6.150   0.443  -0.142  1.00  0.00    -0.353 OA
HETATM   30  C10 UNL     1       7.144  -0.515  -0.451  1.00  0.00     0.210 C 
ENDBRANCH   9  29
TORSDOF 6
