REMARK  3 active torsions:
REMARK  status: ('A' for Active; 'I' for Inactive)
REMARK    1  A    between atoms: C3_5  and  C4_6 
REMARK    2  A    between atoms: C13_19  and  N3_20 
REMARK    3  A    between atoms: N3_20  and  C14_21 
ROOT
HETATM    1  C1  UNL     1       0.268  -2.229   0.309  1.00  0.00     0.161 C 
HETATM    2  N1  UNL     1      -0.568  -1.075   0.030  1.00  0.00    -0.303 N 
HETATM    3  C2  UNL     1      -1.938  -1.230  -0.104  1.00  0.00     0.260 A 
HETATM    4  O1  UNL     1      -2.516  -2.312  -0.001  1.00  0.00    -0.267 OA
HETATM    5  C3  UNL     1      -2.742   0.006  -0.392  1.00  0.00     0.047 A 
HETATM    6  C10 UNL     1      -2.143   1.202  -0.511  1.00  0.00     0.034 A 
HETATM    7  C11 UNL     1      -0.701   1.297  -0.359  1.00  0.00     0.026 A 
HETATM    8  C12 UNL     1      -0.006   2.478  -0.465  1.00  0.00     0.121 A 
HETATM    9  N2  UNL     1       1.330   2.574  -0.325  1.00  0.00    -0.201 N 
ATOM     10  H2  UNL     1       1.809   3.470  -0.410  1.00  0.00     0.183 HD
HETATM   11  C13 UNL     1       2.006   1.442  -0.069  1.00  0.00     0.684 A 
HETATM   12  N4  UNL     1       1.413   0.248   0.051  1.00  0.00    -0.175 N 
ATOM     13  H4  UNL     1       1.959  -0.591   0.247  1.00  0.00     0.186 HD
HETATM   14  C20 UNL     1       0.073   0.184  -0.094  1.00  0.00     0.137 A 
ENDROOT
BRANCH  11  15
HETATM   15  N3  UNL     1       3.381   1.605   0.065  1.00  0.00    -0.192 N 
HETATM   16  H9  UNL     1       3.605   2.582  -0.063  1.00  0.00     0.184 HD
BRANCH  15  17
HETATM   17  C14 UNL     1       4.447   0.738   0.325  1.00  0.00     0.050 A 
HETATM   18  C15 UNL     1       4.302  -0.640   0.526  1.00  0.00     0.030 A 
HETATM   19  C16 UNL     1       5.407  -1.460   0.783  1.00  0.00     0.004 A 
HETATM   20  C17 UNL     1       6.685  -0.913   0.845  1.00  0.00     0.019 A 
HETATM   21  C18 UNL     1       6.848   0.454   0.648  1.00  0.00     0.013 A 
HETATM   22 BR1  UNL     1       8.579   1.212   0.729  1.00  0.00    -0.051 Br
HETATM   23  C19 UNL     1       5.745   1.272   0.391  1.00  0.00     0.049 A 
ENDBRANCH  15  17
ENDBRANCH  11  15
BRANCH   5  24
HETATM   24  C4  UNL     1      -4.206  -0.098  -0.545  1.00  0.00     0.023 A 
HETATM   25  C5  UNL     1      -5.060   0.028   0.566  1.00  0.00     0.046 A 
HETATM   26 CL1  UNL     1      -4.451   0.345   2.156  1.00  0.00    -0.083 Cl
HETATM   27  C6  UNL     1      -6.447  -0.087   0.421  1.00  0.00     0.025 A 
HETATM   28  C7  UNL     1      -7.004  -0.332  -0.832  1.00  0.00     0.003 A 
HETATM   29  C8  UNL     1      -6.174  -0.460  -1.944  1.00  0.00     0.025 A 
HETATM   30  C9  UNL     1      -4.786  -0.345  -1.803  1.00  0.00     0.046 A 
HETATM   31 CL2  UNL     1      -3.827  -0.505  -3.237  1.00  0.00    -0.083 Cl
ENDBRANCH   5  24
TORSDOF 3
