REMARK  4 active torsions:
REMARK  status: ('A' for Active; 'I' for Inactive)
REMARK    1  A    between atoms: O1_2  and  C2_3 
REMARK    2  A    between atoms: C6_7  and  N1_8 
REMARK    3  A    between atoms: N1_8  and  C7_9 
REMARK    4  A    between atoms: C11_15  and  C12_16 
ROOT
HETATM    1  C7  UNL     1       1.239   0.108  -0.088  1.00  0.00     0.684 A 
HETATM    2  N2  UNL     1       1.024  -1.002   0.632  1.00  0.00    -0.201 N 
ATOM      3  H2  UNL     1       1.800  -1.548   1.007  1.00  0.00     0.183 HD
HETATM    4  C8  UNL     1      -0.254  -1.369   0.841  1.00  0.00     0.121 A 
HETATM    5  C9  UNL     1      -1.336  -0.672   0.361  1.00  0.00     0.026 A 
HETATM    6  C10 UNL     1      -2.713  -1.075   0.591  1.00  0.00     0.034 A 
HETATM    7  C11 UNL     1      -3.711  -0.334   0.084  1.00  0.00     0.047 A 
HETATM    8  C18 UNL     1      -3.419   0.903  -0.717  1.00  0.00     0.260 A 
HETATM    9  O2  UNL     1      -4.355   1.561  -1.168  1.00  0.00    -0.267 OA
HETATM   10  N3  UNL     1      -2.086   1.235  -0.902  1.00  0.00    -0.303 N 
HETATM   11  C19 UNL     1      -1.734   2.419  -1.666  1.00  0.00     0.161 C 
HETATM   12  C20 UNL     1      -1.026   0.458  -0.370  1.00  0.00     0.137 A 
HETATM   13  N4  UNL     1       0.245   0.853  -0.597  1.00  0.00    -0.175 N 
ATOM     14  H4  UNL     1       0.444   1.693  -1.140  1.00  0.00     0.186 HD
ENDROOT
BRANCH   1  15
HETATM   15  N1  UNL     1       2.520   0.575  -0.362  1.00  0.00    -0.192 N 
HETATM   16  H7  UNL     1       2.453   1.418  -0.914  1.00  0.00     0.184 HD
BRANCH  15  17
HETATM   17  C6  UNL     1       3.809   0.135  -0.044  1.00  0.00     0.051 A 
HETATM   18  C5  UNL     1       4.081  -1.009   0.709  1.00  0.00     0.030 A 
HETATM   19  C4  UNL     1       5.396  -1.393   0.991  1.00  0.00     0.005 A 
HETATM   20  C3  UNL     1       6.469  -0.636   0.522  1.00  0.00     0.037 A 
HETATM   21  C2  UNL     1       6.228   0.509  -0.231  1.00  0.00     0.070 A 
HETATM   22  C21 UNL     1       4.906   0.882  -0.506  1.00  0.00     0.066 A 
BRANCH  21  23
HETATM   23  O1  UNL     1       7.178   1.344  -0.754  1.00  0.00    -0.356 OA
HETATM   24  C1  UNL     1       8.536   1.008  -0.503  1.00  0.00     0.210 C 
ENDBRANCH  21  23
ENDBRANCH  15  17
ENDBRANCH   1  15
BRANCH   7  25
HETATM   25  C12 UNL     1      -5.112  -0.738   0.314  1.00  0.00     0.023 A 
HETATM   26  C13 UNL     1      -5.778  -1.587  -0.588  1.00  0.00     0.046 A 
HETATM   27 CL1  UNL     1      -4.989  -2.230  -1.990  1.00  0.00    -0.083 Cl
HETATM   28  C14 UNL     1      -7.111  -1.955  -0.377  1.00  0.00     0.025 A 
HETATM   29  C15 UNL     1      -7.802  -1.481   0.736  1.00  0.00     0.003 A 
HETATM   30  C16 UNL     1      -7.159  -0.639   1.640  1.00  0.00     0.025 A 
HETATM   31  C17 UNL     1      -5.825  -0.268   1.433  1.00  0.00     0.046 A 
HETATM   32 CL2  UNL     1      -5.097   0.772   2.611  1.00  0.00    -0.083 Cl
ENDBRANCH   7  25
TORSDOF 4
