REMARK  4 active torsions:
REMARK  status: ('A' for Active; 'I' for Inactive)
REMARK    1  A    between atoms: O1_2  and  C2_3 
REMARK    2  A    between atoms: C7_8  and  N1_9 
REMARK    3  A    between atoms: N1_9  and  C8_10 
REMARK    4  A    between atoms: C12_16  and  C13_17 
ROOT
HETATM    1  C8  UNL     1      -1.431  -0.977   0.334  1.00  0.00     0.684 A 
HETATM    2  N2  UNL     1      -0.817  -2.140   0.604  1.00  0.00    -0.201 N 
ATOM      3  H2  UNL     1      -1.346  -2.966   0.885  1.00  0.00     0.183 HD
HETATM    4  C9  UNL     1       0.524  -2.174   0.490  1.00  0.00     0.121 A 
HETATM    5  C10 UNL     1       1.285  -1.092   0.117  1.00  0.00     0.026 A 
HETATM    6  C11 UNL     1       2.732  -1.136  -0.003  1.00  0.00     0.034 A 
HETATM    7  C12 UNL     1       3.398  -0.031  -0.374  1.00  0.00     0.047 A 
HETATM    8  C19 UNL     1       2.663   1.247  -0.665  1.00  0.00     0.260 A 
HETATM    9  O2  UNL     1       3.301   2.244  -1.003  1.00  0.00    -0.267 OA
HETATM   10  N3  UNL     1       1.284   1.226  -0.532  1.00  0.00    -0.303 N 
HETATM   11  C20 UNL     1       0.512   2.426  -0.798  1.00  0.00     0.161 C 
HETATM   12  C21 UNL     1       0.573   0.062  -0.141  1.00  0.00     0.137 A 
HETATM   13  N4  UNL     1      -0.770   0.128  -0.036  1.00  0.00    -0.175 N 
ATOM     14  H4  UNL     1      -1.269   0.996  -0.233  1.00  0.00     0.186 HD
ENDROOT
BRANCH   1  15
HETATM   15  N1  UNL     1      -2.811  -0.997   0.466  1.00  0.00    -0.189 N 
HETATM   16  H8  UNL     1      -3.135  -1.913   0.753  1.00  0.00     0.184 HD
BRANCH  15  17
HETATM   17  C7  UNL     1      -3.842  -0.058   0.298  1.00  0.00     0.082 A 
HETATM   18  C2  UNL     1      -5.174  -0.477   0.537  1.00  0.00     0.095 A 
HETATM   19  C3  UNL     1      -6.237   0.421   0.383  1.00  0.00     0.039 A 
HETATM   20  C4  UNL     1      -5.990   1.737  -0.008  1.00  0.00     0.003 A 
HETATM   21  C5  UNL     1      -4.686   2.159  -0.246  1.00  0.00     0.002 A 
HETATM   22  C6  UNL     1      -3.622   1.267  -0.094  1.00  0.00     0.033 A 
BRANCH  18  23
HETATM   23  O1  UNL     1      -5.308  -1.794   0.919  1.00  0.00    -0.354 OA
HETATM   24  C1  UNL     1      -6.626  -2.263   1.171  1.00  0.00     0.210 C 
ENDBRANCH  18  23
ENDBRANCH  15  17
ENDBRANCH   1  15
BRANCH   7  25
HETATM   25  C13 UNL     1       4.868  -0.068  -0.499  1.00  0.00     0.023 A 
HETATM   26  C14 UNL     1       5.482  -0.402  -1.720  1.00  0.00     0.046 A 
HETATM   27 CL1  UNL     1       4.558  -0.818  -3.125  1.00  0.00    -0.083 Cl
HETATM   28  C15 UNL     1       6.877  -0.421  -1.840  1.00  0.00     0.025 A 
HETATM   29  C16 UNL     1       7.679  -0.106  -0.746  1.00  0.00     0.003 A 
HETATM   30  C17 UNL     1       7.089   0.226   0.471  1.00  0.00     0.025 A 
HETATM   31  C18 UNL     1       5.695   0.247   0.596  1.00  0.00     0.046 A 
HETATM   32 CL2  UNL     1       5.042   0.659   2.146  1.00  0.00    -0.083 Cl
ENDBRANCH   7  25
TORSDOF 4
