REMARK  4 active torsions:
REMARK  status: ('A' for Active; 'I' for Inactive)
REMARK    1  A    between atoms: O1_2  and  C2_3 
REMARK    2  A    between atoms: C3_4  and  N1_5 
REMARK    3  A    between atoms: C8_10  and  N3_31 
REMARK    4  A    between atoms: C9_12  and  N2_14 
ROOT
HETATM    1  C2  UNL     1       1.759   0.841  -0.003  1.00  0.00     0.207 C 
HETATM    2  C3  UNL     1       2.753  -0.219  -0.557  1.00  0.00     0.226 C 
HETATM    3  C7  UNL     1       1.998  -1.507  -0.907  1.00  0.00     0.090 C 
HETATM    4  C8  UNL     1       0.693  -1.220  -1.659  1.00  0.00     0.234 C 
HETATM    5  O2  UNL     1       0.612   0.118  -2.136  1.00  0.00    -0.333 OA
HETATM    6  C9  UNL     1       0.780   1.204  -1.193  1.00  0.00     0.168 C 
HETATM    7  C10 UNL     1       1.476   2.242  -2.105  1.00  0.00     0.074 C 
ENDROOT
BRANCH   2   8
HETATM    8  N1  UNL     1       4.004  -0.518   0.391  1.00  0.00    -0.072 N 
HETATM    9  C4  UNL     1       3.624  -1.021   1.787  1.00  0.00     0.272 C 
HETATM   10  C5  UNL     1       4.909  -1.578  -0.257  1.00  0.00     0.272 C 
HETATM   11  C6  UNL     1       4.848   0.750   0.558  1.00  0.00     0.272 C 
ENDBRANCH   2   8
BRANCH   1  12
HETATM   12  O1  UNL     1       1.117   0.233   1.132  1.00  0.00    -0.384 OA
HETATM   13  C1  UNL     1       0.767   1.145   2.173  1.00  0.00     0.202 C 
ENDBRANCH   1  12
BRANCH   6  14
HETATM   14  N2  UNL     1      -0.554   1.630  -0.746  1.00  0.00    -0.308 N 
HETATM   15  C11 UNL     1      -1.025   2.911  -0.457  1.00  0.00     0.049 A 
HETATM   16  C12 UNL     1      -0.443   4.193  -0.540  1.00  0.00     0.030 A 
HETATM   17  C16 UNL     1      -2.344   2.771   0.023  1.00  0.00     0.004 A 
HETATM   18  C13 UNL     1      -1.194   5.315  -0.171  1.00  0.00     0.002 A 
HETATM   19  C14 UNL     1      -2.496   5.185   0.285  1.00  0.00     0.001 A 
HETATM   20  C15 UNL     1      -3.076   3.922   0.389  1.00  0.00     0.014 A 
HETATM   21  C17 UNL     1      -2.647   1.384   0.067  1.00  0.00     0.015 A 
HETATM   22  C18 UNL     1      -3.722   0.581   0.484  1.00  0.00    -0.010 A 
HETATM   23  C28 UNL     1      -1.537   0.729  -0.420  1.00  0.00     0.077 A 
HETATM   24  C19 UNL     1      -3.660  -0.845   0.436  1.00  0.00     0.054 A 
HETATM   25  C30 UNL     1      -5.049   0.997   1.050  1.00  0.00     0.163 A 
HETATM   26  C20 UNL     1      -2.569  -1.587  -0.044  1.00  0.00     0.022 A 
HETATM   27  C29 UNL     1      -4.929  -1.351   0.977  1.00  0.00     0.253 A 
HETATM   28  C21 UNL     1      -2.187  -2.951  -0.225  1.00  0.00     0.004 A 
HETATM   29  C27 UNL     1      -1.503  -0.826  -0.495  1.00  0.00     0.077 A 
HETATM   30  C22 UNL     1      -2.803  -4.193   0.042  1.00  0.00     0.014 A 
HETATM   31  C26 UNL     1      -0.913  -2.960  -0.816  1.00  0.00     0.048 A 
HETATM   32  C23 UNL     1      -2.154  -5.388  -0.283  1.00  0.00     0.001 A 
HETATM   33  C24 UNL     1      -0.899  -5.369  -0.876  1.00  0.00     0.002 A 
HETATM   34  C25 UNL     1      -0.259  -4.160  -1.155  1.00  0.00     0.030 A 
HETATM   35  N3  UNL     1      -0.526  -1.637  -0.978  1.00  0.00    -0.316 N 
HETATM   36  O3  UNL     1      -5.270  -2.508   1.114  1.00  0.00    -0.268 OA
HETATM   37  N4  UNL     1      -5.691  -0.258   1.323  1.00  0.00    -0.353 N 
HETATM   38  H29 UNL     1      -6.622  -0.374   1.701  1.00  0.00     0.163 HD
ENDBRANCH   6  14
TORSDOF 4
