REMARK  5 active torsions:
REMARK  status: ('A' for Active; 'I' for Inactive)
REMARK    1  A    between atoms: O1_2  and  C2_3 
REMARK    2  A    between atoms: C4_5  and  N1_6 
REMARK    3  A    between atoms: N1_6  and  C5_7 
REMARK    4  A    between atoms: C9_13  and  C10_14 
REMARK    5  A    between atoms: C20_30  and  O3_31 
ROOT
HETATM    1  C5  UNL     1      -0.799  -0.184   0.296  1.00  0.00     0.684 A 
HETATM    2  N2  UNL     1      -0.574   0.477  -0.847  1.00  0.00    -0.201 N 
ATOM      3  H2  UNL     1      -1.345   0.800  -1.432  1.00  0.00     0.183 HD
HETATM    4  C6  UNL     1       0.706   0.700  -1.196  1.00  0.00     0.121 A 
HETATM    5  C7  UNL     1       1.782   0.288  -0.447  1.00  0.00     0.026 A 
HETATM    6  C8  UNL     1       3.162   0.532  -0.830  1.00  0.00     0.034 A 
HETATM    7  C9  UNL     1       4.154   0.094  -0.038  1.00  0.00     0.047 A 
HETATM    8  C16 UNL     1       3.851  -0.643   1.235  1.00  0.00     0.260 A 
HETATM    9  O2  UNL     1       4.781  -1.033   1.941  1.00  0.00    -0.267 OA
HETATM   10  N3  UNL     1       2.515  -0.845   1.546  1.00  0.00    -0.303 N 
HETATM   11  C17 UNL     1       2.154  -1.551   2.762  1.00  0.00     0.161 C 
HETATM   12  C18 UNL     1       1.461  -0.386   0.715  1.00  0.00     0.137 A 
HETATM   13  N4  UNL     1       0.187  -0.625   1.092  1.00  0.00    -0.175 N 
ATOM     14  H4  UNL     1      -0.020  -1.126   1.956  1.00  0.00     0.186 HD
ENDROOT
BRANCH   1  15
HETATM   15  N1  UNL     1      -2.085  -0.466   0.748  1.00  0.00    -0.191 N 
HETATM   16  H5  UNL     1      -2.019  -0.967   1.621  1.00  0.00     0.184 HD
BRANCH  15  17
HETATM   17  C4  UNL     1      -3.372  -0.206   0.258  1.00  0.00     0.054 A 
HETATM   18  C3  UNL     1      -4.475  -0.656   1.006  1.00  0.00     0.066 A 
HETATM   19  C2  UNL     1      -5.785  -0.431   0.576  1.00  0.00     0.073 A 
HETATM   20  C22 UNL     1      -6.010   0.252  -0.620  1.00  0.00     0.073 A 
HETATM   21  C20 UNL     1      -4.936   0.708  -1.381  1.00  0.00     0.073 A 
HETATM   22  C19 UNL     1      -3.630   0.475  -0.936  1.00  0.00     0.066 A 
BRANCH  19  23
HETATM   23  O1  UNL     1      -6.924  -0.825   1.227  1.00  0.00    -0.356 OA
HETATM   24  C1  UNL     1      -6.760  -1.527   2.452  1.00  0.00     0.210 C 
ENDBRANCH  19  23
BRANCH  21  25
HETATM   25  O3  UNL     1      -5.025   1.388  -2.566  1.00  0.00    -0.356 OA
HETATM   26  C21 UNL     1      -6.331   1.650  -3.062  1.00  0.00     0.210 C 
ENDBRANCH  21  25
ENDBRANCH  15  17
ENDBRANCH   1  15
BRANCH   7  27
HETATM   27  C10 UNL     1       5.558   0.338  -0.421  1.00  0.00     0.023 A 
HETATM   28  C11 UNL     1       6.231   1.500   0.001  1.00  0.00     0.046 A 
HETATM   29 CL1  UNL     1       5.448   2.714   0.956  1.00  0.00    -0.083 Cl
HETATM   30  C12 UNL     1       7.567   1.722  -0.351  1.00  0.00     0.025 A 
HETATM   31  C13 UNL     1       8.253   0.790  -1.125  1.00  0.00     0.003 A 
HETATM   32  C14 UNL     1       7.603  -0.367  -1.551  1.00  0.00     0.025 A 
HETATM   33  C15 UNL     1       6.267  -0.593  -1.202  1.00  0.00     0.046 A 
HETATM   34 CL2  UNL     1       5.531  -2.050  -1.782  1.00  0.00    -0.083 Cl
ENDBRANCH   7  27
TORSDOF 5
