REMARK  8 active torsions:
REMARK  status: ('A' for Active; 'I' for Inactive)
REMARK    1  A    between atoms: N2_5  and  C4_6 
REMARK    2  A    between atoms: C7_9  and  N3_10 
REMARK    3  A    between atoms: N3_10  and  C8_11 
REMARK    4  A    between atoms: C11_18  and  N6_19 
REMARK    5  A    between atoms: N6_19  and  C12_20 
REMARK    6  A    between atoms: N7_26  and  C18_27 
REMARK    7  A    between atoms: N8_30  and  S1_31 
REMARK    8  A    between atoms: S1_31  and  C21_34 
ROOT
HETATM    1  C8  UNL     1       0.346  -0.733   0.064  1.00  0.00     0.684 A 
HETATM    2  N4  UNL     1       0.681  -2.004   0.367  1.00  0.00    -0.199 N 
ATOM      3  H4  UNL     1       1.653  -2.245   0.562  1.00  0.00     0.183 HD
HETATM    4  C9  UNL     1      -0.281  -2.963   0.412  1.00  0.00     0.140 A 
HETATM    5  C10 UNL     1      -1.595  -2.619   0.137  1.00  0.00     0.110 A 
HETATM    6  N5  UNL     1      -2.754  -3.339   0.069  1.00  0.00    -0.186 N 
ATOM      7  H5  UNL     1      -2.874  -4.331   0.273  1.00  0.00     0.184 HD
HETATM    8  C11 UNL     1      -3.686  -2.488  -0.315  1.00  0.00     0.687 A 
HETATM    9  N7  UNL     1      -3.177  -1.196  -0.364  1.00  0.00    -0.159 N 
HETATM   10  C25 UNL     1      -1.825  -1.289  -0.145  1.00  0.00     0.168 A 
HETATM   11  N9  UNL     1      -0.908  -0.313  -0.195  1.00  0.00    -0.173 N 
ATOM     12  H9  UNL     1      -1.138   0.657  -0.409  1.00  0.00     0.186 HD
ENDROOT
BRANCH   1  13
HETATM   13  N3  UNL     1       1.305   0.273  -0.028  1.00  0.00    -0.192 N 
HETATM   14  H10 UNL     1       0.848   1.137  -0.281  1.00  0.00     0.184 HD
BRANCH  13  15
HETATM   15  C7  UNL     1       2.702   0.298   0.002  1.00  0.00     0.049 A 
HETATM   16  C6  UNL     1       3.504  -0.803   0.286  1.00  0.00     0.032 A 
HETATM   17  C5  UNL     1       4.908  -0.701   0.288  1.00  0.00     0.031 A 
HETATM   18  C4  UNL     1       5.576   0.500   0.006  1.00  0.00     0.030 A 
HETATM   19  C27 UNL     1       4.755   1.601  -0.272  1.00  0.00     0.031 A 
HETATM   20  C26 UNL     1       3.354   1.507  -0.270  1.00  0.00     0.032 A 
BRANCH  18  21
HETATM   21  N2  UNL     1       6.956   0.593   0.000  1.00  0.00    -0.378 N 
HETATM   22  C3  UNL     1       7.815  -0.601  -0.072  1.00  0.00     0.153 C 
HETATM   23  C2  UNL     1       9.204  -0.265  -0.667  1.00  0.00     0.291 C 
HETATM   24  N1  UNL     1       9.952   0.816   0.010  1.00  0.00     0.087 N 
HETATM   25  C1  UNL     1      10.972   0.293   0.914  1.00  0.00     0.310 C 
HETATM   26  C29 UNL     1       9.040   1.731   0.732  1.00  0.00     0.291 C 
HETATM   27  C28 UNL     1       7.651   1.891   0.072  1.00  0.00     0.153 C 
ENDBRANCH  18  21
ENDBRANCH  13  15
ENDBRANCH   1  13
BRANCH   9  28
HETATM   28  C18 UNL     1      -3.934   0.007  -0.641  1.00  0.00     0.125 C 
HETATM   29  C19 UNL     1      -5.077   0.269   0.342  1.00  0.00     0.043 C 
HETATM   30  C20 UNL     1      -5.520   1.682  -0.008  1.00  0.00     0.109 C 
HETATM   31  N8  UNL     1      -4.297   2.369  -0.499  1.00  0.00    -0.208 NA
HETATM   32  C24 UNL     1      -3.200   1.353  -0.559  1.00  0.00     0.133 C 
BRANCH  31  33
HETATM   33  S1  UNL     1      -3.859   3.813   0.293  1.00  0.00     0.215 S 
HETATM   34  O1  UNL     1      -3.857   3.533   1.714  1.00  0.00    -0.211 OA
HETATM   35  O2  UNL     1      -2.682   4.324  -0.374  1.00  0.00    -0.211 OA
BRANCH  33  36
HETATM   36  C21 UNL     1      -5.186   4.999  -0.059  1.00  0.00     0.124 A 
HETATM   37  C22 UNL     1      -6.269   5.107   0.982  1.00  0.00     0.023 A 
HETATM   38  C23 UNL     1      -5.215   6.180   0.876  1.00  0.00     0.023 A 
ENDBRANCH  33  36
ENDBRANCH  31  33
ENDBRANCH   9  28
BRANCH   8  39
HETATM   39  N6  UNL     1      -4.965  -2.749  -0.676  1.00  0.00    -0.191 N 
HETATM   40  H12 UNL     1      -5.470  -2.102  -1.271  1.00  0.00     0.184 HD
BRANCH  39  41
HETATM   41  C12 UNL     1      -5.689  -3.940  -0.460  1.00  0.00     0.049 A 
HETATM   42  C13 UNL     1      -5.336  -4.890   0.509  1.00  0.00     0.030 A 
HETATM   43  C14 UNL     1      -6.089  -6.056   0.683  1.00  0.00     0.002 A 
HETATM   44  C15 UNL     1      -7.199  -6.297  -0.123  1.00  0.00     0.000 A 
HETATM   45  C16 UNL     1      -7.553  -5.378  -1.106  1.00  0.00     0.002 A 
HETATM   46  C17 UNL     1      -6.801  -4.211  -1.273  1.00  0.00     0.030 A 
ENDBRANCH  39  41
ENDBRANCH   8  39
TORSDOF 8
