REMARK  7 active torsions:
REMARK  status: ('A' for Active; 'I' for Inactive)
REMARK    1  A    between atoms: C3_3  and  C4_4 
REMARK       I    between atoms: C4_4  and  N1_6 
REMARK    2  A    between atoms: N1_6  and  C5_7 
REMARK    3  A    between atoms: C8_10  and  N2_11 
REMARK    4  A    between atoms: C9_14  and  C10_15 
REMARK    5  A    between atoms: C13_18  and  O2_19 
REMARK    6  A    between atoms: O2_19  and  C14_20 
REMARK    7  A    between atoms: C23_29  and  N4_30 
ROOT
HETATM    1  C1  UNL     1     -10.437   3.018   1.019  1.00  0.00     0.112 C 
HETATM    2  C2  UNL     1      -9.357   2.062   0.780  1.00  0.00    -0.101 C 
HETATM    3  C3  UNL     1      -8.477   1.267   0.586  1.00  0.00    -0.006 C 
ENDROOT
BRANCH   3   4
HETATM    4  C4  UNL     1      -7.415   0.314   0.350  1.00  0.00     0.296 C 
HETATM    5  O1  UNL     1      -7.597  -0.872   0.586  1.00  0.00    -0.258 OA
HETATM    6  N1  UNL     1      -6.248   0.857  -0.129  1.00  0.00    -0.346 N 
HETATM    7  H4  UNL     1      -6.183   1.867  -0.140  1.00  0.00     0.163 HD
BRANCH   6   8
HETATM    8  C5  UNL     1      -5.039   0.066  -0.276  1.00  0.00     0.085 C 
HETATM    9  C6  UNL     1      -4.148   0.646  -1.386  1.00  0.00     0.027 C 
HETATM   10  C7  UNL     1      -2.654   0.398  -1.169  1.00  0.00     0.029 C 
HETATM   11  C8  UNL     1      -2.392  -0.926  -0.440  1.00  0.00     0.110 C 
HETATM   12  C26 UNL     1      -3.064  -0.957   0.944  1.00  0.00     0.029 C 
HETATM   13  C27 UNL     1      -4.284  -0.036   1.052  1.00  0.00     0.027 C 
BRANCH  11  14
HETATM   14  N2  UNL     1      -0.969  -1.231  -0.348  1.00  0.00    -0.270 N 
HETATM   15  N3  UNL     1      -0.105  -0.302   0.119  1.00  0.00    -0.295 N 
HETATM   16  C9  UNL     1       1.094  -0.901   0.034  1.00  0.00     0.076 A 
ATOM     17  H3  UNL     1      -0.315   0.637   0.458  1.00  0.00     0.187 HD
HETATM   18  C22 UNL     1       0.985  -2.233  -0.454  1.00  0.00     0.082 A 
HETATM   19  C23 UNL     1       1.821  -3.322  -0.728  1.00  0.00     0.116 A 
HETATM   20  C25 UNL     1      -0.366  -2.408  -0.698  1.00  0.00     0.140 A 
HETATM   21  N5  UNL     1       1.270  -4.448  -1.226  1.00  0.00    -0.338 N 
HETATM   22  C24 UNL     1      -0.064  -4.485  -1.417  1.00  0.00     0.183 A 
ATOM     23  H5  UNL     1       1.851  -5.255  -1.453  1.00  0.00     0.168 HD
HETATM   24  N6  UNL     1      -0.960  -3.512  -1.183  1.00  0.00    -0.337 N 
ATOM     25  H6  UNL     1      -1.962  -3.600  -1.352  1.00  0.00     0.168 HD
BRANCH  16  26
HETATM   26  C10 UNL     1       2.303  -0.185   0.406  1.00  0.00    -0.007 A 
HETATM   27  C11 UNL     1       2.585   0.068   1.753  1.00  0.00     0.016 A 
HETATM   28  C12 UNL     1       3.756   0.743   2.106  1.00  0.00     0.038 A 
HETATM   29  C13 UNL     1       4.649   1.159   1.117  1.00  0.00     0.076 A 
HETATM   30  C20 UNL     1       4.356   0.937  -0.232  1.00  0.00     0.038 A 
HETATM   31  C21 UNL     1       3.187   0.259  -0.586  1.00  0.00     0.016 A 
BRANCH  29  32
HETATM   32  O2  UNL     1       5.762   1.850   1.543  1.00  0.00    -0.311 OA
BRANCH  32  33
HETATM   33  C14 UNL     1       6.950   1.589   0.900  1.00  0.00     0.076 A 
HETATM   34  C15 UNL     1       7.472   0.297   0.800  1.00  0.00     0.037 A 
HETATM   35  C16 UNL     1       8.701   0.095   0.169  1.00  0.00     0.003 A 
HETATM   36  C17 UNL     1       9.409   1.183  -0.346  1.00  0.00     0.000 A 
HETATM   37  C18 UNL     1       8.895   2.475  -0.224  1.00  0.00     0.003 A 
HETATM   38  C19 UNL     1       7.667   2.680   0.408  1.00  0.00     0.037 A 
ENDBRANCH  32  33
ENDBRANCH  29  32
ENDBRANCH  16  26
BRANCH  19  39
HETATM   39  N4  UNL     1       3.189  -3.337  -0.523  1.00  0.00    -0.385 N 
HETATM   40  H20 UNL     1       3.646  -4.090  -1.022  1.00  0.00     0.157 HD
HETATM   41  H21 UNL     1       3.669  -2.450  -0.471  1.00  0.00     0.157 HD
ENDBRANCH  19  39
ENDBRANCH  11  14
ENDBRANCH   6   8
ENDBRANCH   3   4
TORSDOF 7
