REMARK  7 active torsions:
REMARK  status: ('A' for Active; 'I' for Inactive)
REMARK    1  A    between atoms: O1_2  and  C2_3 
REMARK    2  A    between atoms: C3_4  and  N1_5 
REMARK    3  A    between atoms: N1_5  and  C5_7 
REMARK    4  A    between atoms: C5_7  and  C6_8 
REMARK    5  A    between atoms: C6_8  and  O3_10 
REMARK    6  A    between atoms: C8_12  and  N3_33 
REMARK    7  A    between atoms: C9_14  and  N2_16 
ROOT
HETATM    1  C2  UNL     1      -1.398   1.032   0.835  1.00  0.00     0.210 C 
HETATM    2  C3  UNL     1      -2.064   0.027   1.821  1.00  0.00     0.260 C 
HETATM    3  C7  UNL     1      -1.300  -1.304   1.655  1.00  0.00     0.093 C 
HETATM    4  C8  UNL     1       0.224  -1.120   1.717  1.00  0.00     0.234 C 
HETATM    5  O4  UNL     1       0.642   0.196   2.066  1.00  0.00    -0.333 OA
HETATM    6  C9  UNL     1       0.068   1.297   1.320  1.00  0.00     0.168 C 
HETATM    7  C10 UNL     1       0.065   2.389   2.417  1.00  0.00     0.074 C 
ENDROOT
BRANCH   2   8
HETATM    8  N1  UNL     1      -3.543  -0.080   1.624  1.00  0.00     0.101 N 
HETATM    9  C4  UNL     1      -4.224   1.120   2.138  1.00  0.00     0.311 C 
BRANCH   8  10
HETATM   10  C5  UNL     1      -4.136  -1.295   2.240  1.00  0.00     0.381 C 
BRANCH  10  11
HETATM   11  C6  UNL     1      -5.619  -1.445   1.932  1.00  0.00     0.169 C 
HETATM   12  O2  UNL     1      -6.525  -1.426   2.753  1.00  0.00    -0.649 OA
BRANCH  11  13
HETATM   13  O3  UNL     1      -5.886  -1.619   0.621  1.00  0.00    -0.775 OA
HETATM   14  H11 UNL     1      -6.862  -1.684   0.576  1.00  0.00     0.167 HD
ENDBRANCH  11  13
ENDBRANCH  10  11
ENDBRANCH   8  10
ENDBRANCH   2   8
BRANCH   1  15
HETATM   15  O1  UNL     1      -1.392   0.435  -0.479  1.00  0.00    -0.384 OA
HETATM   16  C1  UNL     1      -2.427   0.905  -1.329  1.00  0.00     0.202 C 
ENDBRANCH   1  15
BRANCH   6  17
HETATM   17  N2  UNL     1       0.968   1.625   0.198  1.00  0.00    -0.308 N 
HETATM   18  C11 UNL     1       1.174   2.858  -0.420  1.00  0.00     0.049 A 
HETATM   19  C12 UNL     1       0.608   4.131  -0.221  1.00  0.00     0.030 A 
HETATM   20  C16 UNL     1       2.143   2.661  -1.425  1.00  0.00     0.004 A 
HETATM   21  C13 UNL     1       1.062   5.208  -0.990  1.00  0.00     0.002 A 
HETATM   22  C14 UNL     1       2.046   5.034  -1.952  1.00  0.00     0.001 A 
HETATM   23  C15 UNL     1       2.585   3.768  -2.183  1.00  0.00     0.014 A 
HETATM   24  C17 UNL     1       2.428   1.269  -1.486  1.00  0.00     0.015 A 
HETATM   25  C18 UNL     1       3.201   0.412  -2.286  1.00  0.00    -0.010 A 
HETATM   26  C28 UNL     1       1.672   0.676  -0.498  1.00  0.00     0.077 A 
HETATM   27  C19 UNL     1       3.173  -1.008  -2.119  1.00  0.00     0.054 A 
HETATM   28  C30 UNL     1       4.113   0.756  -3.427  1.00  0.00     0.163 A 
HETATM   29  C20 UNL     1       2.405  -1.690  -1.162  1.00  0.00     0.022 A 
HETATM   30  C29 UNL     1       4.068  -1.579  -3.137  1.00  0.00     0.253 A 
HETATM   31  C21 UNL     1       2.124  -3.030  -0.754  1.00  0.00     0.004 A 
HETATM   32  C27 UNL     1       1.662  -0.872  -0.328  1.00  0.00     0.077 A 
HETATM   33  C22 UNL     1       2.540  -4.305  -1.197  1.00  0.00     0.014 A 
HETATM   34  C26 UNL     1       1.231  -2.967   0.329  1.00  0.00     0.048 A 
HETATM   35  C23 UNL     1       2.068  -5.460  -0.565  1.00  0.00     0.001 A 
HETATM   36  C24 UNL     1       1.188  -5.369   0.506  1.00  0.00     0.002 A 
HETATM   37  C25 UNL     1       0.757  -4.125   0.972  1.00  0.00     0.030 A 
HETATM   38  N3  UNL     1       0.982  -1.625   0.579  1.00  0.00    -0.316 N 
HETATM   39  O5  UNL     1       4.325  -2.748  -3.338  1.00  0.00    -0.268 OA
HETATM   40  N4  UNL     1       4.590  -0.528  -3.859  1.00  0.00    -0.353 N 
HETATM   41  H26 UNL     1       5.228  -0.692  -4.625  1.00  0.00     0.163 HD
ENDBRANCH   6  17
TORSDOF 7
