REMARK  4 active torsions:
REMARK  status: ('A' for Active; 'I' for Inactive)
REMARK    1  A    between atoms: O1_2  and  C2_3 
REMARK    2  A    between atoms: C5_6  and  N1_7 
REMARK    3  A    between atoms: N1_7  and  C6_8 
REMARK    4  A    between atoms: C10_14  and  C11_15 
ROOT
HETATM    1  C6  UNL     1       1.387  -0.272  -0.130  1.00  0.00     0.684 A 
HETATM    2  N2  UNL     1       1.167   0.798   0.645  1.00  0.00    -0.201 N 
ATOM      3  H2  UNL     1       1.940   1.335   1.038  1.00  0.00     0.183 HD
HETATM    4  C7  UNL     1      -0.113   1.138   0.885  1.00  0.00     0.121 A 
HETATM    5  C8  UNL     1      -1.191   0.451   0.380  1.00  0.00     0.026 A 
HETATM    6  C9  UNL     1      -2.570   0.824   0.643  1.00  0.00     0.034 A 
HETATM    7  C10 UNL     1      -3.564   0.096   0.110  1.00  0.00     0.047 A 
HETATM    8  C17 UNL     1      -3.265  -1.097  -0.753  1.00  0.00     0.260 A 
HETATM    9  O2  UNL     1      -4.197  -1.745  -1.228  1.00  0.00    -0.267 OA
HETATM   10  N3  UNL     1      -1.930  -1.402  -0.967  1.00  0.00    -0.303 N 
HETATM   11  C18 UNL     1      -1.572  -2.542  -1.792  1.00  0.00     0.161 C 
HETATM   12  C19 UNL     1      -0.874  -0.638  -0.407  1.00  0.00     0.137 A 
HETATM   13  N4  UNL     1       0.400  -1.004  -0.666  1.00  0.00    -0.175 N 
ATOM     14  H4  UNL     1       0.605  -1.813  -1.252  1.00  0.00     0.186 HD
ENDROOT
BRANCH   1  15
HETATM   15  N1  UNL     1       2.672  -0.707  -0.439  1.00  0.00    -0.190 N 
HETATM   16  H6  UNL     1       2.606  -1.523  -1.031  1.00  0.00     0.184 HD
BRANCH  15  17
HETATM   17  C5  UNL     1       3.952  -0.259  -0.107  1.00  0.00     0.064 A 
HETATM   18  C4  UNL     1       4.219   0.848   0.697  1.00  0.00     0.036 A 
HETATM   19  C3  UNL     1       5.536   1.222   0.975  1.00  0.00     0.058 A 
HETATM   20  C2  UNL     1       6.566   0.472   0.437  1.00  0.00     0.141 A 
HETATM   21  N5  UNL     1       6.368  -0.606  -0.346  1.00  0.00    -0.345 N 
HETATM   22  C20 UNL     1       5.076  -0.937  -0.592  1.00  0.00     0.120 A 
ATOM     23  H5  UNL     1       7.145  -1.142  -0.732  1.00  0.00     0.167 HD
BRANCH  20  24
HETATM   24  O1  UNL     1       7.848   0.883   0.742  1.00  0.00    -0.341 OA
HETATM   25  C1  UNL     1       8.850   0.062   0.152  1.00  0.00     0.211 C 
ENDBRANCH  20  24
ENDBRANCH  15  17
ENDBRANCH   1  15
BRANCH   7  26
HETATM   26  C11 UNL     1      -4.968   0.469   0.373  1.00  0.00     0.023 A 
HETATM   27  C12 UNL     1      -5.653   1.353  -0.480  1.00  0.00     0.046 A 
HETATM   28 CL1  UNL     1      -4.887   2.074  -1.856  1.00  0.00    -0.083 Cl
HETATM   29  C13 UNL     1      -6.989   1.693  -0.238  1.00  0.00     0.025 A 
HETATM   30  C14 UNL     1      -7.662   1.155   0.857  1.00  0.00     0.003 A 
HETATM   31  C15 UNL     1      -7.000   0.278   1.713  1.00  0.00     0.025 A 
HETATM   32  C16 UNL     1      -5.664  -0.064   1.474  1.00  0.00     0.046 A 
HETATM   33 CL2  UNL     1      -4.911  -1.152   2.592  1.00  0.00    -0.083 Cl
ENDBRANCH   7  26
TORSDOF 4
