REMARK  8 active torsions:
REMARK  status: ('A' for Active; 'I' for Inactive)
REMARK    1  A    between atoms: O1_2  and  C2_3 
REMARK    2  A    between atoms: C6_11  and  N3_12 
REMARK    3  A    between atoms: N3_12  and  C7_13 
REMARK    4  A    between atoms: C15_23  and  O2_24 
REMARK    5  A    between atoms: O2_24  and  C16_25 
REMARK    6  A    between atoms: C16_25  and  C17_26 
REMARK    7  A    between atoms: C17_26  and  C18_27 
REMARK    8  A    between atoms: C18_27  and  N4_28 
ROOT
HETATM    1  C2  UNL     1      -0.385  -3.217  -0.717  1.00  0.00     0.103 A 
HETATM    2  C3  UNL     1      -1.392  -3.399  -1.671  1.00  0.00     0.070 A 
HETATM    3  C4  UNL     1      -2.462  -2.518  -1.801  1.00  0.00     0.050 A 
HETATM    4  N1  UNL     1      -3.373  -2.765  -2.746  1.00  0.00    -0.351 N 
ATOM      5  H1  UNL     1      -3.301  -3.577  -3.359  1.00  0.00     0.166 HD
HETATM    6  C5  UNL     1      -4.384  -1.896  -2.849  1.00  0.00     0.182 A 
HETATM    7  N2  UNL     1      -4.577  -0.816  -2.087  1.00  0.00    -0.338 N 
ATOM      8  H2  UNL     1      -5.378  -0.200  -2.227  1.00  0.00     0.168 HD
HETATM    9  C6  UNL     1      -3.666  -0.578  -1.126  1.00  0.00     0.119 A 
HETATM   10  C13 UNL     1      -2.546  -1.414  -0.942  1.00  0.00     0.038 A 
HETATM   11  C14 UNL     1      -1.526  -1.210   0.017  1.00  0.00     0.057 A 
HETATM   12  C15 UNL     1      -0.448  -2.090   0.109  1.00  0.00     0.103 A 
ENDROOT
BRANCH   9  13
HETATM   13  N3  UNL     1      -3.831   0.549  -0.280  1.00  0.00    -0.339 N 
HETATM   14  H6  UNL     1      -3.763   0.264   0.695  1.00  0.00     0.167 HD
BRANCH  13  15
HETATM   15  C7  UNL     1      -4.735   1.631  -0.414  1.00  0.00     0.074 A 
HETATM   16  C8  UNL     1      -5.170   2.115  -1.653  1.00  0.00     0.056 A 
HETATM   17  C9  UNL     1      -6.013   3.230  -1.722  1.00  0.00     0.036 A 
HETATM   18 CL1  UNL     1      -6.553   3.801  -3.255  1.00  0.00    -0.084 Cl
HETATM   19  C10 UNL     1      -6.417   3.897  -0.564  1.00  0.00     0.027 A 
HETATM   20  C11 UNL     1      -5.968   3.449   0.676  1.00  0.00     0.046 A 
HETATM   21  C12 UNL     1      -5.132   2.334   0.738  1.00  0.00     0.143 A 
HETATM   22  F1  UNL     1      -4.700   1.917   1.939  1.00  0.00    -0.204 F 
ENDBRANCH  13  15
ENDBRANCH   9  13
BRANCH  12  23
HETATM   23  O2  UNL     1       0.472  -1.802   1.084  1.00  0.00    -0.348 OA
BRANCH  23  24
HETATM   24  C16 UNL     1       1.800  -1.635   0.562  1.00  0.00     0.177 C 
BRANCH  24  25
HETATM   25  C17 UNL     1       2.459  -0.512   1.357  1.00  0.00     0.057 C 
BRANCH  25  26
HETATM   26  C18 UNL     1       3.864  -0.197   0.828  1.00  0.00     0.274 C 
BRANCH  26  27
HETATM   27  N4  UNL     1       4.525   0.859   1.613  1.00  0.00     0.092 N 
HETATM   28  C19 UNL     1       3.976   2.213   1.359  1.00  0.00     0.298 C 
HETATM   29  C20 UNL     1       4.844   3.059   0.405  1.00  0.00     0.198 C 
HETATM   30  O3  UNL     1       6.180   3.266   0.885  1.00  0.00    -0.388 OA
HETATM   31  C21 UNL     1       6.639   2.196   1.729  1.00  0.00     0.198 C 
HETATM   32  C22 UNL     1       5.988   0.845   1.379  1.00  0.00     0.298 C 
ENDBRANCH  26  27
ENDBRANCH  25  26
ENDBRANCH  24  25
ENDBRANCH  23  24
ENDBRANCH  12  23
BRANCH   1  33
HETATM   33  O1  UNL     1       0.672  -4.067  -0.539  1.00  0.00    -0.353 OA
HETATM   34  C1  UNL     1       0.532  -5.383  -1.067  1.00  0.00     0.210 C 
ENDBRANCH   1  33
TORSDOF 8
