REMARK  7 active torsions:
REMARK  status: ('A' for Active; 'I' for Inactive)
REMARK    1  A    between atoms: O1_2  and  C2_3 
REMARK    2  A    between atoms: C6_11  and  N3_12 
REMARK    3  A    between atoms: N3_12  and  C7_13 
REMARK    4  A    between atoms: C9_15  and  O2_16 
REMARK    5  A    between atoms: C11_18  and  O3_19 
REMARK    6  A    between atoms: C13_21  and  O4_22 
REMARK    7  A    between atoms: C18_27  and  O5_28 
ROOT
HETATM    1  C2  UNL     1       3.831  -1.206   1.086  1.00  0.00     0.103 A 
HETATM    2  C3  UNL     1       4.096  -0.931  -0.239  1.00  0.00     0.070 A 
HETATM    3  C4  UNL     1       3.309  -0.100  -1.008  1.00  0.00     0.050 A 
HETATM    4  N1  UNL     1       3.578   0.169  -2.304  1.00  0.00    -0.351 N 
ATOM      5  H1  UNL     1       4.395  -0.259  -2.739  1.00  0.00     0.166 HD
HETATM    6  C5  UNL     1       2.803   0.982  -3.035  1.00  0.00     0.182 A 
HETATM    7  N2  UNL     1       1.697   1.591  -2.524  1.00  0.00    -0.338 N 
ATOM      8  H2  UNL     1       1.120   2.208  -3.096  1.00  0.00     0.168 HD
HETATM    9  C6  UNL     1       1.390   1.344  -1.216  1.00  0.00     0.119 A 
HETATM   10  C16 UNL     1       2.194   0.504  -0.470  1.00  0.00     0.039 A 
HETATM   11  C17 UNL     1       1.905   0.248   0.846  1.00  0.00     0.208 A 
HETATM   12  C18 UNL     1       2.708  -0.596   1.623  1.00  0.00     0.104 A 
ENDROOT
BRANCH   9  13
HETATM   13  N3  UNL     1       0.267   1.934  -0.586  1.00  0.00    -0.342 N 
HETATM   14  H6  UNL     1       0.466   2.837  -0.058  1.00  0.00     0.167 HD
BRANCH  13  15
HETATM   15  C7  UNL     1      -1.045   1.391  -0.628  1.00  0.00     0.039 A 
HETATM   16  C8  UNL     1      -2.114   1.959   0.034  1.00  0.00     0.069 A 
HETATM   17  C9  UNL     1      -3.381   1.430  -0.018  1.00  0.00     0.106 A 
HETATM   18  C11 UNL     1      -3.547   0.279  -0.780  1.00  0.00     0.135 A 
HETATM   19  C13 UNL     1      -2.500  -0.317  -1.457  1.00  0.00     0.106 A 
HETATM   20  C15 UNL     1      -1.216   0.236  -1.391  1.00  0.00     0.069 A 
BRANCH  17  21
HETATM   21  O2  UNL     1      -4.446   2.005   0.649  1.00  0.00    -0.353 OA
HETATM   22  C10 UNL     1      -4.204   3.173   1.407  1.00  0.00     0.210 C 
ENDBRANCH  17  21
BRANCH  18  23
HETATM   23  O3  UNL     1      -4.805  -0.256  -0.840  1.00  0.00    -0.351 OA
HETATM   24  C12 UNL     1      -5.353  -1.208   0.020  1.00  0.00     0.210 C 
ENDBRANCH  18  23
BRANCH  19  25
HETATM   25  O4  UNL     1      -2.719  -1.469  -2.206  1.00  0.00    -0.353 OA
HETATM   26  C14 UNL     1      -1.608  -2.035  -2.879  1.00  0.00     0.210 C 
ENDBRANCH  19  25
ENDBRANCH  13  15
ENDBRANCH   9  13
BRANCH  12  27
HETATM   27  O5  UNL     1       2.355  -0.821   2.971  1.00  0.00    -0.353 OA
HETATM   28  C19 UNL     1       1.193  -0.176   3.464  1.00  0.00     0.210 C 
ENDBRANCH  12  27
BRANCH   1  29
HETATM   29  O1  UNL     1       4.602  -2.025   1.857  1.00  0.00    -0.353 OA
HETATM   30  C1  UNL     1       5.754  -2.675   1.374  1.00  0.00     0.210 C 
ENDBRANCH   1  29
TORSDOF 7
