REMARK  4 active torsions:
REMARK  status: ('A' for Active; 'I' for Inactive)
REMARK    1  A    between atoms: N1_1  and  C1_2 
REMARK    2  A    between atoms: C5_10  and  C6_11 
REMARK    3  A    between atoms: C10_15  and  O1_16 
REMARK    4  A    between atoms: N4_19  and  C13_20 
ROOT
HETATM    1  C1  UNL     1       0.997   1.910   1.452  1.00  0.00     0.093 A 
HETATM    2  N2  UNL     1       0.106   2.698   2.085  1.00  0.00    -0.343 N 
ATOM      3  H2  UNL     1       0.416   3.478   2.664  1.00  0.00     0.167 HD
HETATM    4  C2  UNL     1      -1.203   2.429   1.933  1.00  0.00     0.183 A 
HETATM    5  N3  UNL     1      -1.769   1.442   1.222  1.00  0.00    -0.338 N 
ATOM      6  H3  UNL     1      -2.775   1.289   1.157  1.00  0.00     0.168 HD
HETATM    7  C3  UNL     1      -0.850   0.679   0.606  1.00  0.00     0.123 A 
HETATM    8  C4  UNL     1       0.530   0.847   0.661  1.00  0.00     0.059 A 
HETATM    9  C5  UNL     1       1.104  -0.184  -0.148  1.00  0.00     0.007 A 
HETATM   10  C12 UNL     1       0.060  -0.941  -0.650  1.00  0.00     0.106 A 
HETATM   11  N4  UNL     1      -1.120  -0.407  -0.191  1.00  0.00    -0.337 N 
ENDROOT
BRANCH   9  12
HETATM   12  C6  UNL     1       2.491  -0.460  -0.477  1.00  0.00    -0.021 A 
HETATM   13  C7  UNL     1       3.035  -1.733  -0.255  1.00  0.00     0.012 A 
HETATM   14  C8  UNL     1       4.372  -1.992  -0.565  1.00  0.00     0.004 A 
HETATM   15  C9  UNL     1       5.171  -0.982  -1.098  1.00  0.00     0.036 A 
HETATM   16  C10 UNL     1       4.630   0.279  -1.319  1.00  0.00     0.066 A 
HETATM   17  C11 UNL     1       3.297   0.549  -1.019  1.00  0.00     0.049 A 
BRANCH  16  18
HETATM   18  O1  UNL     1       5.448   1.240  -1.837  1.00  0.00    -0.361 OA
HETATM   19  H7  UNL     1       4.942   2.067  -1.916  1.00  0.00     0.217 HD
ENDBRANCH  16  18
ENDBRANCH   9  12
BRANCH   1  20
HETATM   20  N1  UNL     1       2.340   2.205   1.656  1.00  0.00    -0.288 NA
HETATM   21  H1  UNL     1       2.444   2.796   2.473  1.00  0.00     0.125 HD
HETATM   22  H2  UNL     1       2.947   1.394   1.621  1.00  0.00     0.125 HD
ENDBRANCH   1  20
BRANCH  11  23
HETATM   23  C13 UNL     1      -2.435  -0.932  -0.518  1.00  0.00     0.091 C 
HETATM   24  C14 UNL     1      -3.191  -1.509   0.688  1.00  0.00     0.026 C 
HETATM   25  C15 UNL     1      -4.655  -1.233   0.380  1.00  0.00     0.002 C 
HETATM   26  C16 UNL     1      -4.619   0.135  -0.281  1.00  0.00     0.002 C 
HETATM   27  C17 UNL     1      -3.388   0.081  -1.180  1.00  0.00     0.026 C 
ENDBRANCH  11  23
TORSDOF 4
