REMARK  8 active torsions:
REMARK  status: ('A' for Active; 'I' for Inactive)
REMARK    1  A    between atoms: N2_5  and  C4_6 
REMARK    2  A    between atoms: C7_9  and  N3_10 
REMARK    3  A    between atoms: N3_10  and  C8_11 
REMARK    4  A    between atoms: C11_18  and  N6_19 
REMARK    5  A    between atoms: N6_19  and  C12_20 
REMARK    6  A    between atoms: N7_26  and  C18_27 
REMARK    7  A    between atoms: N8_30  and  S1_31 
REMARK    8  A    between atoms: S1_31  and  C21_34 
ROOT
HETATM    1  C8  UNL     1       0.254  -0.676  -0.267  1.00  0.00     0.684 A 
HETATM    2  N4  UNL     1       0.624  -1.743   0.471  1.00  0.00    -0.199 N 
ATOM      3  H4  UNL     1       1.603  -1.875   0.724  1.00  0.00     0.183 HD
HETATM    4  C9  UNL     1      -0.310  -2.639   0.875  1.00  0.00     0.140 A 
HETATM    5  C10 UNL     1      -1.634  -2.443   0.523  1.00  0.00     0.110 A 
HETATM    6  N5  UNL     1      -2.774  -3.147   0.778  1.00  0.00    -0.186 N 
ATOM      7  H5  UNL     1      -2.851  -4.012   1.314  1.00  0.00     0.184 HD
HETATM    8  C11 UNL     1      -3.756  -2.489   0.195  1.00  0.00     0.687 A 
HETATM    9  N7  UNL     1      -3.261  -1.351  -0.441  1.00  0.00    -0.159 N 
HETATM   10  C25 UNL     1      -1.904  -1.320  -0.232  1.00  0.00     0.168 A 
HETATM   11  N9  UNL     1      -1.012  -0.408  -0.650  1.00  0.00    -0.173 N 
ATOM     12  H9  UNL     1      -1.267   0.410  -1.204  1.00  0.00     0.186 HD
ENDROOT
BRANCH   1  13
HETATM   13  N3  UNL     1       1.192   0.257  -0.706  1.00  0.00    -0.192 N 
HETATM   14  H10 UNL     1       0.731   0.948  -1.276  1.00  0.00     0.184 HD
BRANCH  13  15
HETATM   15  C7  UNL     1       2.576   0.387  -0.560  1.00  0.00     0.049 A 
HETATM   16  C6  UNL     1       3.371  -0.473   0.192  1.00  0.00     0.032 A 
HETATM   17  C5  UNL     1       4.760  -0.283   0.294  1.00  0.00     0.031 A 
HETATM   18  C4  UNL     1       5.423   0.772  -0.348  1.00  0.00     0.030 A 
HETATM   19  C27 UNL     1       4.613   1.637  -1.093  1.00  0.00     0.031 A 
HETATM   20  C26 UNL     1       3.224   1.450  -1.199  1.00  0.00     0.032 A 
BRANCH  18  21
HETATM   21  N2  UNL     1       6.791   0.948  -0.243  1.00  0.00    -0.378 N 
HETATM   22  C3  UNL     1       7.682  -0.168   0.120  1.00  0.00     0.153 C 
HETATM   23  C2  UNL     1       9.094   0.018  -0.485  1.00  0.00     0.291 C 
HETATM   24  N1  UNL     1       9.773   1.290  -0.160  1.00  0.00     0.087 N 
HETATM   25  C1  UNL     1      10.722   1.133   0.940  1.00  0.00     0.310 C 
HETATM   26  C29 UNL     1       8.796   2.357   0.148  1.00  0.00     0.291 C 
HETATM   27  C28 UNL     1       7.447   2.218  -0.596  1.00  0.00     0.153 C 
ENDBRANCH  18  21
ENDBRANCH  13  15
ENDBRANCH   1  13
BRANCH   9  28
HETATM   28  C18 UNL     1      -4.063  -0.376  -1.142  1.00  0.00     0.130 C 
HETATM   29  C19 UNL     1      -3.392   0.628  -2.083  1.00  0.00     0.048 C 
HETATM   30  C20 UNL     1      -4.498   1.650  -2.334  1.00  0.00     0.137 C 
HETATM   31  N8  UNL     1      -5.312   1.627  -1.099  1.00  0.00    -0.308 N 
HETATM   32  C24 UNL     1      -4.811   0.569  -0.196  1.00  0.00     0.161 C 
BRANCH  31  33
HETATM   33  S1  UNL     1      -5.823   3.083  -0.427  1.00  0.00     0.232 S 
HETATM   34  O1  UNL     1      -6.316   3.905  -1.509  1.00  0.00    -0.205 OA
HETATM   35  O2  UNL     1      -6.652   2.757   0.713  1.00  0.00    -0.205 OA
BRANCH  33  36
HETATM   36  C21 UNL     1      -4.331   3.930   0.184  1.00  0.00     0.129 A 
HETATM   37  C22 UNL     1      -4.611   4.972   1.235  1.00  0.00     0.023 A 
HETATM   38  C23 UNL     1      -3.969   3.666   1.620  1.00  0.00     0.023 A 
ENDBRANCH  33  36
ENDBRANCH  31  33
ENDBRANCH   9  28
BRANCH   8  39
HETATM   39  N6  UNL     1      -5.079  -2.786   0.173  1.00  0.00    -0.191 N 
HETATM   40  H12 UNL     1      -5.724  -2.236  -0.380  1.00  0.00     0.184 HD
BRANCH  39  41
HETATM   41  C12 UNL     1      -5.749  -3.861   0.806  1.00  0.00     0.049 A 
HETATM   42  C13 UNL     1      -5.121  -4.824   1.603  1.00  0.00     0.030 A 
HETATM   43  C14 UNL     1      -5.852  -5.854   2.209  1.00  0.00     0.002 A 
HETATM   44  C15 UNL     1      -7.229  -5.936   2.031  1.00  0.00     0.000 A 
HETATM   45  C16 UNL     1      -7.877  -4.987   1.248  1.00  0.00     0.002 A 
HETATM   46  C17 UNL     1      -7.144  -3.960   0.645  1.00  0.00     0.030 A 
ENDBRANCH  39  41
ENDBRANCH   8  39
TORSDOF 8
