REMARK  6 active torsions:
REMARK  status: ('A' for Active; 'I' for Inactive)
REMARK    1  A    between atoms: N1_2  and  C2_3 
REMARK    2  A    between atoms: C2_3  and  N2_5 
REMARK    3  A    between atoms: N2_5  and  C4_7 
REMARK    4  A    between atoms: C6_9  and  N4_33 
REMARK    5  A    between atoms: C7_11  and  N3_16 
REMARK    6  A    between atoms: C9_13  and  O2_14 
ROOT
HETATM    1  C4  UNL     1       2.550   0.586  -0.511  1.00  0.00     0.124 C 
HETATM    2  C5  UNL     1       1.607   1.741  -0.851  1.00  0.00     0.082 C 
HETATM    3  C6  UNL     1       0.542   1.923   0.236  1.00  0.00     0.233 C 
HETATM    4  O1  UNL     1       0.755   1.132   1.405  1.00  0.00    -0.333 OA
HETATM    5  C7  UNL     1       0.980  -0.295   1.236  1.00  0.00     0.168 C 
HETATM    6  C8  UNL     1       1.940  -0.554   2.423  1.00  0.00     0.074 C 
HETATM    7  C9  UNL     1       1.713  -0.656  -0.111  1.00  0.00     0.199 C 
ENDROOT
BRANCH   1   8
HETATM    8  N2  UNL     1       3.570   0.339  -1.579  1.00  0.00    -0.355 N 
HETATM    9  C3  UNL     1       3.088  -0.169  -2.869  1.00  0.00     0.152 C 
BRANCH   8  10
HETATM   10  C2  UNL     1       4.935   0.179  -1.246  1.00  0.00     0.169 C 
HETATM   11  S1  UNL     1       5.972  -0.920  -1.986  1.00  0.00    -0.041 SA
BRANCH  10  12
HETATM   12  N1  UNL     1       5.334   1.033  -0.231  1.00  0.00    -0.371 N 
HETATM   13  C1  UNL     1       6.691   1.155   0.278  1.00  0.00     0.148 C 
HETATM   14  H4  UNL     1       4.808   1.897  -0.214  1.00  0.00     0.161 HD
ENDBRANCH  10  12
ENDBRANCH   8  10
ENDBRANCH   1   8
BRANCH   7  15
HETATM   15  O2  UNL     1       0.795  -0.907  -1.195  1.00  0.00    -0.384 OA
HETATM   16  C10 UNL     1       0.605  -2.288  -1.485  1.00  0.00     0.202 C 
ENDBRANCH   7  15
BRANCH   3  17
HETATM   17  N4  UNL     1      -0.841   1.831  -0.216  1.00  0.00    -0.316 N 
HETATM   18  C26 UNL     1      -1.492   2.810  -0.953  1.00  0.00     0.048 A 
HETATM   19  C21 UNL     1      -2.844   2.438  -1.040  1.00  0.00     0.004 A 
HETATM   20  C25 UNL     1      -1.007   3.996  -1.534  1.00  0.00     0.030 A 
HETATM   21  C20 UNL     1      -2.995   1.199  -0.344  1.00  0.00     0.022 A 
HETATM   22  C22 UNL     1      -3.725   3.294  -1.738  1.00  0.00     0.014 A 
HETATM   23  C19 UNL     1      -4.006   0.283  -0.016  1.00  0.00     0.054 A 
HETATM   24  C27 UNL     1      -1.733   0.860   0.117  1.00  0.00     0.077 A 
HETATM   25  C18 UNL     1      -3.808  -0.927   0.716  1.00  0.00    -0.010 A 
HETATM   26  C29 UNL     1      -5.438   0.358  -0.345  1.00  0.00     0.253 A 
HETATM   27  C17 UNL     1      -2.539  -1.317   1.174  1.00  0.00     0.015 A 
HETATM   28  C30 UNL     1      -5.121  -1.642   0.853  1.00  0.00     0.163 A 
HETATM   29  C16 UNL     1      -1.982  -2.432   1.857  1.00  0.00     0.004 A 
HETATM   30  C28 UNL     1      -1.492  -0.462   0.906  1.00  0.00     0.077 A 
HETATM   31  C11 UNL     1      -0.589  -2.231   1.946  1.00  0.00     0.049 A 
HETATM   32  C15 UNL     1      -2.544  -3.621   2.372  1.00  0.00     0.014 A 
HETATM   33  N3  UNL     1      -0.316  -0.978   1.394  1.00  0.00    -0.308 N 
HETATM   34  C12 UNL     1       0.232  -3.234   2.498  1.00  0.00     0.030 A 
HETATM   35  C13 UNL     1      -0.353  -4.402   2.999  1.00  0.00     0.002 A 
HETATM   36  C14 UNL     1      -1.725  -4.593   2.945  1.00  0.00     0.001 A 
HETATM   37  N5  UNL     1      -6.038  -0.765   0.180  1.00  0.00    -0.353 N 
HETATM   38  H27 UNL     1      -7.029  -0.924   0.064  1.00  0.00     0.163 HD
HETATM   39  O3  UNL     1      -6.020   1.227  -0.962  1.00  0.00    -0.268 OA
HETATM   40  C23 UNL     1      -3.249   4.473  -2.321  1.00  0.00     0.001 A 
HETATM   41  C24 UNL     1      -1.907   4.816  -2.219  1.00  0.00     0.002 A 
ENDBRANCH   3  17
TORSDOF 6
