REMARK  7 active torsions:
REMARK  status: ('A' for Active; 'I' for Inactive)
REMARK    1  A    between atoms: O1_2  and  C2_3 
REMARK    2  A    between atoms: C2_3  and  C3_5 
REMARK    3  A    between atoms: C3_5  and  N1_6 
REMARK    4  A    between atoms: N1_6  and  C5_8 
REMARK    5  A    between atoms: C7_10  and  N3_34 
REMARK    6  A    between atoms: C8_12  and  N2_17 
REMARK    7  A    between atoms: C10_14  and  O4_15 
ROOT
HETATM    1  C5  UNL     1      -2.134   0.957  -1.200  1.00  0.00     0.260 C 
HETATM    2  C6  UNL     1      -1.247   1.768  -0.251  1.00  0.00     0.093 C 
HETATM    3  C7  UNL     1       0.133   1.983  -0.866  1.00  0.00     0.234 C 
HETATM    4  O3  UNL     1       0.406   1.212  -2.031  1.00  0.00    -0.333 OA
HETATM    5  C8  UNL     1      -0.013  -0.176  -2.069  1.00  0.00     0.168 C 
HETATM    6  C9  UNL     1      -0.078  -0.360  -3.607  1.00  0.00     0.074 C 
HETATM    7  C10 UNL     1      -1.444  -0.419  -1.453  1.00  0.00     0.210 C 
ENDROOT
BRANCH   1   8
HETATM    8  N1  UNL     1      -3.561   0.822  -0.780  1.00  0.00     0.101 N 
HETATM    9  C4  UNL     1      -4.362   1.945  -1.298  1.00  0.00     0.311 C 
BRANCH   8  10
HETATM   10  C3  UNL     1      -3.751   0.700   0.694  1.00  0.00     0.383 C 
BRANCH  10  11
HETATM   11  C2  UNL     1      -5.146   0.198   1.079  1.00  0.00     0.286 C 
HETATM   12  O2  UNL     1      -5.983  -0.302   0.336  1.00  0.00    -0.263 OA
BRANCH  11  13
HETATM   13  O1  UNL     1      -5.316   0.386   2.424  1.00  0.00    -0.325 OA
HETATM   14  C1  UNL     1      -6.572  -0.078   2.926  1.00  0.00     0.213 C 
ENDBRANCH  11  13
ENDBRANCH  10  11
ENDBRANCH   8  10
ENDBRANCH   1   8
BRANCH   7  15
HETATM   15  O4  UNL     1      -1.355  -1.145  -0.205  1.00  0.00    -0.384 OA
HETATM   16  C11 UNL     1      -2.144  -2.338  -0.211  1.00  0.00     0.202 C 
ENDBRANCH   7  15
BRANCH   3  17
HETATM   17  N3  UNL     1       1.233   1.868   0.080  1.00  0.00    -0.316 N 
HETATM   18  C27 UNL     1       1.656   2.861   0.946  1.00  0.00     0.048 A 
HETATM   19  C22 UNL     1       2.762   2.355   1.648  1.00  0.00     0.004 A 
HETATM   20  C26 UNL     1       1.164   4.163   1.167  1.00  0.00     0.030 A 
HETATM   21  C21 UNL     1       2.987   1.019   1.190  1.00  0.00     0.022 A 
HETATM   22  C23 UNL     1       3.384   3.195   2.597  1.00  0.00     0.014 A 
HETATM   23  C20 UNL     1       3.863  -0.050   1.424  1.00  0.00     0.054 A 
HETATM   24  C28 UNL     1       2.017   0.770   0.235  1.00  0.00     0.077 A 
HETATM   25  C19 UNL     1       3.794  -1.318   0.770  1.00  0.00    -0.010 A 
HETATM   26  C30 UNL     1       5.001  -0.103   2.355  1.00  0.00     0.253 A 
HETATM   27  C18 UNL     1       2.810  -1.612  -0.190  1.00  0.00     0.015 A 
HETATM   28  C31 UNL     1       4.892  -2.197   1.288  1.00  0.00     0.163 A 
HETATM   29  C17 UNL     1       2.430  -2.737  -0.972  1.00  0.00     0.004 A 
HETATM   30  C29 UNL     1       1.921  -0.604  -0.499  1.00  0.00     0.077 A 
HETATM   31  C12 UNL     1       1.296  -2.373  -1.724  1.00  0.00     0.049 A 
HETATM   32  C16 UNL     1       2.938  -4.052  -1.078  1.00  0.00     0.014 A 
HETATM   33  N2  UNL     1       1.040  -1.023  -1.467  1.00  0.00    -0.308 N 
HETATM   34  C13 UNL     1       0.647  -3.325  -2.535  1.00  0.00     0.030 A 
HETATM   35  C14 UNL     1       1.172  -4.618  -2.620  1.00  0.00     0.002 A 
HETATM   36  C15 UNL     1       2.305  -4.978  -1.907  1.00  0.00     0.001 A 
HETATM   37  N4  UNL     1       5.557  -1.359   2.246  1.00  0.00    -0.353 N 
HETATM   38  H28 UNL     1       6.372  -1.614   2.784  1.00  0.00     0.163 HD
HETATM   39  O5  UNL     1       5.410   0.774   3.090  1.00  0.00    -0.268 OA
HETATM   40  C24 UNL     1       2.906   4.492   2.816  1.00  0.00     0.001 A 
HETATM   41  C25 UNL     1       1.809   4.967   2.111  1.00  0.00     0.002 A 
ENDBRANCH   3  17
TORSDOF 7
