REMARK  7 active torsions:
REMARK  status: ('A' for Active; 'I' for Inactive)
REMARK    1  A    between atoms: O1_2  and  C2_3 
REMARK    2  A    between atoms: C2_3  and  C3_5 
REMARK    3  A    between atoms: C3_5  and  N1_6 
REMARK    4  A    between atoms: C6_9  and  N2_10 
REMARK    5  A    between atoms: C8_12  and  C9_13 
REMARK    6  A    between atoms: C13_17  and  O3_18 
REMARK    7  A    between atoms: C16_21  and  N3_22 
ROOT
HETATM    1  N2  UNL     1      -0.337  -0.673   0.952  1.00  0.00    -0.337 N 
HETATM    2  C7  UNL     1      -1.155  -0.373  -0.107  1.00  0.00     0.106 A 
HETATM    3  C8  UNL     1      -2.314   0.196   0.387  1.00  0.00     0.007 A 
HETATM    4  C15 UNL     1      -2.207   0.236   1.806  1.00  0.00     0.064 A 
HETATM    5  C16 UNL     1      -2.997   0.670   2.882  1.00  0.00     0.114 A 
HETATM    6  N4  UNL     1      -2.536   0.505   4.138  1.00  0.00    -0.338 N 
ATOM      7  H4  UNL     1      -3.092   0.797   4.942  1.00  0.00     0.168 HD
HETATM    8  C17 UNL     1      -1.324  -0.054   4.305  1.00  0.00     0.183 A 
HETATM    9  N5  UNL     1      -0.479  -0.499   3.362  1.00  0.00    -0.338 N 
ATOM     10  H5  UNL     1       0.430  -0.917   3.559  1.00  0.00     0.168 HD
HETATM   11  C18 UNL     1      -0.978  -0.327   2.125  1.00  0.00     0.123 A 
ENDROOT
BRANCH   1  12
HETATM   12  C6  UNL     1       1.006  -1.260   0.921  1.00  0.00     0.094 C 
HETATM   13  C5  UNL     1       1.313  -2.168  -0.285  1.00  0.00     0.056 C 
HETATM   14  C4  UNL     1       1.847  -1.424  -1.513  1.00  0.00     0.275 C 
HETATM   15  N1  UNL     1       2.920  -0.467  -1.226  1.00  0.00     0.098 N 
HETATM   16  C20 UNL     1       2.498   0.478  -0.182  1.00  0.00     0.275 C 
HETATM   17  C19 UNL     1       2.094  -0.197   1.127  1.00  0.00     0.056 C 
BRANCH  15  18
HETATM   18  C3  UNL     1       4.201  -1.148  -0.940  1.00  0.00     0.382 C 
BRANCH  18  19
HETATM   19  C2  UNL     1       5.368  -0.171  -0.861  1.00  0.00     0.286 C 
HETATM   20  O2  UNL     1       5.762   0.347   0.177  1.00  0.00    -0.263 OA
BRANCH  19  21
HETATM   21  O1  UNL     1       5.900   0.053  -2.100  1.00  0.00    -0.325 OA
HETATM   22  C1  UNL     1       6.977   0.990  -2.109  1.00  0.00     0.213 C 
ENDBRANCH  19  21
ENDBRANCH  18  19
ENDBRANCH  15  18
ENDBRANCH   1  12
BRANCH   3  23
HETATM   23  C9  UNL     1      -3.388   0.640  -0.476  1.00  0.00    -0.021 A 
HETATM   24  C10 UNL     1      -3.595   2.010  -0.685  1.00  0.00     0.012 A 
HETATM   25  C11 UNL     1      -4.641   2.442  -1.503  1.00  0.00     0.004 A 
HETATM   26  C12 UNL     1      -5.485   1.508  -2.104  1.00  0.00     0.036 A 
HETATM   27  C13 UNL     1      -5.279   0.147  -1.886  1.00  0.00     0.066 A 
HETATM   28  C14 UNL     1      -4.235  -0.300  -1.079  1.00  0.00     0.049 A 
BRANCH  27  29
HETATM   29  O3  UNL     1      -6.136  -0.727  -2.485  1.00  0.00    -0.361 OA
HETATM   30  H15 UNL     1      -5.866  -1.632  -2.262  1.00  0.00     0.217 HD
ENDBRANCH  27  29
ENDBRANCH   3  23
BRANCH   5  31
HETATM   31  N3  UNL     1      -4.244   1.258   2.745  1.00  0.00    -0.385 N 
HETATM   32  H17 UNL     1      -4.742   1.046   1.887  1.00  0.00     0.157 HD
HETATM   33  H18 UNL     1      -4.771   1.220   3.608  1.00  0.00     0.157 HD
ENDBRANCH   5  31
TORSDOF 7
