REMARK  4 active torsions:
REMARK  status: ('A' for Active; 'I' for Inactive)
REMARK    1  A    between atoms: C4_4  and  N1_5 
REMARK    2  A    between atoms: N1_5  and  C5_6 
REMARK    3  A    between atoms: C7_10  and  C8_11 
REMARK       I    between atoms: C8_11  and  N3_13 
REMARK    4  A    between atoms: N3_13  and  C9_14 
ROOT
HETATM    1  C5  UNL     1       1.374   1.047  -0.439  1.00  0.00     0.150 A 
HETATM    2  N2  UNL     1       1.055   0.159   0.477  1.00  0.00    -0.345 N 
ATOM      3  H2  UNL     1       1.685  -0.174   1.207  1.00  0.00     0.167 HD
HETATM    4  C6  UNL     1      -0.248  -0.260   0.314  1.00  0.00     0.115 A 
HETATM    5  C7  UNL     1      -0.960   0.363  -0.689  1.00  0.00     0.091 A 
HETATM    6  S1  UNL     1       0.071   1.473  -1.492  1.00  0.00    -0.047 SA
ENDROOT
BRANCH   1   7
HETATM    7  N1  UNL     1       2.564   1.677  -0.589  1.00  0.00    -0.323 N 
HETATM    8  H5  UNL     1       2.634   2.275  -1.402  1.00  0.00     0.169 HD
BRANCH   7   9
HETATM    9  C4  UNL     1       3.813   1.096  -0.279  1.00  0.00     0.110 A 
HETATM   10  C3  UNL     1       4.912   1.935  -0.212  1.00  0.00     0.073 A 
HETATM   11  C2  UNL     1       6.133   1.364   0.091  1.00  0.00     0.010 A 
HETATM   12  C1  UNL     1       7.364   2.212   0.184  1.00  0.00     0.068 C 
HETATM   13  N5  UNL     1       6.270   0.045   0.318  1.00  0.00    -0.350 N 
HETATM   14  C16 UNL     1       5.152  -0.698   0.250  1.00  0.00     0.078 A 
ATOM     15  H5  UNL     1       7.177  -0.370   0.531  1.00  0.00     0.167 HD
HETATM   16  N4  UNL     1       3.934  -0.222  -0.054  1.00  0.00    -0.332 N 
HETATM   17  C17 UNL     1       5.278  -2.170   0.481  1.00  0.00     0.089 C 
ATOM     18  H4  UNL     1       3.126  -0.842  -0.112  1.00  0.00     0.168 HD
ENDBRANCH   7   9
ENDBRANCH   1   7
BRANCH   5  19
HETATM   19  C8  UNL     1      -2.337   0.196  -1.118  1.00  0.00     0.264 C 
HETATM   20  O1  UNL     1      -2.773   0.662  -2.168  1.00  0.00    -0.267 OA
HETATM   21  N3  UNL     1      -3.140  -0.457  -0.186  1.00  0.00    -0.320 N 
HETATM   22  H7  UNL     1      -2.862  -0.321   0.775  1.00  0.00     0.169 HD
BRANCH  21  23
HETATM   23  C9  UNL     1      -4.502  -0.784  -0.414  1.00  0.00     0.062 A 
HETATM   24  C10 UNL     1      -5.436  -0.502   0.609  1.00  0.00    -0.034 A 
HETATM   25  C11 UNL     1      -5.037   0.145   1.909  1.00  0.00     0.050 C 
HETATM   26  C12 UNL     1      -6.795  -0.801   0.405  1.00  0.00     0.009 A 
HETATM   27  C13 UNL     1      -7.230  -1.386  -0.782  1.00  0.00     0.002 A 
HETATM   28  C14 UNL     1      -6.307  -1.709  -1.772  1.00  0.00     0.026 A 
HETATM   29  C15 UNL     1      -4.948  -1.428  -1.590  1.00  0.00     0.061 A 
HETATM   30 CL1  UNL     1      -3.869  -2.079  -2.780  1.00  0.00    -0.082 Cl
ENDBRANCH  21  23
ENDBRANCH   5  19
TORSDOF 4
