REMARK  4 active torsions:
REMARK  status: ('A' for Active; 'I' for Inactive)
REMARK    1  A    between atoms: N1_1  and  C1_2 
REMARK    2  A    between atoms: C5_10  and  C6_11 
REMARK    3  A    between atoms: N4_18  and  C13_19 
REMARK    4  A    between atoms: C16_22  and  O1_23 
ROOT
HETATM    1  C1  UNL     1      -1.009  -0.508  -2.434  1.00  0.00     0.093 A 
HETATM    2  N2  UNL     1      -0.020  -0.771  -3.312  1.00  0.00    -0.343 N 
ATOM      3  H2  UNL     1      -0.231  -1.015  -4.280  1.00  0.00     0.167 HD
HETATM    4  C2  UNL     1       1.251  -0.704  -2.880  1.00  0.00     0.183 A 
HETATM    5  N3  UNL     1       1.694  -0.416  -1.646  1.00  0.00    -0.338 N 
ATOM      6  H3  UNL     1       2.679  -0.393  -1.382  1.00  0.00     0.168 HD
HETATM    7  C3  UNL     1       0.680  -0.161  -0.800  1.00  0.00     0.123 A 
HETATM    8  C4  UNL     1      -0.676  -0.179  -1.109  1.00  0.00     0.059 A 
HETATM    9  C5  UNL     1      -1.377   0.151   0.093  1.00  0.00     0.007 A 
HETATM   10  C12 UNL     1      -0.430   0.347   1.082  1.00  0.00     0.106 A 
HETATM   11  N4  UNL     1       0.814   0.163   0.528  1.00  0.00    -0.337 N 
ENDROOT
BRANCH  11  12
HETATM   12  C13 UNL     1       2.063   0.301   1.259  1.00  0.00     0.093 C 
HETATM   13  C14 UNL     1       3.025   1.355   0.678  1.00  0.00     0.028 C 
HETATM   14  C15 UNL     1       4.292   0.593   0.310  1.00  0.00     0.034 C 
HETATM   15  C16 UNL     1       4.314  -0.562   1.299  1.00  0.00     0.120 C 
HETATM   16  C17 UNL     1       2.860  -1.006   1.365  1.00  0.00     0.057 C 
BRANCH  15  17
HETATM   17  O1  UNL     1       5.165  -1.607   0.873  1.00  0.00    -0.396 OA
HETATM   18  H16 UNL     1       4.874  -1.893  -0.011  1.00  0.00     0.210 HD
ENDBRANCH  15  17
ENDBRANCH  11  12
BRANCH   9  19
HETATM   19  C6  UNL     1      -2.799   0.303   0.341  1.00  0.00    -0.024 A 
HETATM   20  C7  UNL     1      -3.430  -0.449   1.340  1.00  0.00     0.012 A 
HETATM   21  C8  UNL     1      -4.800  -0.305   1.571  1.00  0.00     0.001 A 
HETATM   22  C9  UNL     1      -5.546   0.591   0.806  1.00  0.00     0.000 A 
HETATM   23  C10 UNL     1      -4.924   1.345  -0.188  1.00  0.00     0.001 A 
HETATM   24  C11 UNL     1      -3.554   1.203  -0.419  1.00  0.00     0.012 A 
ENDBRANCH   9  19
BRANCH   1  25
HETATM   25  N1  UNL     1      -2.308  -0.606  -2.913  1.00  0.00    -0.288 NA
HETATM   26  H1  UNL     1      -2.996  -0.853  -2.213  1.00  0.00     0.125 HD
HETATM   27  H2  UNL     1      -2.332  -1.139  -3.774  1.00  0.00     0.125 HD
ENDBRANCH   1  25
TORSDOF 4
