REMARK  5 active torsions:
REMARK  status: ('A' for Active; 'I' for Inactive)
REMARK    1  A    between atoms: O1_2  and  C2_3 
REMARK       I    between atoms: C2_3  and  N1_5 
REMARK    2  A    between atoms: N1_5  and  C4_7 
REMARK    3  A    between atoms: C6_9  and  N3_33 
REMARK    4  A    between atoms: C7_11  and  N2_16 
REMARK    5  A    between atoms: C9_13  and  O4_14 
ROOT
HETATM    1  C4  UNL     1      -2.608  -0.903   0.101  1.00  0.00     0.126 C 
HETATM    2  C5  UNL     1      -1.673  -1.988  -0.444  1.00  0.00     0.082 C 
HETATM    3  C6  UNL     1      -0.436  -2.166   0.445  1.00  0.00     0.233 C 
HETATM    4  O3  UNL     1      -0.462  -1.413   1.655  1.00  0.00    -0.333 OA
HETATM    5  C7  UNL     1      -0.782   0.000   1.574  1.00  0.00     0.168 C 
HETATM    6  C8  UNL     1      -1.494   0.190   2.934  1.00  0.00     0.074 C 
HETATM    7  C9  UNL     1      -1.767   0.356   0.410  1.00  0.00     0.199 C 
ENDROOT
BRANCH   1   8
HETATM    8  N1  UNL     1      -3.786  -0.601  -0.744  1.00  0.00    -0.325 N 
HETATM    9  C2  UNL     1      -4.825   0.102  -0.145  1.00  0.00     0.362 C 
HETATM   10  O2  UNL     1      -4.844   0.371   1.053  1.00  0.00    -0.238 OA
HETATM   11  C3  UNL     1      -3.717  -0.801  -2.186  1.00  0.00     0.155 C 
BRANCH   9  12
HETATM   12  O1  UNL     1      -5.800   0.470  -1.017  1.00  0.00    -0.309 OA
HETATM   13  C1  UNL     1      -6.882   1.190  -0.423  1.00  0.00     0.215 C 
ENDBRANCH   9  12
ENDBRANCH   1   8
BRANCH   7  14
HETATM   14  O4  UNL     1      -1.074   0.691  -0.813  1.00  0.00    -0.384 OA
HETATM   15  C10 UNL     1      -1.252   2.047  -1.203  1.00  0.00     0.202 C 
ENDBRANCH   7  14
BRANCH   3  16
HETATM   16  N3  UNL     1       0.850  -2.017  -0.228  1.00  0.00    -0.316 N 
HETATM   17  C26 UNL     1       1.408  -2.960  -1.078  1.00  0.00     0.048 A 
HETATM   18  C21 UNL     1       2.699  -2.513  -1.407  1.00  0.00     0.004 A 
HETATM   19  C25 UNL     1       0.890  -4.171  -1.575  1.00  0.00     0.030 A 
HETATM   20  C20 UNL     1       2.910  -1.271  -0.732  1.00  0.00     0.022 A 
HETATM   21  C22 UNL     1       3.477  -3.311  -2.272  1.00  0.00     0.014 A 
HETATM   22  C19 UNL     1       3.913  -0.301  -0.583  1.00  0.00     0.054 A 
HETATM   23  C27 UNL     1       1.737  -1.001  -0.047  1.00  0.00     0.077 A 
HETATM   24  C18 UNL     1       3.783   0.901   0.180  1.00  0.00    -0.010 A 
HETATM   25  C29 UNL     1       5.265  -0.298  -1.163  1.00  0.00     0.253 A 
HETATM   26  C17 UNL     1       2.596   1.226   0.857  1.00  0.00     0.015 A 
HETATM   27  C30 UNL     1       5.059   1.685   0.085  1.00  0.00     0.163 A 
HETATM   28  C16 UNL     1       2.100   2.321   1.615  1.00  0.00     0.004 A 
HETATM   29  C28 UNL     1       1.571   0.309   0.781  1.00  0.00     0.077 A 
HETATM   30  C11 UNL     1       0.758   2.044   1.943  1.00  0.00     0.049 A 
HETATM   31  C15 UNL     1       2.664   3.556   2.006  1.00  0.00     0.014 A 
HETATM   32  N2  UNL     1       0.479   0.758   1.481  1.00  0.00    -0.308 N 
HETATM   33  C12 UNL     1      -0.024   3.012   2.602  1.00  0.00     0.030 A 
HETATM   34  C13 UNL     1       0.561   4.228   2.972  1.00  0.00     0.002 A 
HETATM   35  C14 UNL     1       1.891   4.495   2.688  1.00  0.00     0.001 A 
HETATM   36  N4  UNL     1       5.884   0.862  -0.754  1.00  0.00    -0.353 N 
HETATM   37  H26 UNL     1       6.835   1.065  -1.029  1.00  0.00     0.163 HD
HETATM   38  O5  UNL     1       5.777  -1.141  -1.872  1.00  0.00    -0.268 OA
HETATM   39  C23 UNL     1       2.965  -4.511  -2.776  1.00  0.00     0.001 A 
HETATM   40  C24 UNL     1       1.689  -4.934  -2.428  1.00  0.00     0.002 A 
ENDBRANCH   3  16
TORSDOF 5
