REMARK  4 active torsions:
REMARK  status: ('A' for Active; 'I' for Inactive)
REMARK    1  A    between atoms: O1_2  and  C2_3 
REMARK    2  A    between atoms: C5_6  and  N1_7 
REMARK    3  A    between atoms: N1_7  and  C6_8 
REMARK    4  A    between atoms: C10_14  and  C11_15 
ROOT
HETATM    1  C6  UNL     1      -0.770  -0.040  -0.472  1.00  0.00     0.684 A 
HETATM    2  N2  UNL     1      -0.660   0.082   0.858  1.00  0.00    -0.201 N 
ATOM      3  H2  UNL     1      -1.486   0.155   1.453  1.00  0.00     0.183 HD
HETATM    4  C7  UNL     1       0.580   0.105   1.380  1.00  0.00     0.121 A 
HETATM    5  C8  UNL     1       1.726   0.011   0.627  1.00  0.00     0.026 A 
HETATM    6  C9  UNL     1       3.061   0.037   1.198  1.00  0.00     0.034 A 
HETATM    7  C10 UNL     1       4.127  -0.061   0.389  1.00  0.00     0.047 A 
HETATM    8  C17 UNL     1       3.953  -0.197  -1.098  1.00  0.00     0.260 A 
HETATM    9  O2  UNL     1       4.950  -0.285  -1.814  1.00  0.00    -0.267 OA
HETATM   10  N3  UNL     1       2.655  -0.216  -1.581  1.00  0.00    -0.303 N 
HETATM   11  C18 UNL     1       2.416  -0.344  -3.008  1.00  0.00     0.161 C 
HETATM   12  C19 UNL     1       1.523  -0.112  -0.733  1.00  0.00     0.137 A 
HETATM   13  N4  UNL     1       0.292  -0.139  -1.287  1.00  0.00    -0.175 N 
ATOM     14  H4  UNL     1       0.172  -0.232  -2.296  1.00  0.00     0.186 HD
ENDROOT
BRANCH   1  15
HETATM   15  N1  UNL     1      -2.004  -0.075  -1.113  1.00  0.00    -0.192 N 
HETATM   16  H6  UNL     1      -1.855  -0.171  -2.106  1.00  0.00     0.184 HD
BRANCH  15  17
HETATM   17  C5  UNL     1      -3.331  -0.007  -0.679  1.00  0.00     0.050 A 
HETATM   18  C4  UNL     1      -3.711   0.126   0.657  1.00  0.00     0.033 A 
HETATM   19  C3  UNL     1      -5.061   0.189   1.030  1.00  0.00     0.039 A 
HETATM   20  C2  UNL     1      -6.069   0.120   0.069  1.00  0.00     0.074 A 
HETATM   21  C21 UNL     1      -5.715  -0.014  -1.281  1.00  0.00    -0.026 A 
HETATM   22  C20 UNL     1      -4.355  -0.075  -1.637  1.00  0.00     0.039 A 
HETATM   23  C22 UNL     1      -6.771  -0.092  -2.350  1.00  0.00     0.051 C 
BRANCH  20  24
HETATM   24  O1  UNL     1      -7.413   0.173   0.332  1.00  0.00    -0.355 OA
HETATM   25  C1  UNL     1      -7.805   0.308   1.692  1.00  0.00     0.210 C 
ENDBRANCH  20  24
ENDBRANCH  15  17
ENDBRANCH   1  15
BRANCH   7  26
HETATM   26  C11 UNL     1       5.488  -0.036   0.962  1.00  0.00     0.023 A 
HETATM   27  C12 UNL     1       6.182   1.177   1.121  1.00  0.00     0.046 A 
HETATM   28 CL1  UNL     1       5.476   2.699   0.690  1.00  0.00    -0.083 Cl
HETATM   29  C13 UNL     1       7.478   1.198   1.650  1.00  0.00     0.025 A 
HETATM   30  C14 UNL     1       8.101   0.010   2.025  1.00  0.00     0.003 A 
HETATM   31  C15 UNL     1       7.428  -1.201   1.875  1.00  0.00     0.025 A 
HETATM   32  C16 UNL     1       6.133  -1.226   1.346  1.00  0.00     0.046 A 
HETATM   33 CL2  UNL     1       5.363  -2.771   1.203  1.00  0.00    -0.083 Cl
ENDBRANCH   7  26
TORSDOF 4
