REMARK  5 active torsions:
REMARK  status: ('A' for Active; 'I' for Inactive)
REMARK    1  A    between atoms: O1_2  and  C2_3 
REMARK    2  A    between atoms: C3_4  and  N1_5 
REMARK    3  A    between atoms: N1_5  and  S1_7 
REMARK    4  A    between atoms: C7_12  and  N3_33 
REMARK    5  A    between atoms: C8_14  and  N2_16 
ROOT
HETATM    1  C2  UNL     1      -1.882   0.211   0.301  1.00  0.00     0.200 C 
HETATM    2  C3  UNL     1      -2.575  -1.161   0.422  1.00  0.00     0.133 C 
HETATM    3  C6  UNL     1      -1.555  -2.279   0.210  1.00  0.00     0.083 C 
HETATM    4  C7  UNL     1      -0.274  -2.030   1.014  1.00  0.00     0.233 C 
HETATM    5  O4  UNL     1      -0.379  -0.972   1.965  1.00  0.00    -0.333 OA
HETATM    6  C8  UNL     1      -0.868   0.314   1.506  1.00  0.00     0.168 C 
HETATM    7  C9  UNL     1      -1.632   0.778   2.769  1.00  0.00     0.074 C 
ENDROOT
BRANCH   2   8
HETATM    8  N1  UNL     1      -3.763  -1.358  -0.473  1.00  0.00    -0.308 N 
HETATM    9  C4  UNL     1      -3.597  -1.182  -1.926  1.00  0.00     0.163 C 
BRANCH   8  10
HETATM   10  S1  UNL     1      -5.321  -1.169   0.159  1.00  0.00     0.224 S 
HETATM   11  C5  UNL     1      -5.516   0.601   0.193  1.00  0.00     0.186 C 
HETATM   12  O2  UNL     1      -6.266  -1.691  -0.804  1.00  0.00    -0.206 OA
HETATM   13  O3  UNL     1      -5.309  -1.631   1.531  1.00  0.00    -0.206 OA
ENDBRANCH   8  10
ENDBRANCH   2   8
BRANCH   1  14
HETATM   14  O1  UNL     1      -1.237   0.250  -0.988  1.00  0.00    -0.384 OA
HETATM   15  C1  UNL     1      -1.318   1.512  -1.641  1.00  0.00     0.202 C 
ENDBRANCH   1  14
BRANCH   6  16
HETATM   16  N2  UNL     1       0.301   1.156   1.200  1.00  0.00    -0.308 N 
HETATM   17  C10 UNL     1       0.466   2.532   1.367  1.00  0.00     0.049 A 
HETATM   18  C11 UNL     1      -0.369   3.543   1.881  1.00  0.00     0.030 A 
HETATM   19  C15 UNL     1       1.744   2.861   0.870  1.00  0.00     0.004 A 
HETATM   20  C12 UNL     1       0.097   4.862   1.928  1.00  0.00     0.002 A 
HETATM   21  C13 UNL     1       1.361   5.190   1.467  1.00  0.00     0.001 A 
HETATM   22  C14 UNL     1       2.187   4.201   0.931  1.00  0.00     0.014 A 
HETATM   23  C16 UNL     1       2.324   1.676   0.341  1.00  0.00     0.015 A 
HETATM   24  C17 UNL     1       3.507   1.325  -0.330  1.00  0.00    -0.010 A 
HETATM   25  C27 UNL     1       1.415   0.665   0.565  1.00  0.00     0.077 A 
HETATM   26  C18 UNL     1       3.749  -0.008  -0.784  1.00  0.00     0.054 A 
HETATM   27  C29 UNL     1       4.669   2.194  -0.710  1.00  0.00     0.163 A 
HETATM   28  C19 UNL     1       2.872  -1.090  -0.606  1.00  0.00     0.022 A 
HETATM   29  C28 UNL     1       5.059  -0.003  -1.452  1.00  0.00     0.253 A 
HETATM   30  C20 UNL     1       2.795  -2.481  -0.924  1.00  0.00     0.004 A 
HETATM   31  C26 UNL     1       1.706  -0.787   0.078  1.00  0.00     0.077 A 
HETATM   32  C21 UNL     1       3.636  -3.386  -1.609  1.00  0.00     0.014 A 
HETATM   33  C25 UNL     1       1.591  -2.971  -0.394  1.00  0.00     0.048 A 
HETATM   34  C22 UNL     1       3.267  -4.728  -1.744  1.00  0.00     0.001 A 
HETATM   35  C23 UNL     1       2.073  -5.188  -1.204  1.00  0.00     0.002 A 
HETATM   36  C24 UNL     1       1.216  -4.322  -0.523  1.00  0.00     0.030 A 
HETATM   37  N3  UNL     1       0.950  -1.908   0.228  1.00  0.00    -0.316 N 
HETATM   38  O5  UNL     1       5.636  -0.934  -1.976  1.00  0.00    -0.268 OA
HETATM   39  N4  UNL     1       5.548   1.283  -1.386  1.00  0.00    -0.353 N 
HETATM   40  H26 UNL     1       6.450   1.514  -1.777  1.00  0.00     0.163 HD
ENDBRANCH   6  16
TORSDOF 5
