REMARK  7 active torsions:
REMARK  status: ('A' for Active; 'I' for Inactive)
REMARK    1  A    between atoms: O1_2  and  C2_3 
REMARK    2  A    between atoms: C5_6  and  N1_7 
REMARK    3  A    between atoms: N1_7  and  C6_8 
REMARK    4  A    between atoms: O2_24  and  C16_25 
REMARK    5  A    between atoms: C16_25  and  C17_26 
REMARK    6  A    between atoms: C17_26  and  C18_27 
REMARK    7  A    between atoms: C18_27  and  N4_28 
ROOT
HETATM    1  C2  UNL     1       1.163  -0.930  -0.114  1.00  0.00     0.168 A 
HETATM    2  C3  UNL     1       2.390  -1.152   0.480  1.00  0.00     0.049 A 
HETATM    3  C4  UNL     1       2.637  -0.754   1.768  1.00  0.00     0.035 A 
HETATM    4  C5  UNL     1       3.874  -0.961   2.383  1.00  0.00     0.119 A 
HETATM    5  N2  UNL     1       4.075  -0.548   3.647  1.00  0.00    -0.338 N 
ATOM      6  H2  UNL     1       4.986  -0.709   4.076  1.00  0.00     0.168 HD
HETATM    7  C12 UNL     1       3.121   0.069   4.368  1.00  0.00     0.182 A 
HETATM    8  N3  UNL     1       1.913   0.276   3.779  1.00  0.00    -0.352 N 
ATOM      9  H3  UNL     1       1.172   0.742   4.302  1.00  0.00     0.166 HD
HETATM   10  C13 UNL     1       1.686  -0.119   2.537  1.00  0.00     0.047 A 
HETATM   11  C14 UNL     1       0.451   0.104   1.945  1.00  0.00     0.043 A 
HETATM   12  C15 UNL     1       0.187  -0.298   0.624  1.00  0.00     0.007 A 
HETATM   13  O2  UNL     1      -1.087  -0.020   0.141  1.00  0.00     0.000 OA
HETATM   14 CL1  UNL     1       0.687   0.000   0.000  1.00  0.00    -0.190 Cl
HETATM   15  H28 UNL     1      -0.687   0.000   0.000  1.00  0.00     0.131 HD
ENDROOT
BRANCH   4  16
HETATM   16  N1  UNL     1       4.854  -1.629   1.633  1.00  0.00    -0.339 N 
HETATM   17  H5  UNL     1       4.549  -2.532   1.159  1.00  0.00     0.167 HD
BRANCH  16  18
HETATM   18  C6  UNL     1       6.193  -1.215   1.463  1.00  0.00     0.072 A 
HETATM   19  C7  UNL     1       6.680  -0.033   2.056  1.00  0.00     0.034 A 
HETATM   20  C8  UNL     1       8.018   0.301   1.820  1.00  0.00     0.021 A 
HETATM   21  C9  UNL     1       8.859  -0.449   1.058  1.00  0.00     0.014 A 
HETATM   22 BR1  UNL     1      10.666   0.073   0.781  1.00  0.00    -0.051 Br
HETATM   23  C10 UNL     1       8.363  -1.599   0.490  1.00  0.00     0.063 A 
HETATM   24  C11 UNL     1       7.058  -1.993   0.675  1.00  0.00     0.144 A 
HETATM   25  F1  UNL     1       6.570  -3.143   0.103  1.00  0.00    -0.204 F 
ENDBRANCH  16  18
ENDBRANCH   4  16
BRANCH   1  26
HETATM   26  O1  UNL     1       0.876  -1.314  -1.418  1.00  0.00    -0.363 OA
HETATM   27  C1  UNL     1       1.781  -1.954  -2.267  1.00  0.00     0.204 C 
ENDBRANCH   1  26
BRANCH  13  28
HETATM   28  C16 UNL     1      -2.066   0.642   0.913  1.00  0.00     0.002 C 
BRANCH  28  29
HETATM   29  C17 UNL     1      -3.325   0.746   0.051  1.00  0.00     0.019 C 
BRANCH  29  30
HETATM   30  C18 UNL     1      -2.965   1.504  -1.181  1.00  0.00     0.117 C 
BRANCH  30  31
HETATM   31  N4  UNL     1      -4.061   1.684  -2.097  1.00  0.00    -0.409 N 
HETATM   32  C19 UNL     1      -4.500   0.493  -2.708  1.00  0.00     0.136 C 
HETATM   33  C20 UNL     1      -5.937   0.513  -3.108  1.00  0.00     0.135 C 
HETATM   34  N5  UNL     1      -6.729   0.840  -1.973  1.00  0.00    -0.414 N 
HETATM   35  C21 UNL     1      -7.127  -0.254  -1.152  1.00  0.00     0.143 C 
HETATM   36  C22 UNL     1      -6.374   2.044  -1.309  1.00  0.00     0.135 C 
HETATM   37  C23 UNL     1      -5.047   2.614  -1.677  1.00  0.00     0.136 C 
ENDBRANCH  30  31
ENDBRANCH  29  30
ENDBRANCH  28  29
ENDBRANCH  13  28
TORSDOF 7
