REMARK  8 active torsions:
REMARK  status: ('A' for Active; 'I' for Inactive)
REMARK    1  A    between atoms: O1_2  and  C2_3 
REMARK    2  A    between atoms: C5_6  and  N1_7 
REMARK    3  A    between atoms: N1_7  and  C6_8 
REMARK    4  A    between atoms: C15_23  and  O2_24 
REMARK    5  A    between atoms: O2_24  and  C16_25 
REMARK    6  A    between atoms: C16_25  and  C17_26 
REMARK    7  A    between atoms: C17_26  and  C18_27 
REMARK    8  A    between atoms: C18_27  and  N4_28 
ROOT
HETATM    1  C2  UNL     1       0.730  -1.245   1.602  1.00  0.00     0.102 A 
HETATM    2  C3  UNL     1       1.897  -0.621   1.160  1.00  0.00     0.057 A 
HETATM    3  C4  UNL     1       2.063  -0.289  -0.206  1.00  0.00     0.038 A 
HETATM    4  C5  UNL     1       3.200   0.336  -0.757  1.00  0.00     0.119 A 
HETATM    5  N2  UNL     1       3.305   0.587  -2.074  1.00  0.00    -0.338 N 
ATOM      6  H2  UNL     1       4.139   1.020  -2.471  1.00  0.00     0.168 HD
HETATM    7  C12 UNL     1       2.265   0.243  -2.838  1.00  0.00     0.182 A 
HETATM    8  N3  UNL     1       1.133  -0.331  -2.418  1.00  0.00    -0.351 N 
ATOM      9  H3  UNL     1       0.376  -0.556  -3.064  1.00  0.00     0.166 HD
HETATM   10  C13 UNL     1       1.040  -0.596  -1.113  1.00  0.00     0.050 A 
HETATM   11  C14 UNL     1      -0.124  -1.196  -0.645  1.00  0.00     0.070 A 
HETATM   12  C15 UNL     1      -0.305  -1.519   0.703  1.00  0.00     0.104 A 
ENDROOT
BRANCH   4  13
HETATM   13  N1  UNL     1       4.263   0.712   0.106  1.00  0.00    -0.339 N 
HETATM   14  H5  UNL     1       3.897   1.286   0.864  1.00  0.00     0.167 HD
BRANCH  13  15
HETATM   15  C6  UNL     1       5.564   1.141  -0.244  1.00  0.00     0.072 A 
HETATM   16  C7  UNL     1       6.248   0.666  -1.368  1.00  0.00     0.034 A 
HETATM   17  C8  UNL     1       7.561   1.073  -1.632  1.00  0.00     0.026 A 
HETATM   18  C9  UNL     1       8.210   1.945  -0.759  1.00  0.00     0.037 A 
HETATM   19 CL1  UNL     1       9.824   2.439  -1.087  1.00  0.00    -0.084 Cl
HETATM   20  C10 UNL     1       7.564   2.409   0.381  1.00  0.00     0.068 A 
HETATM   21  C11 UNL     1       6.259   1.995   0.629  1.00  0.00     0.144 A 
HETATM   22  F1  UNL     1       5.642   2.435   1.738  1.00  0.00    -0.204 F 
ENDBRANCH  13  15
ENDBRANCH   4  13
BRANCH   1  23
HETATM   23  O1  UNL     1       0.538  -1.535   2.930  1.00  0.00    -0.353 OA
HETATM   24  C1  UNL     1       1.575  -2.349   3.474  1.00  0.00     0.210 C 
ENDBRANCH   1  23
BRANCH  12  25
HETATM   25  O2  UNL     1      -1.421  -2.106   1.236  1.00  0.00    -0.348 OA
BRANCH  25  26
HETATM   26  C16 UNL     1      -2.545  -2.380   0.402  1.00  0.00     0.177 C 
BRANCH  26  27
HETATM   27  C17 UNL     1      -3.428  -1.141   0.252  1.00  0.00     0.057 C 
BRANCH  27  28
HETATM   28  C18 UNL     1      -4.670  -1.455  -0.589  1.00  0.00     0.274 C 
BRANCH  28  29
HETATM   29  N4  UNL     1      -5.605  -0.350  -0.810  1.00  0.00     0.092 N 
HETATM   30  C19 UNL     1      -5.095   0.691  -1.717  1.00  0.00     0.298 C 
HETATM   31  C20 UNL     1      -5.957   1.961  -1.642  1.00  0.00     0.198 C 
HETATM   32  O3  UNL     1      -5.937   2.576  -0.346  1.00  0.00    -0.388 OA
HETATM   33  C21 UNL     1      -5.683   1.647   0.718  1.00  0.00     0.198 C 
HETATM   34  C22 UNL     1      -6.185   0.226   0.416  1.00  0.00     0.298 C 
ENDBRANCH  28  29
ENDBRANCH  27  28
ENDBRANCH  26  27
ENDBRANCH  25  26
ENDBRANCH  12  25
TORSDOF 8
