REMARK  9 active torsions:
REMARK  status: ('A' for Active; 'I' for Inactive)
REMARK    1  A    between atoms: O1_2  and  C2_3 
REMARK    2  A    between atoms: C5_6  and  C6_7 
REMARK    3  A    between atoms: C6_7  and  C7_8 
REMARK    4  A    between atoms: C7_8  and  C8_9 
REMARK    5  A    between atoms: C7_8  and  N1_11 
REMARK    6  A    between atoms: C8_9  and  O2_10 
REMARK    7  A    between atoms: C10_13  and  C11_14 
REMARK    8  A    between atoms: C15_18  and  O3_19 
REMARK    9  A    between atoms: C18_22  and  N2_23 
ROOT
HETATM    1  N1  UNL     1      -0.517   0.030   0.800  1.00  0.00    -0.334 N 
HETATM    2  C9  UNL     1      -1.331  -0.756   0.018  1.00  0.00     0.106 A 
HETATM    3  C10 UNL     1      -2.641  -0.373   0.239  1.00  0.00     0.007 A 
HETATM    4  C17 UNL     1      -2.617   0.707   1.174  1.00  0.00     0.059 A 
HETATM    5  C18 UNL     1      -3.558   1.545   1.796  1.00  0.00     0.093 A 
HETATM    6  N3  UNL     1      -3.125   2.495   2.648  1.00  0.00    -0.343 N 
ATOM      7  H3  UNL     1      -3.784   3.118   3.115  1.00  0.00     0.167 HD
HETATM    8  C19 UNL     1      -1.802   2.601   2.868  1.00  0.00     0.183 A 
HETATM    9  N4  UNL     1      -0.812   1.877   2.327  1.00  0.00    -0.338 N 
ATOM     10  H4  UNL     1       0.178   2.023   2.526  1.00  0.00     0.168 HD
HETATM   11  C20 UNL     1      -1.283   0.936   1.491  1.00  0.00     0.123 A 
ENDROOT
BRANCH   1  12
HETATM   12  C7  UNL     1       0.945  -0.088   0.855  1.00  0.00     0.118 C 
BRANCH  12  13
HETATM   13  C6  UNL     1       1.619   1.196   0.332  1.00  0.00     0.066 C 
BRANCH  13  14
HETATM   14  C5  UNL     1       3.090   1.021   0.027  1.00  0.00    -0.056 A 
HETATM   15  C4  UNL     1       3.509   0.224  -1.047  1.00  0.00     0.010 A 
HETATM   16  C3  UNL     1       4.871   0.048  -1.319  1.00  0.00     0.037 A 
HETATM   17  C2  UNL     1       5.831   0.673  -0.524  1.00  0.00     0.068 A 
HETATM   18  C22 UNL     1       5.416   1.480   0.536  1.00  0.00     0.037 A 
HETATM   19  C21 UNL     1       4.058   1.654   0.813  1.00  0.00     0.010 A 
BRANCH  17  20
HETATM   20  O1  UNL     1       7.187   0.587  -0.681  1.00  0.00    -0.356 OA
HETATM   21  C1  UNL     1       7.663  -0.317  -1.668  1.00  0.00     0.210 C 
ENDBRANCH  17  20
ENDBRANCH  13  14
ENDBRANCH  12  13
BRANCH  12  22
HETATM   22  C8  UNL     1       1.433  -0.491   2.259  1.00  0.00     0.190 C 
BRANCH  22  23
HETATM   23  O2  UNL     1       0.991  -1.805   2.610  1.00  0.00    -0.399 OA
HETATM   24  H11 UNL     1       1.407  -2.436   1.999  1.00  0.00     0.209 HD
ENDBRANCH  22  23
ENDBRANCH  12  22
ENDBRANCH   1  12
BRANCH   3  25
HETATM   25  C11 UNL     1      -3.761  -1.037  -0.401  1.00  0.00    -0.021 A 
HETATM   26  C12 UNL     1      -4.752  -1.646   0.377  1.00  0.00     0.012 A 
HETATM   27  C13 UNL     1      -5.838  -2.278  -0.233  1.00  0.00     0.004 A 
HETATM   28  C14 UNL     1      -5.940  -2.307  -1.624  1.00  0.00     0.036 A 
HETATM   29  C15 UNL     1      -4.952  -1.700  -2.393  1.00  0.00     0.066 A 
HETATM   30  C16 UNL     1      -3.865  -1.070  -1.796  1.00  0.00     0.049 A 
BRANCH  29  31
HETATM   31  O3  UNL     1      -5.017  -1.699  -3.756  1.00  0.00    -0.361 OA
HETATM   32  H16 UNL     1      -5.818  -2.176  -4.027  1.00  0.00     0.217 HD
ENDBRANCH  29  31
ENDBRANCH   3  25
BRANCH   5  33
HETATM   33  N2  UNL     1      -4.927   1.482   1.576  1.00  0.00    -0.288 NA
HETATM   34  H18 UNL     1      -5.375   2.341   1.873  1.00  0.00     0.125 HD
HETATM   35  H19 UNL     1      -5.190   1.127   0.665  1.00  0.00     0.125 HD
ENDBRANCH   5  33
TORSDOF 9
