REMARK  4 active torsions:
REMARK  status: ('A' for Active; 'I' for Inactive)
REMARK    1  A    between atoms: N1_1  and  C1_2 
REMARK    2  A    between atoms: C5_10  and  C6_11 
REMARK    3  A    between atoms: N4_18  and  C13_19 
REMARK    4  A    between atoms: C15_21  and  O1_22 
ROOT
HETATM    1  C1  UNL     1       1.140   2.412   0.876  1.00  0.00     0.093 A 
HETATM    2  N2  UNL     1       0.391   3.514   1.084  1.00  0.00    -0.343 N 
ATOM      3  H2  UNL     1       0.801   4.353   1.494  1.00  0.00     0.167 HD
HETATM    4  C2  UNL     1      -0.908   3.481   0.739  1.00  0.00     0.183 A 
HETATM    5  N3  UNL     1      -1.592   2.468   0.186  1.00  0.00    -0.338 N 
ATOM      6  H3  UNL     1      -2.580   2.512  -0.063  1.00  0.00     0.168 HD
HETATM    7  C3  UNL     1      -0.814   1.387  -0.000  1.00  0.00     0.123 A 
HETATM    8  C4  UNL     1       0.538   1.277   0.309  1.00  0.00     0.059 A 
HETATM    9  C5  UNL     1       0.949  -0.038  -0.089  1.00  0.00     0.007 A 
HETATM   10  C12 UNL     1      -0.154  -0.667  -0.642  1.00  0.00     0.106 A 
HETATM   11  N4  UNL     1      -1.216   0.188  -0.533  1.00  0.00    -0.337 N 
ENDROOT
BRANCH   9  12
HETATM   12  C6  UNL     1       2.244  -0.686   0.010  1.00  0.00    -0.024 A 
HETATM   13  C7  UNL     1       2.875  -0.808   1.253  1.00  0.00     0.012 A 
HETATM   14  C8  UNL     1       4.125  -1.424   1.351  1.00  0.00     0.001 A 
HETATM   15  C9  UNL     1       4.748  -1.924   0.209  1.00  0.00     0.000 A 
HETATM   16  C10 UNL     1       4.123  -1.810  -1.033  1.00  0.00     0.001 A 
HETATM   17  C11 UNL     1       2.874  -1.194  -1.133  1.00  0.00     0.012 A 
ENDBRANCH   9  12
BRANCH   1  18
HETATM   18  N1  UNL     1       2.481   2.498   1.220  1.00  0.00    -0.288 NA
HETATM   19  H1  UNL     1       2.765   3.465   1.319  1.00  0.00     0.125 HD
HETATM   20  H2  UNL     1       3.096   1.902   0.680  1.00  0.00     0.125 HD
ENDBRANCH   1  18
BRANCH  11  21
HETATM   21  C13 UNL     1      -2.574  -0.072  -1.050  1.00  0.00     0.096 C 
HETATM   22  C14 UNL     1      -3.020  -1.556  -1.009  1.00  0.00     0.057 C 
HETATM   23  C15 UNL     1      -4.417  -1.051  -0.579  1.00  0.00     0.122 C 
HETATM   24  C16 UNL     1      -3.698   0.195  -0.015  1.00  0.00     0.057 C 
BRANCH  23  25
HETATM   25  O1  UNL     1      -5.111  -1.871   0.375  1.00  0.00    -0.395 OA
HETATM   26  H14 UNL     1      -5.862  -1.330   0.674  1.00  0.00     0.210 HD
ENDBRANCH  23  25
ENDBRANCH  11  21
TORSDOF 4
