REMARK  8 active torsions:
REMARK  status: ('A' for Active; 'I' for Inactive)
REMARK    1  A    between atoms: N1_1  and  C1_2 
REMARK    2  A    between atoms: C5_10  and  C6_11 
REMARK    3  A    between atoms: N4_18  and  C13_19 
REMARK    4  A    between atoms: C17_23  and  C18_24 
REMARK    5  A    between atoms: C18_24  and  N5_25 
REMARK    6  A    between atoms: N5_25  and  C19_26 
REMARK    7  A    between atoms: C19_26  and  C20_27 
REMARK    8  A    between atoms: C20_27  and  O1_28 
ROOT
HETATM    1  C1  UNL     1      -3.867   2.122   0.052  1.00  0.00     0.093 A 
HETATM    2  N2  UNL     1      -3.839   3.454   0.228  1.00  0.00    -0.343 N 
ATOM      3  H2  UNL     1      -4.697   4.005   0.199  1.00  0.00     0.167 HD
HETATM    4  C2  UNL     1      -2.651   4.039   0.443  1.00  0.00     0.183 A 
HETATM    5  N3  UNL     1      -1.449   3.457   0.516  1.00  0.00    -0.337 N 
ATOM      6  H3  UNL     1      -0.585   3.970   0.693  1.00  0.00     0.168 HD
HETATM    7  C3  UNL     1      -1.496   2.121   0.332  1.00  0.00     0.127 A 
HETATM    8  C4  UNL     1      -2.664   1.394   0.102  1.00  0.00     0.059 A 
HETATM    9  C5  UNL     1      -2.291   0.027  -0.010  1.00  0.00     0.007 A 
HETATM   10  C12 UNL     1      -0.925  -0.038   0.166  1.00  0.00     0.112 A 
HETATM   11  N4  UNL     1      -0.414   1.235   0.371  1.00  0.00    -0.307 N 
ENDROOT
BRANCH  11  12
HETATM   12  C13 UNL     1       0.977   1.537   0.579  1.00  0.00     0.041 A 
HETATM   13  C14 UNL     1       1.457   2.851   0.506  1.00  0.00     0.030 A 
HETATM   14  C15 UNL     1       2.814   3.129   0.696  1.00  0.00     0.003 A 
HETATM   15  C16 UNL     1       3.712   2.099   0.965  1.00  0.00     0.009 A 
HETATM   16  C17 UNL     1       3.262   0.777   1.050  1.00  0.00    -0.028 A 
HETATM   17  C21 UNL     1       1.895   0.506   0.853  1.00  0.00     0.039 A 
BRANCH  16  18
HETATM   18  C18 UNL     1       4.235  -0.341   1.345  1.00  0.00     0.308 C 
BRANCH  18  19
HETATM   19  N5  UNL     1       5.229  -0.548   0.287  1.00  0.00     0.089 N 
HETATM   20  H15 UNL     1       5.926  -1.212   0.622  1.00  0.00     0.316 HD
BRANCH  19  21
HETATM   21  C19 UNL     1       4.663  -1.031  -0.977  1.00  0.00     0.295 C 
BRANCH  21  22
HETATM   22  C20 UNL     1       4.125  -2.469  -0.944  1.00  0.00     0.194 C 
BRANCH  22  23
HETATM   23  O1  UNL     1       3.688  -2.878  -2.237  1.00  0.00    -0.399 OA
HETATM   24  H20 UNL     1       4.440  -2.781  -2.847  1.00  0.00     0.209 HD
ENDBRANCH  22  23
ENDBRANCH  21  22
ENDBRANCH  19  21
ENDBRANCH  18  19
ENDBRANCH  16  18
ENDBRANCH  11  12
BRANCH   9  25
HETATM   25  C6  UNL     1      -3.093  -1.153  -0.277  1.00  0.00    -0.024 A 
HETATM   26  C7  UNL     1      -3.860  -1.233  -1.445  1.00  0.00     0.012 A 
HETATM   27  C8  UNL     1      -4.640  -2.363  -1.698  1.00  0.00     0.001 A 
HETATM   28  C9  UNL     1      -4.656  -3.419  -0.787  1.00  0.00     0.000 A 
HETATM   29  C10 UNL     1      -3.891  -3.348   0.376  1.00  0.00     0.001 A 
HETATM   30  C11 UNL     1      -3.110  -2.218   0.632  1.00  0.00     0.012 A 
ENDBRANCH   9  25
BRANCH   1  31
HETATM   31  N1  UNL     1      -5.117   1.553  -0.145  1.00  0.00    -0.288 NA
HETATM   32  H1  UNL     1      -5.854   2.183   0.149  1.00  0.00     0.125 HD
HETATM   33  H2  UNL     1      -5.203   0.586   0.143  1.00  0.00     0.125 HD
ENDBRANCH   1  31
TORSDOF 8
