REMARK  8 active torsions:
REMARK  status: ('A' for Active; 'I' for Inactive)
REMARK    1  A    between atoms: O1_2  and  C2_3 
REMARK    2  A    between atoms: C6_11  and  N3_12 
REMARK    3  A    between atoms: N3_12  and  C7_13 
REMARK    4  A    between atoms: C15_23  and  O2_24 
REMARK    5  A    between atoms: O2_24  and  C16_25 
REMARK    6  A    between atoms: C16_25  and  C17_26 
REMARK    7  A    between atoms: C17_26  and  C18_27 
REMARK    8  A    between atoms: C18_27  and  N4_28 
ROOT
HETATM    1  C2  UNL     1      -0.546  -3.566  -1.980  1.00  0.00     0.103 A 
HETATM    2  C3  UNL     1      -1.930  -3.737  -2.095  1.00  0.00     0.070 A 
HETATM    3  C4  UNL     1      -2.829  -2.729  -1.762  1.00  0.00     0.050 A 
HETATM    4  N1  UNL     1      -4.135  -2.977  -1.888  1.00  0.00    -0.351 N 
ATOM      5  H1  UNL     1      -4.478  -3.877  -2.223  1.00  0.00     0.166 HD
HETATM    6  C5  UNL     1      -4.972  -1.990  -1.554  1.00  0.00     0.182 A 
HETATM    7  N2  UNL     1      -4.626  -0.777  -1.118  1.00  0.00    -0.338 N 
ATOM      8  H2  UNL     1      -5.327  -0.074  -0.882  1.00  0.00     0.168 HD
HETATM    9  C6  UNL     1      -3.310  -0.525  -1.004  1.00  0.00     0.119 A 
HETATM   10  C13 UNL     1      -2.337  -1.499  -1.309  1.00  0.00     0.038 A 
HETATM   11  C14 UNL     1      -0.938  -1.319  -1.178  1.00  0.00     0.057 A 
HETATM   12  C15 UNL     1      -0.055  -2.352  -1.491  1.00  0.00     0.103 A 
ENDROOT
BRANCH   9  13
HETATM   13  N3  UNL     1      -2.883   0.760  -0.572  1.00  0.00    -0.342 N 
HETATM   14  H6  UNL     1      -2.234   1.135  -1.258  1.00  0.00     0.167 HD
BRANCH  13  15
HETATM   15  C7  UNL     1      -3.647   1.778   0.041  1.00  0.00     0.035 A 
HETATM   16  C8  UNL     1      -3.211   3.109  -0.058  1.00  0.00     0.031 A 
HETATM   17  C9  UNL     1      -3.898   4.143   0.585  1.00  0.00     0.028 A 
HETATM   18  C10 UNL     1      -5.022   3.861   1.362  1.00  0.00     0.055 A 
HETATM   19 CL1  UNL     1      -5.820   5.183   2.133  1.00  0.00    -0.083 Cl
HETATM   20  C11 UNL     1      -5.449   2.537   1.501  1.00  0.00     0.058 A 
HETATM   21 CL2  UNL     1      -6.811   2.102   2.474  1.00  0.00    -0.082 Cl
HETATM   22  C12 UNL     1      -4.756   1.507   0.852  1.00  0.00     0.055 A 
ENDBRANCH  13  15
ENDBRANCH   9  13
BRANCH  12  23
HETATM   23  O2  UNL     1       1.302  -2.179  -1.410  1.00  0.00    -0.348 OA
BRANCH  23  24
HETATM   24  C16 UNL     1       1.765  -1.743  -0.125  1.00  0.00     0.177 C 
BRANCH  24  25
HETATM   25  C17 UNL     1       2.434  -0.379  -0.274  1.00  0.00     0.057 C 
BRANCH  25  26
HETATM   26  C18 UNL     1       2.970   0.123   1.070  1.00  0.00     0.274 C 
BRANCH  26  27
HETATM   27  N4  UNL     1       3.522   1.479   0.960  1.00  0.00     0.092 N 
HETATM   28  C19 UNL     1       4.832   1.528   0.271  1.00  0.00     0.298 C 
HETATM   29  C20 UNL     1       6.022   1.766   1.217  1.00  0.00     0.198 C 
HETATM   30  O3  UNL     1       5.910   2.989   1.955  1.00  0.00    -0.388 OA
HETATM   31  C21 UNL     1       4.554   3.334   2.269  1.00  0.00     0.198 C 
HETATM   32  C22 UNL     1       3.612   2.120   2.291  1.00  0.00     0.298 C 
ENDBRANCH  26  27
ENDBRANCH  25  26
ENDBRANCH  24  25
ENDBRANCH  23  24
ENDBRANCH  12  23
BRANCH   1  33
HETATM   33  O1  UNL     1       0.389  -4.520  -2.284  1.00  0.00    -0.353 OA
HETATM   34  C1  UNL     1      -0.063  -5.682  -2.968  1.00  0.00     0.210 C 
ENDBRANCH   1  33
TORSDOF 8
