REMARK  3 active torsions:
REMARK  status: ('A' for Active; 'I' for Inactive)
REMARK    1  A    between atoms: C2_2  and  N1_3 
REMARK    2  A    between atoms: N1_3  and  C3_4 
REMARK    3  A    between atoms: C7_10  and  C8_11 
ROOT
HETATM    1  C3  UNL     1       3.009  -0.184   0.322  1.00  0.00     0.158 A 
HETATM    2  N2  UNL     1       2.548   0.187   1.523  1.00  0.00    -0.342 N 
ATOM      3  H2  UNL     1       3.179   0.357   2.306  1.00  0.00     0.167 HD
HETATM    4  C4  UNL     1       1.216   0.326   1.651  1.00  0.00     0.106 A 
HETATM    5  C5  UNL     1       0.326   0.117   0.624  1.00  0.00     0.025 A 
HETATM    6  C6  UNL     1      -1.112   0.271   0.769  1.00  0.00     0.034 A 
HETATM    7  C7  UNL     1      -1.910   0.051  -0.287  1.00  0.00     0.047 A 
HETATM    8  C14 UNL     1      -1.333  -0.353  -1.615  1.00  0.00     0.260 A 
HETATM    9  O1  UNL     1      -2.091  -0.546  -2.565  1.00  0.00    -0.267 OA
HETATM   10  N3  UNL     1       0.044  -0.485  -1.690  1.00  0.00    -0.303 N 
HETATM   11  C15 UNL     1       0.667  -0.880  -2.941  1.00  0.00     0.161 C 
HETATM   12  C16 UNL     1       0.895  -0.253  -0.579  1.00  0.00     0.124 A 
HETATM   13  N4  UNL     1       2.227  -0.401  -0.740  1.00  0.00    -0.318 N 
ATOM     14  H4  UNL     1       2.623  -0.669  -1.641  1.00  0.00     0.170 HD
ENDROOT
BRANCH   7  15
HETATM   15  C8  UNL     1      -3.371   0.206  -0.147  1.00  0.00     0.023 A 
HETATM   16  C9  UNL     1      -4.182  -0.883   0.223  1.00  0.00     0.046 A 
HETATM   17 CL1  UNL     1      -3.516  -2.444   0.565  1.00  0.00    -0.083 Cl
HETATM   18  C10 UNL     1      -5.569  -0.737   0.340  1.00  0.00     0.025 A 
HETATM   19  C11 UNL     1      -6.169   0.495   0.088  1.00  0.00     0.003 A 
HETATM   20  C12 UNL     1      -5.381   1.584  -0.279  1.00  0.00     0.025 A 
HETATM   21  C13 UNL     1      -3.994   1.443  -0.397  1.00  0.00     0.046 A 
HETATM   22 CL2  UNL     1      -3.088   2.849  -0.847  1.00  0.00    -0.083 Cl
ENDBRANCH   7  15
BRANCH   1  23
HETATM   23  N1  UNL     1       4.366  -0.365   0.108  1.00  0.00    -0.264 NA
HETATM   24  H6  UNL     1       4.497  -0.337  -0.897  1.00  0.00     0.130 HD
BRANCH  23  25
HETATM   25  C2  UNL     1       5.260   0.483   0.875  1.00  0.00     0.091 C 
HETATM   26  C1  UNL     1       5.688  -0.203   2.163  1.00  0.00     0.021 C 
ENDBRANCH  23  25
ENDBRANCH   1  23
TORSDOF 3
