REMARK  8 active torsions:
REMARK  status: ('A' for Active; 'I' for Inactive)
REMARK    1  A    between atoms: O1_2  and  C2_3 
REMARK    2  A    between atoms: C6_7  and  C7_8 
REMARK    3  A    between atoms: N1_10  and  C9_11 
REMARK    4  A    between atoms: C11_13  and  C12_14 
REMARK       I    between atoms: C12_14  and  N2_16 
REMARK    5  A    between atoms: N2_16  and  C13_17 
REMARK    6  A    between atoms: C13_17  and  C14_18 
REMARK    7  A    between atoms: C14_18  and  O3_19 
REMARK    8  A    between atoms: C18_27  and  N5_28 
ROOT
HETATM    1  C7  UNL     1      -1.757   0.650   0.243  1.00  0.00     0.007 A 
HETATM    2  C8  UNL     1      -0.652   0.139   0.901  1.00  0.00     0.106 A 
HETATM    3  N1  UNL     1       0.178   1.189   1.187  1.00  0.00    -0.337 N 
HETATM    4  C16 UNL     1      -0.371   2.365   0.738  1.00  0.00     0.123 A 
HETATM    5  N3  UNL     1       0.185   3.585   0.852  1.00  0.00    -0.338 N 
ATOM      6  H3  UNL     1       1.088   3.764   1.291  1.00  0.00     0.168 HD
HETATM    7  C17 UNL     1      -0.595   4.536   0.317  1.00  0.00     0.183 A 
HETATM    8  N4  UNL     1      -1.794   4.390  -0.278  1.00  0.00    -0.338 N 
ATOM      9  H4  UNL     1      -2.290   5.196  -0.658  1.00  0.00     0.168 HD
HETATM   10  C18 UNL     1      -2.324   3.153  -0.360  1.00  0.00     0.114 A 
HETATM   11  C19 UNL     1      -1.593   2.066   0.148  1.00  0.00     0.064 A 
ENDROOT
BRANCH   3  12
HETATM   12  C9  UNL     1       1.485   1.141   1.895  1.00  0.00     0.092 C 
HETATM   13  C10 UNL     1       2.017  -0.250   2.304  1.00  0.00     0.039 C 
HETATM   14  C11 UNL     1       2.788  -0.315   0.958  1.00  0.00     0.081 C 
HETATM   15  C15 UNL     1       2.678   1.232   0.912  1.00  0.00     0.039 C 
BRANCH  14  16
HETATM   16  C12 UNL     1       4.221  -0.919   0.982  1.00  0.00     0.222 C 
HETATM   17  O2  UNL     1       5.041  -0.741   1.885  1.00  0.00    -0.273 OA
HETATM   18  N2  UNL     1       4.523  -1.682  -0.128  1.00  0.00    -0.359 N 
HETATM   19  H12 UNL     1       3.918  -1.616  -0.937  1.00  0.00     0.162 HD
BRANCH  18  20
HETATM   20  C13 UNL     1       5.871  -2.165  -0.371  1.00  0.00     0.148 C 
BRANCH  20  21
HETATM   21  C14 UNL     1       6.756  -1.079  -0.984  1.00  0.00     0.183 C 
BRANCH  21  22
HETATM   22  O3  UNL     1       6.245  -0.717  -2.268  1.00  0.00    -0.399 OA
HETATM   23  H17 UNL     1       6.805   0.010  -2.593  1.00  0.00     0.209 HD
ENDBRANCH  21  22
ENDBRANCH  20  21
ENDBRANCH  18  20
ENDBRANCH  14  16
ENDBRANCH   3  12
BRANCH   1  24
HETATM   24  C6  UNL     1      -2.824  -0.198  -0.242  1.00  0.00    -0.021 A 
HETATM   25  C5  UNL     1      -2.937  -0.464  -1.610  1.00  0.00     0.012 A 
HETATM   26  C4  UNL     1      -3.970  -1.277  -2.077  1.00  0.00     0.004 A 
HETATM   27  C3  UNL     1      -4.891  -1.827  -1.181  1.00  0.00     0.037 A 
HETATM   28  C2  UNL     1      -4.784  -1.567   0.187  1.00  0.00     0.069 A 
HETATM   29  C20 UNL     1      -3.747  -0.752   0.651  1.00  0.00     0.049 A 
BRANCH  28  30
HETATM   30  O1  UNL     1      -5.616  -2.042   1.163  1.00  0.00    -0.356 OA
HETATM   31  C1  UNL     1      -6.700  -2.862   0.744  1.00  0.00     0.210 C 
ENDBRANCH  28  30
ENDBRANCH   1  24
BRANCH  10  32
HETATM   32  N5  UNL     1      -3.571   3.046  -0.948  1.00  0.00    -0.385 N 
HETATM   33  H21 UNL     1      -3.844   2.138  -1.295  1.00  0.00     0.157 HD
HETATM   34  H22 UNL     1      -3.819   3.862  -1.491  1.00  0.00     0.157 HD
ENDBRANCH  10  32
TORSDOF 8
