REMARK  6 active torsions:
REMARK  status: ('A' for Active; 'I' for Inactive)
REMARK    1  A    between atoms: C3_5  and  C4_6 
REMARK    2  A    between atoms: C13_19  and  N3_20 
REMARK    3  A    between atoms: N3_20  and  C14_21 
REMARK    4  A    between atoms: C17_24  and  C18_25 
REMARK    5  A    between atoms: C18_25  and  C19_26 
REMARK    6  A    between atoms: C19_26  and  O3_28 
ROOT
HETATM    1  C1  UNL     1      -2.394   1.958  -2.346  1.00  0.00     0.161 C 
HETATM    2  N1  UNL     1      -2.619   1.111  -1.188  1.00  0.00    -0.303 N 
HETATM    3  C2  UNL     1      -3.900   0.955  -0.684  1.00  0.00     0.260 A 
HETATM    4  O1  UNL     1      -4.893   1.500  -1.165  1.00  0.00    -0.267 OA
HETATM    5  C3  UNL     1      -4.060   0.065   0.516  1.00  0.00     0.047 A 
HETATM    6  C10 UNL     1      -2.997  -0.546   1.063  1.00  0.00     0.034 A 
HETATM    7  C11 UNL     1      -1.679  -0.341   0.486  1.00  0.00     0.026 A 
HETATM    8  C12 UNL     1      -0.539  -0.926   0.980  1.00  0.00     0.121 A 
HETATM    9  N2  UNL     1       0.685  -0.741   0.450  1.00  0.00    -0.201 N 
ATOM     10  H2  UNL     1       1.507  -1.196   0.847  1.00  0.00     0.183 HD
HETATM   11  C13 UNL     1       0.782   0.062  -0.617  1.00  0.00     0.684 A 
HETATM   12  N4  UNL     1      -0.277   0.675  -1.170  1.00  0.00    -0.175 N 
ATOM     13  H4  UNL     1      -0.168   1.279  -1.985  1.00  0.00     0.186 HD
HETATM   14  C22 UNL     1      -1.491   0.469  -0.616  1.00  0.00     0.137 A 
ENDROOT
BRANCH  11  15
HETATM   15  N3  UNL     1       1.997   0.318  -1.243  1.00  0.00    -0.192 N 
HETATM   16  H9  UNL     1       1.844   0.952  -2.014  1.00  0.00     0.184 HD
BRANCH  15  17
HETATM   17  C14 UNL     1       3.322  -0.056  -0.993  1.00  0.00     0.049 A 
HETATM   18  C15 UNL     1       3.718  -0.859   0.080  1.00  0.00     0.030 A 
HETATM   19  C16 UNL     1       5.062  -1.210   0.270  1.00  0.00     0.010 A 
HETATM   20  C17 UNL     1       6.046  -0.772  -0.621  1.00  0.00    -0.048 A 
HETATM   21  C20 UNL     1       5.663   0.032  -1.697  1.00  0.00     0.010 A 
HETATM   22  C21 UNL     1       4.320   0.380  -1.878  1.00  0.00     0.030 A 
BRANCH  20  23
HETATM   23  C18 UNL     1       7.494  -1.144  -0.413  1.00  0.00     0.148 C 
BRANCH  23  24
HETATM   24  C19 UNL     1       8.304  -0.090   0.301  1.00  0.00     0.143 C 
HETATM   25  O2  UNL     1       7.977   1.044   0.605  1.00  0.00    -0.650 OA
BRANCH  24  26
HETATM   26  O3  UNL     1       9.550  -0.528   0.588  1.00  0.00    -0.776 OA
HETATM   27  H14 UNL     1       9.965   0.239   1.037  1.00  0.00     0.167 HD
ENDBRANCH  24  26
ENDBRANCH  23  24
ENDBRANCH  20  23
ENDBRANCH  15  17
ENDBRANCH  11  15
BRANCH   5  28
HETATM   28  C4  UNL     1      -5.402  -0.139   1.097  1.00  0.00     0.023 A 
HETATM   29  C5  UNL     1      -5.892   0.717   2.101  1.00  0.00     0.046 A 
HETATM   30 CL1  UNL     1      -4.946   2.024   2.730  1.00  0.00    -0.083 Cl
HETATM   31  C6  UNL     1      -7.170   0.532   2.639  1.00  0.00     0.025 A 
HETATM   32  C7  UNL     1      -7.980  -0.507   2.184  1.00  0.00     0.003 A 
HETATM   33  C8  UNL     1      -7.511  -1.363   1.190  1.00  0.00     0.025 A 
HETATM   34  C9  UNL     1      -6.233  -1.182   0.649  1.00  0.00     0.046 A 
HETATM   35 CL2  UNL     1      -5.722  -2.297  -0.574  1.00  0.00    -0.083 Cl
ENDBRANCH   5  28
TORSDOF 6
