REMARK  6 active torsions:
REMARK  status: ('A' for Active; 'I' for Inactive)
REMARK    1  A    between atoms: C2_2  and  C3_3 
REMARK       I    between atoms: C3_3  and  N1_5 
REMARK    2  A    between atoms: C6_8  and  N2_9 
REMARK    3  A    between atoms: C7_12  and  C8_13 
REMARK    4  A    between atoms: C11_16  and  O2_17 
REMARK    5  A    between atoms: O2_17  and  C12_18 
REMARK    6  A    between atoms: C21_27  and  N4_28 
ROOT
HETATM    1  N2  UNL     1      -1.732   0.133   0.014  1.00  0.00    -0.270 N 
HETATM    2  N3  UNL     1      -0.677   0.434  -0.773  1.00  0.00    -0.295 N 
ATOM      3  H3  UNL     1      -0.688   0.750  -1.743  1.00  0.00     0.187 HD
HETATM    4  C7  UNL     1       0.391   0.221   0.014  1.00  0.00     0.076 A 
HETATM    5  C20 UNL     1       0.006  -0.167   1.329  1.00  0.00     0.082 A 
HETATM    6  C21 UNL     1       0.612  -0.480   2.550  1.00  0.00     0.116 A 
HETATM    7  N5  UNL     1      -0.175  -0.801   3.598  1.00  0.00    -0.338 N 
ATOM      8  H5  UNL     1       0.233  -1.028   4.505  1.00  0.00     0.168 HD
HETATM    9  C22 UNL     1      -1.510  -0.816   3.421  1.00  0.00     0.183 A 
HETATM   10  N6  UNL     1      -2.200  -0.529   2.304  1.00  0.00    -0.337 N 
ATOM     11  H6  UNL     1      -3.217  -0.550   2.235  1.00  0.00     0.168 HD
HETATM   12  C23 UNL     1      -1.377  -0.210   1.290  1.00  0.00     0.140 A 
ENDROOT
BRANCH   4  13
HETATM   13  C8  UNL     1       1.740   0.404  -0.505  1.00  0.00    -0.007 A 
HETATM   14  C9  UNL     1       2.642  -0.673  -0.529  1.00  0.00     0.016 A 
HETATM   15  C10 UNL     1       3.937  -0.492  -1.020  1.00  0.00     0.038 A 
HETATM   16  C11 UNL     1       4.341   0.768  -1.468  1.00  0.00     0.076 A 
HETATM   17  C18 UNL     1       3.439   1.836  -1.472  1.00  0.00     0.038 A 
HETATM   18  C19 UNL     1       2.141   1.653  -0.991  1.00  0.00     0.016 A 
BRANCH  16  19
HETATM   19  O2  UNL     1       5.591   1.013  -1.989  1.00  0.00    -0.311 OA
BRANCH  19  20
HETATM   20  C12 UNL     1       6.681   0.508  -1.315  1.00  0.00     0.076 A 
HETATM   21  C13 UNL     1       6.821   0.582   0.077  1.00  0.00     0.037 A 
HETATM   22  C14 UNL     1       7.971   0.073   0.685  1.00  0.00     0.003 A 
HETATM   23  C15 UNL     1       8.985  -0.484  -0.096  1.00  0.00     0.000 A 
HETATM   24  C16 UNL     1       8.856  -0.529  -1.484  1.00  0.00     0.003 A 
HETATM   25  C17 UNL     1       7.706  -0.029  -2.096  1.00  0.00     0.037 A 
ENDBRANCH  19  20
ENDBRANCH  16  19
ENDBRANCH   4  13
BRANCH   1  26
HETATM   26  C6  UNL     1      -3.077   0.170  -0.551  1.00  0.00     0.113 C 
HETATM   27  C5  UNL     1      -4.007   1.159   0.183  1.00  0.00     0.047 C 
HETATM   28  C4  UNL     1      -5.283   0.487   0.678  1.00  0.00     0.128 C 
HETATM   29  N1  UNL     1      -5.929  -0.242  -0.417  1.00  0.00    -0.349 N 
HETATM   30  C3  UNL     1      -7.262  -0.165  -0.778  1.00  0.00     0.242 C 
HETATM   31  C25 UNL     1      -5.104  -1.194  -1.154  1.00  0.00     0.128 C 
HETATM   32  O1  UNL     1      -7.781  -0.880  -1.632  1.00  0.00    -0.268 OA
HETATM   33  C24 UNL     1      -3.663  -1.244  -0.668  1.00  0.00     0.047 C 
BRANCH  30  34
HETATM   34  C2  UNL     1      -8.109   0.825  -0.079  1.00  0.00     0.064 C 
HETATM   35  C1  UNL     1      -8.021   2.127  -0.384  1.00  0.00     0.017 C 
ENDBRANCH  30  34
ENDBRANCH   1  26
BRANCH   6  36
HETATM   36  N4  UNL     1       1.979  -0.473   2.780  1.00  0.00    -0.385 N 
HETATM   37  H18 UNL     1       2.188  -0.446   3.770  1.00  0.00     0.157 HD
HETATM   38  H19 UNL     1       2.530   0.129   2.182  1.00  0.00     0.157 HD
ENDBRANCH   6  36
TORSDOF 6
