REMARK  7 active torsions:
REMARK  status: ('A' for Active; 'I' for Inactive)
REMARK    1  A    between atoms: N2_5  and  C4_6 
REMARK    2  A    between atoms: C7_9  and  N3_10 
REMARK    3  A    between atoms: N3_10  and  C8_11 
REMARK    4  A    between atoms: C12_17  and  C13_18 
REMARK    5  A    between atoms: C13_18  and  N5_19 
REMARK    6  A    between atoms: N5_19  and  C14_20 
REMARK    7  A    between atoms: N6_26  and  C20_27 
ROOT
HETATM    1  C8  UNL     1       0.286   0.007   0.871  1.00  0.00     0.684 A 
HETATM    2  N4  UNL     1       0.328  -1.340   0.867  1.00  0.00    -0.201 N 
ATOM      3  H4  UNL     1      -0.536  -1.880   0.815  1.00  0.00     0.183 HD
HETATM    4  C9  UNL     1       1.521  -1.970   0.932  1.00  0.00     0.121 A 
HETATM    5  C10 UNL     1       2.688  -1.224   0.994  1.00  0.00     0.027 A 
HETATM    6  C11 UNL     1       4.074  -1.488   1.062  1.00  0.00     0.043 A 
HETATM    7  C12 UNL     1       4.746  -0.276   1.087  1.00  0.00     0.028 A 
HETATM    8  N6  UNL     1       3.787   0.726   1.028  1.00  0.00    -0.330 N 
HETATM    9  C25 UNL     1       2.533   0.149   0.990  1.00  0.00     0.135 A 
HETATM   10  N7  UNL     1       1.363   0.808   0.944  1.00  0.00    -0.175 N 
ATOM     11  H7  UNL     1       1.298   1.826   0.963  1.00  0.00     0.186 HD
ENDROOT
BRANCH   1  12
HETATM   12  N3  UNL     1      -0.928   0.691   0.808  1.00  0.00    -0.192 N 
HETATM   13  H10 UNL     1      -0.737   1.682   0.819  1.00  0.00     0.184 HD
BRANCH  12  14
HETATM   14  C7  UNL     1      -2.236   0.310   0.496  1.00  0.00     0.049 A 
HETATM   15  C6  UNL     1      -2.616  -0.988   0.167  1.00  0.00     0.032 A 
HETATM   16  C5  UNL     1      -3.954  -1.308  -0.118  1.00  0.00     0.031 A 
HETATM   17  C4  UNL     1      -4.978  -0.353  -0.078  1.00  0.00     0.030 A 
HETATM   18  C27 UNL     1      -4.589   0.942   0.287  1.00  0.00     0.031 A 
HETATM   19  C26 UNL     1      -3.252   1.267   0.571  1.00  0.00     0.032 A 
BRANCH  17  20
HETATM   20  N2  UNL     1      -6.296  -0.667  -0.362  1.00  0.00    -0.378 N 
HETATM   21  C3  UNL     1      -7.238   0.362  -0.839  1.00  0.00     0.153 C 
HETATM   22  C2  UNL     1      -8.281  -0.234  -1.815  1.00  0.00     0.291 C 
HETATM   23  N1  UNL     1      -9.052  -1.391  -1.313  1.00  0.00     0.087 N 
HETATM   24  C1  UNL     1     -10.355  -0.988  -0.791  1.00  0.00     0.310 C 
HETATM   25  C29 UNL     1      -8.292  -2.136  -0.285  1.00  0.00     0.291 C 
HETATM   26  C28 UNL     1      -6.757  -2.062  -0.451  1.00  0.00     0.153 C 
ENDBRANCH  17  20
ENDBRANCH  12  14
ENDBRANCH   1  12
BRANCH   8  27
HETATM   27  C20 UNL     1       4.034   2.160   1.002  1.00  0.00     0.091 C 
HETATM   28  C21 UNL     1       3.392   2.914  -0.180  1.00  0.00     0.026 C 
HETATM   29  C22 UNL     1       2.517   3.995   0.447  1.00  0.00     0.002 C 
HETATM   30  C23 UNL     1       3.172   4.271   1.789  1.00  0.00     0.002 C 
HETATM   31  C24 UNL     1       3.571   2.886   2.274  1.00  0.00     0.026 C 
ENDBRANCH   8  27
BRANCH   7  32
HETATM   32  C13 UNL     1       6.224  -0.041   1.139  1.00  0.00     0.149 C 
BRANCH  32  33
HETATM   33  N5  UNL     1       6.827   0.189  -0.170  1.00  0.00    -0.287 NA
HETATM   34  H15 UNL     1       6.371   0.959  -0.649  1.00  0.00     0.128 HD
BRANCH  33  35
HETATM   35  C14 UNL     1       7.018  -0.885  -1.051  1.00  0.00     0.008 A 
HETATM   36  C15 UNL     1       7.308  -2.190  -0.636  1.00  0.00     0.023 A 
HETATM   37  C16 UNL     1       7.550  -3.210  -1.564  1.00  0.00     0.002 A 
HETATM   38  C17 UNL     1       7.537  -2.935  -2.927  1.00  0.00     0.000 A 
HETATM   39  C18 UNL     1       7.298  -1.636  -3.361  1.00  0.00     0.002 A 
HETATM   40  C19 UNL     1       7.058  -0.621  -2.429  1.00  0.00     0.023 A 
ENDBRANCH  33  35
ENDBRANCH  32  33
ENDBRANCH   7  32
TORSDOF 7
