REMARK  10 active torsions:
REMARK  status: ('A' for Active; 'I' for Inactive)
REMARK    1  A    between atoms: C7_7  and  N1_8 
REMARK    2  A    between atoms: N1_8  and  C8_9 
REMARK    3  A    between atoms: C14_18  and  O1_19 
REMARK    4  A    between atoms: O1_19  and  C15_20 
REMARK    5  A    between atoms: C15_20  and  C16_21 
REMARK    6  A    between atoms: C16_21  and  O2_22 
REMARK    7  A    between atoms: C18_24  and  O3_25 
REMARK    8  A    between atoms: O3_25  and  C19_26 
REMARK    9  A    between atoms: C19_26  and  C20_27 
REMARK   10  A    between atoms: C20_27  and  O4_28 
ROOT
HETATM    1  C1  UNL     1       6.240   3.576  -2.042  1.00  0.00     0.018 C 
HETATM    2  C2  UNL     1       5.614   2.753  -1.432  1.00  0.00    -0.078 C 
HETATM    3  C3  UNL     1       4.868   1.772  -0.705  1.00  0.00     0.019 A 
HETATM    4  C4  UNL     1       4.850   1.801   0.688  1.00  0.00     0.021 A 
HETATM    5  C5  UNL     1       4.111   0.852   1.391  1.00  0.00     0.004 A 
HETATM    6  C6  UNL     1       3.394  -0.129   0.701  1.00  0.00     0.029 A 
HETATM    7  C7  UNL     1       3.419  -0.188  -0.699  1.00  0.00     0.034 A 
HETATM    8  C24 UNL     1       4.152   0.787  -1.393  1.00  0.00     0.050 A 
ENDROOT
BRANCH   7   9
HETATM    9  N1  UNL     1       2.656  -1.120  -1.451  1.00  0.00    -0.354 N 
HETATM   10  H5  UNL     1       3.178  -1.397  -2.283  1.00  0.00     0.166 HD
BRANCH   9  11
HETATM   11  C8  UNL     1       1.842  -2.168  -0.927  1.00  0.00     0.067 A 
HETATM   12  C9  UNL     1       2.281  -3.499  -0.966  1.00  0.00     0.087 A 
HETATM   13  C10 UNL     1       3.504  -3.889  -1.592  1.00  0.00     0.103 C 
HETATM   14  C11 UNL     1       1.497  -4.465  -0.364  1.00  0.00     0.113 A 
HETATM   15  N2  UNL     1       4.490  -4.192  -2.123  1.00  0.00    -0.191 NA
HETATM   16  N3  UNL     1       0.331  -4.205   0.268  1.00  0.00    -0.364 N 
HETATM   17  C12 UNL     1      -0.103  -2.936   0.313  1.00  0.00     0.047 A 
ATOM     18  H3  UNL     1      -0.207  -4.956   0.701  1.00  0.00     0.165 HD
HETATM   19  C13 UNL     1      -1.303  -2.669   0.954  1.00  0.00     0.070 A 
HETATM   20  C23 UNL     1       0.612  -1.868  -0.271  1.00  0.00     0.022 A 
HETATM   21  C14 UNL     1      -1.833  -1.378   1.030  1.00  0.00     0.104 A 
HETATM   22  C18 UNL     1      -1.124  -0.306   0.489  1.00  0.00     0.103 A 
HETATM   23  C22 UNL     1       0.069  -0.563  -0.189  1.00  0.00     0.055 A 
BRANCH  21  24
HETATM   24  O1  UNL     1      -3.012  -1.277   1.721  1.00  0.00    -0.346 OA
BRANCH  24  25
HETATM   25  C15 UNL     1      -4.011  -0.468   1.082  1.00  0.00     0.201 C 
BRANCH  25  26
HETATM   26  C16 UNL     1      -5.394  -1.018   1.446  1.00  0.00     0.193 C 
BRANCH  26  27
HETATM   27  O2  UNL     1      -5.646  -2.315   0.893  1.00  0.00    -0.394 OA
HETATM   28  C17 UNL     1      -5.980  -2.285  -0.487  1.00  0.00     0.201 C 
ENDBRANCH  26  27
ENDBRANCH  25  26
ENDBRANCH  24  25
ENDBRANCH  21  24
BRANCH  22  29
HETATM   29  O3  UNL     1      -1.635   0.955   0.616  1.00  0.00    -0.346 OA
BRANCH  29  30
HETATM   30  C19 UNL     1      -0.669   1.974   0.911  1.00  0.00     0.201 C 
BRANCH  30  31
HETATM   31  C20 UNL     1      -1.393   3.161   1.552  1.00  0.00     0.193 C 
BRANCH  31  32
HETATM   32  O4  UNL     1      -2.287   3.817   0.646  1.00  0.00    -0.394 OA
HETATM   33  C21 UNL     1      -1.633   4.731  -0.223  1.00  0.00     0.201 C 
ENDBRANCH  31  32
ENDBRANCH  30  31
ENDBRANCH  29  30
ENDBRANCH  22  29
ENDBRANCH   9  11
ENDBRANCH   7   9
TORSDOF 10
