REMARK  4 active torsions:
REMARK  status: ('A' for Active; 'I' for Inactive)
REMARK    1  A    between atoms: O1_2  and  C2_3 
REMARK    2  A    between atoms: C3_4  and  N1_5 
REMARK       I    between atoms: N1_5  and  C5_7 
REMARK    3  A    between atoms: C8_11  and  N3_32 
REMARK    4  A    between atoms: C9_13  and  N2_15 
ROOT
HETATM    1  C2  UNL     1       1.963  -0.586   0.036  1.00  0.00     0.199 C 
HETATM    2  C3  UNL     1       2.826   0.671   0.301  1.00  0.00     0.124 C 
HETATM    3  C7  UNL     1       1.905   1.895   0.310  1.00  0.00     0.082 C 
HETATM    4  C8  UNL     1       0.704   1.683   1.238  1.00  0.00     0.233 C 
HETATM    5  O3  UNL     1       0.735   0.463   1.978  1.00  0.00    -0.333 OA
HETATM    6  C9  UNL     1       0.999  -0.770   1.260  1.00  0.00     0.168 C 
HETATM    7  C10 UNL     1       1.726  -1.566   2.370  1.00  0.00     0.074 C 
ENDROOT
BRANCH   2   8
HETATM    8  N1  UNL     1       3.988   0.782  -0.624  1.00  0.00    -0.349 N 
HETATM    9  C4  UNL     1       3.806   1.475  -1.899  1.00  0.00     0.153 C 
HETATM   10  C5  UNL     1       5.188   0.092  -0.442  1.00  0.00     0.215 C 
HETATM   11  C6  UNL     1       5.396  -0.609   0.879  1.00  0.00     0.117 C 
HETATM   12  O2  UNL     1       6.074   0.047  -1.295  1.00  0.00    -0.274 OA
ENDBRANCH   2   8
BRANCH   1  13
HETATM   13  O1  UNL     1       1.241  -0.343  -1.189  1.00  0.00    -0.384 OA
HETATM   14  C1  UNL     1       1.341  -1.410  -2.125  1.00  0.00     0.202 C 
ENDBRANCH   1  13
BRANCH   6  15
HETATM   15  N2  UNL     1      -0.289  -1.373   0.878  1.00  0.00    -0.308 N 
HETATM   16  C11 UNL     1      -0.609  -2.724   0.731  1.00  0.00     0.049 A 
HETATM   17  C12 UNL     1       0.145  -3.905   0.875  1.00  0.00     0.030 A 
HETATM   18  C16 UNL     1      -1.962  -2.792   0.344  1.00  0.00     0.004 A 
HETATM   19  C13 UNL     1      -0.477  -5.143   0.680  1.00  0.00     0.002 A 
HETATM   20  C14 UNL     1      -1.818  -5.222   0.334  1.00  0.00     0.001 A 
HETATM   21  C15 UNL     1      -2.564  -4.056   0.157  1.00  0.00     0.014 A 
HETATM   22  C17 UNL     1      -2.432  -1.462   0.172  1.00  0.00     0.015 A 
HETATM   23  C18 UNL     1      -3.618  -0.841  -0.251  1.00  0.00    -0.010 A 
HETATM   24  C28 UNL     1      -1.378  -0.632   0.491  1.00  0.00     0.077 A 
HETATM   25  C19 UNL     1      -3.725   0.579  -0.379  1.00  0.00     0.054 A 
HETATM   26  C30 UNL     1      -4.916  -1.471  -0.663  1.00  0.00     0.163 A 
HETATM   27  C20 UNL     1      -2.696   1.490  -0.095  1.00  0.00     0.022 A 
HETATM   28  C29 UNL     1      -5.083   0.867  -0.863  1.00  0.00     0.253 A 
HETATM   29  C21 UNL     1      -2.463   2.900  -0.126  1.00  0.00     0.004 A 
HETATM   30  C27 UNL     1      -1.519   0.914   0.354  1.00  0.00     0.077 A 
HETATM   31  C22 UNL     1      -3.238   4.022  -0.491  1.00  0.00     0.014 A 
HETATM   32  C26 UNL     1      -1.151   3.122   0.325  1.00  0.00     0.048 A 
HETATM   33  C23 UNL     1      -2.700   5.310  -0.401  1.00  0.00     0.001 A 
HETATM   34  C24 UNL     1      -1.400   5.502   0.049  1.00  0.00     0.002 A 
HETATM   35  C25 UNL     1      -0.605   4.415   0.420  1.00  0.00     0.030 A 
HETATM   36  N3  UNL     1      -0.605   1.883   0.627  1.00  0.00    -0.316 N 
HETATM   37  O4  UNL     1      -5.580   1.948  -1.100  1.00  0.00    -0.268 OA
HETATM   38  N4  UNL     1      -5.730  -0.340  -1.010  1.00  0.00    -0.353 N 
HETATM   39  H26 UNL     1      -6.687  -0.379  -1.335  1.00  0.00     0.163 HD
ENDBRANCH   6  15
TORSDOF 4
