REMARK  3 active torsions:
REMARK  status: ('A' for Active; 'I' for Inactive)
REMARK    1  A    between atoms: C3_5  and  C4_6 
REMARK    2  A    between atoms: C13_19  and  N3_20 
REMARK    3  A    between atoms: N3_20  and  C14_21 
ROOT
HETATM    1  C1  UNL     1      -0.448  -2.962   0.989  1.00  0.00     0.161 C 
HETATM    2  N1  UNL     1      -0.914  -1.656   0.555  1.00  0.00    -0.303 N 
HETATM    3  C2  UNL     1      -2.274  -1.401   0.472  1.00  0.00     0.260 A 
HETATM    4  O1  UNL     1      -3.141  -2.228   0.750  1.00  0.00    -0.267 OA
HETATM    5  C3  UNL     1      -2.686  -0.030   0.016  1.00  0.00     0.047 A 
HETATM    6  C10 UNL     1      -1.764   0.895  -0.295  1.00  0.00     0.034 A 
HETATM    7  C11 UNL     1      -0.354   0.564  -0.187  1.00  0.00     0.026 A 
HETATM    8  C12 UNL     1       0.655   1.449  -0.485  1.00  0.00     0.121 A 
HETATM    9  N2  UNL     1       1.963   1.147  -0.387  1.00  0.00    -0.201 N 
ATOM     10  H2  UNL     1       2.683   1.832  -0.617  1.00  0.00     0.183 HD
HETATM   11  C13 UNL     1       2.284  -0.086   0.024  1.00  0.00     0.684 A 
HETATM   12  N5  UNL     1       1.370  -1.017   0.336  1.00  0.00    -0.175 N 
ATOM     13  H5  UNL     1       1.651  -1.947   0.645  1.00  0.00     0.186 HD
HETATM   14  C19 UNL     1       0.066  -0.684   0.228  1.00  0.00     0.137 A 
ENDROOT
BRANCH  11  15
HETATM   15  N3  UNL     1       3.608  -0.491   0.156  1.00  0.00    -0.190 N 
HETATM   16  H9  UNL     1       3.636  -1.448   0.475  1.00  0.00     0.184 HD
BRANCH  15  17
HETATM   17  C14 UNL     1       4.830   0.149  -0.060  1.00  0.00     0.064 A 
HETATM   18  C15 UNL     1       6.018  -0.556   0.172  1.00  0.00     0.033 A 
HETATM   19  C16 UNL     1       7.259   0.047  -0.031  1.00  0.00     0.019 A 
HETATM   20  C17 UNL     1       7.286   1.358  -0.469  1.00  0.00     0.088 A 
HETATM   21  N4  UNL     1       6.176   2.083  -0.708  1.00  0.00    -0.373 N 
HETATM   22  C18 UNL     1       4.983   1.463  -0.499  1.00  0.00     0.117 A 
ATOM     23  H4  UNL     1       6.227   3.050  -1.030  1.00  0.00     0.164 HD
ENDBRANCH  15  17
ENDBRANCH  11  15
BRANCH   5  24
HETATM   24  C4  UNL     1      -4.121   0.300  -0.091  1.00  0.00     0.023 A 
HETATM   25  C5  UNL     1      -4.823   0.835   1.004  1.00  0.00     0.046 A 
HETATM   26 CL1  UNL     1      -4.045   1.165   2.516  1.00  0.00    -0.083 Cl
HETATM   27  C6  UNL     1      -6.187   1.133   0.906  1.00  0.00     0.025 A 
HETATM   28  C7  UNL     1      -6.871   0.900  -0.285  1.00  0.00     0.003 A 
HETATM   29  C8  UNL     1      -6.192   0.371  -1.380  1.00  0.00     0.025 A 
HETATM   30  C9  UNL     1      -4.828   0.071  -1.286  1.00  0.00     0.046 A 
HETATM   31 CL2  UNL     1      -4.057  -0.574  -2.696  1.00  0.00    -0.083 Cl
ENDBRANCH   5  24
TORSDOF 3
