MODEL 1
REMARK minimizedAffinity -8.84385967
REMARK  4 active torsions:
REMARK  status: ('A' for Active; 'I' for Inactive)
REMARK    1  A    between atoms: C4_4  and  C5_5 
REMARK    2  A    between atoms: C5_5  and  C6_6 
REMARK    3  A    between atoms: C9_11  and  N2_12 
REMARK    4  A    between atoms: N2_12  and  C10_13 
ROOT
HETATM    1  C6  UNL     1      15.915  35.525  15.485  1.00  0.00     0.086 A 
HETATM    2  N1  UNL     1      14.596  35.581  15.531  1.00  0.00    -0.344 N 
ATOM      3  H1  UNL     1      13.968  35.895  14.791  1.00  0.00     0.167 HD
HETATM    4  C7  UNL     1      14.248  35.130  16.781  1.00  0.00     0.062 A 
HETATM    5  C8  UNL     1      12.978  34.987  17.362  1.00  0.00     0.061 A 
HETATM    6  C9  UNL     1      12.858  34.506  18.681  1.00  0.00     0.035 A 
HETATM    7  C19 UNL     1      14.025  34.155  19.374  1.00  0.00     0.032 A 
HETATM    8  C20 UNL     1      15.307  34.289  18.814  1.00  0.00     0.034 A 
HETATM    9  C21 UNL     1      15.372  34.782  17.514  1.00  0.00     0.060 A 
HETATM   10  N7  UNL     1      16.420  35.039  16.671  1.00  0.00    -0.344 N 
HETATM   11  H15 UNL     1      17.400  34.915  16.883  1.00  0.00     0.167 HD
ENDROOT
BRANCH   6  12
HETATM   12  N2  UNL     1      11.564  34.356  19.217  1.00  0.00    -0.342 N 
HETATM   13  H7  UNL     1      11.407  33.454  19.641  1.00  0.00     0.167 HD
BRANCH  12  14
HETATM   14  C10 UNL     1      10.373  35.054  18.988  1.00  0.00     0.123 A 
HETATM   15  N3  UNL     1      10.008  35.502  17.749  1.00  0.00    -0.338 N 
HETATM   16  C11 UNL     1       8.798  36.110  17.560  1.00  0.00     0.183 A 
ATOM     17  H3  UNL     1      10.642  35.381  16.960  1.00  0.00     0.168 HD
HETATM   18  N4  UNL     1       7.811  36.376  18.445  1.00  0.00    -0.337 N 
HETATM   19  C12 UNL     1       8.152  35.961  19.685  1.00  0.00     0.137 A 
ATOM     20  H4  UNL     1       6.927  36.827  18.208  1.00  0.00     0.168 HD
HETATM   21  N5  UNL     1       7.397  36.081  20.772  1.00  0.00    -0.278 N 
HETATM   22  C18 UNL     1       9.392  35.328  19.959  1.00  0.00     0.082 A 
HETATM   23  N6  UNL     1       8.144  35.554  21.772  1.00  0.00    -0.265 N 
ATOM     24  H5  UNL     1       6.461  36.482  20.840  1.00  0.00     0.189 HD
HETATM   25  C13 UNL     1       7.762  35.447  23.112  1.00  0.00     0.116 A 
HETATM   26  C17 UNL     1       9.401  35.107  21.317  1.00  0.00     0.073 A 
HETATM   27  C14 UNL     1       8.601  34.926  24.019  1.00  0.00     0.019 A 
HETATM   28  C15 UNL     1       9.919  34.504  23.586  1.00  0.00     0.004 A 
HETATM   29  C16 UNL     1      10.305  34.594  22.299  1.00  0.00     0.032 A 
ENDBRANCH  12  14
ENDBRANCH   6  12
BRANCH   1  30
HETATM   30  C5  UNL     1      16.774  35.904  14.319  1.00  0.00     0.115 C 
BRANCH  30  31
HETATM   31  C4  UNL     1      17.338  34.726  13.555  1.00  0.00    -0.051 A 
HETATM   32  C3  UNL     1      18.657  34.302  13.771  1.00  0.00     0.007 A 
HETATM   33  C2  UNL     1      19.185  33.236  13.041  1.00  0.00     0.001 A 
HETATM   34  C1  UNL     1      18.401  32.587  12.089  1.00  0.00     0.000 A 
HETATM   35  C23 UNL     1      17.089  33.001  11.865  1.00  0.00     0.001 A 
HETATM   36  C22 UNL     1      16.559  34.067  12.594  1.00  0.00     0.007 A 
ENDBRANCH  30  31
ENDBRANCH   1  30
TORSDOF 4
ENDMDL
