MODEL 1
REMARK minimizedAffinity -6.17808723
REMARK CNNscore 0.393463135
REMARK CNNaffinity 6.49112749
REMARK  1 active torsions:
REMARK  status: ('A' for Active; 'I' for Inactive)
REMARK    1  A    between atoms: C2_2  and  C3_3 
REMARK       I    between atoms: C3_3  and  N1_5 
ROOT
HETATM    1  C3  UNL     1     -13.680 -10.624  29.966  1.00  0.00     0.247 C 
HETATM    2  O1  UNL     1     -13.234 -10.348  31.078  1.00  0.00    -0.268 OA
HETATM    3  N1  UNL     1     -13.941  -9.713  28.926  1.00  0.00    -0.315 N 
HETATM    4  C4  UNL     1     -14.323 -10.171  27.569  1.00  0.00     0.132 C 
HETATM    5  C5  UNL     1     -13.089 -10.626  26.775  1.00  0.00     0.020 C 
HETATM    6  C6  UNL     1     -13.397 -11.656  25.684  1.00  0.00     0.002 C 
HETATM    7  C7  UNL     1     -14.374 -11.214  24.592  1.00  0.00     0.000 C 
HETATM    8  C8  UNL     1     -13.915  -9.961  23.847  1.00  0.00     0.002 C 
HETATM    9  C9  UNL     1     -14.640  -9.718  22.516  1.00  0.00     0.020 C 
HETATM   10  C10 UNL     1     -16.170  -9.818  22.535  1.00  0.00     0.128 C 
HETATM   11  N2  UNL     1     -16.901  -8.906  23.397  1.00  0.00    -0.355 N 
HETATM   12  C11 UNL     1     -16.433  -7.733  23.919  1.00  0.00     0.106 A 
HETATM   13  C12 UNL     1     -17.413  -7.188  24.723  1.00  0.00     0.019 A 
HETATM   14  C13 UNL     1     -18.557  -8.032  24.633  1.00  0.00     0.005 A 
HETATM   15  C14 UNL     1     -19.847  -8.003  25.205  1.00  0.00     0.014 A 
HETATM   16  C15 UNL     1     -20.763  -9.015  24.900  1.00  0.00     0.001 A 
HETATM   17  C16 UNL     1     -20.410 -10.052  24.044  1.00  0.00     0.002 A 
HETATM   18  C17 UNL     1     -19.135 -10.114  23.474  1.00  0.00     0.030 A 
HETATM   19  C18 UNL     1     -18.218  -9.095  23.786  1.00  0.00     0.045 A 
HETATM   20  C19 UNL     1     -17.190  -5.978  25.486  1.00  0.00     0.063 A 
HETATM   21  C20 UNL     1     -17.968  -4.861  25.305  1.00  0.00     0.048 A 
HETATM   22  C21 UNL     1     -17.606  -3.781  26.065  1.00  0.00     0.108 A 
HETATM   23  N3  UNL     1     -16.579  -3.793  26.939  1.00  0.00    -0.202 N 
ATOM     24  H3  UNL     1     -16.333  -2.964  27.479  1.00  0.00     0.183 HD
HETATM   25  C22 UNL     1     -15.894  -4.940  27.069  1.00  0.00     0.683 A 
HETATM   26  N4  UNL     1     -16.160  -6.035  26.353  1.00  0.00    -0.191 N 
ATOM     27  H4  UNL     1     -15.604  -6.884  26.458  1.00  0.00     0.184 HD
HETATM   28  N5  UNL     1     -14.855  -4.929  27.992  1.00  0.00    -0.189 N 
HETATM   29  C23 UNL     1     -14.113  -5.949  28.607  1.00  0.00     0.089 A 
HETATM   30  C24 UNL     1     -14.375  -7.320  28.441  1.00  0.00     0.063 A 
HETATM   31  C25 UNL     1     -13.611  -8.316  29.081  1.00  0.00     0.039 A 
HETATM   32  C26 UNL     1     -12.536  -7.900  29.882  1.00  0.00     0.033 A 
HETATM   33  C27 UNL     1     -12.236  -6.547  30.040  1.00  0.00     0.047 A 
HETATM   34  C28 UNL     1     -13.019  -5.593  29.405  1.00  0.00     0.143 A 
HETATM   35  F1  UNL     1     -12.722  -4.295  29.576  1.00  0.00    -0.204 F 
HETATM   36  H25 UNL     1     -14.732  -4.003  28.378  1.00  0.00     0.184 HD
ENDROOT
BRANCH   1  37
HETATM   37  C2  UNL     1     -14.005 -12.055  29.696  1.00  0.00     0.064 C 
HETATM   38  C1  UNL     1     -13.037 -12.980  29.736  1.00  0.00     0.017 C 
ENDBRANCH   1  37
TORSDOF 1
ENDMDL
