MODEL 1
REMARK minimizedAffinity -6.38196707
REMARK CNNscore 0.370899349
REMARK CNNaffinity 6.08773851
REMARK  1 active torsions:
REMARK  status: ('A' for Active; 'I' for Inactive)
REMARK    1  A    between atoms: C2_2  and  C3_3 
REMARK       I    between atoms: C3_3  and  N1_5 
ROOT
HETATM    1  C3  UNL     1     -19.356  -4.985  25.287  1.00  0.00     0.247 C 
HETATM    2  O1  UNL     1     -19.771  -3.909  25.717  1.00  0.00    -0.268 OA
HETATM    3  N1  UNL     1     -18.065  -5.471  25.527  1.00  0.00    -0.315 N 
HETATM    4  C4  UNL     1     -17.092  -4.489  26.021  1.00  0.00     0.132 C 
HETATM    5  C5  UNL     1     -16.938  -4.519  27.545  1.00  0.00     0.020 C 
HETATM    6  C6  UNL     1     -16.145  -3.307  28.044  1.00  0.00     0.002 C 
HETATM    7  C7  UNL     1     -15.721  -3.426  29.512  1.00  0.00     0.000 C 
HETATM    8  C8  UNL     1     -14.546  -4.391  29.683  1.00  0.00     0.002 C 
HETATM    9  C9  UNL     1     -14.079  -4.503  31.137  1.00  0.00     0.020 C 
HETATM   10  C10 UNL     1     -12.788  -5.319  31.277  1.00  0.00     0.128 C 
HETATM   11  N2  UNL     1     -12.939  -6.716  30.905  1.00  0.00    -0.355 N 
HETATM   12  C11 UNL     1     -12.781  -7.184  29.626  1.00  0.00     0.106 A 
HETATM   13  C12 UNL     1     -13.088  -8.528  29.615  1.00  0.00     0.019 A 
HETATM   14  C13 UNL     1     -13.374  -8.908  30.962  1.00  0.00     0.005 A 
HETATM   15  C14 UNL     1     -13.743 -10.121  31.584  1.00  0.00     0.014 A 
HETATM   16  C15 UNL     1     -13.974 -10.154  32.962  1.00  0.00     0.001 A 
HETATM   17  C16 UNL     1     -13.855  -8.998  33.726  1.00  0.00     0.002 A 
HETATM   18  C17 UNL     1     -13.507  -7.779  33.137  1.00  0.00     0.030 A 
HETATM   19  C18 UNL     1     -13.269  -7.755  31.753  1.00  0.00     0.045 A 
HETATM   20  C19 UNL     1     -13.107  -9.303  28.390  1.00  0.00     0.048 A 
HETATM   21  C20 UNL     1     -12.372 -10.459  28.276  1.00  0.00     0.047 A 
HETATM   22  C21 UNL     1     -12.471 -11.093  27.064  1.00  0.00     0.093 A 
HETATM   23  N3  UNL     1     -13.239 -10.648  26.051  1.00  0.00    -0.342 N 
ATOM     24  H3  UNL     1     -13.292 -11.148  25.164  1.00  0.00     0.167 HD
HETATM   25  C22 UNL     1     -13.930  -9.516  26.262  1.00  0.00     0.162 A 
HETATM   26  N4  UNL     1     -13.880  -8.813  27.400  1.00  0.00    -0.332 N 
ATOM     27  H4  UNL     1     -14.403  -7.945  27.514  1.00  0.00     0.168 HD
HETATM   28  N5  UNL     1     -14.769  -9.109  25.206  1.00  0.00    -0.230 NA
HETATM   29  C23 UNL     1     -16.097  -8.685  25.448  1.00  0.00     0.017 A 
HETATM   30  C24 UNL     1     -17.083  -9.605  25.819  1.00  0.00     0.024 A 
HETATM   31  C25 UNL     1     -18.375  -9.172  26.093  1.00  0.00     0.004 A 
HETATM   32  C26 UNL     1     -18.693  -7.816  25.995  1.00  0.00     0.030 A 
HETATM   33  C27 UNL     1     -17.729  -6.868  25.615  1.00  0.00     0.039 A 
HETATM   34  C28 UNL     1     -16.423  -7.321  25.373  1.00  0.00     0.053 A 
HETATM   35  H25 UNL     1     -14.762  -9.938  24.618  1.00  0.00     0.136 HD
ENDROOT
BRANCH   1  36
HETATM   36  C2  UNL     1     -20.193  -5.779  24.336  1.00  0.00     0.064 C 
HETATM   37  C1  UNL     1     -21.058  -5.172  23.512  1.00  0.00     0.017 C 
ENDBRANCH   1  36
TORSDOF 1
ENDMDL
