MODEL 1
REMARK minimizedAffinity -7.73308754
REMARK CNNscore 0.790762007
REMARK CNNaffinity 6.18648291
REMARK  3 active torsions:
REMARK  status: ('A' for Active; 'I' for Inactive)
REMARK    1  A    between atoms: C4_5  and  C5_6 
REMARK    2  A    between atoms: N2_9  and  C6_10 
REMARK    3  A    between atoms: C12_16  and  C13_17 
ROOT
HETATM    1  C5  UNL     1      17.191  52.277   5.452  1.00  0.00     0.038 C 
HETATM    2  N1  UNL     1      16.697  51.104   5.705  1.00  0.00    -0.301 N 
ATOM      3  H1  UNL     1      15.715  50.834   5.644  1.00  0.00     0.187 HD
HETATM    4  N2  UNL     1      17.739  50.299   6.071  1.00  0.00    -0.283 N 
HETATM    5  C12 UNL     1      19.011  51.015   6.180  1.00  0.00     0.147 C 
HETATM    6  C23 UNL     1      18.688  52.377   5.560  1.00  0.00     0.091 C 
ENDROOT
BRANCH   5   7
HETATM    7  C13 UNL     1      19.500  51.178   7.612  1.00  0.00    -0.032 A 
HETATM    8  C14 UNL     1      20.147  50.144   8.303  1.00  0.00     0.010 A 
HETATM    9  C15 UNL     1      20.559  50.319   9.626  1.00  0.00     0.013 A 
HETATM   10  C16 UNL     1      20.328  51.529  10.296  1.00  0.00    -0.026 A 
HETATM   11  C17 UNL     1      20.738  51.718  11.626  1.00  0.00     0.012 A 
HETATM   12  C21 UNL     1      19.671  52.579   9.618  1.00  0.00    -0.025 A 
HETATM   13  C18 UNL     1      20.500  52.928  12.280  1.00  0.00     0.001 A 
HETATM   14  C19 UNL     1      19.851  53.962  11.613  1.00  0.00     0.001 A 
HETATM   15  C20 UNL     1      19.439  53.791  10.291  1.00  0.00     0.012 A 
HETATM   16  C22 UNL     1      19.263  52.388   8.286  1.00  0.00     0.021 A 
ENDBRANCH   5   7
BRANCH   4  17
HETATM   17  C6  UNL     1      17.566  48.920   6.200  1.00  0.00     0.051 A 
HETATM   18  C7  UNL     1      18.626  48.052   6.510  1.00  0.00     0.031 A 
HETATM   19  C8  UNL     1      18.433  46.671   6.638  1.00  0.00     0.002 A 
HETATM   20  C9  UNL     1      17.169  46.121   6.458  1.00  0.00     0.000 A 
HETATM   21  C10 UNL     1      16.099  46.955   6.153  1.00  0.00     0.002 A 
HETATM   22  C11 UNL     1      16.300  48.334   6.029  1.00  0.00     0.031 A 
ENDBRANCH   4  17
BRANCH   1  23
HETATM   23  C4  UNL     1      16.354  53.430   5.046  1.00  0.00    -0.010 A 
HETATM   24  C3  UNL     1      14.973  53.375   5.271  1.00  0.00     0.015 A 
HETATM   25  C2  UNL     1      14.154  54.446   4.902  1.00  0.00     0.026 A 
HETATM   26  C1  UNL     1      14.710  55.580   4.303  1.00  0.00     0.055 A 
HETATM   27 CL1  UNL     1      13.643  56.867   3.870  1.00  0.00    -0.083 Cl
HETATM   28  C25 UNL     1      16.090  55.637   4.075  1.00  0.00     0.056 A 
HETATM   29  C24 UNL     1      16.911  54.564   4.447  1.00  0.00     0.039 A 
HETATM   30 CL2  UNL     1      16.848  57.004   3.338  1.00  0.00    -0.083 Cl
ENDBRANCH   1  23
TORSDOF 3
ENDMDL
