MODEL 1
REMARK minimizedAffinity -10.0634918
REMARK  4 active torsions:
REMARK  status: ('A' for Active; 'I' for Inactive)
REMARK    1  A    between atoms: C2_2  and  C3_3 
REMARK       I    between atoms: C3_3  and  N1_5 
REMARK    2  A    between atoms: C13_17  and  C14_18 
REMARK    3  A    between atoms: C17_23  and  C18_24 
REMARK    4  A    between atoms: C22_28  and  O3_29 
ROOT
HETATM    1  C3  UNL     1       1.279   7.680   8.965  1.00  0.00     0.242 C 
HETATM    2  O1  UNL     1       1.252   8.806   8.470  1.00  0.00    -0.268 OA
HETATM    3  N1  UNL     1       0.617   7.360  10.152  1.00  0.00    -0.349 N 
HETATM    4  C4  UNL     1       0.158   8.494  10.957  1.00  0.00     0.127 C 
HETATM    5  C5  UNL     1      -1.074   8.177  11.798  1.00  0.00     0.037 C 
HETATM    6  C6  UNL     1      -0.929   6.875  12.610  1.00  0.00     0.022 C 
HETATM    7  C7  UNL     1      -0.537   5.741  11.646  1.00  0.00     0.037 C 
HETATM    8  C8  UNL     1       0.713   6.067  10.831  1.00  0.00     0.127 C 
HETATM    9  C9  UNL     1       0.149   7.019  13.742  1.00  0.00     0.139 C 
HETATM   10  N2  UNL     1      -0.297   7.793  14.895  1.00  0.00    -0.356 N 
HETATM   11  C10 UNL     1      -1.530   7.586  15.486  1.00  0.00     0.253 C 
HETATM   12  O2  UNL     1      -1.761   7.961  16.628  1.00  0.00    -0.268 OA
HETATM   13  C11 UNL     1      -2.500   6.913  14.636  1.00  0.00     0.057 A 
HETATM   14  C12 UNL     1      -3.820   6.482  14.902  1.00  0.00     0.051 A 
HETATM   15  C13 UNL     1      -4.347   5.921  13.745  1.00  0.00     0.060 A 
HETATM   16  N5  UNL     1      -3.355   6.001  12.787  1.00  0.00    -0.356 N 
HETATM   17  C25 UNL     1      -2.235   6.583  13.319  1.00  0.00     0.036 A 
HETATM   18  H14 UNL     1       0.390   8.146  15.550  1.00  0.00     0.162 HD
HETATM   19  H25 UNL     1      -3.441   5.663  11.839  1.00  0.00     0.166 HD
ENDROOT
BRANCH  15  20
HETATM   20  C14 UNL     1      -5.667   5.332  13.514  1.00  0.00     0.062 A 
HETATM   21  C15 UNL     1      -5.851   4.069  12.998  1.00  0.00     0.049 A 
HETATM   22  C16 UNL     1      -7.158   3.669  12.852  1.00  0.00     0.092 A 
HETATM   23  N3  UNL     1      -8.211   4.435  13.183  1.00  0.00    -0.352 N 
HETATM   24  C17 UNL     1      -7.937   5.662  13.671  1.00  0.00     0.116 A 
ATOM     25  H3  UNL     1      -9.170   4.106  13.071  1.00  0.00     0.166 HD
HETATM   26  N4  UNL     1      -6.691   6.139  13.850  1.00  0.00    -0.340 N 
ATOM     27  H4  UNL     1      -6.529   7.075  14.224  1.00  0.00     0.167 HD
BRANCH  24  28
HETATM   28  C18 UNL     1      -9.071   6.538  14.030  1.00  0.00     0.011 A 
HETATM   29  C19 UNL     1      -9.061   7.300  15.216  1.00  0.00     0.015 A 
HETATM   30  C20 UNL     1     -10.129   8.133  15.555  1.00  0.00     0.004 A 
HETATM   31  C21 UNL     1     -11.235   8.217  14.714  1.00  0.00     0.037 A 
HETATM   32  C22 UNL     1     -11.283   7.476  13.533  1.00  0.00     0.069 A 
HETATM   33  C24 UNL     1     -10.207   6.647  13.199  1.00  0.00     0.052 A 
BRANCH  32  34
HETATM   34  O3  UNL     1     -12.424   7.648  12.798  1.00  0.00    -0.356 OA
HETATM   35  C23 UNL     1     -13.622   7.092  13.330  1.00  0.00     0.210 C 
ENDBRANCH  32  34
ENDBRANCH  24  28
ENDBRANCH  15  20
BRANCH   1  36
HETATM   36  C2  UNL     1       2.049   6.600   8.286  1.00  0.00     0.064 C 
HETATM   37  C1  UNL     1       2.127   6.568   6.949  1.00  0.00     0.017 C 
ENDBRANCH   1  36
TORSDOF 4
ENDMDL
