MODEL 1
REMARK minimizedAffinity -10.239502
REMARK CNNscore 0.843884647
REMARK CNNaffinity 7.45089197
REMARK  4 active torsions:
REMARK  status: ('A' for Active; 'I' for Inactive)
REMARK    1  A    between atoms: O1_2  and  C2_3 
REMARK    2  A    between atoms: C6_7  and  N1_8 
REMARK    3  A    between atoms: N1_8  and  C7_9 
REMARK    4  A    between atoms: C11_15  and  C12_16 
ROOT
HETATM    1  C7  UNL     1       4.875  -5.002  29.181  1.00  0.00     0.684 A 
HETATM    2  N2  UNL     1       4.566  -3.929  29.923  1.00  0.00    -0.201 N 
ATOM      3  H2  UNL     1       3.665  -3.461  29.826  1.00  0.00     0.183 HD
HETATM    4  C8  UNL     1       5.489  -3.494  30.800  1.00  0.00     0.121 A 
HETATM    5  C9  UNL     1       6.717  -4.087  30.973  1.00  0.00     0.026 A 
HETATM    6  C10 UNL     1       7.709  -3.610  31.922  1.00  0.00     0.034 A 
HETATM    7  C11 UNL     1       8.884  -4.250  32.025  1.00  0.00     0.047 A 
HETATM    8  C18 UNL     1       9.183  -5.450  31.171  1.00  0.00     0.260 A 
HETATM    9  O2  UNL     1      10.269  -6.015  31.289  1.00  0.00    -0.267 OA
HETATM   10  N3  UNL     1       8.198  -5.855  30.285  1.00  0.00    -0.303 N 
HETATM   11  C19 UNL     1       8.422  -7.008  29.430  1.00  0.00     0.161 C 
HETATM   12  C20 UNL     1       6.954  -5.185  30.169  1.00  0.00     0.137 A 
HETATM   13  N4  UNL     1       6.048  -5.646  29.281  1.00  0.00    -0.175 N 
ATOM     14  H4  UNL     1       6.250  -6.461  28.701  1.00  0.00     0.186 HD
ENDROOT
BRANCH   1  15
HETATM   15  N1  UNL     1       3.993  -5.533  28.246  1.00  0.00    -0.192 N 
HETATM   16  H7  UNL     1       3.688  -4.797  27.625  1.00  0.00     0.184 HD
BRANCH  15  17
HETATM   17  C6  UNL     1       3.473  -6.810  28.008  1.00  0.00     0.051 A 
HETATM   18  C5  UNL     1       4.246  -7.910  27.629  1.00  0.00     0.030 A 
HETATM   19  C4  UNL     1       3.661  -9.161  27.406  1.00  0.00     0.005 A 
HETATM   20  C3  UNL     1       2.286  -9.336  27.560  1.00  0.00     0.037 A 
HETATM   21  C2  UNL     1       1.492  -8.257  27.936  1.00  0.00     0.070 A 
HETATM   22  C21 UNL     1       2.090  -7.010  28.156  1.00  0.00     0.066 A 
BRANCH  21  23
HETATM   23  O1  UNL     1       0.136  -8.282  28.124  1.00  0.00    -0.356 OA
HETATM   24  C1  UNL     1      -0.505  -9.545  28.004  1.00  0.00     0.210 C 
ENDBRANCH  21  23
ENDBRANCH  15  17
ENDBRANCH   1  15
BRANCH   7  25
HETATM   25  C12 UNL     1       9.896  -3.772  32.987  1.00  0.00     0.023 A 
HETATM   26  C13 UNL     1      10.936  -2.918  32.579  1.00  0.00     0.046 A 
HETATM   27 CL1  UNL     1      11.069  -2.355  30.946  1.00  0.00    -0.083 Cl
HETATM   28  C14 UNL     1      11.904  -2.479  33.489  1.00  0.00     0.025 A 
HETATM   29  C15 UNL     1      11.850  -2.886  34.820  1.00  0.00     0.003 A 
HETATM   30  C16 UNL     1      10.828  -3.731  35.243  1.00  0.00     0.025 A 
HETATM   31  C17 UNL     1       9.857  -4.173  34.336  1.00  0.00     0.046 A 
HETATM   32 CL2  UNL     1       8.614  -5.213  34.946  1.00  0.00    -0.083 Cl
ENDBRANCH   7  25
TORSDOF 4
ENDMDL
