MODEL 1
REMARK minimizedAffinity -7.98886633
REMARK  3 active torsions:
REMARK  status: ('A' for Active; 'I' for Inactive)
REMARK    1  A    between atoms: C4_5  and  C5_6 
REMARK    2  A    between atoms: N2_9  and  C6_10 
REMARK    3  A    between atoms: C12_16  and  C13_17 
ROOT
HETATM    1  C5  UNL     1      13.856  58.920   3.265  1.00  0.00     0.038 C 
HETATM    2  N1  UNL     1      13.262  58.313   2.285  1.00  0.00    -0.301 N 
ATOM      3  H1  UNL     1      12.365  58.567   1.871  1.00  0.00     0.187 HD
HETATM    4  N2  UNL     1      14.061  57.272   1.909  1.00  0.00    -0.283 N 
HETATM    5  C12 UNL     1      15.244  57.112   2.763  1.00  0.00     0.148 C 
HETATM    6  C23 UNL     1      15.207  58.373   3.631  1.00  0.00     0.091 C 
ENDROOT
BRANCH   5   7
HETATM    7  C13 UNL     1      15.226  55.859   3.638  1.00  0.00    -0.022 A 
HETATM    8  C14 UNL     1      14.005  55.390   4.164  1.00  0.00     0.010 A 
HETATM    9  C15 UNL     1      13.955  54.262   4.975  1.00  0.00     0.002 A 
HETATM   10  C16 UNL     1      15.127  53.584   5.288  1.00  0.00     0.012 A 
HETATM   11  C17 UNL     1      16.365  54.025   4.802  1.00  0.00    -0.025 A 
HETATM   12  C18 UNL     1      17.533  53.324   5.147  1.00  0.00     0.012 A 
HETATM   13  C22 UNL     1      16.437  55.175   3.972  1.00  0.00    -0.018 A 
HETATM   14  C19 UNL     1      18.781  53.740   4.691  1.00  0.00     0.001 A 
HETATM   15  C20 UNL     1      18.878  54.863   3.884  1.00  0.00     0.001 A 
HETATM   16  C21 UNL     1      17.725  55.570   3.531  1.00  0.00     0.013 A 
ENDBRANCH   5   7
BRANCH   4  17
HETATM   17  C6  UNL     1      13.842  56.602   0.703  1.00  0.00     0.051 A 
HETATM   18  C7  UNL     1      14.912  56.024  -0.003  1.00  0.00     0.031 A 
HETATM   19  C8  UNL     1      14.721  55.352  -1.215  1.00  0.00     0.002 A 
HETATM   20  C9  UNL     1      13.446  55.243  -1.757  1.00  0.00     0.000 A 
HETATM   21  C10 UNL     1      12.367  55.810  -1.086  1.00  0.00     0.002 A 
HETATM   22  C11 UNL     1      12.567  56.482   0.128  1.00  0.00     0.031 A 
ENDBRANCH   4  17
BRANCH   1  23
HETATM   23  C4  UNL     1      13.269  60.091   3.958  1.00  0.00    -0.010 A 
HETATM   24  C3  UNL     1      13.416  61.360   3.384  1.00  0.00     0.015 A 
HETATM   25  C2  UNL     1      12.876  62.486   4.012  1.00  0.00     0.026 A 
HETATM   26  C1  UNL     1      12.187  62.352   5.219  1.00  0.00     0.055 A 
HETATM   27 CL1  UNL     1      11.545  63.783   5.943  1.00  0.00    -0.083 Cl
HETATM   28  C25 UNL     1      12.040  61.086   5.797  1.00  0.00     0.056 A 
HETATM   29  C24 UNL     1      12.581  59.957   5.168  1.00  0.00     0.039 A 
HETATM   30 CL2  UNL     1      11.204  60.843   7.291  1.00  0.00    -0.083 Cl
ENDBRANCH   1  23
TORSDOF 3
ENDMDL
