MODEL 1
REMARK minimizedAffinity -8.08852005
REMARK  5 active torsions:
REMARK  status: ('A' for Active; 'I' for Inactive)
REMARK    1  A    between atoms: N1_1  and  C1_2 
REMARK    2  A    between atoms: C2_5  and  N3_6 
REMARK    3  A    between atoms: N3_6  and  C3_7 
REMARK    4  A    between atoms: C11_21  and  S1_22 
REMARK    5  A    between atoms: S1_22  and  C12_23 
ROOT
HETATM    1  C3  UNL     1      11.957  35.007  17.446  1.00  0.00     0.708 A 
HETATM    2  N4  UNL     1      11.326  35.738  16.544  1.00  0.00    -0.130 N 
ATOM      3  H4  UNL     1      11.710  36.023  15.643  1.00  0.00     0.205 HD
HETATM    4  N5  UNL     1      10.073  36.055  17.009  1.00  0.00    -0.269 N 
ATOM      5  H5  UNL     1       9.365  36.601  16.518  1.00  0.00     0.189 HD
HETATM    6  C4  UNL     1       9.958  35.524  18.202  1.00  0.00     0.158 A 
HETATM    7  C5  UNL     1       8.850  35.534  19.130  1.00  0.00     0.037 A 
HETATM    8  C6  UNL     1       7.630  36.153  18.850  1.00  0.00     0.017 A 
HETATM    9  C7  UNL     1       6.604  36.109  19.794  1.00  0.00     0.001 A 
HETATM   10  C8  UNL     1       6.799  35.449  21.010  1.00  0.00     0.002 A 
HETATM   11  C9  UNL     1       8.023  34.834  21.288  1.00  0.00     0.030 A 
HETATM   12  C10 UNL     1       9.058  34.872  20.355  1.00  0.00     0.048 A 
HETATM   13  N6  UNL     1      10.292  34.254  20.670  1.00  0.00    -0.335 N 
ATOM     14  H6  UNL     1      10.419  33.792  21.571  1.00  0.00     0.168 HD
HETATM   15  C11 UNL     1      11.266  34.279  19.802  1.00  0.00     0.174 A 
HETATM   16  N7  UNL     1      11.123  34.881  18.547  1.00  0.00    -0.107 N 
ENDROOT
BRANCH   1  17
HETATM   17  N3  UNL     1      13.190  34.431  17.384  1.00  0.00    -0.174 N 
HETATM   18  H3  UNL     1      13.261  33.455  17.657  1.00  0.00     0.186 HD
BRANCH  17  19
HETATM   19  C2  UNL     1      14.337  35.012  16.954  1.00  0.00     0.129 A 
HETATM   20  N2  UNL     1      14.450  35.570  15.706  1.00  0.00    -0.322 N 
HETATM   21  C1  UNL     1      15.649  36.062  15.528  1.00  0.00     0.143 A 
ATOM     22  H2  UNL     1      13.703  35.598  15.012  1.00  0.00     0.169 HD
HETATM   23  S2  UNL     1      16.707  35.918  16.872  1.00  0.00    -0.062 SA
HETATM   24  C18 UNL     1      15.469  35.105  17.737  1.00  0.00     0.102 A 
BRANCH  21  25
HETATM   25  N1  UNL     1      16.032  36.663  14.390  1.00  0.00    -0.380 N 
HETATM   26  H1  UNL     1      16.749  37.374  14.453  1.00  0.00     0.158 HD
HETATM   27  H2  UNL     1      15.263  36.902  13.771  1.00  0.00     0.158 HD
ENDBRANCH  21  25
ENDBRANCH  17  19
ENDBRANCH   1  17
BRANCH  15  28
HETATM   28  S1  UNL     1      12.783  33.529  20.294  1.00  0.00    -0.053 SA
BRANCH  28  29
HETATM   29  C12 UNL     1      13.497  34.889  21.199  1.00  0.00     0.008 A 
HETATM   30  C13 UNL     1      12.684  35.938  21.644  1.00  0.00     0.020 A 
HETATM   31  C14 UNL     1      13.238  37.006  22.354  1.00  0.00     0.020 A 
HETATM   32  C15 UNL     1      14.607  37.029  22.615  1.00  0.00     0.011 A 
HETATM   33 BR1  UNL     1      15.356  38.475  23.574  1.00  0.00    -0.051 Br
HETATM   34  C16 UNL     1      15.426  35.993  22.173  1.00  0.00     0.020 A 
HETATM   35  C17 UNL     1      14.871  34.925  21.463  1.00  0.00     0.020 A 
ENDBRANCH  28  29
ENDBRANCH  15  28
TORSDOF 5
ENDMDL
