MODEL 1
REMARK minimizedAffinity -7.15790176
REMARK  4 active torsions:
REMARK  status: ('A' for Active; 'I' for Inactive)
REMARK    1  A    between atoms: N1_1  and  C1_2 
REMARK    2  A    between atoms: C1_2  and  N2_4 
REMARK    3  A    between atoms: C2_7  and  C3_8 
REMARK    4  A    between atoms: C10_16  and  C11_17 
ROOT
HETATM    1  N2  UNL     1       1.365  64.820  -3.817  1.00  0.00    -0.258 N 
HETATM    2  N3  UNL     1       2.211  64.829  -4.913  1.00  0.00    -0.299 N 
ATOM      3  H3  UNL     1       1.946  64.693  -5.889  1.00  0.00     0.187 HD
HETATM    4  C2  UNL     1       3.410  65.042  -4.457  1.00  0.00     0.038 C 
HETATM    5  C9  UNL     1       3.524  65.113  -2.956  1.00  0.00     0.091 C 
HETATM    6  C10 UNL     1       2.051  65.205  -2.572  1.00  0.00     0.150 C 
ENDROOT
BRANCH   6   7
HETATM    7  C11 UNL     1       1.717  66.608  -2.061  1.00  0.00    -0.022 A 
HETATM    8  C12 UNL     1       1.166  66.771  -0.775  1.00  0.00     0.010 A 
HETATM    9  C13 UNL     1       0.829  68.031  -0.291  1.00  0.00     0.002 A 
HETATM   10  C14 UNL     1       1.021  69.152  -1.088  1.00  0.00     0.012 A 
HETATM   11  C15 UNL     1       1.550  69.034  -2.380  1.00  0.00    -0.025 A 
HETATM   12  C16 UNL     1       1.721  70.185  -3.166  1.00  0.00     0.012 A 
HETATM   13  C20 UNL     1       1.904  67.757  -2.891  1.00  0.00    -0.018 A 
HETATM   14  C17 UNL     1       2.235  70.103  -4.458  1.00  0.00     0.001 A 
HETATM   15  C18 UNL     1       2.584  68.867  -4.981  1.00  0.00     0.001 A 
HETATM   16  C19 UNL     1       2.420  67.712  -4.210  1.00  0.00     0.013 A 
ENDBRANCH   6   7
BRANCH   1  17
HETATM   17  C1  UNL     1       0.044  64.430  -3.963  1.00  0.00     0.187 C 
HETATM   18  S1  UNL     1      -0.994  63.925  -2.762  1.00  0.00    -0.040 SA
BRANCH  17  19
HETATM   19  N1  UNL     1      -0.402  64.477  -5.252  1.00  0.00    -0.375 N 
HETATM   20  H1  UNL     1       0.301  64.647  -5.961  1.00  0.00     0.158 HD
HETATM   21  H2  UNL     1      -1.310  64.114  -5.498  1.00  0.00     0.158 HD
ENDBRANCH  17  19
ENDBRANCH   1  17
BRANCH   4  22
HETATM   22  C3  UNL     1       4.599  65.160  -5.335  1.00  0.00    -0.012 A 
HETATM   23  C4  UNL     1       4.558  65.893  -6.526  1.00  0.00     0.015 A 
HETATM   24  C5  UNL     1       5.699  65.984  -7.332  1.00  0.00     0.020 A 
HETATM   25  C6  UNL     1       6.875  65.344  -6.946  1.00  0.00     0.011 A 
HETATM   26 BR1  UNL     1       8.413  65.470  -8.037  1.00  0.00    -0.051 Br
HETATM   27  C7  UNL     1       6.926  64.613  -5.761  1.00  0.00     0.020 A 
HETATM   28  C8  UNL     1       5.787  64.522  -4.956  1.00  0.00     0.015 A 
ENDBRANCH   4  22
TORSDOF 4
ENDMDL
