MODEL 1
REMARK minimizedAffinity -7.22665548
REMARK  2 active torsions:
REMARK  status: ('A' for Active; 'I' for Inactive)
REMARK    1  A    between atoms: C4_5  and  N1_6 
REMARK    2  A    between atoms: N1_6  and  C5_7 
ROOT
HETATM    1  C5  UNL     1      10.733  34.790  18.912  1.00  0.00     0.131 A 
HETATM    2  N2  UNL     1      10.894  35.114  17.608  1.00  0.00    -0.285 N 
ATOM      3  H2  UNL     1      11.753  34.844  17.128  1.00  0.00     0.188 HD
HETATM    4  N3  UNL     1       9.931  35.795  16.920  1.00  0.00    -0.309 N 
ATOM      5  H3  UNL     1      10.067  36.031  15.938  1.00  0.00     0.186 HD
HETATM    6  C6  UNL     1       8.800  36.149  17.556  1.00  0.00     0.119 A 
HETATM    7  C7  UNL     1       8.562  35.862  18.892  1.00  0.00    -0.005 A 
HETATM    8  C8  UNL     1       7.368  36.254  19.527  1.00  0.00     0.014 A 
HETATM    9  C9  UNL     1       7.154  35.969  20.875  1.00  0.00     0.001 A 
HETATM   10  C10 UNL     1       8.129  35.298  21.602  1.00  0.00     0.001 A 
HETATM   11  C11 UNL     1       9.316  34.903  20.980  1.00  0.00     0.016 A 
HETATM   12  C12 UNL     1       9.557  35.167  19.608  1.00  0.00     0.021 A 
ENDROOT
BRANCH   1  13
HETATM   13  N1  UNL     1      11.734  34.050  19.600  1.00  0.00    -0.341 N 
HETATM   14  H3  UNL     1      11.506  33.064  19.532  1.00  0.00     0.167 HD
BRANCH  13  15
HETATM   15  C4  UNL     1      13.131  34.261  19.598  1.00  0.00     0.033 A 
HETATM   16  C3  UNL     1      13.852  34.581  20.758  1.00  0.00     0.032 A 
HETATM   17  C2  UNL     1      15.243  34.713  20.729  1.00  0.00     0.044 A 
HETATM   18  C1  UNL     1      15.926  34.499  19.540  1.00  0.00     0.116 A 
HETATM   19  F1  UNL     1      17.259  34.621  19.511  1.00  0.00    -0.206 F 
HETATM   20  C14 UNL     1      15.245  34.144  18.384  1.00  0.00     0.044 A 
HETATM   21  C13 UNL     1      13.853  34.014  18.418  1.00  0.00     0.032 A 
ENDBRANCH  13  15
ENDBRANCH   1  13
TORSDOF 2
ENDMDL
