MODEL 1
REMARK minimizedAffinity -7.71928358
REMARK  8 active torsions:
REMARK  status: ('A' for Active; 'I' for Inactive)
REMARK    1  A    between atoms: C2_2  and  C3_3 
REMARK       I    between atoms: C3_3  and  N1_5 
REMARK    2  A    between atoms: N1_5  and  C4_6 
REMARK    3  A    between atoms: C7_9  and  O2_10 
REMARK    4  A    between atoms: C9_12  and  N2_13 
REMARK    5  A    between atoms: N2_13  and  C10_14 
REMARK    6  A    between atoms: C12_16  and  C13_17 
REMARK    7  A    between atoms: C14_18  and  C15_19 
REMARK    8  A    between atoms: C21_28  and  S1_29 
ROOT
HETATM    1  C10 UNL     1      13.918  35.036  17.258  1.00  0.00     0.106 A 
HETATM    2  C11 UNL     1      14.594  35.818  16.324  1.00  0.00     0.062 A 
HETATM    3  C12 UNL     1      15.986  35.741  16.236  1.00  0.00    -0.002 A 
HETATM    4  C24 UNL     1      16.671  34.885  17.092  1.00  0.00     0.031 A 
HETATM    5  C25 UNL     1      15.929  34.142  17.989  1.00  0.00     0.090 A 
HETATM    6  N5  UNL     1      14.583  34.197  18.077  1.00  0.00    -0.352 N 
ATOM      7  H5  UNL     1      14.081  33.616  18.748  1.00  0.00     0.166 HD
ENDROOT
BRANCH   1   8
HETATM    8  N2  UNL     1      12.515  35.170  17.333  1.00  0.00    -0.340 N 
HETATM    9  H10 UNL     1      12.054  34.418  16.828  1.00  0.00     0.167 HD
BRANCH   8  10
HETATM   10  C9  UNL     1      11.730  35.511  18.468  1.00  0.00     0.069 A 
HETATM   11  C7  UNL     1      12.313  36.311  19.476  1.00  0.00     0.095 A 
HETATM   12  C6  UNL     1      11.584  36.622  20.623  1.00  0.00     0.041 A 
HETATM   13  C5  UNL     1      10.288  36.123  20.784  1.00  0.00     0.032 A 
HETATM   14  C4  UNL     1       9.704  35.304  19.811  1.00  0.00     0.037 A 
HETATM   15  C26 UNL     1      10.434  34.999  18.660  1.00  0.00     0.062 A 
BRANCH  11  16
HETATM   16  O2  UNL     1      13.596  36.738  19.213  1.00  0.00    -0.354 OA
HETATM   17  C8  UNL     1      14.450  36.937  20.332  1.00  0.00     0.210 C 
ENDBRANCH  11  16
BRANCH  14  18
HETATM   18  N1  UNL     1       8.403  34.826  20.078  1.00  0.00    -0.324 N 
HETATM   19  C3  UNL     1       7.205  35.413  19.743  1.00  0.00     0.244 C 
HETATM   20  O1  UNL     1       7.018  36.491  19.196  1.00  0.00    -0.268 OA
HETATM   21  H4  UNL     1       8.351  33.967  20.606  1.00  0.00     0.169 HD
BRANCH  19  22
HETATM   22  C2  UNL     1       6.012  34.627  20.167  1.00  0.00     0.064 C 
HETATM   23  C1  UNL     1       5.643  33.447  19.651  1.00  0.00     0.017 C 
ENDBRANCH  19  22
ENDBRANCH  14  18
ENDBRANCH   8  10
ENDBRANCH   1   8
BRANCH   3  24
HETATM   24  C13 UNL     1      16.716  36.568  15.279  1.00  0.00     0.074 A 
HETATM   25  C14 UNL     1      17.273  36.271  14.039  1.00  0.00     0.072 A 
HETATM   26  N3  UNL     1      17.830  37.394  13.468  1.00  0.00    -0.334 N 
HETATM   27  C21 UNL     1      17.645  38.356  14.336  1.00  0.00     0.146 A 
ATOM     28  H3  UNL     1      18.290  37.462  12.561  1.00  0.00     0.168 HD
HETATM   29  N4  UNL     1      16.949  37.925  15.436  1.00  0.00    -0.329 N 
HETATM   30  C23 UNL     1      16.509  38.752  16.537  1.00  0.00     0.158 C 
BRANCH  25  31
HETATM   31  C15 UNL     1      17.284  34.987  13.350  1.00  0.00    -0.007 A 
HETATM   32  C16 UNL     1      16.216  34.557  12.550  1.00  0.00     0.017 A 
HETATM   33  C17 UNL     1      16.267  33.317  11.905  1.00  0.00     0.043 A 
HETATM   34  C18 UNL     1      17.380  32.503  12.072  1.00  0.00     0.116 A 
HETATM   35  F1  UNL     1      17.427  31.315  11.455  1.00  0.00    -0.206 F 
HETATM   36  C19 UNL     1      18.442  32.900  12.874  1.00  0.00     0.043 A 
HETATM   37  C20 UNL     1      18.392  34.140  13.514  1.00  0.00     0.017 A 
ENDBRANCH  25  31
BRANCH  27  38
HETATM   38  S1  UNL     1      18.202  39.986  14.147  1.00  0.00    -0.098 SA
HETATM   39  C22 UNL     1      16.698  40.780  13.537  1.00  0.00     0.099 C 
ENDBRANCH  27  38
ENDBRANCH   3  24
TORSDOF 8
ENDMDL
