MODEL 1
REMARK minimizedAffinity -8.14125919
REMARK CNNscore 0.135773346
REMARK CNNaffinity 5.24745607
REMARK  1 active torsions:
REMARK  status: ('A' for Active; 'I' for Inactive)
REMARK    1  A    between atoms: C2_2  and  C3_3 
REMARK       I    between atoms: C3_3  and  N1_5 
ROOT
HETATM    1  C3  UNL     1       1.123   8.118   8.838  1.00  0.00     0.247 C 
HETATM    2  O1  UNL     1       0.186   8.770   8.374  1.00  0.00    -0.268 OA
HETATM    3  N1  UNL     1       1.406   7.992  10.209  1.00  0.00    -0.315 N 
HETATM    4  C4  UNL     1       2.646   7.374  10.719  1.00  0.00     0.132 C 
HETATM    5  C5  UNL     1       3.876   8.268  10.537  1.00  0.00     0.020 C 
HETATM    6  C6  UNL     1       5.127   7.602  11.116  1.00  0.00     0.002 C 
HETATM    7  C7  UNL     1       6.426   8.334  10.757  1.00  0.00     0.000 C 
HETATM    8  C8  UNL     1       6.462   9.768  11.278  1.00  0.00     0.000 C 
HETATM    9  C9  UNL     1       7.806  10.447  10.987  1.00  0.00     0.000 C 
HETATM   10  C10 UNL     1       7.804  11.910  11.440  1.00  0.00     0.002 C 
HETATM   11  C11 UNL     1       7.908  12.058  12.961  1.00  0.00     0.020 C 
HETATM   12  C12 UNL     1       7.328  13.375  13.476  1.00  0.00     0.128 C 
HETATM   13  N2  UNL     1       5.876  13.431  13.376  1.00  0.00    -0.355 N 
HETATM   14  C13 UNL     1       5.033  12.745  14.218  1.00  0.00     0.106 A 
HETATM   15  C14 UNL     1       3.735  13.042  13.857  1.00  0.00     0.019 A 
HETATM   16  C15 UNL     1       3.792  13.952  12.757  1.00  0.00     0.005 A 
HETATM   17  C16 UNL     1       2.813  14.611  11.981  1.00  0.00     0.014 A 
HETATM   18  C17 UNL     1       3.204  15.477  10.954  1.00  0.00     0.001 A 
HETATM   19  C18 UNL     1       4.553  15.698  10.696  1.00  0.00     0.002 A 
HETATM   20  C19 UNL     1       5.544  15.060  11.453  1.00  0.00     0.030 A 
HETATM   21  C20 UNL     1       5.145  14.190  12.482  1.00  0.00     0.045 A 
HETATM   22  C21 UNL     1       2.587  12.579  14.607  1.00  0.00     0.048 A 
HETATM   23  C22 UNL     1       2.084  13.379  15.610  1.00  0.00     0.047 A 
HETATM   24  C23 UNL     1       1.023  12.855  16.296  1.00  0.00     0.093 A 
HETATM   25  N3  UNL     1       0.491  11.653  16.017  1.00  0.00    -0.342 N 
ATOM     26  H3  UNL     1      -0.291  11.282  16.557  1.00  0.00     0.167 HD
HETATM   27  C24 UNL     1       1.029  10.955  14.996  1.00  0.00     0.162 A 
HETATM   28  N4  UNL     1       2.080  11.372  14.277  1.00  0.00    -0.332 N 
ATOM     29  H4  UNL     1       2.475  10.810  13.523  1.00  0.00     0.168 HD
HETATM   30  N5  UNL     1       0.384   9.732  14.742  1.00  0.00    -0.230 NA
HETATM   31  C25 UNL     1      -0.031   9.309  13.458  1.00  0.00     0.017 A 
HETATM   32  C26 UNL     1      -1.397   9.297  13.156  1.00  0.00     0.024 A 
HETATM   33  C27 UNL     1      -1.835   8.896  11.899  1.00  0.00     0.004 A 
HETATM   34  C28 UNL     1      -0.911   8.492  10.934  1.00  0.00     0.030 A 
HETATM   35  C29 UNL     1       0.468   8.486  11.198  1.00  0.00     0.039 A 
HETATM   36  C30 UNL     1       0.888   8.919  12.471  1.00  0.00     0.053 A 
HETATM   37  H29 UNL     1      -0.400   9.764  15.388  1.00  0.00     0.136 HD
ENDROOT
BRANCH   1  38
HETATM   38  C2  UNL     1       2.037   7.432   7.867  1.00  0.00     0.064 C 
HETATM   39  C1  UNL     1       1.674   7.277   6.586  1.00  0.00     0.017 C 
ENDBRANCH   1  38
TORSDOF 1
ENDMDL
