MODEL 1
REMARK minimizedAffinity -7.77588511
REMARK  9 active torsions:
REMARK  status: ('A' for Active; 'I' for Inactive)
REMARK    1  A    between atoms: O1_1  and  C1_2 
REMARK    2  A    between atoms: C1_2  and  C2_3 
REMARK    3  A    between atoms: C6_7  and  C7_8 
REMARK    4  A    between atoms: C8_9  and  C9_10 
REMARK    5  A    between atoms: C12_17  and  N3_18 
REMARK    6  A    between atoms: N3_18  and  C13_19 
REMARK    7  A    between atoms: C16_22  and  O2_23 
REMARK    8  A    between atoms: O2_23  and  C17_24 
REMARK    9  A    between atoms: C17_24  and  C18_25 
ROOT
HETATM    1  C9  UNL     1      15.950  37.207  15.195  1.00  0.00     0.077 A 
HETATM    2  C10 UNL     1      15.992  38.587  15.164  1.00  0.00     0.113 A 
HETATM    3  N1  UNL     1      16.912  39.292  14.479  1.00  0.00    -0.361 N 
ATOM      4  H1  UNL     1      16.925  40.312  14.474  1.00  0.00     0.166 HD
HETATM    5  C11 UNL     1      17.807  38.560  13.805  1.00  0.00     0.181 A 
HETATM    6  N2  UNL     1      17.861  37.220  13.761  1.00  0.00    -0.337 N 
ATOM      7  H2  UNL     1      18.576  36.736  13.218  1.00  0.00     0.168 HD
HETATM    8  C12 UNL     1      16.933  36.537  14.463  1.00  0.00     0.127 A 
ENDROOT
BRANCH   8   9
HETATM    9  N3  UNL     1      16.918  35.116  14.436  1.00  0.00    -0.341 N 
HETATM   10  H9  UNL     1      16.817  34.751  15.378  1.00  0.00     0.167 HD
BRANCH   9  11
HETATM   11  C13 UNL     1      17.577  34.209  13.581  1.00  0.00     0.035 A 
HETATM   12  C14 UNL     1      16.890  33.731  12.456  1.00  0.00     0.032 A 
HETATM   13  C15 UNL     1      17.498  32.868  11.535  1.00  0.00     0.041 A 
HETATM   14  C16 UNL     1      18.826  32.477  11.705  1.00  0.00     0.091 A 
HETATM   15  C24 UNL     1      19.531  32.979  12.810  1.00  0.00     0.069 A 
HETATM   16 CL1  UNL     1      21.191  32.561  13.077  1.00  0.00    -0.081 Cl
HETATM   17  C25 UNL     1      18.917  33.844  13.726  1.00  0.00     0.056 A 
BRANCH  14  18
HETATM   18  O2  UNL     1      19.505  31.633  10.869  1.00  0.00    -0.345 OA
BRANCH  18  19
HETATM   19  C17 UNL     1      18.882  30.399  10.517  1.00  0.00     0.214 C 
BRANCH  19  20
HETATM   20  C18 UNL     1      18.458  30.445   9.067  1.00  0.00    -0.031 A 
HETATM   21  C19 UNL     1      18.577  31.628   8.318  1.00  0.00     0.009 A 
HETATM   22  C20 UNL     1      18.152  31.677   6.987  1.00  0.00     0.004 A 
HETATM   23  C21 UNL     1      17.595  30.547   6.391  1.00  0.00     0.042 A 
HETATM   24  C22 UNL     1      17.467  29.378   7.133  1.00  0.00     0.117 A 
HETATM   25  F1  UNL     1      16.924  28.293   6.565  1.00  0.00    -0.206 F 
HETATM   26  C23 UNL     1      17.886  29.317   8.459  1.00  0.00     0.051 A 
ENDBRANCH  19  20
ENDBRANCH  18  19
ENDBRANCH  14  18
ENDBRANCH   9  11
ENDBRANCH   8   9
BRANCH   1  27
HETATM   27  C8  UNL     1      14.947  36.527  15.958  1.00  0.00    -0.055 C 
HETATM   28  C7  UNL     1      14.094  36.018  16.633  1.00  0.00    -0.043 C 
BRANCH  28  29
HETATM   29  C6  UNL     1      13.077  35.484  17.478  1.00  0.00     0.087 A 
HETATM   30  C5  UNL     1      13.350  34.505  18.419  1.00  0.00     0.039 A 
HETATM   31  C4  UNL     1      12.297  34.039  19.200  1.00  0.00     0.005 A 
HETATM   32  C3  UNL     1      11.020  34.567  19.015  1.00  0.00     0.027 A 
HETATM   33  C2  UNL     1      10.836  35.549  18.046  1.00  0.00     0.033 A 
HETATM   34  N4  UNL     1      11.851  36.015  17.268  1.00  0.00    -0.351 N 
ATOM     35  H4  UNL     1      11.695  36.732  16.559  1.00  0.00     0.166 HD
BRANCH  33  36
HETATM   36  C1  UNL     1       9.469  36.159  17.818  1.00  0.00     0.221 C 
BRANCH  36  37
HETATM   37  O1  UNL     1       9.047  35.973  16.464  1.00  0.00    -0.395 OA
HETATM   38  H1  UNL     1       9.802  35.520  16.033  1.00  0.00     0.209 HD
ENDBRANCH  36  37
ENDBRANCH  33  36
ENDBRANCH  28  29
ENDBRANCH   1  27
TORSDOF 9
ENDMDL
