MODEL 1
REMARK minimizedAffinity -7.75220776
REMARK  4 active torsions:
REMARK  status: ('A' for Active; 'I' for Inactive)
REMARK    1  A    between atoms: N1_1  and  C1_2 
REMARK    2  A    between atoms: C1_2  and  N2_4 
REMARK    3  A    between atoms: C2_7  and  C3_8 
REMARK    4  A    between atoms: C10_16  and  C11_17 
ROOT
HETATM    1  N2  UNL     1      12.693  35.916  17.273  1.00  0.00    -0.258 N 
HETATM    2  N3  UNL     1      11.410  36.244  17.675  1.00  0.00    -0.299 N 
ATOM      3  H3  UNL     1      10.870  37.058  17.383  1.00  0.00     0.187 HD
HETATM    4  C2  UNL     1      11.025  35.313  18.497  1.00  0.00     0.038 C 
HETATM    5  C9  UNL     1      12.002  34.182  18.691  1.00  0.00     0.091 C 
HETATM    6  C10 UNL     1      13.236  34.767  18.013  1.00  0.00     0.149 C 
ENDROOT
BRANCH   6   7
HETATM    7  C11 UNL     1      14.297  35.144  19.034  1.00  0.00    -0.032 A 
HETATM    8  C12 UNL     1      15.567  34.558  18.960  1.00  0.00     0.010 A 
HETATM    9  C13 UNL     1      16.550  34.864  19.905  1.00  0.00     0.013 A 
HETATM   10  C14 UNL     1      16.286  35.759  20.953  1.00  0.00    -0.026 A 
HETATM   11  C15 UNL     1      17.263  36.075  21.911  1.00  0.00     0.012 A 
HETATM   12  C19 UNL     1      15.010  36.357  21.043  1.00  0.00    -0.025 A 
HETATM   13  C16 UNL     1      16.984  36.969  22.945  1.00  0.00     0.001 A 
HETATM   14  C17 UNL     1      15.727  37.559  23.035  1.00  0.00     0.001 A 
HETATM   15  C18 UNL     1      14.747  37.256  22.089  1.00  0.00     0.012 A 
HETATM   16  C20 UNL     1      14.032  36.041  20.085  1.00  0.00     0.021 A 
ENDBRANCH   6   7
BRANCH   1  17
HETATM   17  C1  UNL     1      13.312  36.628  16.261  1.00  0.00     0.187 C 
HETATM   18  S1  UNL     1      14.693  37.553  16.377  1.00  0.00    -0.040 SA
BRANCH  17  19
HETATM   19  N1  UNL     1      12.692  36.508  15.051  1.00  0.00    -0.375 N 
HETATM   20  H1  UNL     1      12.991  37.058  14.260  1.00  0.00     0.158 HD
HETATM   21  H2  UNL     1      11.796  36.037  15.050  1.00  0.00     0.158 HD
ENDBRANCH  17  19
ENDBRANCH   1  17
BRANCH   4  22
HETATM   22  C3  UNL     1       9.704  35.326  19.171  1.00  0.00    -0.012 A 
HETATM   23  C4  UNL     1       8.657  36.134  18.710  1.00  0.00     0.016 A 
HETATM   24  C5  UNL     1       7.424  36.122  19.369  1.00  0.00     0.043 A 
HETATM   25  C6  UNL     1       7.244  35.305  20.480  1.00  0.00     0.116 A 
HETATM   26  F1  UNL     1       6.061  35.297  21.108  1.00  0.00    -0.206 F 
HETATM   27  C7  UNL     1       8.275  34.501  20.950  1.00  0.00     0.043 A 
HETATM   28  C8  UNL     1       9.508  34.510  20.295  1.00  0.00     0.016 A 
ENDBRANCH   4  22
TORSDOF 4
ENDMDL
