MODEL 1
REMARK minimizedAffinity -7.03748178
REMARK CNNscore 0.705727398
REMARK CNNaffinity 5.78225899
REMARK  4 active torsions:
REMARK  status: ('A' for Active; 'I' for Inactive)
REMARK    1  A    between atoms: N1_1  and  C1_2 
REMARK    2  A    between atoms: C1_2  and  N2_4 
REMARK    3  A    between atoms: C2_7  and  C3_8 
REMARK    4  A    between atoms: C10_17  and  C11_18 
ROOT
HETATM    1  N2  UNL     1      17.578  50.418   5.793  1.00  0.00    -0.258 N 
HETATM    2  N3  UNL     1      16.548  51.274   5.473  1.00  0.00    -0.299 N 
ATOM      3  H3  UNL     1      15.562  51.028   5.395  1.00  0.00     0.187 HD
HETATM    4  C2  UNL     1      17.061  52.452   5.290  1.00  0.00     0.038 C 
HETATM    5  C9  UNL     1      18.558  52.525   5.405  1.00  0.00     0.091 C 
HETATM    6  C10 UNL     1      18.858  51.127   5.934  1.00  0.00     0.149 C 
ENDROOT
BRANCH   6   7
HETATM    7  C11 UNL     1      19.372  51.175   7.365  1.00  0.00    -0.032 A 
HETATM    8  C12 UNL     1      19.992  50.071   7.966  1.00  0.00     0.010 A 
HETATM    9  C13 UNL     1      20.446  50.141   9.285  1.00  0.00     0.013 A 
HETATM   10  C14 UNL     1      20.287  51.313  10.038  1.00  0.00    -0.026 A 
HETATM   11  C15 UNL     1      20.740  51.397  11.364  1.00  0.00     0.012 A 
HETATM   12  C19 UNL     1      19.657  52.432   9.449  1.00  0.00    -0.025 A 
HETATM   13  C16 UNL     1      20.572  52.571  12.102  1.00  0.00     0.001 A 
HETATM   14  C17 UNL     1      19.951  53.673  11.522  1.00  0.00     0.001 A 
HETATM   15  C18 UNL     1      19.496  53.605  10.204  1.00  0.00     0.012 A 
HETATM   16  C20 UNL     1      19.205  52.347   8.121  1.00  0.00     0.021 A 
ENDBRANCH   6   7
BRANCH   1  17
HETATM   17  C1  UNL     1      17.368  49.054   5.862  1.00  0.00     0.187 C 
HETATM   18  S1  UNL     1      18.480  47.859   5.494  1.00  0.00    -0.040 SA
BRANCH  17  19
HETATM   19  N1  UNL     1      16.141  48.653   6.307  1.00  0.00    -0.375 N 
HETATM   20  H1  UNL     1      15.989  47.652   6.251  1.00  0.00     0.158 HD
HETATM   21  H2  UNL     1      15.336  49.199   6.028  1.00  0.00     0.158 HD
ENDBRANCH  17  19
ENDBRANCH   1  17
BRANCH   4  22
HETATM   22  C3  UNL     1      16.240  53.639   4.952  1.00  0.00    -0.010 A 
HETATM   23  C4  UNL     1      14.855  53.584   5.156  1.00  0.00     0.015 A 
HETATM   24  C5  UNL     1      14.050  54.684   4.848  1.00  0.00     0.026 A 
HETATM   25  C6  UNL     1      14.624  55.848   4.333  1.00  0.00     0.055 A 
HETATM   26 CL1  UNL     1      13.576  57.172   3.974  1.00  0.00    -0.083 Cl
HETATM   27  C7  UNL     1      16.007  55.906   4.125  1.00  0.00     0.056 A 
HETATM   28 CL2  UNL     1      16.787  57.312   3.489  1.00  0.00    -0.083 Cl
HETATM   29  C8  UNL     1      16.814  54.803   4.433  1.00  0.00     0.039 A 
ENDBRANCH   4  22
TORSDOF 4
ENDMDL
