MODEL 1
REMARK minimizedAffinity -11.8226624
REMARK CNNscore 0.179012626
REMARK CNNaffinity 7.56793976
REMARK  2 active torsions:
REMARK  status: ('A' for Active; 'I' for Inactive)
REMARK    1  A    between atoms: C22_33  and  C23_34 
REMARK    2  A    between atoms: C23_34  and  N7_35 
ROOT
HETATM    1  C1  UNL     1      -6.266   0.942  10.876  1.00  0.00     0.068 C 
HETATM    2  C2  UNL     1      -5.635   2.119  11.558  1.00  0.00     0.006 A 
HETATM    3  C3  UNL     1      -4.256   2.256  11.586  1.00  0.00     0.041 A 
HETATM    4  C4  UNL     1      -3.717   3.364  12.234  1.00  0.00     0.036 A 
HETATM    5  C5  UNL     1      -4.564   4.290  12.846  1.00  0.00     0.047 A 
HETATM    6  C6  UNL     1      -5.933   4.105  12.754  1.00  0.00     0.049 A 
HETATM    7  N1  UNL     1      -6.467   3.030  12.119  1.00  0.00    -0.359 N 
ATOM      8  H1  UNL     1      -7.479   2.909  12.066  1.00  0.00     0.166 HD
HETATM    9  C7  UNL     1      -6.909   5.050  13.278  1.00  0.00     0.060 A 
HETATM   10  C8  UNL     1      -8.315   5.024  13.100  1.00  0.00     0.125 A 
HETATM   11  N2  UNL     1      -8.944   6.031  13.712  1.00  0.00    -0.307 N 
ATOM     12  H2  UNL     1      -9.941   6.248  13.714  1.00  0.00     0.186 HD
HETATM   13  N3  UNL     1      -7.943   6.689  14.325  1.00  0.00    -0.275 N 
HETATM   14  C9  UNL     1      -8.260   7.823  15.156  1.00  0.00     0.180 C 
HETATM   15  C10 UNL     1      -6.694   6.180  14.052  1.00  0.00     0.173 A 
HETATM   16  O1  UNL     1      -5.597   6.726  14.584  1.00  0.00    -0.334 OA
HETATM   17  C11 UNL     1      -4.980   7.729  13.766  1.00  0.00     0.177 C 
HETATM   18  C12 UNL     1      -3.741   8.218  14.516  1.00  0.00     0.027 C 
HETATM   19  C13 UNL     1      -2.811   9.086  13.662  1.00  0.00     0.008 C 
HETATM   20  C14 UNL     1      -1.928   8.289  12.672  1.00  0.00     0.001 C 
HETATM   21  C15 UNL     1      -1.330   9.258  11.641  1.00  0.00     0.011 C 
HETATM   22  C16 UNL     1      -0.809   7.513  13.407  1.00  0.00     0.152 C 
HETATM   23  N4  UNL     1      -0.186   6.534  12.541  1.00  0.00    -0.180 N 
HETATM   24  C17 UNL     1      -0.718   5.280  12.203  1.00  0.00     0.688 A 
HETATM   25  N5  UNL     1      -1.833   4.812  12.661  1.00  0.00    -0.155 N 
ATOM     26  H5  UNL     1      -2.393   5.348  13.324  1.00  0.00     0.187 HD
HETATM   27  C18 UNL     1      -2.241   3.574  12.230  1.00  0.00     0.270 C 
HETATM   28  O2  UNL     1      -1.502   2.671  11.850  1.00  0.00    -0.267 OA
HETATM   29  N6  UNL     1       0.188   4.690  11.323  1.00  0.00    -0.189 N 
HETATM   30  C19 UNL     1       1.332   5.486  11.245  1.00  0.00     0.076 A 
HETATM   31  C20 UNL     1       2.485   5.308  10.518  1.00  0.00     0.033 A 
HETATM   32  C21 UNL     1       3.436   6.334  10.559  1.00  0.00     0.011 A 
HETATM   33  C22 UNL     1       3.210   7.520  11.297  1.00  0.00    -0.028 A 
HETATM   34  C29 UNL     1       2.016   7.672  12.027  1.00  0.00     0.041 A 
HETATM   35  C30 UNL     1       1.080   6.664  11.974  1.00  0.00     0.079 A 
HETATM   36  H22 UNL     1       0.194   3.687  11.206  1.00  0.00     0.184 HD
ENDROOT
BRANCH  33  37
HETATM   37  C23 UNL     1       4.276   8.602  11.333  1.00  0.00     0.311 C 
BRANCH  37  38
HETATM   38  N7  UNL     1       5.506   8.195  12.023  1.00  0.00     0.096 N 
HETATM   39  C24 UNL     1       6.563   9.215  11.882  1.00  0.00     0.303 C 
HETATM   40  C25 UNL     1       7.678   9.164  12.963  1.00  0.00     0.302 C 
HETATM   41  N8  UNL     1       7.855   7.824  13.528  1.00  0.00     0.087 N 
HETATM   42  C26 UNL     1       8.946   7.773  14.491  1.00  0.00     0.310 C 
HETATM   43  C27 UNL     1       6.593   7.327  14.110  1.00  0.00     0.302 C 
HETATM   44  C28 UNL     1       5.300   7.871  13.440  1.00  0.00     0.303 C 
ENDBRANCH  37  38
ENDBRANCH  33  37
TORSDOF 2
ENDMDL
