MODEL 1
REMARK minimizedAffinity -9.59088516
REMARK  9 active torsions:
REMARK  status: ('A' for Active; 'I' for Inactive)
REMARK    1  A    between atoms: C2_2  and  C3_3 
REMARK       I    between atoms: C3_3  and  N1_5 
REMARK    2  A    between atoms: N1_5  and  C4_6 
REMARK    3  A    between atoms: C4_6  and  C5_7 
REMARK    4  A    between atoms: C5_7  and  O2_8 
REMARK    5  A    between atoms: O2_8  and  C6_9 
REMARK    6  A    between atoms: C8_11  and  C9_12 
REMARK    7  A    between atoms: C9_12  and  C10_13 
REMARK    8  A    between atoms: C18_22  and  C19_23 
REMARK    9  A    between atoms: C22_29  and  C23_30 
ROOT
HETATM    1  C6  UNL     1      -0.796   6.019  12.038  1.00  0.00     0.082 A 
HETATM    2  C7  UNL     1      -1.400   4.926  11.397  1.00  0.00     0.045 A 
HETATM    3  C8  UNL     1      -2.604   4.363  11.863  1.00  0.00    -0.049 A 
HETATM    4  C16 UNL     1      -3.234   4.891  13.001  1.00  0.00     0.038 A 
HETATM    5  C17 UNL     1      -2.632   5.986  13.628  1.00  0.00     0.046 A 
HETATM    6  N2  UNL     1      -3.027   6.699  14.736  1.00  0.00    -0.354 N 
HETATM    7  C18 UNL     1      -2.140   7.711  14.997  1.00  0.00     0.062 A 
HETATM    8  C27 UNL     1      -1.144   7.647  14.051  1.00  0.00     0.048 A 
HETATM    9  C28 UNL     1      -1.443   6.558  13.174  1.00  0.00     0.026 A 
HETATM   10  H18 UNL     1      -3.859   6.533  15.289  1.00  0.00     0.166 HD
ENDROOT
BRANCH   7  11
HETATM   11  C19 UNL     1      -2.337   8.700  16.179  1.00  0.00     0.087 A 
HETATM   12  N3  UNL     1      -3.580   8.919  16.635  1.00  0.00    -0.297 N 
HETATM   13  N4  UNL     1      -3.400   9.815  17.617  1.00  0.00    -0.299 N 
ATOM     14  H3  UNL     1      -4.454   8.503  16.311  1.00  0.00     0.187 HD
HETATM   15  C20 UNL     1      -2.094  10.170  17.827  1.00  0.00     0.061 A 
HETATM   16  H19 UNL     1      -4.217  10.153  18.113  1.00  0.00     0.187 HD
HETATM   17  C21 UNL     1      -1.516  11.057  18.742  1.00  0.00     0.044 A 
HETATM   18  C26 UNL     1      -1.359   9.450  16.887  1.00  0.00     0.022 A 
HETATM   19  C22 UNL     1      -0.122  11.225  18.699  1.00  0.00     0.008 A 
HETATM   20  C24 UNL     1       0.641  10.508  17.766  1.00  0.00     0.013 A 
HETATM   21  C25 UNL     1       0.039   9.623  16.857  1.00  0.00     0.017 A 
BRANCH  19  22
HETATM   22  C23 UNL     1       0.561  12.154  19.672  1.00  0.00     0.386 C 
HETATM   23  F1  UNL     1       0.947  11.535  20.823  1.00  0.00    -0.209 F 
HETATM   24  F2  UNL     1      -0.237  13.190  20.059  1.00  0.00    -0.209 F 
ENDBRANCH  19  22
ENDBRANCH   7  11
BRANCH   1  25
HETATM   25  O2  UNL     1       0.371   6.619  11.653  1.00  0.00    -0.349 OA
BRANCH  25  26
HETATM   26  C5  UNL     1       1.617   6.103  12.129  1.00  0.00     0.195 C 
BRANCH  26  27
HETATM   27  C4  UNL     1       2.693   6.136  11.044  1.00  0.00     0.149 C 
BRANCH  27  28
HETATM   28  N1  UNL     1       2.279   6.931   9.904  1.00  0.00    -0.356 N 
HETATM   29  C3  UNL     1       2.453   6.474   8.622  1.00  0.00     0.240 C 
HETATM   30  O1  UNL     1       2.814   5.340   8.338  1.00  0.00    -0.269 OA
HETATM   31  H4  UNL     1       2.185   7.927  10.065  1.00  0.00     0.162 HD
BRANCH  29  32
HETATM   32  C2  UNL     1       2.176   7.513   7.599  1.00  0.00     0.064 C 
HETATM   33  C1  UNL     1       1.770   7.167   6.370  1.00  0.00     0.017 C 
ENDBRANCH  29  32
ENDBRANCH  27  28
ENDBRANCH  26  27
ENDBRANCH  25  26
ENDBRANCH   1  25
BRANCH   3  34
HETATM   34  C9  UNL     1      -3.217   3.178  11.144  1.00  0.00     0.077 C 
BRANCH  34  35
HETATM   35  C10 UNL     1      -4.628   2.856  11.587  1.00  0.00    -0.054 A 
HETATM   36  C11 UNL     1      -5.159   1.569  11.409  1.00  0.00     0.007 A 
HETATM   37  C12 UNL     1      -6.468   1.282  11.803  1.00  0.00     0.001 A 
HETATM   38  C13 UNL     1      -7.256   2.276  12.381  1.00  0.00     0.000 A 
HETATM   39  C14 UNL     1      -6.738   3.558  12.564  1.00  0.00     0.001 A 
HETATM   40  C15 UNL     1      -5.431   3.848  12.169  1.00  0.00     0.007 A 
ENDBRANCH  34  35
ENDBRANCH   3  34
TORSDOF 9
ENDMDL
