MODEL 1
REMARK minimizedAffinity -6.34592247
REMARK CNNscore 0.442039728
REMARK CNNaffinity 5.830019
REMARK  1 active torsions:
REMARK  status: ('A' for Active; 'I' for Inactive)
REMARK    1  A    between atoms: C2_2  and  C3_3 
REMARK       I    between atoms: C3_3  and  N1_5 
ROOT
HETATM    1  C3  UNL     1      -9.647  17.678   6.322  1.00  0.00     0.247 C 
HETATM    2  O1  UNL     1     -10.182  17.073   7.252  1.00  0.00    -0.268 OA
HETATM    3  N1  UNL     1      -8.331  18.177   6.340  1.00  0.00    -0.315 N 
HETATM    4  C4  UNL     1      -7.652  18.675   5.129  1.00  0.00     0.132 C 
HETATM    5  C5  UNL     1      -7.306  17.567   4.123  1.00  0.00     0.020 C 
HETATM    6  C6  UNL     1      -6.967  18.167   2.755  1.00  0.00     0.002 C 
HETATM    7  C7  UNL     1      -6.824  17.123   1.640  1.00  0.00     0.002 C 
HETATM    8  C8  UNL     1      -5.664  16.141   1.810  1.00  0.00     0.020 C 
HETATM    9  C9  UNL     1      -4.288  16.802   1.683  1.00  0.00     0.128 C 
HETATM   10  N2  UNL     1      -3.412  16.446   2.788  1.00  0.00    -0.355 N 
HETATM   11  C10 UNL     1      -3.353  17.147   3.962  1.00  0.00     0.106 A 
HETATM   12  C11 UNL     1      -2.474  16.502   4.808  1.00  0.00     0.019 A 
HETATM   13  C12 UNL     1      -1.969  15.363   4.101  1.00  0.00     0.005 A 
HETATM   14  C13 UNL     1      -1.076  14.315   4.426  1.00  0.00     0.014 A 
HETATM   15  C14 UNL     1      -0.794  13.321   3.483  1.00  0.00     0.001 A 
HETATM   16  C15 UNL     1      -1.393  13.347   2.228  1.00  0.00     0.002 A 
HETATM   17  C16 UNL     1      -2.293  14.360   1.884  1.00  0.00     0.030 A 
HETATM   18  C17 UNL     1      -2.568  15.358   2.835  1.00  0.00     0.045 A 
HETATM   19  C18 UNL     1      -2.203  16.982   6.153  1.00  0.00     0.063 A 
HETATM   20  C19 UNL     1      -0.918  17.003   6.645  1.00  0.00     0.048 A 
HETATM   21  C20 UNL     1      -0.793  17.466   7.926  1.00  0.00     0.108 A 
HETATM   22  N3  UNL     1      -1.837  17.868   8.672  1.00  0.00    -0.202 N 
ATOM     23  H3  UNL     1      -1.708  18.199   9.628  1.00  0.00     0.183 HD
HETATM   24  C21 UNL     1      -3.059  17.817   8.110  1.00  0.00     0.683 A 
HETATM   25  N4  UNL     1      -3.274  17.401   6.859  1.00  0.00    -0.191 N 
ATOM     26  H4  UNL     1      -4.211  17.401   6.454  1.00  0.00     0.184 HD
HETATM   27  N5  UNL     1      -4.091  18.208   8.956  1.00  0.00    -0.192 N 
HETATM   28  C22 UNL     1      -5.483  18.299   8.844  1.00  0.00     0.051 A 
HETATM   29  C23 UNL     1      -6.214  18.519  10.021  1.00  0.00     0.030 A 
HETATM   30  C24 UNL     1      -7.602  18.599  10.001  1.00  0.00     0.004 A 
HETATM   31  C25 UNL     1      -8.286  18.467   8.794  1.00  0.00     0.030 A 
HETATM   32  C26 UNL     1      -7.602  18.251   7.589  1.00  0.00     0.039 A 
HETATM   33  C27 UNL     1      -6.195  18.162   7.640  1.00  0.00     0.059 A 
HETATM   34  H23 UNL     1      -3.694  18.406   9.863  1.00  0.00     0.184 HD
ENDROOT
BRANCH   1  35
HETATM   35  C2  UNL     1     -10.444  17.878   5.070  1.00  0.00     0.064 C 
HETATM   36  C1  UNL     1     -10.920  16.822   4.393  1.00  0.00     0.017 C 
ENDBRANCH   1  35
TORSDOF 1
ENDMDL
