MODEL 1
REMARK minimizedAffinity -10.554493
REMARK  1 active torsions:
REMARK  status: ('A' for Active; 'I' for Inactive)
REMARK    1  A    between atoms: C2_2  and  C3_3 
REMARK       I    between atoms: C3_3  and  N1_5 
ROOT
HETATM    1  C3  UNL     1       1.884   6.668   9.714  1.00  0.00     0.247 C 
HETATM    2  O1  UNL     1       2.183   5.606   9.172  1.00  0.00    -0.268 OA
HETATM    3  N1  UNL     1       1.552   6.797  11.069  1.00  0.00    -0.315 N 
HETATM    4  C4  UNL     1       1.305   5.545  11.804  1.00  0.00     0.132 C 
HETATM    5  C5  UNL     1       0.069   4.786  11.293  1.00  0.00     0.020 C 
HETATM    6  C6  UNL     1      -0.166   3.502  12.093  1.00  0.00     0.002 C 
HETATM    7  C7  UNL     1      -1.001   2.450  11.355  1.00  0.00     0.000 C 
HETATM    8  C8  UNL     1      -2.386   2.869  10.849  1.00  0.00     0.000 C 
HETATM    9  C9  UNL     1      -3.524   2.735  11.868  1.00  0.00     0.002 C 
HETATM   10  C10 UNL     1      -3.617   3.836  12.923  1.00  0.00     0.020 C 
HETATM   11  C11 UNL     1      -3.946   5.205  12.328  1.00  0.00     0.128 C 
HETATM   12  N2  UNL     1      -3.995   6.241  13.348  1.00  0.00    -0.355 N 
HETATM   13  C12 UNL     1      -2.875   6.837  13.862  1.00  0.00     0.106 A 
HETATM   14  C13 UNL     1      -3.264   7.798  14.774  1.00  0.00     0.019 A 
HETATM   15  C14 UNL     1      -4.700   7.796  14.788  1.00  0.00     0.005 A 
HETATM   16  C15 UNL     1      -5.688   8.560  15.452  1.00  0.00     0.014 A 
HETATM   17  C16 UNL     1      -7.044   8.283  15.250  1.00  0.00     0.001 A 
HETATM   18  C17 UNL     1      -7.436   7.259  14.396  1.00  0.00     0.002 A 
HETATM   19  C18 UNL     1      -6.488   6.499  13.709  1.00  0.00     0.030 A 
HETATM   20  C19 UNL     1      -5.127   6.789  13.908  1.00  0.00     0.045 A 
HETATM   21  C20 UNL     1      -2.287   8.594  15.509  1.00  0.00     0.063 A 
HETATM   22  C21 UNL     1      -2.542   9.048  16.782  1.00  0.00     0.048 A 
HETATM   23  C22 UNL     1      -1.535   9.776  17.359  1.00  0.00     0.108 A 
HETATM   24  N3  UNL     1      -0.366  10.036  16.752  1.00  0.00    -0.202 N 
ATOM     25  H3  UNL     1       0.357  10.592  17.209  1.00  0.00     0.183 HD
HETATM   26  C23 UNL     1      -0.187   9.535  15.518  1.00  0.00     0.683 A 
HETATM   27  N4  UNL     1      -1.113   8.817  14.875  1.00  0.00    -0.191 N 
ATOM     28  H4  UNL     1      -0.941   8.451  13.939  1.00  0.00     0.184 HD
HETATM   29  N5  UNL     1       1.041   9.839  14.939  1.00  0.00    -0.192 N 
HETATM   30  C24 UNL     1       1.728   9.373  13.811  1.00  0.00     0.051 A 
HETATM   31  C25 UNL     1       2.888  10.057  13.424  1.00  0.00     0.030 A 
HETATM   32  C26 UNL     1       3.610   9.678  12.294  1.00  0.00     0.004 A 
HETATM   33  C27 UNL     1       3.170   8.609  11.518  1.00  0.00     0.030 A 
HETATM   34  C28 UNL     1       1.999   7.917  11.854  1.00  0.00     0.039 A 
HETATM   35  C29 UNL     1       1.287   8.317  12.999  1.00  0.00     0.059 A 
HETATM   36  H27 UNL     1       1.574  10.386  15.597  1.00  0.00     0.184 HD
ENDROOT
BRANCH   1  37
HETATM   37  C2  UNL     1       1.734   7.916   8.900  1.00  0.00     0.064 C 
HETATM   38  C1  UNL     1       2.572   8.182   7.890  1.00  0.00     0.017 C 
ENDBRANCH   1  37
TORSDOF 1
ENDMDL
