MODEL 1
REMARK minimizedAffinity -7.29477596
REMARK  4 active torsions:
REMARK  status: ('A' for Active; 'I' for Inactive)
REMARK    1  A    between atoms: N1_1  and  C1_2 
REMARK    2  A    between atoms: C1_2  and  N2_4 
REMARK    3  A    between atoms: C2_7  and  C3_8 
REMARK    4  A    between atoms: C10_16  and  C11_17 
ROOT
HETATM    1  N2  UNL     1      18.690  52.692   6.960  1.00  0.00    -0.258 N 
HETATM    2  N3  UNL     1      18.511  51.402   7.430  1.00  0.00    -0.299 N 
ATOM      3  H3  UNL     1      18.489  51.107   8.407  1.00  0.00     0.187 HD
HETATM    4  C2  UNL     1      18.376  50.638   6.387  1.00  0.00     0.038 C 
HETATM    5  C9  UNL     1      18.527  51.331   5.058  1.00  0.00     0.091 C 
HETATM    6  C10 UNL     1      18.502  52.788   5.504  1.00  0.00     0.149 C 
ENDROOT
BRANCH   6   7
HETATM    7  C11 UNL     1      17.198  53.462   5.101  1.00  0.00    -0.032 A 
HETATM    8  C12 UNL     1      15.978  52.898   5.496  1.00  0.00     0.010 A 
HETATM    9  C13 UNL     1      14.769  53.515   5.165  1.00  0.00     0.013 A 
HETATM   10  C14 UNL     1      14.748  54.713   4.439  1.00  0.00    -0.026 A 
HETATM   11  C15 UNL     1      13.540  55.346   4.101  1.00  0.00     0.012 A 
HETATM   12  C19 UNL     1      15.969  55.296   4.035  1.00  0.00    -0.025 A 
HETATM   13  C16 UNL     1      13.537  56.538   3.375  1.00  0.00     0.001 A 
HETATM   14  C17 UNL     1      14.741  57.111   2.977  1.00  0.00     0.001 A 
HETATM   15  C18 UNL     1      15.949  56.495   3.304  1.00  0.00     0.012 A 
HETATM   16  C20 UNL     1      17.179  54.664   4.372  1.00  0.00     0.021 A 
ENDBRANCH   6   7
BRANCH   1  17
HETATM   17  C1  UNL     1      19.033  53.711   7.830  1.00  0.00     0.187 C 
HETATM   18  S1  UNL     1      19.601  53.554   9.389  1.00  0.00    -0.040 SA
BRANCH  17  19
HETATM   19  N1  UNL     1      18.850  54.959   7.312  1.00  0.00    -0.375 N 
HETATM   20  H1  UNL     1      18.618  55.007   6.327  1.00  0.00     0.158 HD
HETATM   21  H2  UNL     1      19.157  55.778   7.813  1.00  0.00     0.158 HD
ENDBRANCH  17  19
ENDBRANCH   1  17
BRANCH   4  22
HETATM   22  C3  UNL     1      18.134  49.178   6.481  1.00  0.00    -0.012 A 
HETATM   23  C4  UNL     1      16.951  48.650   5.946  1.00  0.00     0.015 A 
HETATM   24  C5  UNL     1      16.694  47.279   6.018  1.00  0.00     0.024 A 
HETATM   25  C6  UNL     1      17.619  46.432   6.625  1.00  0.00     0.034 A 
HETATM   26 CL1  UNL     1      17.306  44.744   6.715  1.00  0.00    -0.084 Cl
HETATM   27  C7  UNL     1      18.798  46.948   7.163  1.00  0.00     0.024 A 
HETATM   28  C8  UNL     1      19.057  48.320   7.092  1.00  0.00     0.015 A 
ENDBRANCH   4  22
TORSDOF 4
ENDMDL
