MODEL 1
REMARK minimizedAffinity -7.28940821
REMARK  8 active torsions:
REMARK  status: ('A' for Active; 'I' for Inactive)
REMARK    1  A    between atoms: C2_2  and  C3_3 
REMARK    2  A    between atoms: C3_3  and  O1_4 
REMARK    3  A    between atoms: O1_4  and  C4_5 
REMARK    4  A    between atoms: C9_14  and  N3_15 
REMARK    5  A    between atoms: N3_15  and  C10_16 
REMARK    6  A    between atoms: C13_19  and  O2_20 
REMARK    7  A    between atoms: O2_20  and  C14_21 
REMARK    8  A    between atoms: C14_21  and  C15_22 
ROOT
HETATM    1  C4  UNL     1       7.842  34.410  20.928  1.00  0.00     0.070 A 
HETATM    2  C5  UNL     1       7.545  35.138  22.070  1.00  0.00     0.039 A 
HETATM    3  C6  UNL     1       8.578  35.748  22.795  1.00  0.00     0.033 A 
HETATM    4  C7  UNL     1       9.908  35.657  22.406  1.00  0.00     0.047 A 
HETATM    5  N1  UNL     1      10.833  36.261  23.155  1.00  0.00    -0.352 N 
ATOM      6  H1  UNL     1      10.586  36.787  23.993  1.00  0.00     0.166 HD
HETATM    7  C8  UNL     1      12.102  36.141  22.750  1.00  0.00     0.182 A 
HETATM    8  N2  UNL     1      12.526  35.486  21.666  1.00  0.00    -0.338 N 
ATOM      9  H2  UNL     1      13.515  35.441  21.424  1.00  0.00     0.168 HD
HETATM   10  C9  UNL     1      11.588  34.890  20.908  1.00  0.00     0.119 A 
HETATM   11  C23 UNL     1      10.220  34.935  21.248  1.00  0.00     0.037 A 
HETATM   12  C24 UNL     1       9.174  34.307  20.522  1.00  0.00     0.054 A 
ENDROOT
BRANCH  10  13
HETATM   13  N3  UNL     1      11.976  34.208  19.722  1.00  0.00    -0.342 N 
HETATM   14  H9  UNL     1      11.190  33.662  19.386  1.00  0.00     0.167 HD
BRANCH  13  15
HETATM   15  C10 UNL     1      12.776  34.674  18.657  1.00  0.00     0.033 A 
HETATM   16  C11 UNL     1      14.098  34.217  18.548  1.00  0.00     0.032 A 
HETATM   17  C12 UNL     1      14.956  34.693  17.548  1.00  0.00     0.039 A 
HETATM   18  C13 UNL     1      14.511  35.653  16.644  1.00  0.00     0.069 A 
HETATM   19  C21 UNL     1      13.216  36.152  16.774  1.00  0.00     0.039 A 
HETATM   20  C22 UNL     1      12.361  35.673  17.774  1.00  0.00     0.032 A 
BRANCH  18  21
HETATM   21  O2  UNL     1      15.246  36.211  15.636  1.00  0.00    -0.347 OA
BRANCH  21  22
HETATM   22  C14 UNL     1      16.623  35.842  15.526  1.00  0.00     0.214 C 
BRANCH  22  23
HETATM   23  C15 UNL     1      16.915  34.923  14.360  1.00  0.00    -0.034 A 
HETATM   24  C16 UNL     1      18.047  34.095  14.345  1.00  0.00     0.009 A 
HETATM   25  C17 UNL     1      18.312  33.274  13.248  1.00  0.00     0.001 A 
HETATM   26  C18 UNL     1      17.457  33.280  12.148  1.00  0.00     0.000 A 
HETATM   27  C19 UNL     1      16.337  34.110  12.143  1.00  0.00     0.001 A 
HETATM   28  C20 UNL     1      16.070  34.931  13.240  1.00  0.00     0.009 A 
ENDBRANCH  22  23
ENDBRANCH  21  22
ENDBRANCH  18  21
ENDBRANCH  13  15
ENDBRANCH  10  13
BRANCH   1  29
HETATM   29  O1  UNL     1       6.948  33.758  20.126  1.00  0.00    -0.347 OA
BRANCH  29  30
HETATM   30  C3  UNL     1       6.023  34.561  19.395  1.00  0.00     0.202 C 
BRANCH  30  31
HETATM   31  C2  UNL     1       5.280  33.652  18.464  1.00  0.00    -0.011 C 
HETATM   32  C1  UNL     1       4.661  32.521  18.829  1.00  0.00     0.009 C 
ENDBRANCH  30  31
ENDBRANCH  29  30
ENDBRANCH   1  29
TORSDOF 8
ENDMDL
