MODEL 1
REMARK minimizedAffinity -7.62192678
REMARK  4 active torsions:
REMARK  status: ('A' for Active; 'I' for Inactive)
REMARK    1  A    between atoms: N1_1  and  C1_2 
REMARK    2  A    between atoms: C1_2  and  N2_4 
REMARK    3  A    between atoms: C2_7  and  C3_8 
REMARK    4  A    between atoms: C10_15  and  C11_16 
ROOT
HETATM    1  N2  UNL     1      10.519  35.532  18.177  1.00  0.00    -0.258 N 
HETATM    2  N3  UNL     1      11.634  35.756  17.389  1.00  0.00    -0.299 N 
ATOM      3  H3  UNL     1      11.683  36.346  16.559  1.00  0.00     0.187 HD
HETATM    4  C2  UNL     1      12.607  35.071  17.913  1.00  0.00     0.038 C 
HETATM    5  C9  UNL     1      12.227  34.213  19.092  1.00  0.00     0.091 C 
HETATM    6  C10 UNL     1      10.832  34.753  19.388  1.00  0.00     0.150 C 
ENDROOT
BRANCH   6   7
HETATM    7  C11 UNL     1      10.832  35.560  20.687  1.00  0.00    -0.022 A 
HETATM    8  C12 UNL     1      11.797  36.570  20.882  1.00  0.00     0.010 A 
HETATM    9  C13 UNL     1      11.840  37.305  22.061  1.00  0.00     0.002 A 
HETATM   10  C14 UNL     1      10.930  37.037  23.077  1.00  0.00     0.012 A 
HETATM   11  C15 UNL     1       9.968  36.029  22.934  1.00  0.00    -0.025 A 
HETATM   12  C16 UNL     1       9.070  35.774  23.984  1.00  0.00     0.012 A 
HETATM   13  C20 UNL     1       9.905  35.270  21.736  1.00  0.00    -0.018 A 
HETATM   14  C17 UNL     1       8.107  34.774  23.879  1.00  0.00     0.001 A 
HETATM   15  C18 UNL     1       8.030  34.015  22.721  1.00  0.00     0.001 A 
HETATM   16  C19 UNL     1       8.915  34.259  21.667  1.00  0.00     0.013 A 
ENDBRANCH   6   7
BRANCH   1  17
HETATM   17  C1  UNL     1       9.275  35.979  17.764  1.00  0.00     0.187 C 
HETATM   18  S1  UNL     1       8.101  36.697  18.701  1.00  0.00    -0.040 SA
BRANCH  17  19
HETATM   19  N1  UNL     1       9.038  35.780  16.436  1.00  0.00    -0.375 N 
HETATM   20  H1  UNL     1       8.127  35.961  16.040  1.00  0.00     0.158 HD
HETATM   21  H2  UNL     1       9.715  35.211  15.942  1.00  0.00     0.158 HD
ENDBRANCH  17  19
ENDBRANCH   1  17
BRANCH   4  22
HETATM   22  C3  UNL     1      13.988  35.082  17.373  1.00  0.00    -0.012 A 
HETATM   23  C4  UNL     1      15.001  34.434  18.090  1.00  0.00     0.013 A 
HETATM   24  C5  UNL     1      16.311  34.428  17.605  1.00  0.00     0.001 A 
HETATM   25  C6  UNL     1      16.614  35.069  16.406  1.00  0.00     0.000 A 
HETATM   26  C7  UNL     1      15.609  35.718  15.689  1.00  0.00     0.001 A 
HETATM   27  C8  UNL     1      14.297  35.726  16.170  1.00  0.00     0.013 A 
ENDBRANCH   4  22
TORSDOF 4
ENDMDL
