MODEL 1
REMARK minimizedAffinity -7.1316576
REMARK  0 active torsions:
REMARK  status: ('A' for Active; 'I' for Inactive)
ROOT
HETATM    1 CL1  UNL     1      11.549  35.646  19.125  1.00  0.00    -0.194 Cl
HETATM    2 CL2  UNL     1      15.535  36.624  16.183  1.00  0.00    -0.085 Cl
HETATM    3  C1  UNL     1      14.366  35.844  17.259  1.00  0.00     0.034 A 
HETATM    4  C2  UNL     1      14.198  34.473  17.274  1.00  0.00     0.023 A 
HETATM    5  C3  UNL     1      13.276  33.850  18.119  1.00  0.00     0.002 A 
HETATM    6  C4  UNL     1      12.517  34.665  18.961  1.00  0.00     0.023 A 
HETATM    7  C5  UNL     1      12.700  36.032  18.931  1.00  0.00     0.131 A 
HETATM    8  N1  UNL     1      11.928  36.865  19.791  1.00  0.00    -0.351 N 
HETATM    9  C6  UNL     1      10.934  36.360  20.677  1.00  0.00     0.096 A 
HETATM   10  N2  UNL     1      11.207  35.948  21.931  1.00  0.00    -0.341 N 
ATOM     11  H2  UNL     1      12.162  35.984  22.286  1.00  0.00     0.167 HD
HETATM   12  C7  UNL     1      10.195  35.482  22.723  1.00  0.00     0.182 A 
HETATM   13  N3  UNL     1       8.916  35.437  22.242  1.00  0.00    -0.355 N 
ATOM     14  H3  UNL     1       8.165  35.089  22.838  1.00  0.00     0.166 HD
HETATM   15  C8  UNL     1       8.641  35.848  20.989  1.00  0.00     0.028 A 
HETATM   16  C9  UNL     1       7.336  35.809  20.483  1.00  0.00     0.026 A 
HETATM   17  C10 UNL     1       7.063  36.236  19.193  1.00  0.00     0.002 A 
HETATM   18  C11 UNL     1       8.065  36.708  18.372  1.00  0.00    -0.003 A 
HETATM   19  C12 UNL     1       9.364  36.748  18.874  1.00  0.00    -0.005 A 
HETATM   20  C13 UNL     1       9.633  36.324  20.160  1.00  0.00     0.081 A 
HETATM   21  C14 UNL     1      13.611  36.654  18.096  1.00  0.00     0.047 A 
HETATM   22  H1  UNL     1      10.303  36.017  19.571  1.00  0.00     0.161 HD
HETATM   23  H5  UNL     1      12.062  37.906  19.810  1.00  0.00     0.163 HD
ENDROOT
TORSDOF 0
ENDMDL
