MODEL 1
REMARK minimizedAffinity -8.86946678
REMARK CNNscore 0.441861987
REMARK CNNaffinity 7.28431511
REMARK  9 active torsions:
REMARK  status: ('A' for Active; 'I' for Inactive)
REMARK    1  A    between atoms: O1_2  and  N1_3 
REMARK       I    between atoms: N1_3  and  C2_4 
REMARK    2  A    between atoms: C2_4  and  C3_6 
REMARK    3  A    between atoms: C5_8  and  N2_9 
REMARK    4  A    between atoms: N2_9  and  C6_10 
REMARK    5  A    between atoms: C9_18  and  N6_19 
REMARK       I    between atoms: N6_19  and  C10_20 
REMARK    6  A    between atoms: C10_20  and  O4_22 
REMARK    7  A    between atoms: O4_22  and  C11_23 
REMARK    8  A    between atoms: C11_23  and  C12_24 
REMARK    9  A    between atoms: C16_29  and  C17_30 
ROOT
HETATM    1  C6  UNL     1      -5.181   5.003  12.813  1.00  0.00     0.136 A 
HETATM    2  N3  UNL     1      -6.091   4.089  12.624  1.00  0.00    -0.336 N 
ATOM      3  H3  UNL     1      -7.053   4.266  12.913  1.00  0.00     0.168 HD
HETATM    4  C7  UNL     1      -5.771   2.899  12.043  1.00  0.00     0.199 A 
HETATM    5  N4  UNL     1      -4.601   2.532  11.639  1.00  0.00    -0.289 N 
ATOM      6  H4  UNL     1      -4.419   1.629  11.202  1.00  0.00     0.188 HD
HETATM    7  N5  UNL     1      -3.647   3.450  11.846  1.00  0.00    -0.260 N 
HETATM    8  C8  UNL     1      -2.346   3.275  11.493  1.00  0.00     0.147 C 
HETATM    9  C9  UNL     1      -1.647   4.410  11.825  1.00  0.00     0.063 C 
HETATM   10  C16 UNL     1      -2.553   5.274  12.548  1.00  0.00     0.006 C 
HETATM   11  C20 UNL     1      -3.819   4.672  12.441  1.00  0.00     0.109 A 
ENDROOT
BRANCH   1  12
HETATM   12  N2  UNL     1      -5.539   6.211  13.368  1.00  0.00    -0.338 N 
HETATM   13  H6  UNL     1      -5.033   7.026  13.073  1.00  0.00     0.167 HD
BRANCH  12  14
HETATM   14  C5  UNL     1      -6.480   6.454  14.388  1.00  0.00     0.073 A 
HETATM   15  C4  UNL     1      -7.788   6.803  14.012  1.00  0.00     0.053 A 
HETATM   16  C3  UNL     1      -8.764   7.132  14.970  1.00  0.00     0.074 A 
HETATM   17  C23 UNL     1      -8.417   7.105  16.321  1.00  0.00     0.135 A 
HETATM   18  C22 UNL     1      -7.134   6.753  16.720  1.00  0.00     0.088 A 
HETATM   19  F2  UNL     1      -9.317   7.396  17.272  1.00  0.00    -0.205 F 
HETATM   20  C21 UNL     1      -6.178   6.435  15.759  1.00  0.00     0.146 A 
HETATM   21  F1  UNL     1      -4.975   6.035  16.193  1.00  0.00    -0.204 F 
BRANCH  16  22
HETATM   22  C2  UNL     1     -10.126   7.498  14.490  1.00  0.00     0.278 C 
HETATM   23  N1  UNL     1     -11.029   6.467  14.334  1.00  0.00    -0.231 N 
HETATM   24  H4  UNL     1     -10.691   5.516  14.210  1.00  0.00     0.197 HD
HETATM   25  O2  UNL     1     -10.375   8.679  14.261  1.00  0.00    -0.265 OA
BRANCH  23  26
HETATM   26  O1  UNL     1     -12.149   6.795  13.531  1.00  0.00    -0.282 OA
HETATM   27  C1  UNL     1     -13.321   6.315  14.180  1.00  0.00     0.237 C 
ENDBRANCH  23  26
ENDBRANCH  16  22
ENDBRANCH  12  14
ENDBRANCH   1  12
BRANCH  10  28
HETATM   28  C17 UNL     1      -2.124   6.516  13.305  1.00  0.00     0.015 C 
HETATM   29  C18 UNL     1      -2.214   6.364  14.827  1.00  0.00     0.015 C 
HETATM   30  C19 UNL     1      -2.751   7.807  12.783  1.00  0.00     0.015 C 
ENDBRANCH  10  28
BRANCH   9  31
HETATM   31  N6  UNL     1      -0.308   4.504  11.495  1.00  0.00    -0.301 N 
HETATM   32  C10 UNL     1       0.330   5.538  10.871  1.00  0.00     0.365 C 
HETATM   33  O3  UNL     1      -0.138   6.594  10.474  1.00  0.00    -0.238 OA
HETATM   34  H9  UNL     1       0.224   3.645  11.468  1.00  0.00     0.171 HD
BRANCH  32  35
HETATM   35  O4  UNL     1       1.628   5.176  10.692  1.00  0.00    -0.301 OA
BRANCH  35  36
HETATM   36  C11 UNL     1       2.604   6.210  10.924  1.00  0.00     0.212 C 
BRANCH  36  37
HETATM   37  C12 UNL     1       3.497   6.400   9.690  1.00  0.00     0.145 C 
HETATM   38  C13 UNL     1       2.818   5.963   8.402  1.00  0.00     0.036 C 
HETATM   39  C14 UNL     1       2.164   7.231   7.917  1.00  0.00     0.029 C 
HETATM   40  C15 UNL     1       3.172   8.279   8.329  1.00  0.00     0.168 C 
HETATM   41  O5  UNL     1       3.784   7.808   9.536  1.00  0.00    -0.384 OA
ENDBRANCH  36  37
ENDBRANCH  35  36
ENDBRANCH  32  35
ENDBRANCH   9  31
TORSDOF 9
ENDMDL
