MODEL 1
REMARK minimizedAffinity -7.60546017
REMARK CNNscore 0.709573686
REMARK CNNaffinity 6.65361643
REMARK  4 active torsions:
REMARK  status: ('A' for Active; 'I' for Inactive)
REMARK       I    between atoms: C1_2  and  N1_3 
REMARK       I    between atoms: C1_2  and  N3_15 
REMARK    1  A    between atoms: N1_3  and  N2_4 
REMARK    2  A    between atoms: C2_6  and  C3_7 
REMARK    3  A    between atoms: C13_24  and  N6_25 
REMARK    4  A    between atoms: N6_25  and  C14_26 
ROOT
HETATM    1  O1  UNL     1      15.194  55.858   6.308  1.00  0.00    -0.245 OA
HETATM    2  C1  UNL     1      14.776  55.581   5.185  1.00  0.00     0.337 C 
HETATM    3  N1  UNL     1      14.889  54.319   4.607  1.00  0.00    -0.252 N 
HETATM    4  N3  UNL     1      14.166  56.536   4.370  1.00  0.00    -0.328 N 
HETATM    5  C9  UNL     1      13.834  57.837   4.946  1.00  0.00     0.134 C 
HETATM    6  C10 UNL     1      14.294  58.962   4.031  1.00  0.00     0.077 C 
HETATM    7  C11 UNL     1      13.736  58.772   2.647  1.00  0.00     0.023 A 
HETATM    8  N4  UNL     1      13.576  59.884   1.903  1.00  0.00    -0.355 N 
ATOM      9  H4  UNL     1      13.794  60.812   2.265  1.00  0.00     0.166 HD
HETATM   10  C12 UNL     1      13.116  59.696   0.664  1.00  0.00     0.182 A 
HETATM   11  N5  UNL     1      12.801  58.520   0.111  1.00  0.00    -0.338 N 
ATOM     12  H5  UNL     1      12.451  58.459  -0.845  1.00  0.00     0.168 HD
HETATM   13  C13 UNL     1      12.963  57.420   0.870  1.00  0.00     0.116 A 
HETATM   14  C20 UNL     1      13.447  57.499   2.174  1.00  0.00     0.026 A 
HETATM   15  C21 UNL     1      13.683  56.275   3.012  1.00  0.00     0.172 C 
HETATM   16  H1  UNL     1      14.097  54.039   4.044  1.00  0.00     0.191 HD
ENDROOT
BRANCH   3  17
HETATM   17  N2  UNL     1      15.422  53.233   5.265  1.00  0.00    -0.307 N 
HETATM   18  C2  UNL     1      16.700  53.054   5.161  1.00  0.00     0.120 C 
ATOM     19  H2  UNL     1      14.837  52.599   5.809  1.00  0.00     0.186 HD
BRANCH  18  20
HETATM   20  C3  UNL     1      17.435  51.975   5.858  1.00  0.00     0.003 A 
HETATM   21  C4  UNL     1      17.070  50.666   5.491  1.00  0.00     0.017 A 
HETATM   22  C5  UNL     1      17.702  49.567   6.073  1.00  0.00     0.043 A 
HETATM   23  C6  UNL     1      18.696  49.775   7.020  1.00  0.00     0.118 A 
HETATM   24  F1  UNL     1      19.303  48.720   7.579  1.00  0.00    -0.206 F 
HETATM   25  C7  UNL     1      19.066  51.058   7.400  1.00  0.00     0.066 A 
HETATM   26  C8  UNL     1      18.437  52.167   6.822  1.00  0.00     0.048 A 
HETATM   27 CL1  UNL     1      18.941  53.714   7.403  1.00  0.00    -0.083 Cl
ENDBRANCH  18  20
ENDBRANCH   3  17
BRANCH  13  28
HETATM   28  N6  UNL     1      12.607  56.151   0.346  1.00  0.00    -0.342 N 
HETATM   29  H11 UNL     1      11.891  55.741   0.939  1.00  0.00     0.167 HD
BRANCH  28  30
HETATM   30  C14 UNL     1      12.393  55.802  -1.010  1.00  0.00     0.034 A 
HETATM   31  C15 UNL     1      13.138  54.810  -1.660  1.00  0.00     0.029 A 
HETATM   32  C16 UNL     1      12.852  54.434  -2.976  1.00  0.00     0.004 A 
HETATM   33  C17 UNL     1      11.794  55.030  -3.657  1.00  0.00     0.019 A 
HETATM   34  C18 UNL     1      11.021  55.988  -3.010  1.00  0.00     0.013 A 
HETATM   35 BR1  UNL     1       9.564  56.784  -3.917  1.00  0.00    -0.051 Br
HETATM   36  C19 UNL     1      11.305  56.365  -1.694  1.00  0.00     0.048 A 
ENDBRANCH  28  30
ENDBRANCH  13  28
TORSDOF 4
ENDMDL
