MODEL 1
REMARK minimizedAffinity -6.88570499
REMARK  3 active torsions:
REMARK  status: ('A' for Active; 'I' for Inactive)
REMARK    1  A    between atoms: O1_1  and  C1_2 
REMARK    2  A    between atoms: C5_6  and  N1_7 
REMARK    3  A    between atoms: N1_7  and  C6_8 
ROOT
HETATM    1  C1  UNL     1      10.284  34.059  21.847  1.00  0.00     0.067 A 
HETATM    2  C2  UNL     1      11.444  33.587  21.257  1.00  0.00     0.037 A 
HETATM    3  C3  UNL     1      11.708  33.910  19.928  1.00  0.00     0.020 A 
HETATM    4  C4  UNL     1      10.806  34.714  19.183  1.00  0.00     0.035 A 
HETATM    5  C5  UNL     1      10.981  35.102  17.839  1.00  0.00     0.119 A 
HETATM    6  N2  UNL     1      10.065  35.839  17.187  1.00  0.00    -0.338 N 
ATOM      7  H2  UNL     1      10.191  36.105  16.211  1.00  0.00     0.168 HD
HETATM    8  C12 UNL     1       8.983  36.209  17.878  1.00  0.00     0.182 A 
HETATM    9  N3  UNL     1       8.723  35.916  19.156  1.00  0.00    -0.351 N 
ATOM     10  H3  UNL     1       7.875  36.244  19.619  1.00  0.00     0.166 HD
HETATM   11  C13 UNL     1       9.629  35.171  19.797  1.00  0.00     0.049 A 
HETATM   12  C14 UNL     1       9.386  34.839  21.124  1.00  0.00     0.067 A 
ENDROOT
BRANCH   5  13
HETATM   13  N1  UNL     1      12.171  34.713  17.164  1.00  0.00    -0.342 N 
HETATM   14  H4  UNL     1      12.271  33.706  17.239  1.00  0.00     0.167 HD
BRANCH  13  15
HETATM   15  C6  UNL     1      13.429  35.359  17.159  1.00  0.00     0.034 A 
HETATM   16  C7  UNL     1      14.547  34.676  17.665  1.00  0.00     0.029 A 
HETATM   17  C8  UNL     1      15.823  35.244  17.626  1.00  0.00     0.004 A 
HETATM   18  C9  UNL     1      16.007  36.500  17.056  1.00  0.00     0.019 A 
HETATM   19  C10 UNL     1      14.913  37.173  16.517  1.00  0.00     0.013 A 
HETATM   20 BR1  UNL     1      15.162  38.866  15.713  1.00  0.00    -0.051 Br
HETATM   21  C11 UNL     1      13.638  36.604  16.555  1.00  0.00     0.048 A 
ENDBRANCH  13  15
ENDBRANCH   5  13
BRANCH   1  22
HETATM   22  O1  UNL     1      10.054  33.728  23.148  1.00  0.00    -0.361 OA
HETATM   23  H1  UNL     1       9.203  34.109  23.426  1.00  0.00     0.217 HD
ENDBRANCH   1  22
TORSDOF 3
ENDMDL
