MODEL 1
REMARK minimizedAffinity -10.5808516
REMARK  3 active torsions:
REMARK  status: ('A' for Active; 'I' for Inactive)
REMARK    1  A    between atoms: C3_5  and  C4_6 
REMARK    2  A    between atoms: C13_19  and  N3_20 
REMARK    3  A    between atoms: N3_20  and  C14_21 
ROOT
HETATM    1  C1  UNL     1       8.278  -7.228  29.420  1.00  0.00     0.161 C 
HETATM    2  N1  UNL     1       8.063  -6.042  30.230  1.00  0.00    -0.303 N 
HETATM    3  C2  UNL     1       9.073  -5.576  31.055  1.00  0.00     0.260 A 
HETATM    4  O1  UNL     1      10.175  -6.113  31.155  1.00  0.00    -0.267 OA
HETATM    5  C3  UNL     1       8.781  -4.344  31.865  1.00  0.00     0.047 A 
HETATM    6  C10 UNL     1       7.588  -3.733  31.780  1.00  0.00     0.034 A 
HETATM    7  C11 UNL     1       6.571  -4.273  30.894  1.00  0.00     0.026 A 
HETATM    8  C12 UNL     1       5.324  -3.714  30.746  1.00  0.00     0.121 A 
HETATM    9  N2  UNL     1       4.376  -4.208  29.926  1.00  0.00    -0.201 N 
ATOM     10  H2  UNL     1       3.463  -3.763  29.843  1.00  0.00     0.183 HD
HETATM   11  C13 UNL     1       4.683  -5.311  29.224  1.00  0.00     0.684 A 
HETATM   12  N4  UNL     1       5.870  -5.923  29.305  1.00  0.00    -0.175 N 
ATOM     13  H4  UNL     1       6.068  -6.759  28.755  1.00  0.00     0.186 HD
HETATM   14  C20 UNL     1       6.800  -5.403  30.134  1.00  0.00     0.137 A 
ENDROOT
BRANCH  11  15
HETATM   15  N3  UNL     1       3.664  -5.773  28.396  1.00  0.00    -0.192 N 
HETATM   16  H9  UNL     1       3.159  -4.979  28.030  1.00  0.00     0.184 HD
BRANCH  15  17
HETATM   17  C14 UNL     1       3.229  -7.041  27.997  1.00  0.00     0.050 A 
HETATM   18  C15 UNL     1       4.090  -8.078  27.615  1.00  0.00     0.030 A 
HETATM   19  C16 UNL     1       3.597  -9.328  27.224  1.00  0.00     0.004 A 
HETATM   20  C17 UNL     1       2.226  -9.566  27.207  1.00  0.00     0.019 A 
HETATM   21  C18 UNL     1       1.356  -8.548  27.584  1.00  0.00     0.013 A 
HETATM   22 BR1  UNL     1      -0.510  -8.856  27.566  1.00  0.00    -0.051 Br
HETATM   23  C19 UNL     1       1.849  -7.300  27.974  1.00  0.00     0.049 A 
ENDBRANCH  15  17
ENDBRANCH  11  15
BRANCH   5  24
HETATM   24  C4  UNL     1       9.819  -3.801  32.762  1.00  0.00     0.023 A 
HETATM   25  C5  UNL     1      10.811  -2.928  32.277  1.00  0.00     0.046 A 
HETATM   26 CL1  UNL     1      10.848  -2.417  30.623  1.00  0.00    -0.083 Cl
HETATM   27  C6  UNL     1      11.803  -2.428  33.126  1.00  0.00     0.025 A 
HETATM   28  C7  UNL     1      11.826  -2.791  34.471  1.00  0.00     0.003 A 
HETATM   29  C8  UNL     1      10.852  -3.654  34.970  1.00  0.00     0.025 A 
HETATM   30  C9  UNL     1       9.857  -4.157  34.123  1.00  0.00     0.046 A 
HETATM   31 CL2  UNL     1       8.678  -5.215  34.825  1.00  0.00    -0.083 Cl
ENDBRANCH   5  24
TORSDOF 3
ENDMDL
