MODEL 1
REMARK minimizedAffinity -8.5799551
REMARK CNNscore 0.216612279
REMARK CNNaffinity 6.92571211
REMARK  6 active torsions:
REMARK  status: ('A' for Active; 'I' for Inactive)
REMARK    1  A    between atoms: O1_2  and  C2_3 
REMARK    2  A    between atoms: C5_6  and  C6_7 
REMARK    3  A    between atoms: C8_11  and  C9_12 
REMARK       I    between atoms: N2_19  and  C15_20 
REMARK    4  A    between atoms: C15_20  and  C16_22 
REMARK    5  A    between atoms: C16_22  and  C17_23 
REMARK    6  A    between atoms: N5_32  and  C22_33 
ROOT
HETATM    1  C6  UNL     1     -14.455   9.528  13.949  1.00  0.00     0.046 C 
HETATM    2  C7  UNL     1     -13.349   9.366  14.701  1.00  0.00     0.104 C 
HETATM    3  N1  UNL     1     -12.567  10.471  14.955  1.00  0.00    -0.336 N 
ATOM      4  H1  UNL     1     -12.938  11.413  14.825  1.00  0.00     0.168 HD
HETATM    5  C8  UNL     1     -11.348  10.289  15.366  1.00  0.00     0.141 C 
HETATM    6  N2  UNL     1     -10.775   9.025  15.603  1.00  0.00    -0.203 N 
HETATM    7  C15 UNL     1      -9.393   8.752  15.591  1.00  0.00     0.251 C 
HETATM    8  O2  UNL     1      -8.553   9.510  15.101  1.00  0.00    -0.271 OA
HETATM    9  N7  UNL     1     -11.674   7.948  15.711  1.00  0.00    -0.254 N 
HETATM   10  C29 UNL     1     -12.970   8.029  15.276  1.00  0.00     0.287 C 
HETATM   11  O4  UNL     1     -13.713   7.065  15.409  1.00  0.00    -0.264 OA
HETATM   12  H22 UNL     1     -11.438   7.107  16.221  1.00  0.00     0.191 HD
ENDROOT
BRANCH   5  13
HETATM   13  C9  UNL     1     -10.521  11.503  15.611  1.00  0.00     0.010 A 
HETATM   14  C10 UNL     1     -10.171  11.881  16.913  1.00  0.00     0.017 A 
HETATM   15  C11 UNL     1      -9.414  13.038  17.119  1.00  0.00     0.025 A 
HETATM   16  C12 UNL     1      -9.031  13.821  16.029  1.00  0.00     0.034 A 
HETATM   17 CL1  UNL     1      -8.099  15.244  16.285  1.00  0.00    -0.084 Cl
HETATM   18  C13 UNL     1      -9.404  13.464  14.732  1.00  0.00     0.025 A 
HETATM   19  C14 UNL     1     -10.157  12.306  14.523  1.00  0.00     0.017 A 
ENDBRANCH   5  13
BRANCH   7  20
HETATM   20  C16 UNL     1      -8.963   7.406  16.132  1.00  0.00     0.181 C 
BRANCH  20  21
HETATM   21  C17 UNL     1      -8.082   6.614  15.194  1.00  0.00     0.094 A 
HETATM   22  N3  UNL     1      -6.833   6.957  15.052  1.00  0.00    -0.329 N 
HETATM   23  C18 UNL     1      -6.124   6.149  14.213  1.00  0.00     0.146 A 
ATOM     24  H3  UNL     1      -6.421   7.760  15.526  1.00  0.00     0.168 HD
HETATM   25  C19 UNL     1      -6.618   5.055  13.538  1.00  0.00     0.101 A 
HETATM   26  N5  UNL     1      -4.779   6.248  13.853  1.00  0.00    -0.239 N 
HETATM   27  C20 UNL     1      -5.553   4.526  12.805  1.00  0.00     0.042 A 
HETATM   28  C28 UNL     1      -7.999   4.701  13.689  1.00  0.00     0.262 A 
HETATM   29  C21 UNL     1      -5.555   3.340  11.914  1.00  0.00     0.071 C 
HETATM   30  N4  UNL     1      -4.436   5.237  12.992  1.00  0.00    -0.295 N 
ATOM     31  H4  UNL     1      -3.518   5.063  12.580  1.00  0.00     0.187 HD
HETATM   32  O3  UNL     1      -8.549   3.780  13.097  1.00  0.00    -0.267 OA
HETATM   33  N6  UNL     1      -8.663   5.523  14.575  1.00  0.00    -0.312 N 
HETATM   34  H21 UNL     1      -9.666   5.384  14.611  1.00  0.00     0.170 HD
BRANCH  26  35
HETATM   35  C22 UNL     1      -3.791   7.204  14.244  1.00  0.00     0.058 A 
HETATM   36  C23 UNL     1      -3.590   8.343  13.443  1.00  0.00     0.031 A 
HETATM   37  C24 UNL     1      -2.641   9.304  13.797  1.00  0.00     0.002 A 
HETATM   38  C25 UNL     1      -1.882   9.140  14.952  1.00  0.00     0.000 A 
HETATM   39  C26 UNL     1      -2.068   8.015  15.752  1.00  0.00     0.002 A 
HETATM   40  C27 UNL     1      -3.020   7.049  15.403  1.00  0.00     0.031 A 
ENDBRANCH  26  35
ENDBRANCH  20  21
ENDBRANCH   7  20
BRANCH   1  41
HETATM   41  C5  UNL     1     -15.410   8.505  13.525  1.00  0.00    -0.034 A 
HETATM   42  C4  UNL     1     -15.117   7.659  12.451  1.00  0.00     0.014 A 
HETATM   43  C3  UNL     1     -16.033   6.680  12.048  1.00  0.00     0.037 A 
HETATM   44  C2  UNL     1     -17.249   6.538  12.720  1.00  0.00     0.068 A 
HETATM   45  C31 UNL     1     -17.534   7.380  13.797  1.00  0.00     0.037 A 
HETATM   46  C30 UNL     1     -16.623   8.359  14.202  1.00  0.00     0.014 A 
BRANCH  44  47
HETATM   47  O1  UNL     1     -18.229   5.631  12.428  1.00  0.00    -0.356 OA
HETATM   48  C1  UNL     1     -17.890   4.256  12.563  1.00  0.00     0.210 C 
ENDBRANCH  44  47
ENDBRANCH   1  41
TORSDOF 6
ENDMDL
