MODEL 1
REMARK minimizedAffinity -6.99739933
REMARK CNNscore 0.507178009
REMARK CNNaffinity 6.8678031
REMARK  10 active torsions:
REMARK  status: ('A' for Active; 'I' for Inactive)
REMARK    1  A    between atoms: C2_2  and  C3_3 
REMARK       I    between atoms: C3_3  and  N1_5 
REMARK    2  A    between atoms: N1_5  and  C4_6 
REMARK    3  A    between atoms: C7_9  and  N2_10 
REMARK    4  A    between atoms: N2_10  and  C8_11 
REMARK    5  A    between atoms: C17_26  and  O2_27 
REMARK    6  A    between atoms: O2_27  and  C18_28 
REMARK    7  A    between atoms: C18_28  and  C19_29 
REMARK    8  A    between atoms: C19_29  and  N5_30 
REMARK       I    between atoms: N5_30  and  C20_31 
REMARK    9  A    between atoms: C20_31  and  C21_33 
REMARK       I    between atoms: N6_37  and  C25_38 
REMARK   10  A    between atoms: C25_38  and  C26_40 
ROOT
HETATM    1  C4  UNL     1      15.030  53.953  -1.977  1.00  0.00     0.069 A 
HETATM    2  C5  UNL     1      14.666  55.113  -1.295  1.00  0.00     0.050 A 
HETATM    3  C6  UNL     1      13.334  55.596  -1.337  1.00  0.00     0.037 A 
HETATM    4  C7  UNL     1      12.878  56.769  -0.701  1.00  0.00     0.119 A 
HETATM    5  N3  UNL     1      11.598  57.175  -0.788  1.00  0.00    -0.338 N 
ATOM      6  H3  UNL     1      11.278  58.034  -0.340  1.00  0.00     0.168 HD
HETATM    7  C14 UNL     1      10.768  56.399  -1.486  1.00  0.00     0.182 A 
HETATM    8  N4  UNL     1      11.093  55.275  -2.131  1.00  0.00    -0.351 N 
ATOM      9  H4  UNL     1      10.402  54.743  -2.658  1.00  0.00     0.166 HD
HETATM   10  C15 UNL     1      12.366  54.881  -2.053  1.00  0.00     0.049 A 
HETATM   11  C16 UNL     1      12.738  53.714  -2.714  1.00  0.00     0.069 A 
HETATM   12  C17 UNL     1      14.052  53.240  -2.690  1.00  0.00     0.097 A 
ENDROOT
BRANCH  12  13
HETATM   13  O2  UNL     1      14.504  52.107  -3.328  1.00  0.00    -0.347 OA
BRANCH  13  14
HETATM   14  C18 UNL     1      13.639  50.969  -3.409  1.00  0.00     0.195 C 
BRANCH  14  15
HETATM   15  C19 UNL     1      13.328  50.416  -2.014  1.00  0.00     0.149 C 
BRANCH  15  16
HETATM   16  N5  UNL     1      11.917  50.176  -1.791  1.00  0.00    -0.357 N 
HETATM   17  C20 UNL     1      11.456  48.902  -1.519  1.00  0.00     0.240 C 
HETATM   18  O3  UNL     1      12.215  47.942  -1.388  1.00  0.00    -0.271 OA
HETATM   19  H16 UNL     1      11.257  50.843  -2.176  1.00  0.00     0.162 HD
BRANCH  17  20
HETATM   20  C21 UNL     1       9.926  48.805  -1.347  1.00  0.00     0.179 C 
HETATM   21  C22 UNL     1       9.577  47.976  -0.112  1.00  0.00     0.037 C 
HETATM   22  C23 UNL     1       9.487  46.550  -0.654  1.00  0.00     0.022 C 
HETATM   23  C24 UNL     1       8.906  46.738  -2.049  1.00  0.00     0.127 C 
HETATM   24  N6  UNL     1       9.329  48.068  -2.453  1.00  0.00    -0.339 N 
HETATM   25  C25 UNL     1       9.143  48.670  -3.675  1.00  0.00     0.220 C 
HETATM   26  O4  UNL     1       9.489  49.835  -3.876  1.00  0.00    -0.273 OA
BRANCH  25  27
HETATM   27  C26 UNL     1       8.491  47.811  -4.747  1.00  0.00     0.098 C 
HETATM   28  C27 UNL     1       6.996  48.061  -4.861  1.00  0.00     0.014 C 
ENDBRANCH  25  27
ENDBRANCH  17  20
ENDBRANCH  15  16
ENDBRANCH  14  15
ENDBRANCH  13  14
ENDBRANCH  12  13
BRANCH   1  29
HETATM   29  N1  UNL     1      16.346  53.440  -1.994  1.00  0.00    -0.321 N 
HETATM   30  C3  UNL     1      17.527  54.140  -2.006  1.00  0.00     0.245 C 
HETATM   31  O1  UNL     1      17.670  55.355  -2.055  1.00  0.00    -0.268 OA
HETATM   32  H4  UNL     1      16.386  52.431  -2.088  1.00  0.00     0.169 HD
BRANCH  30  33
HETATM   33  C2  UNL     1      18.745  53.281  -2.041  1.00  0.00     0.064 C 
HETATM   34  C1  UNL     1      19.695  53.244  -1.098  1.00  0.00     0.017 C 
ENDBRANCH  30  33
ENDBRANCH   1  29
BRANCH   4  35
HETATM   35  N2  UNL     1      13.802  57.564   0.030  1.00  0.00    -0.339 N 
HETATM   36  H6  UNL     1      13.823  58.497  -0.369  1.00  0.00     0.167 HD
BRANCH  35  37
HETATM   37  C8  UNL     1      13.976  57.570   1.433  1.00  0.00     0.072 A 
HETATM   38  C9  UNL     1      14.666  56.508   2.041  1.00  0.00     0.034 A 
HETATM   39  C10 UNL     1      14.853  56.469   3.427  1.00  0.00     0.021 A 
HETATM   40  C11 UNL     1      14.334  57.488   4.224  1.00  0.00     0.014 A 
HETATM   41 BR1  UNL     1      14.586  57.436   6.097  1.00  0.00    -0.051 Br
HETATM   42  C12 UNL     1      13.619  58.534   3.652  1.00  0.00     0.063 A 
HETATM   43  C13 UNL     1      13.437  58.564   2.270  1.00  0.00     0.144 A 
HETATM   44  F1  UNL     1      12.679  59.552   1.766  1.00  0.00    -0.204 F 
ENDBRANCH  35  37
ENDBRANCH   4  35
TORSDOF 10
ENDMDL
