MODEL 1
REMARK minimizedAffinity -9.61664867
REMARK  8 active torsions:
REMARK  status: ('A' for Active; 'I' for Inactive)
REMARK    1  A    between atoms: N2_5  and  C4_6 
REMARK    2  A    between atoms: C4_6  and  C5_7 
REMARK    3  A    between atoms: C6_8  and  C7_9 
REMARK       I    between atoms: C7_9  and  N3_11 
REMARK    4  A    between atoms: C14_23  and  N6_24 
REMARK    5  A    between atoms: N6_24  and  C15_25 
REMARK    6  A    between atoms: C15_25  and  C16_26 
REMARK    7  A    between atoms: C15_25  and  C17_28 
REMARK    8  A    between atoms: C16_26  and  O2_27 
ROOT
HETATM    1  C7  UNL     1      -2.051   7.983  14.015  1.00  0.00     0.243 C 
HETATM    2  O1  UNL     1      -2.368   8.717  14.948  1.00  0.00    -0.268 OA
HETATM    3  N3  UNL     1      -2.643   6.747  13.799  1.00  0.00    -0.344 N 
HETATM    4  C8  UNL     1      -3.495   6.201  14.869  1.00  0.00     0.131 C 
HETATM    5  C9  UNL     1      -4.814   5.627  14.332  1.00  0.00     0.060 C 
HETATM    6  C10 UNL     1      -4.554   4.721  13.166  1.00  0.00    -0.025 A 
HETATM    7  C11 UNL     1      -3.376   4.843  12.451  1.00  0.00     0.010 A 
HETATM    8  S1  UNL     1      -3.258   3.698  11.198  1.00  0.00    -0.074 SA
HETATM    9  C12 UNL     1      -4.781   3.034  11.583  1.00  0.00     0.089 A 
HETATM   10  N4  UNL     1      -5.256   1.996  10.877  1.00  0.00    -0.346 N 
ATOM     11  H4  UNL     1      -4.759   1.560  10.101  1.00  0.00     0.167 HD
HETATM   12  C13 UNL     1      -6.455   1.604  11.310  1.00  0.00     0.182 A 
HETATM   13  N5  UNL     1      -7.181   2.138  12.301  1.00  0.00    -0.342 N 
ATOM     14  H5  UNL     1      -8.098   1.755  12.531  1.00  0.00     0.167 HD
HETATM   15  C14 UNL     1      -6.688   3.190  12.993  1.00  0.00     0.095 A 
HETATM   16  C23 UNL     1      -5.406   3.677  12.644  1.00  0.00     0.043 A 
HETATM   17  C24 UNL     1      -2.280   5.832  12.705  1.00  0.00     0.172 C 
ENDROOT
BRANCH   1  18
HETATM   18  C6  UNL     1      -0.982   8.407  13.068  1.00  0.00     0.072 C 
HETATM   19  C5  UNL     1       0.311   8.277  13.408  1.00  0.00     0.008 C 
BRANCH  19  20
HETATM   20  C4  UNL     1       1.460   8.647  12.519  1.00  0.00     0.300 C 
BRANCH  20  21
HETATM   21  N2  UNL     1       2.386   7.528  12.337  1.00  0.00     0.095 N 
HETATM   22  C3  UNL     1       3.360   7.828  11.266  1.00  0.00     0.303 C 
HETATM   23  C2  UNL     1       4.015   6.562  10.672  1.00  0.00     0.302 C 
HETATM   24  N1  UNL     1       3.055   5.623  10.056  1.00  0.00     0.087 N 
HETATM   25  C1  UNL     1       3.031   5.736   8.602  1.00  0.00     0.310 C 
HETATM   26  C26 UNL     1       1.700   5.790  10.618  1.00  0.00     0.302 C 
HETATM   27  C25 UNL     1       1.707   6.236  12.098  1.00  0.00     0.303 C 
ENDBRANCH  20  21
ENDBRANCH  19  20
ENDBRANCH   1  18
BRANCH  15  28
HETATM   28  N6  UNL     1      -7.438   3.770  14.023  1.00  0.00    -0.267 NA
HETATM   29  H17 UNL     1      -7.115   3.400  14.917  1.00  0.00     0.130 HD
BRANCH  28  30
HETATM   30  C15 UNL     1      -7.454   5.240  14.085  1.00  0.00     0.118 C 
BRANCH  30  31
HETATM   31  C16 UNL     1      -7.711   5.655  15.557  1.00  0.00     0.188 C 
BRANCH  31  32
HETATM   32  O2  UNL     1      -8.289   4.562  16.284  1.00  0.00    -0.399 OA
HETATM   33  H21 UNL     1      -8.390   4.865  17.204  1.00  0.00     0.209 HD
ENDBRANCH  31  32
ENDBRANCH  30  31
BRANCH  30  34
HETATM   34  C17 UNL     1      -8.533   5.842  13.198  1.00  0.00    -0.038 A 
HETATM   35  C18 UNL     1      -9.607   6.533  13.777  1.00  0.00     0.009 A 
HETATM   36  C19 UNL     1     -10.626   7.063  12.980  1.00  0.00     0.001 A 
HETATM   37  C20 UNL     1     -10.583   6.906  11.597  1.00  0.00     0.000 A 
HETATM   38  C21 UNL     1      -9.523   6.223  11.007  1.00  0.00     0.001 A 
HETATM   39  C22 UNL     1      -8.504   5.693  11.801  1.00  0.00     0.009 A 
ENDBRANCH  30  34
ENDBRANCH  28  30
ENDBRANCH  15  28
TORSDOF 8
ENDMDL
