MODEL 1
REMARK minimizedAffinity -8.06163883
REMARK  9 active torsions:
REMARK  status: ('A' for Active; 'I' for Inactive)
REMARK    1  A    between atoms: O1_1  and  C1_2 
REMARK    2  A    between atoms: C1_2  and  C2_3 
REMARK    3  A    between atoms: C2_3  and  N1_4 
REMARK    4  A    between atoms: N1_4  and  C3_5 
REMARK    5  A    between atoms: C3_5  and  C4_6 
REMARK    6  A    between atoms: C8_15  and  N5_16 
REMARK    7  A    between atoms: N5_16  and  C9_17 
REMARK    8  A    between atoms: N7_25  and  C15_26 
REMARK    9  A    between atoms: C15_26  and  C16_27 
ROOT
HETATM    1  N5  UNL     1      10.438  34.684  19.453  1.00  0.00    -0.341 N 
HETATM    2  H12 UNL     1       9.591  34.476  18.892  1.00  0.00     0.167 HD
ENDROOT
BRANCH   1   3
HETATM    3  C8  UNL     1      10.196  34.998  20.773  1.00  0.00     0.136 A 
HETATM    4  N4  UNL     1      11.112  34.931  21.694  1.00  0.00    -0.336 N 
HETATM    5  C7  UNL     1      10.832  35.279  22.986  1.00  0.00     0.199 A 
ATOM      6  H4  UNL     1      12.050  34.615  21.449  1.00  0.00     0.168 HD
HETATM    7  N3  UNL     1       9.703  35.701  23.446  1.00  0.00    -0.289 N 
HETATM    8  N2  UNL     1       8.739  35.758  22.520  1.00  0.00    -0.263 N 
ATOM      9  H3  UNL     1       9.559  35.966  24.421  1.00  0.00     0.188 HD
HETATM   10  C6  UNL     1       7.458  36.159  22.752  1.00  0.00     0.117 A 
HETATM   11  C23 UNL     1       8.884  35.415  21.207  1.00  0.00     0.108 A 
HETATM   12  C5  UNL     1       6.753  36.038  21.580  1.00  0.00     0.030 A 
HETATM   13  C4  UNL     1       7.645  35.539  20.583  1.00  0.00     0.004 A 
BRANCH  13  14
HETATM   14  C3  UNL     1       7.234  35.223  19.180  1.00  0.00     0.310 C 
BRANCH  14  15
HETATM   15  N1  UNL     1       5.830  34.789  19.171  1.00  0.00     0.089 N 
HETATM   16  H6  UNL     1       5.330  35.319  19.887  1.00  0.00     0.316 HD
BRANCH  15  17
HETATM   17  C2  UNL     1       5.747  33.382  19.584  1.00  0.00     0.295 C 
BRANCH  17  18
HETATM   18  C1  UNL     1       4.815  32.556  18.682  1.00  0.00     0.194 C 
BRANCH  18  19
HETATM   19  O1  UNL     1       4.198  33.397  17.693  1.00  0.00    -0.399 OA
HETATM   20  H1  UNL     1       3.821  34.175  18.157  1.00  0.00     0.209 HD
ENDBRANCH  18  19
ENDBRANCH  17  18
ENDBRANCH  15  17
ENDBRANCH  14  15
ENDBRANCH  13  14
ENDBRANCH   1   3
BRANCH   1  21
HETATM   21  C9  UNL     1      11.589  34.873  18.662  1.00  0.00     0.034 A 
HETATM   22  C10 UNL     1      11.676  35.790  17.607  1.00  0.00     0.032 A 
HETATM   23  C11 UNL     1      12.863  36.014  16.893  1.00  0.00     0.034 A 
HETATM   24  C12 UNL     1      13.994  35.287  17.279  1.00  0.00     0.062 A 
HETATM   25  C13 UNL     1      13.958  34.368  18.321  1.00  0.00     0.011 A 
HETATM   26  N7  UNL     1      15.294  35.270  16.824  1.00  0.00    -0.288 N 
HETATM   27  C14 UNL     1      15.275  33.856  18.396  1.00  0.00     0.121 A 
HETATM   28  C22 UNL     1      12.751  34.169  19.022  1.00  0.00     0.044 A 
HETATM   29  N6  UNL     1      16.095  34.393  17.490  1.00  0.00    -0.308 N 
ATOM     30  H6  UNL     1      17.083  34.195  17.334  1.00  0.00     0.186 HD
BRANCH  26  31
HETATM   31  C15 UNL     1      15.873  36.133  15.801  1.00  0.00     0.187 C 
BRANCH  31  32
HETATM   32  C16 UNL     1      16.333  35.362  14.589  1.00  0.00    -0.035 A 
HETATM   33  C17 UNL     1      15.447  35.050  13.539  1.00  0.00     0.009 A 
HETATM   34  C18 UNL     1      15.866  34.300  12.438  1.00  0.00     0.004 A 
HETATM   35  C19 UNL     1      17.171  33.833  12.383  1.00  0.00     0.042 A 
HETATM   36  C20 UNL     1      18.045  34.122  13.430  1.00  0.00     0.117 A 
HETATM   37  F1  UNL     1      19.297  33.616  13.421  1.00  0.00    -0.206 F 
HETATM   38  C21 UNL     1      17.639  34.879  14.525  1.00  0.00     0.051 A 
ENDBRANCH  31  32
ENDBRANCH  26  31
ENDBRANCH   1  21
TORSDOF 9
ENDMDL
