MODEL 1
REMARK minimizedAffinity -8.41599083
REMARK CNNscore 0.869211376
REMARK CNNaffinity 8.1156683
REMARK  10 active torsions:
REMARK  status: ('A' for Active; 'I' for Inactive)
REMARK       I    between atoms: C1_2  and  N1_3 
REMARK    1  A    between atoms: C1_2  and  C5_10 
REMARK    2  A    between atoms: N1_3  and  C2_4 
REMARK    3  A    between atoms: C5_10  and  C6_11 
REMARK    4  A    between atoms: C5_10  and  N5_20 
REMARK    5  A    between atoms: C16_26  and  C17_27 
REMARK    6  A    between atoms: C18_28  and  C19_29 
REMARK    7  A    between atoms: C22_32  and  C23_33 
REMARK    8  A    between atoms: C23_33  and  N6_34 
REMARK    9  A    between atoms: C26_37  and  C27_38 
REMARK   10  A    between atoms: C27_38  and  O2_39 
ROOT
HETATM    1  N5  UNL     1      -6.902   6.442  14.507  1.00  0.00    -0.325 N 
HETATM    2  C12 UNL     1      -6.288   7.092  13.361  1.00  0.00     0.170 C 
HETATM    3  C13 UNL     1      -5.230   7.920  13.995  1.00  0.00     0.014 A 
HETATM    4  C14 UNL     1      -4.267   8.714  13.419  1.00  0.00     0.126 A 
HETATM    5  F1  UNL     1      -4.160   8.794  12.087  1.00  0.00    -0.205 F 
HETATM    6  C15 UNL     1      -3.399   9.440  14.234  1.00  0.00     0.063 A 
HETATM    7  C16 UNL     1      -3.512   9.364  15.636  1.00  0.00     0.022 A 
HETATM    8  C32 UNL     1      -4.489   8.557  16.227  1.00  0.00     0.038 A 
HETATM    9  C33 UNL     1      -5.324   7.850  15.381  1.00  0.00     0.044 A 
HETATM   10  C34 UNL     1      -6.431   6.946  15.710  1.00  0.00     0.255 C 
HETATM   11  O3  UNL     1      -6.822   6.726  16.839  1.00  0.00    -0.267 OA
ENDROOT
BRANCH   1  12
HETATM   12  C5  UNL     1      -8.187   5.750  14.383  1.00  0.00     0.232 C 
BRANCH  12  13
HETATM   13  C1  UNL     1      -8.026   4.505  13.464  1.00  0.00     0.252 C 
HETATM   14  O1  UNL     1      -9.007   4.058  12.860  1.00  0.00    -0.270 OA
HETATM   15  N1  UNL     1      -6.739   4.043  13.325  1.00  0.00    -0.305 N 
HETATM   16  H1  UNL     1      -6.003   4.459  13.894  1.00  0.00     0.171 HD
BRANCH  15  17
HETATM   17  C2  UNL     1      -6.395   2.987  12.535  1.00  0.00     0.150 A 
HETATM   18  N2  UNL     1      -7.105   1.955  12.161  1.00  0.00    -0.346 N 
HETATM   19  C3  UNL     1      -6.334   1.136  11.361  1.00  0.00     0.097 A 
ATOM     20  H2  UNL     1      -8.077   1.782  12.420  1.00  0.00     0.167 HD
HETATM   21  C4  UNL     1      -5.046   1.572  11.129  1.00  0.00     0.070 A 
HETATM   22  S1  UNL     1      -4.789   3.054  11.953  1.00  0.00    -0.064 SA
ENDBRANCH  15  17
ENDBRANCH  12  13
BRANCH  12  23
HETATM   23  C6  UNL     1      -9.310   6.703  14.052  1.00  0.00     0.065 A 
HETATM   24  N3  UNL     1     -10.355   6.333  13.186  1.00  0.00    -0.352 N 
HETATM   25  C7  UNL     1     -11.184   7.361  13.125  1.00  0.00     0.183 A 
ATOM     26  H3  UNL     1     -10.454   5.442  12.699  1.00  0.00     0.166 HD
HETATM   27  N4  UNL     1     -10.737   8.348  13.915  1.00  0.00    -0.345 N 
HETATM   28  C8  UNL     1      -9.592   7.960  14.535  1.00  0.00     0.037 A 
HETATM   29  C11 UNL     1     -11.181   9.672  14.292  1.00  0.00     0.130 C 
HETATM   30  C9  UNL     1      -9.097   9.011  15.441  1.00  0.00     0.061 C 
HETATM   31  C10 UNL     1     -10.340   9.934  15.555  1.00  0.00     0.026 C 
ENDBRANCH  12  23
ENDBRANCH   1  12
BRANCH   7  32
HETATM   32  C17 UNL     1      -2.630  10.133  16.457  1.00  0.00    -0.061 C 
HETATM   33  C18 UNL     1      -1.876  10.762  17.150  1.00  0.00    -0.061 C 
BRANCH  33  34
HETATM   34  C19 UNL     1      -0.965  11.492  17.976  1.00  0.00     0.018 A 
HETATM   35  C20 UNL     1       0.397  11.185  17.963  1.00  0.00     0.021 A 
HETATM   36  C21 UNL     1       1.282  11.907  18.766  1.00  0.00     0.010 A 
HETATM   37  C22 UNL     1       0.821  12.947  19.586  1.00  0.00    -0.030 A 
HETATM   38  C30 UNL     1      -0.551  13.238  19.601  1.00  0.00     0.010 A 
HETATM   39  C31 UNL     1      -1.438  12.516  18.797  1.00  0.00     0.021 A 
BRANCH  37  40
HETATM   40  C23 UNL     1       1.778  13.716  20.476  1.00  0.00     0.311 C 
BRANCH  40  41
HETATM   41  N6  UNL     1       2.888  12.898  20.990  1.00  0.00     0.092 N 
HETATM   42  C24 UNL     1       3.384  13.353  22.297  1.00  0.00     0.273 C 
HETATM   43  C25 UNL     1       3.046  12.407  23.450  1.00  0.00     0.037 C 
HETATM   44  C26 UNL     1       3.620  11.002  23.206  1.00  0.00     0.012 C 
HETATM   45  C28 UNL     1       3.548  10.622  21.715  1.00  0.00     0.037 C 
HETATM   46  C29 UNL     1       2.533  11.472  20.955  1.00  0.00     0.273 C 
BRANCH  44  47
HETATM   47  C27 UNL     1       2.947   9.954  24.100  1.00  0.00     0.168 C 
BRANCH  47  48
HETATM   48  O2  UNL     1       2.841   8.694  23.450  1.00  0.00    -0.400 OA
HETATM   49  H26 UNL     1       2.108   8.749  22.815  1.00  0.00     0.209 HD
ENDBRANCH  47  48
ENDBRANCH  44  47
ENDBRANCH  40  41
ENDBRANCH  37  40
ENDBRANCH  33  34
ENDBRANCH   7  32
TORSDOF 10
ENDMDL
