MODEL 1
REMARK minimizedAffinity -7.67325449
REMARK  8 active torsions:
REMARK  status: ('A' for Active; 'I' for Inactive)
REMARK    1  A    between atoms: C2_2  and  C3_3 
REMARK       I    between atoms: C3_3  and  N1_5 
REMARK    2  A    between atoms: N1_5  and  C4_6 
REMARK    3  A    between atoms: C7_9  and  O2_10 
REMARK    4  A    between atoms: C9_12  and  N2_13 
REMARK    5  A    between atoms: N2_13  and  C10_14 
REMARK    6  A    between atoms: C12_16  and  C13_17 
REMARK    7  A    between atoms: C14_20  and  S1_21 
REMARK    8  A    between atoms: C17_25  and  C18_26 
ROOT
HETATM    1  C10 UNL     1      14.284  34.865  17.353  1.00  0.00     0.106 A 
HETATM    2  C11 UNL     1      14.827  35.719  16.394  1.00  0.00     0.062 A 
HETATM    3  C12 UNL     1      16.212  35.790  16.230  1.00  0.00    -0.002 A 
HETATM    4  C24 UNL     1      17.023  35.029  17.067  1.00  0.00     0.031 A 
HETATM    5  C25 UNL     1      16.413  34.219  18.003  1.00  0.00     0.090 A 
HETATM    6  N5  UNL     1      15.075  34.125  18.159  1.00  0.00    -0.352 N 
ATOM      7  H5  UNL     1      14.672  33.512  18.868  1.00  0.00     0.166 HD
ENDROOT
BRANCH   1   8
HETATM    8  N2  UNL     1      12.880  34.833  17.473  1.00  0.00    -0.340 N 
HETATM    9  H10 UNL     1      12.495  33.945  17.158  1.00  0.00     0.167 HD
BRANCH   8  10
HETATM   10  C9  UNL     1      12.051  35.383  18.479  1.00  0.00     0.069 A 
HETATM   11  C7  UNL     1      12.624  36.231  19.445  1.00  0.00     0.095 A 
HETATM   12  C6  UNL     1      11.865  36.722  20.506  1.00  0.00     0.041 A 
HETATM   13  C5  UNL     1      10.508  36.402  20.599  1.00  0.00     0.032 A 
HETATM   14  C4  UNL     1       9.909  35.582  19.643  1.00  0.00     0.037 A 
HETATM   15  C26 UNL     1      10.692  35.067  18.598  1.00  0.00     0.062 A 
BRANCH  11  16
HETATM   16  O2  UNL     1      13.966  36.515  19.320  1.00  0.00    -0.354 OA
HETATM   17  C8  UNL     1      14.569  36.784  20.588  1.00  0.00     0.210 C 
ENDBRANCH  11  16
BRANCH  14  18
HETATM   18  N1  UNL     1       8.544  35.228  19.650  1.00  0.00    -0.324 N 
HETATM   19  C3  UNL     1       7.493  35.920  19.084  1.00  0.00     0.244 C 
HETATM   20  O1  UNL     1       7.540  36.989  18.493  1.00  0.00    -0.268 OA
HETATM   21  H4  UNL     1       8.331  34.361  20.127  1.00  0.00     0.169 HD
BRANCH  19  22
HETATM   22  C2  UNL     1       6.198  35.199  19.269  1.00  0.00     0.064 C 
HETATM   23  C1  UNL     1       6.155  34.019  19.899  1.00  0.00     0.017 C 
ENDBRANCH  19  22
ENDBRANCH  14  18
ENDBRANCH   8  10
ENDBRANCH   1   8
BRANCH   3  24
HETATM   24  C13 UNL     1      16.827  36.639  15.226  1.00  0.00     0.072 A 
HETATM   25  N3  UNL     1      17.042  37.978  15.450  1.00  0.00    -0.334 N 
HETATM   26  C14 UNL     1      17.610  38.426  14.358  1.00  0.00     0.146 A 
ATOM     27  H3  UNL     1      16.809  38.510  16.288  1.00  0.00     0.168 HD
HETATM   28  N4  UNL     1      17.826  37.424  13.445  1.00  0.00    -0.329 N 
HETATM   29  C16 UNL     1      18.510  37.559  12.179  1.00  0.00     0.158 C 
HETATM   30  C17 UNL     1      17.296  36.256  13.973  1.00  0.00     0.074 A 
BRANCH  26  31
HETATM   31  S1  UNL     1      18.051  40.078  14.074  1.00  0.00    -0.098 SA
HETATM   32  C15 UNL     1      16.494  40.727  13.424  1.00  0.00     0.099 C 
ENDBRANCH  26  31
BRANCH  30  33
HETATM   33  C18 UNL     1      17.331  34.953  13.314  1.00  0.00    -0.007 A 
HETATM   34  C19 UNL     1      16.264  34.548  12.501  1.00  0.00     0.017 A 
HETATM   35  C20 UNL     1      16.311  33.319  11.842  1.00  0.00     0.043 A 
HETATM   36  C21 UNL     1      17.423  32.501  11.995  1.00  0.00     0.116 A 
HETATM   37  F1  UNL     1      17.473  31.328  11.354  1.00  0.00    -0.206 F 
HETATM   38  C22 UNL     1      18.490  32.886  12.797  1.00  0.00     0.043 A 
HETATM   39  C23 UNL     1      18.447  34.115  13.457  1.00  0.00     0.017 A 
ENDBRANCH  30  33
ENDBRANCH   3  24
TORSDOF 8
ENDMDL
