MODEL 1
REMARK minimizedAffinity -7.38813972
REMARK  2 active torsions:
REMARK  status: ('A' for Active; 'I' for Inactive)
REMARK    1  A    between atoms: C5_6  and  N1_7 
REMARK    2  A    between atoms: N1_7  and  C6_8 
ROOT
HETATM    1  C6  UNL     1      10.877  35.140  17.794  1.00  0.00     0.126 A 
HETATM    2  N2  UNL     1       9.999  35.748  16.964  1.00  0.00    -0.337 N 
ATOM      3  H2  UNL     1      10.248  35.920  15.990  1.00  0.00     0.168 HD
HETATM    4  C7  UNL     1       8.801  36.122  17.432  1.00  0.00     0.182 A 
HETATM    5  N3  UNL     1       8.331  35.970  18.670  1.00  0.00    -0.350 N 
ATOM      6  H3  UNL     1       7.403  36.283  18.954  1.00  0.00     0.166 HD
HETATM    7  C8  UNL     1       9.197  35.361  19.520  1.00  0.00     0.067 A 
HETATM    8  C9  UNL     1      10.461  34.939  19.120  1.00  0.00     0.078 A 
HETATM    9  S1  UNL     1      11.309  34.209  20.427  1.00  0.00    -0.066 SA
HETATM   10  C10 UNL     1      10.014  34.453  21.499  1.00  0.00     0.087 A 
HETATM   11  N4  UNL     1      10.104  34.050  22.784  1.00  0.00    -0.360 N 
ATOM     12  H4  UNL     1      10.931  33.591  23.165  1.00  0.00     0.166 HD
HETATM   13  C11 UNL     1       9.002  34.307  23.519  1.00  0.00     0.089 A 
HETATM   14  C12 UNL     1       7.854  34.925  23.056  1.00  0.00     0.018 A 
HETATM   15  C13 UNL     1       7.805  35.325  21.723  1.00  0.00     0.018 A 
HETATM   16  C14 UNL     1       8.929  35.082  20.902  1.00  0.00     0.026 A 
ENDROOT
BRANCH   1  17
HETATM   17  N1  UNL     1      12.148  34.723  17.369  1.00  0.00    -0.341 N 
HETATM   18  H4  UNL     1      12.222  33.715  17.302  1.00  0.00     0.167 HD
BRANCH  17  19
HETATM   19  C5  UNL     1      13.320  35.417  17.024  1.00  0.00     0.034 A 
HETATM   20  C4  UNL     1      13.334  36.682  16.425  1.00  0.00     0.029 A 
HETATM   21  C3  UNL     1      14.536  37.323  16.106  1.00  0.00     0.004 A 
HETATM   22  C2  UNL     1      15.753  36.708  16.380  1.00  0.00     0.019 A 
HETATM   23  C1  UNL     1      15.759  35.452  16.974  1.00  0.00     0.013 A 
HETATM   24 BR1  UNL     1      17.405  34.602  17.354  1.00  0.00    -0.051 Br
HETATM   25  C15 UNL     1      14.559  34.811  17.294  1.00  0.00     0.048 A 
ENDBRANCH  17  19
ENDBRANCH   1  17
TORSDOF 2
ENDMDL
