MODEL 1
REMARK minimizedAffinity -7.12006998
REMARK CNNscore 0.758071482
REMARK CNNaffinity 5.84128189
REMARK  3 active torsions:
REMARK  status: ('A' for Active; 'I' for Inactive)
REMARK    1  A    between atoms: C4_5  and  C5_6 
REMARK    2  A    between atoms: N2_9  and  C6_10 
REMARK    3  A    between atoms: C12_16  and  C13_17 
ROOT
HETATM    1  C5  UNL     1      17.355  52.367   5.524  1.00  0.00     0.038 C 
HETATM    2  N1  UNL     1      16.967  51.133   5.627  1.00  0.00    -0.301 N 
ATOM      3  H1  UNL     1      16.031  50.775   5.434  1.00  0.00     0.187 HD
HETATM    4  N2  UNL     1      18.044  50.403   6.044  1.00  0.00    -0.283 N 
HETATM    5  C12 UNL     1      19.230  51.224   6.313  1.00  0.00     0.148 C 
HETATM    6  C23 UNL     1      18.811  52.606   5.808  1.00  0.00     0.091 C 
ENDROOT
BRANCH   5   7
HETATM    7  C13 UNL     1      19.627  51.291   7.789  1.00  0.00    -0.022 A 
HETATM    8  C14 UNL     1      20.026  50.116   8.459  1.00  0.00     0.010 A 
HETATM    9  C15 UNL     1      20.381  50.137   9.802  1.00  0.00     0.002 A 
HETATM   10  C16 UNL     1      20.331  51.331  10.511  1.00  0.00     0.012 A 
HETATM   11  C17 UNL     1      19.921  52.519   9.891  1.00  0.00    -0.025 A 
HETATM   12  C18 UNL     1      19.870  53.707  10.638  1.00  0.00     0.012 A 
HETATM   13  C22 UNL     1      19.556  52.518   8.518  1.00  0.00    -0.018 A 
HETATM   14  C19 UNL     1      19.458  54.904  10.058  1.00  0.00     0.001 A 
HETATM   15  C20 UNL     1      19.090  54.927   8.721  1.00  0.00     0.001 A 
HETATM   16  C21 UNL     1      19.136  53.752   7.963  1.00  0.00     0.013 A 
ENDBRANCH   5   7
BRANCH   4  17
HETATM   17  C6  UNL     1      18.030  49.008   5.968  1.00  0.00     0.051 A 
HETATM   18  C7  UNL     1      19.199  48.294   5.654  1.00  0.00     0.031 A 
HETATM   19  C8  UNL     1      19.212  46.897   5.567  1.00  0.00     0.002 A 
HETATM   20  C9  UNL     1      18.045  46.176   5.789  1.00  0.00     0.000 A 
HETATM   21  C10 UNL     1      16.870  46.854   6.094  1.00  0.00     0.002 A 
HETATM   22  C11 UNL     1      16.865  48.252   6.180  1.00  0.00     0.031 A 
ENDBRANCH   4  17
BRANCH   1  23
HETATM   23  C4  UNL     1      16.447  53.467   5.121  1.00  0.00    -0.012 A 
HETATM   24  C3  UNL     1      15.061  53.378   5.298  1.00  0.00     0.015 A 
HETATM   25  C2  UNL     1      14.235  54.437   4.905  1.00  0.00     0.024 A 
HETATM   26  C1  UNL     1      14.792  55.582   4.338  1.00  0.00     0.034 A 
HETATM   27 CL1  UNL     1      13.771  56.880   3.857  1.00  0.00    -0.084 Cl
HETATM   28  C25 UNL     1      16.169  55.680   4.159  1.00  0.00     0.024 A 
HETATM   29  C24 UNL     1      16.996  54.624   4.550  1.00  0.00     0.015 A 
ENDBRANCH   1  23
TORSDOF 3
ENDMDL
