MODEL 1
REMARK minimizedAffinity -6.51810265
REMARK  5 active torsions:
REMARK  status: ('A' for Active; 'I' for Inactive)
REMARK    1  A    between atoms: C2_2  and  C3_3 
REMARK    2  A    between atoms: C3_3  and  C4_5 
REMARK    3  A    between atoms: C4_5  and  C5_6 
REMARK    4  A    between atoms: C8_9  and  N1_10 
REMARK    5  A    between atoms: N1_10  and  C9_11 
ROOT
HETATM    1  C5  UNL     1       8.426  35.676  19.111  1.00  0.00     0.017 A 
HETATM    2  C6  UNL     1       9.605  35.240  19.705  1.00  0.00     0.043 A 
HETATM    3  C7  UNL     1      10.802  35.189  18.946  1.00  0.00     0.038 A 
HETATM    4  C8  UNL     1      12.057  34.767  19.429  1.00  0.00     0.119 A 
HETATM    5  N2  UNL     1      13.142  34.719  18.634  1.00  0.00    -0.338 N 
ATOM      6  H2  UNL     1      14.045  34.401  18.986  1.00  0.00     0.168 HD
HETATM    7  C15 UNL     1      12.988  35.108  17.366  1.00  0.00     0.182 A 
HETATM    8  N3  UNL     1      11.853  35.537  16.808  1.00  0.00    -0.350 N 
ATOM      9  H3  UNL     1      11.811  35.826  15.831  1.00  0.00     0.166 HD
HETATM   10  C16 UNL     1      10.773  35.568  17.602  1.00  0.00     0.062 A 
HETATM   11  C17 UNL     1       9.546  35.988  17.115  1.00  0.00     0.118 A 
HETATM   12  N4  UNL     1       8.384  36.057  17.817  1.00  0.00    -0.367 N 
ATOM     13  H4  UNL     1       7.518  36.383  17.385  1.00  0.00     0.165 HD
ENDROOT
BRANCH   4  14
HETATM   14  N1  UNL     1      12.173  34.390  20.794  1.00  0.00    -0.342 N 
HETATM   15  H7  UNL     1      12.134  33.378  20.864  1.00  0.00     0.167 HD
BRANCH  14  16
HETATM   16  C9  UNL     1      11.608  35.009  21.933  1.00  0.00     0.034 A 
HETATM   17  C10 UNL     1      12.272  36.002  22.665  1.00  0.00     0.029 A 
HETATM   18  C11 UNL     1      11.711  36.545  23.825  1.00  0.00     0.004 A 
HETATM   19  C12 UNL     1      10.482  36.083  24.288  1.00  0.00     0.019 A 
HETATM   20  C13 UNL     1       9.829  35.071  23.592  1.00  0.00     0.013 A 
HETATM   21 BR1  UNL     1       8.172  34.417  24.227  1.00  0.00    -0.051 Br
HETATM   22  C14 UNL     1      10.388  34.528  22.433  1.00  0.00     0.048 A 
ENDBRANCH  14  16
ENDBRANCH   4  14
BRANCH   1  23
HETATM   23  C4  UNL     1       7.142  35.751  19.889  1.00  0.00     0.140 C 
BRANCH  23  24
HETATM   24  C3  UNL     1       6.374  34.450  19.854  1.00  0.00     0.154 C 
HETATM   25  O1  UNL     1       6.594  33.559  20.679  1.00  0.00    -0.293 OA
BRANCH  24  26
HETATM   26  C2  UNL     1       5.340  34.202  18.811  1.00  0.00     0.040 C 
HETATM   27  C1  UNL     1       5.088  33.023  18.229  1.00  0.00     0.015 C 
ENDBRANCH  24  26
ENDBRANCH  23  24
ENDBRANCH   1  23
TORSDOF 5
ENDMDL
