MODEL 1
REMARK minimizedAffinity -9.69486141
REMARK  9 active torsions:
REMARK  status: ('A' for Active; 'I' for Inactive)
REMARK    1  A    between atoms: O1_2  and  C2_3 
REMARK    2  A    between atoms: C5_6  and  C6_7 
REMARK    3  A    between atoms: C6_7  and  C7_8 
REMARK    4  A    between atoms: C7_8  and  C8_9 
REMARK    5  A    between atoms: C7_8  and  N1_11 
REMARK    6  A    between atoms: C8_9  and  O2_10 
REMARK    7  A    between atoms: C10_13  and  C11_14 
REMARK    8  A    between atoms: C15_18  and  O3_19 
REMARK    9  A    between atoms: C18_22  and  N2_23 
ROOT
HETATM    1  N1  UNL     1       7.602  -5.112  30.144  1.00  0.00    -0.334 N 
HETATM    2  C9  UNL     1       7.805  -4.768  31.460  1.00  0.00     0.106 A 
HETATM    3  C10 UNL     1       9.164  -4.618  31.661  1.00  0.00     0.007 A 
HETATM    4  C17 UNL     1       9.809  -4.856  30.409  1.00  0.00     0.059 A 
HETATM    5  C18 UNL     1      11.125  -4.851  29.916  1.00  0.00     0.093 A 
HETATM    6  N3  UNL     1      11.338  -5.130  28.615  1.00  0.00    -0.343 N 
ATOM      7  H3  UNL     1      12.282  -5.134  28.229  1.00  0.00     0.167 HD
HETATM    8  C19 UNL     1      10.274  -5.402  27.838  1.00  0.00     0.183 A 
HETATM    9  N4  UNL     1       8.979  -5.423  28.185  1.00  0.00    -0.338 N 
ATOM     10  H4  UNL     1       8.216  -5.622  27.537  1.00  0.00     0.168 HD
HETATM   11  C20 UNL     1       8.808  -5.149  29.489  1.00  0.00     0.123 A 
ENDROOT
BRANCH   1  12
HETATM   12  C7  UNL     1       6.286  -5.375  29.549  1.00  0.00     0.118 C 
BRANCH  12  13
HETATM   13  C6  UNL     1       6.181  -6.839  29.076  1.00  0.00     0.066 C 
BRANCH  13  14
HETATM   14  C5  UNL     1       4.830  -7.185  28.490  1.00  0.00    -0.056 A 
HETATM   15  C4  UNL     1       3.724  -6.349  28.695  1.00  0.00     0.010 A 
HETATM   16  C3  UNL     1       2.470  -6.678  28.168  1.00  0.00     0.037 A 
HETATM   17  C2  UNL     1       2.308  -7.845  27.422  1.00  0.00     0.068 A 
HETATM   18  C22 UNL     1       3.411  -8.671  27.203  1.00  0.00     0.037 A 
HETATM   19  C21 UNL     1       4.662  -8.348  27.732  1.00  0.00     0.010 A 
BRANCH  17  20
HETATM   20  O1  UNL     1       1.144  -8.281  26.852  1.00  0.00    -0.356 OA
HETATM   21  C1  UNL     1       1.033  -8.154  25.441  1.00  0.00     0.210 C 
ENDBRANCH  17  20
ENDBRANCH  13  14
ENDBRANCH  12  13
BRANCH  12  22
HETATM   22  C8  UNL     1       5.140  -4.968  30.494  1.00  0.00     0.190 C 
BRANCH  22  23
HETATM   23  O2  UNL     1       4.745  -3.610  30.284  1.00  0.00    -0.399 OA
HETATM   24  H11 UNL     1       4.380  -3.538  29.386  1.00  0.00     0.209 HD
ENDBRANCH  22  23
ENDBRANCH  12  22
ENDBRANCH   1  12
BRANCH   3  25
HETATM   25  C11 UNL     1       9.725  -4.299  32.961  1.00  0.00    -0.021 A 
HETATM   26  C12 UNL     1      11.011  -3.755  33.055  1.00  0.00     0.012 A 
HETATM   27  C13 UNL     1      11.552  -3.436  34.302  1.00  0.00     0.004 A 
HETATM   28  C14 UNL     1      10.813  -3.659  35.464  1.00  0.00     0.036 A 
HETATM   29  C15 UNL     1       9.534  -4.200  35.365  1.00  0.00     0.066 A 
HETATM   30  C16 UNL     1       8.987  -4.524  34.128  1.00  0.00     0.049 A 
BRANCH  29  31
HETATM   31  O3  UNL     1       8.775  -4.428  36.475  1.00  0.00    -0.361 OA
HETATM   32  H16 UNL     1       9.285  -4.162  37.258  1.00  0.00     0.217 HD
ENDBRANCH  29  31
ENDBRANCH   3  25
BRANCH   5  33
HETATM   33  N2  UNL     1      12.245  -4.551  30.680  1.00  0.00    -0.288 NA
HETATM   34  H18 UNL     1      13.028  -4.312  30.084  1.00  0.00     0.125 HD
HETATM   35  H19 UNL     1      12.066  -3.933  31.462  1.00  0.00     0.125 HD
ENDBRANCH   5  33
TORSDOF 9
ENDMDL
