MODEL 1
REMARK minimizedAffinity -6.82643175
REMARK  2 active torsions:
REMARK  status: ('A' for Active; 'I' for Inactive)
REMARK    1  A    between atoms: C6_6  and  N1_7 
REMARK    2  A    between atoms: N1_7  and  C7_8 
ROOT
HETATM    1  C7  UNL     1      10.731  35.151  17.857  1.00  0.00     0.121 A 
HETATM    2  N2  UNL     1       9.865  35.763  17.006  1.00  0.00    -0.338 N 
ATOM      3  H2  UNL     1      10.121  35.905  16.029  1.00  0.00     0.168 HD
HETATM    4  C8  UNL     1       8.669  36.179  17.457  1.00  0.00     0.183 A 
HETATM    5  N3  UNL     1       8.176  36.075  18.697  1.00  0.00    -0.338 N 
ATOM      6  H3  UNL     1       7.256  36.411  18.982  1.00  0.00     0.168 HD
HETATM    7  C9  UNL     1       9.047  35.470  19.514  1.00  0.00     0.121 A 
HETATM    8  N4  UNL     1       8.806  35.232  20.835  1.00  0.00    -0.345 N 
HETATM    9  C10 UNL     1       9.881  34.602  21.408  1.00  0.00     0.014 A 
HETATM   10  C11 UNL     1       9.880  34.227  22.846  1.00  0.00     0.068 C 
HETATM   11  C12 UNL     1      10.845  34.432  20.421  1.00  0.00    -0.022 A 
HETATM   12  C13 UNL     1      12.176  33.793  20.608  1.00  0.00     0.051 C 
HETATM   13  C14 UNL     1      10.309  34.989  19.201  1.00  0.00     0.060 A 
HETATM   14  H9  UNL     1       7.947  35.494  21.298  1.00  0.00     0.167 HD
ENDROOT
BRANCH   1  15
HETATM   15  N1  UNL     1      11.984  34.697  17.417  1.00  0.00    -0.342 N 
HETATM   16  H7  UNL     1      11.987  33.716  17.191  1.00  0.00     0.167 HD
BRANCH  15  17
HETATM   17  C6  UNL     1      13.224  35.329  17.219  1.00  0.00     0.034 A 
HETATM   18  C5  UNL     1      14.382  34.682  17.684  1.00  0.00     0.029 A 
HETATM   19  C4  UNL     1      15.648  35.251  17.525  1.00  0.00     0.003 A 
HETATM   20  C3  UNL     1      15.784  36.482  16.891  1.00  0.00     0.007 A 
HETATM   21  C2  UNL     1      14.654  37.144  16.403  1.00  0.00    -0.060 A 
HETATM   22  C1  UNL     1      14.780  38.487  15.746  1.00  0.00     0.048 C 
HETATM   23  C15 UNL     1      13.384  36.565  16.584  1.00  0.00     0.036 A 
ENDBRANCH  15  17
ENDBRANCH   1  15
TORSDOF 2
ENDMDL
