MODEL 1
REMARK minimizedAffinity -9.18334961
REMARK  12 active torsions:
REMARK  status: ('A' for Active; 'I' for Inactive)
REMARK    1  A    between atoms: C6_6  and  C8_8 
REMARK    2  A    between atoms: C8_8  and  C9_9 
REMARK    3  A    between atoms: C9_9  and  C10_10 
REMARK    4  A    between atoms: C12_12  and  C13_13 
REMARK    5  A    between atoms: C13_13  and  C14_14 
REMARK    6  A    between atoms: C15_15  and  O1_16 
REMARK    7  A    between atoms: C18_20  and  N1_21 
REMARK    8  A    between atoms: N1_21  and  C19_22 
REMARK    9  A    between atoms: C19_22  and  C20_23 
REMARK   10  A    between atoms: C19_22  and  C21_26 
REMARK   11  A    between atoms: C20_23  and  O4_25 
REMARK   12  A    between atoms: C21_26  and  O5_28 
ROOT
HETATM    1  C14 UNL     1      -2.834   3.809  11.377  1.00  0.00     0.035 A 
HETATM    2  C15 UNL     1      -1.802   3.054  10.976  1.00  0.00     0.126 A 
HETATM    3  C16 UNL     1      -0.457   3.189  11.585  1.00  0.00     0.207 A 
HETATM    4  O2  UNL     1       0.460   2.473  11.189  1.00  0.00    -0.285 OA
HETATM    5  C17 UNL     1      -0.262   4.200  12.628  1.00  0.00     0.091 A 
HETATM    6  C18 UNL     1      -1.260   4.968  13.079  1.00  0.00     0.084 A 
HETATM    7  C23 UNL     1      -2.645   4.762  12.503  1.00  0.00     0.207 A 
HETATM    8  O6  UNL     1      -3.591   5.384  12.986  1.00  0.00    -0.285 OA
ENDROOT
BRANCH   1   9
HETATM    9  C13 UNL     1      -4.215   3.725  10.786  1.00  0.00     0.073 C 
BRANCH   9  10
HETATM   10  C12 UNL     1      -5.289   3.804  11.843  1.00  0.00    -0.020 C 
HETATM   11  C10 UNL     1      -6.192   2.862  12.187  1.00  0.00    -0.087 C 
HETATM   12  C11 UNL     1      -6.327   1.524  11.510  1.00  0.00     0.043 C 
BRANCH  11  13
HETATM   13  C9  UNL     1      -7.200   3.138  13.292  1.00  0.00     0.034 C 
BRANCH  13  14
HETATM   14  C8  UNL     1      -7.990   4.437  13.056  1.00  0.00     0.014 C 
BRANCH  14  15
HETATM   15  C6  UNL     1      -7.723   5.635  14.029  1.00  0.00    -0.036 C 
HETATM   16  C5  UNL     1      -6.694   6.635  13.446  1.00  0.00     0.013 C 
HETATM   17  C4  UNL     1      -6.363   7.791  14.393  1.00  0.00     0.028 C 
HETATM   18  C3  UNL     1      -7.538   8.295  15.174  1.00  0.00    -0.024 C 
HETATM   19  C2  UNL     1      -8.742   7.693  15.208  1.00  0.00    -0.083 C 
HETATM   20  C1  UNL     1      -9.852   8.233  16.071  1.00  0.00     0.043 C 
HETATM   21  C24 UNL     1      -9.038   6.415  14.423  1.00  0.00     0.018 C 
HETATM   22  C25 UNL     1      -9.949   6.770  13.240  1.00  0.00     0.015 C 
HETATM   23  C7  UNL     1      -7.140   4.991  15.324  1.00  0.00     0.016 C 
ENDBRANCH  14  15
ENDBRANCH  13  14
ENDBRANCH  11  13
ENDBRANCH   9  10
ENDBRANCH   1   9
BRANCH   2  24
HETATM   24  O1  UNL     1      -1.928   2.113   9.967  1.00  0.00    -0.356 OA
HETATM   25  H22 UNL     1      -1.037   1.707   9.882  1.00  0.00     0.218 HD
ENDBRANCH   2  24
BRANCH   6  26
HETATM   26  N1  UNL     1      -1.194   5.958  14.059  1.00  0.00    -0.370 N 
HETATM   27  H24 UNL     1      -1.411   5.542  14.974  1.00  0.00     0.160 HD
BRANCH  26  28
HETATM   28  C19 UNL     1      -0.296   7.134  14.155  1.00  0.00     0.208 C 
BRANCH  28  29
HETATM   29  C20 UNL     1      -0.195   7.700  15.576  1.00  0.00     0.166 C 
HETATM   30  O3  UNL     1      -0.490   8.823  15.959  1.00  0.00    -0.648 OA
BRANCH  29  31
HETATM   31  O4  UNL     1       0.361   6.835  16.455  1.00  0.00    -0.775 OA
HETATM   32  H26 UNL     1       0.343   7.333  17.300  1.00  0.00     0.167 HD
ENDBRANCH  29  31
ENDBRANCH  28  29
BRANCH  28  33
HETATM   33  C21 UNL     1       1.072   6.857  13.479  1.00  0.00     0.147 C 
HETATM   34  C22 UNL     1       1.669   8.105  12.833  1.00  0.00     0.042 C 
BRANCH  33  35
HETATM   35  O5  UNL     1       2.034   6.315  14.387  1.00  0.00    -0.393 OA
HETATM   36  H31 UNL     1       2.824   6.081  13.868  1.00  0.00     0.210 HD
ENDBRANCH  33  35
ENDBRANCH  28  33
ENDBRANCH  26  28
ENDBRANCH   6  26
TORSDOF 12
ENDMDL
