MODEL 1
REMARK minimizedAffinity -6.48475409
REMARK CNNscore 0.768370748
REMARK CNNaffinity 5.32462263
REMARK  8 active torsions:
REMARK  status: ('A' for Active; 'I' for Inactive)
REMARK    1  A    between atoms: C2_2  and  C3_3 
REMARK    2  A    between atoms: C3_3  and  O1_4 
REMARK    3  A    between atoms: O1_4  and  C4_5 
REMARK    4  A    between atoms: C9_14  and  N3_15 
REMARK    5  A    between atoms: N3_15  and  C10_16 
REMARK    6  A    between atoms: C13_19  and  O2_20 
REMARK    7  A    between atoms: O2_20  and  C14_21 
REMARK    8  A    between atoms: C14_21  and  C15_22 
ROOT
HETATM    1  C4  UNL     1      19.957  50.908   8.448  1.00  0.00     0.070 A 
HETATM    2  C5  UNL     1      20.182  49.564   8.187  1.00  0.00     0.039 A 
HETATM    3  C6  UNL     1      19.475  48.927   7.158  1.00  0.00     0.033 A 
HETATM    4  C7  UNL     1      18.547  49.599   6.372  1.00  0.00     0.047 A 
HETATM    5  N1  UNL     1      17.910  48.918   5.417  1.00  0.00    -0.352 N 
ATOM      6  H1  UNL     1      18.094  47.928   5.250  1.00  0.00     0.166 HD
HETATM    7  C8  UNL     1      17.020  49.600   4.690  1.00  0.00     0.182 A 
HETATM    8  N2  UNL     1      16.718  50.894   4.822  1.00  0.00    -0.338 N 
ATOM      9  H2  UNL     1      16.023  51.343   4.225  1.00  0.00     0.168 HD
HETATM   10  C9  UNL     1      17.372  51.578   5.778  1.00  0.00     0.119 A 
HETATM   11  C23 UNL     1      18.320  50.958   6.618  1.00  0.00     0.037 A 
HETATM   12  C24 UNL     1      19.028  51.599   7.668  1.00  0.00     0.054 A 
ENDROOT
BRANCH  10  13
HETATM   13  N3  UNL     1      17.117  52.968   5.943  1.00  0.00    -0.342 N 
HETATM   14  H9  UNL     1      17.987  53.435   6.174  1.00  0.00     0.167 HD
BRANCH  13  15
HETATM   15  C10 UNL     1      16.264  53.804   5.191  1.00  0.00     0.033 A 
HETATM   16  C11 UNL     1      16.829  54.788   4.367  1.00  0.00     0.032 A 
HETATM   17  C12 UNL     1      16.029  55.686   3.647  1.00  0.00     0.039 A 
HETATM   18  C13 UNL     1      14.643  55.629   3.755  1.00  0.00     0.069 A 
HETATM   19  C21 UNL     1      14.071  54.689   4.611  1.00  0.00     0.039 A 
HETATM   20  C22 UNL     1      14.873  53.792   5.327  1.00  0.00     0.032 A 
BRANCH  18  21
HETATM   21  O2  UNL     1      13.751  56.450   3.124  1.00  0.00    -0.347 OA
BRANCH  21  22
HETATM   22  C14 UNL     1      14.213  57.200   1.997  1.00  0.00     0.214 C 
BRANCH  22  23
HETATM   23  C15 UNL     1      14.054  56.473   0.678  1.00  0.00    -0.034 A 
HETATM   24  C16 UNL     1      12.790  56.241   0.117  1.00  0.00     0.009 A 
HETATM   25  C17 UNL     1      12.663  55.546  -1.086  1.00  0.00     0.001 A 
HETATM   26  C18 UNL     1      13.797  55.063  -1.736  1.00  0.00     0.000 A 
HETATM   27  C19 UNL     1      15.058  55.272  -1.182  1.00  0.00     0.001 A 
HETATM   28  C20 UNL     1      15.186  55.968   0.021  1.00  0.00     0.009 A 
ENDBRANCH  22  23
ENDBRANCH  21  22
ENDBRANCH  18  21
ENDBRANCH  13  15
ENDBRANCH  10  13
BRANCH   1  29
HETATM   29  O1  UNL     1      20.562  51.658   9.416  1.00  0.00    -0.347 OA
BRANCH  29  30
HETATM   30  C3  UNL     1      21.621  51.044  10.149  1.00  0.00     0.202 C 
BRANCH  30  31
HETATM   31  C2  UNL     1      21.231  51.062  11.596  1.00  0.00    -0.011 C 
HETATM   32  C1  UNL     1      20.842  52.150  12.271  1.00  0.00     0.009 C 
ENDBRANCH  30  31
ENDBRANCH  29  30
ENDBRANCH   1  29
TORSDOF 8
ENDMDL
