MODEL 1
REMARK minimizedAffinity -10.4229012
REMARK CNNscore 0.953700662
REMARK CNNaffinity 8.02541447
REMARK  6 active torsions:
REMARK  status: ('A' for Active; 'I' for Inactive)
REMARK    1  A    between atoms: O1_2  and  C2_3 
REMARK    2  A    between atoms: C3_4  and  N1_5 
REMARK       I    between atoms: N1_5  and  C5_7 
REMARK    3  A    between atoms: C5_7  and  C6_9 
REMARK    4  A    between atoms: C6_9  and  N2_10 
REMARK    5  A    between atoms: C8_12  and  N4_33 
REMARK    6  A    between atoms: C9_14  and  N3_16 
ROOT
HETATM    1  C2  UNL     1       9.597  -7.621  27.014  1.00  0.00     0.199 C 
HETATM    2  C3  UNL     1      10.580  -8.474  26.183  1.00  0.00     0.124 C 
HETATM    3  C7  UNL     1      12.009  -7.991  26.447  1.00  0.00     0.082 C 
HETATM    4  C8  UNL     1      12.289  -7.926  27.954  1.00  0.00     0.233 C 
HETATM    5  O3  UNL     1      11.228  -8.409  28.779  1.00  0.00    -0.333 OA
HETATM    6  C9  UNL     1       9.885  -7.915  28.527  1.00  0.00     0.168 C 
HETATM    7  C10 UNL     1       9.067  -9.148  28.981  1.00  0.00     0.074 C 
ENDROOT
BRANCH   2   8
HETATM    8  N1  UNL     1      10.201  -8.632  24.756  1.00  0.00    -0.347 N 
HETATM    9  C4  UNL     1       8.866  -9.175  24.519  1.00  0.00     0.153 C 
HETATM   10  C5  UNL     1      11.073  -8.306  23.717  1.00  0.00     0.247 C 
HETATM   11  O2  UNL     1      12.181  -7.800  23.900  1.00  0.00    -0.271 OA
BRANCH  10  12
HETATM   12  C6  UNL     1      10.643  -8.606  22.271  1.00  0.00     0.369 C 
BRANCH  12  13
HETATM   13  N2  UNL     1       9.243  -9.057  22.217  1.00  0.00     0.087 N 
HETATM   14  H11 UNL     1       9.157  -9.884  22.813  1.00  0.00     0.313 HD
HETATM   15  H12 UNL     1       9.045  -9.383  21.272  1.00  0.00     0.313 HD
ENDBRANCH  12  13
ENDBRANCH  10  12
ENDBRANCH   2   8
BRANCH   1  16
HETATM   16  O1  UNL     1       9.835  -6.237  26.715  1.00  0.00    -0.384 OA
HETATM   17  C1  UNL     1      11.210  -5.909  26.585  1.00  0.00     0.202 C 
ENDBRANCH   1  16
BRANCH   6  18
HETATM   18  N3  UNL     1       9.646  -6.738  29.383  1.00  0.00    -0.308 N 
HETATM   19  C11 UNL     1      10.551  -6.071  30.209  1.00  0.00     0.049 A 
HETATM   20  C12 UNL     1      11.908  -6.297  30.516  1.00  0.00     0.030 A 
HETATM   21  C16 UNL     1       9.859  -5.000  30.806  1.00  0.00     0.004 A 
HETATM   22  C13 UNL     1      12.571  -5.412  31.373  1.00  0.00     0.002 A 
HETATM   23  C14 UNL     1      11.908  -4.331  31.935  1.00  0.00     0.001 A 
HETATM   24  C15 UNL     1      10.555  -4.122  31.666  1.00  0.00     0.014 A 
HETATM   25  C17 UNL     1       8.495  -5.093  30.414  1.00  0.00     0.015 A 
HETATM   26  C18 UNL     1       7.298  -4.417  30.697  1.00  0.00    -0.010 A 
HETATM   27  C28 UNL     1       8.407  -6.181  29.571  1.00  0.00     0.077 A 
HETATM   28  C19 UNL     1       6.041  -4.850  30.171  1.00  0.00     0.054 A 
HETATM   29  C30 UNL     1       7.077  -3.218  31.572  1.00  0.00     0.163 A 
HETATM   30  C20 UNL     1       5.861  -5.962  29.334  1.00  0.00     0.022 A 
HETATM   31  C29 UNL     1       5.017  -3.928  30.687  1.00  0.00     0.253 A 
HETATM   32  C21 UNL     1       4.802  -6.662  28.680  1.00  0.00     0.004 A 
HETATM   33  C27 UNL     1       7.027  -6.637  29.008  1.00  0.00     0.077 A 
HETATM   34  C22 UNL     1       3.401  -6.499  28.616  1.00  0.00     0.014 A 
HETATM   35  C26 UNL     1       5.374  -7.733  27.972  1.00  0.00     0.048 A 
HETATM   36  C23 UNL     1       2.621  -7.386  27.868  1.00  0.00     0.001 A 
HETATM   37  C24 UNL     1       3.212  -8.437  27.177  1.00  0.00     0.002 A 
HETATM   38  C25 UNL     1       4.594  -8.627  27.216  1.00  0.00     0.030 A 
HETATM   39  N4  UNL     1       6.744  -7.677  28.178  1.00  0.00    -0.316 N 
HETATM   40  O4  UNL     1       3.822  -3.942  30.476  1.00  0.00    -0.268 OA
HETATM   41  N5  UNL     1       5.660  -3.005  31.482  1.00  0.00    -0.353 N 
HETATM   42  H27 UNL     1       5.142  -2.276  31.952  1.00  0.00     0.163 HD
ENDBRANCH   6  18
TORSDOF 6
ENDMDL
