MODEL 1
REMARK minimizedAffinity -7.90376043
REMARK CNNscore 0.780873954
REMARK CNNaffinity 6.56807709
REMARK  7 active torsions:
REMARK  status: ('A' for Active; 'I' for Inactive)
REMARK    1  A    between atoms: O1_2  and  C2_3 
REMARK    2  A    between atoms: C2_3  and  C3_5 
REMARK    3  A    between atoms: C3_5  and  N1_6 
REMARK    4  A    between atoms: N1_6  and  C5_8 
REMARK    5  A    between atoms: C7_10  and  N3_34 
REMARK    6  A    between atoms: C8_12  and  N2_17 
REMARK    7  A    between atoms: C10_14  and  O4_15 
ROOT
HETATM    1  C5  UNL     1       3.063   8.845  34.614  1.00  0.00     0.260 C 
HETATM    2  C6  UNL     1       3.253   8.064  35.919  1.00  0.00     0.093 C 
HETATM    3  C7  UNL     1       3.097   8.991  37.121  1.00  0.00     0.234 C 
HETATM    4  O3  UNL     1       3.062  10.381  36.816  1.00  0.00    -0.333 OA
HETATM    5  C8  UNL     1       3.977  10.906  35.821  1.00  0.00     0.168 C 
HETATM    6  C9  UNL     1       3.185  12.176  35.418  1.00  0.00     0.074 C 
HETATM    7  C10 UNL     1       4.141   9.971  34.561  1.00  0.00     0.210 C 
ENDROOT
BRANCH   1   8
HETATM    8  N1  UNL     1       3.030   8.014  33.373  1.00  0.00     0.101 N 
HETATM    9  C4  UNL     1       3.718   8.706  32.269  1.00  0.00     0.311 C 
BRANCH   8  10
HETATM   10  C3  UNL     1       1.659   7.615  32.947  1.00  0.00     0.383 C 
BRANCH  10  11
HETATM   11  C2  UNL     1       0.929   6.766  33.993  1.00  0.00     0.286 C 
HETATM   12  O2  UNL     1       1.231   5.640  34.373  1.00  0.00    -0.263 OA
BRANCH  11  13
HETATM   13  O1  UNL     1      -0.137   7.484  34.464  1.00  0.00    -0.325 OA
HETATM   14  C1  UNL     1      -0.535   7.139  35.793  1.00  0.00     0.213 C 
ENDBRANCH  11  13
ENDBRANCH  10  11
ENDBRANCH   8  10
ENDBRANCH   1   8
BRANCH   7  15
HETATM   15  O4  UNL     1       5.457   9.371  34.529  1.00  0.00    -0.384 OA
HETATM   16  C11 UNL     1       6.464  10.289  34.094  1.00  0.00     0.202 C 
ENDBRANCH   7  15
BRANCH   3  17
HETATM   17  N3  UNL     1       4.043   8.738  38.197  1.00  0.00    -0.316 N 
HETATM   18  C27 UNL     1       5.274   9.352  38.346  1.00  0.00     0.048 A 
HETATM   19  C22 UNL     1       5.880   8.795  39.484  1.00  0.00     0.004 A 
HETATM   20  C26 UNL     1       5.908  10.346  37.574  1.00  0.00     0.030 A 
HETATM   21  C21 UNL     1       4.971   7.833  40.027  1.00  0.00     0.022 A 
HETATM   22  C23 UNL     1       7.164   9.258  39.844  1.00  0.00     0.014 A 
HETATM   23  C20 UNL     1       4.893   6.934  41.099  1.00  0.00     0.054 A 
HETATM   24  C28 UNL     1       3.859   7.845  39.203  1.00  0.00     0.077 A 
HETATM   25  C19 UNL     1       3.775   6.089  41.374  1.00  0.00    -0.010 A 
HETATM   26  C30 UNL     1       5.902   6.670  42.137  1.00  0.00     0.253 A 
HETATM   27  C18 UNL     1       2.621   6.089  40.570  1.00  0.00     0.015 A 
HETATM   28  C31 UNL     1       4.063   5.278  42.601  1.00  0.00     0.163 A 
HETATM   29  C17 UNL     1       1.355   5.442  40.576  1.00  0.00     0.004 A 
HETATM   30  C29 UNL     1       2.626   6.929  39.476  1.00  0.00     0.077 A 
HETATM   31  C12 UNL     1       0.618   5.934  39.481  1.00  0.00     0.049 A 
HETATM   32  C16 UNL     1       0.759   4.500  41.445  1.00  0.00     0.014 A 
HETATM   33  N2  UNL     1       1.452   6.803  38.772  1.00  0.00    -0.308 N 
HETATM   34  C13 UNL     1      -0.716   5.527  39.284  1.00  0.00     0.030 A 
HETATM   35  C14 UNL     1      -1.280   4.594  40.160  1.00  0.00     0.002 A 
HETATM   36  C15 UNL     1      -0.553   4.082  41.223  1.00  0.00     0.001 A 
HETATM   37  N4  UNL     1       5.377   5.716  42.981  1.00  0.00    -0.353 N 
HETATM   38  H28 UNL     1       5.910   5.364  43.762  1.00  0.00     0.163 HD
HETATM   39  O5  UNL     1       7.003   7.170  42.257  1.00  0.00    -0.268 OA
HETATM   40  C24 UNL     1       7.804  10.239  39.077  1.00  0.00     0.001 A 
HETATM   41  C25 UNL     1       7.182  10.776  37.959  1.00  0.00     0.002 A 
ENDBRANCH   3  17
TORSDOF 7
ENDMDL
