MODEL 1
REMARK minimizedAffinity -7.91159153
REMARK  3 active torsions:
REMARK  status: ('A' for Active; 'I' for Inactive)
REMARK    1  A    between atoms: C4_5  and  C5_6 
REMARK    2  A    between atoms: N2_9  and  C6_10 
REMARK    3  A    between atoms: C12_16  and  C13_17 
ROOT
HETATM    1  C5  UNL     1      17.277  38.018  14.924  1.00  0.00     0.038 C 
HETATM    2  N1  UNL     1      17.047  37.189  13.952  1.00  0.00    -0.301 N 
ATOM      3  H1  UNL     1      16.832  37.433  12.986  1.00  0.00     0.187 HD
HETATM    4  N2  UNL     1      17.144  35.927  14.467  1.00  0.00    -0.283 N 
HETATM    5  C12 UNL     1      17.329  35.913  15.920  1.00  0.00     0.147 C 
HETATM    6  C23 UNL     1      17.636  37.378  16.236  1.00  0.00     0.091 C 
ENDROOT
BRANCH   5   7
HETATM    7  C13 UNL     1      16.104  35.439  16.688  1.00  0.00    -0.032 A 
HETATM    8  C14 UNL     1      16.252  34.454  17.677  1.00  0.00     0.010 A 
HETATM    9  C15 UNL     1      15.151  34.016  18.416  1.00  0.00     0.013 A 
HETATM   10  C16 UNL     1      13.875  34.553  18.191  1.00  0.00    -0.026 A 
HETATM   11  C17 UNL     1      12.757  34.117  18.922  1.00  0.00     0.012 A 
HETATM   12  C21 UNL     1      13.710  35.550  17.205  1.00  0.00    -0.025 A 
HETATM   13  C18 UNL     1      11.494  34.659  18.683  1.00  0.00     0.001 A 
HETATM   14  C19 UNL     1      11.331  35.642  17.712  1.00  0.00     0.001 A 
HETATM   15  C20 UNL     1      12.433  36.085  16.976  1.00  0.00     0.012 A 
HETATM   16  C22 UNL     1      14.827  35.983  16.471  1.00  0.00     0.021 A 
ENDBRANCH   5   7
BRANCH   4  17
HETATM   17  C6  UNL     1      17.144  34.810  13.632  1.00  0.00     0.051 A 
HETATM   18  C7  UNL     1      16.103  34.600  12.711  1.00  0.00     0.031 A 
HETATM   19  C8  UNL     1      16.076  33.487  11.864  1.00  0.00     0.002 A 
HETATM   20  C9  UNL     1      17.097  32.547  11.920  1.00  0.00     0.000 A 
HETATM   21  C10 UNL     1      18.141  32.725  12.821  1.00  0.00     0.002 A 
HETATM   22  C11 UNL     1      18.162  33.843  13.664  1.00  0.00     0.031 A 
ENDBRANCH   4  17
BRANCH   1  23
HETATM   23  C4  UNL     1      17.225  39.490  14.758  1.00  0.00    -0.012 A 
HETATM   24  C3  UNL     1      16.704  40.078  13.598  1.00  0.00     0.016 A 
HETATM   25  C2  UNL     1      16.674  41.470  13.476  1.00  0.00     0.043 A 
HETATM   26  C1  UNL     1      17.157  42.264  14.510  1.00  0.00     0.116 A 
HETATM   27  F1  UNL     1      17.121  43.598  14.389  1.00  0.00    -0.206 F 
HETATM   28  C25 UNL     1      17.673  41.695  15.668  1.00  0.00     0.043 A 
HETATM   29  C24 UNL     1      17.707  40.305  15.793  1.00  0.00     0.016 A 
ENDBRANCH   1  23
TORSDOF 3
ENDMDL
