MODEL 1
REMARK minimizedAffinity -8.08955288
REMARK  5 active torsions:
REMARK  status: ('A' for Active; 'I' for Inactive)
REMARK    1  A    between atoms: C5_6  and  C6_7 
REMARK    2  A    between atoms: C6_7  and  O1_8 
REMARK    3  A    between atoms: O1_8  and  C7_9 
REMARK    4  A    between atoms: C10_12  and  N1_13 
REMARK    5  A    between atoms: N1_13  and  C11_14 
ROOT
HETATM    1  N1  UNL     1      11.833  34.454  18.974  1.00  0.00    -0.342 N 
HETATM    2  H8  UNL     1      11.811  33.815  19.754  1.00  0.00     0.167 HD
ENDROOT
BRANCH   1   3
HETATM    3  C10 UNL     1      13.132  34.835  18.586  1.00  0.00     0.035 A 
HETATM    4  C9  UNL     1      14.179  33.930  18.373  1.00  0.00     0.032 A 
HETATM    5  C8  UNL     1      15.460  34.368  18.020  1.00  0.00     0.041 A 
HETATM    6  C7  UNL     1      15.721  35.730  17.907  1.00  0.00     0.091 A 
HETATM    7  C21 UNL     1      14.696  36.652  18.112  1.00  0.00     0.069 A 
HETATM    8  C20 UNL     1      13.416  36.205  18.461  1.00  0.00     0.056 A 
HETATM    9 CL1  UNL     1      14.966  38.350  17.960  1.00  0.00    -0.081 Cl
BRANCH   6  10
HETATM   10  O1  UNL     1      16.980  36.119  17.534  1.00  0.00    -0.345 OA
BRANCH  10  11
HETATM   11  C6  UNL     1      16.973  36.733  16.237  1.00  0.00     0.214 C 
BRANCH  11  12
HETATM   12  C5  UNL     1      17.250  35.697  15.174  1.00  0.00    -0.031 A 
HETATM   13  C4  UNL     1      18.422  34.924  15.222  1.00  0.00     0.009 A 
HETATM   14  C3  UNL     1      18.685  33.964  14.242  1.00  0.00     0.004 A 
HETATM   15  C2  UNL     1      17.778  33.768  13.202  1.00  0.00     0.042 A 
HETATM   16  C1  UNL     1      16.620  34.535  13.150  1.00  0.00     0.117 A 
HETATM   17  F1  UNL     1      15.750  34.347  12.150  1.00  0.00    -0.206 F 
HETATM   18  C22 UNL     1      16.348  35.493  14.121  1.00  0.00     0.051 A 
ENDBRANCH  11  12
ENDBRANCH  10  11
ENDBRANCH   6  10
ENDBRANCH   1   3
BRANCH   1  19
HETATM   19  C11 UNL     1      10.576  35.010  18.707  1.00  0.00     0.123 A 
HETATM   20  N2  UNL     1      10.230  35.489  17.474  1.00  0.00    -0.338 N 
HETATM   21  C12 UNL     1       9.016  36.088  17.275  1.00  0.00     0.183 A 
ATOM     22  H2  UNL     1      10.883  35.399  16.696  1.00  0.00     0.168 HD
HETATM   23  N3  UNL     1       8.008  36.312  18.145  1.00  0.00    -0.337 N 
HETATM   24  C13 UNL     1       8.311  35.832  19.371  1.00  0.00     0.137 A 
ATOM     25  H3  UNL     1       7.133  36.782  17.908  1.00  0.00     0.168 HD
HETATM   26  N4  UNL     1       7.524  35.896  20.441  1.00  0.00    -0.278 N 
HETATM   27  C19 UNL     1       9.549  35.193  19.651  1.00  0.00     0.082 A 
HETATM   28  N5  UNL     1       8.223  35.278  21.421  1.00  0.00    -0.265 N 
ATOM     29  H4  UNL     1       6.598  36.318  20.507  1.00  0.00     0.189 HD
HETATM   30  C14 UNL     1       7.800  35.106  22.742  1.00  0.00     0.116 A 
HETATM   31  C18 UNL     1       9.468  34.798  20.968  1.00  0.00     0.073 A 
HETATM   32  C15 UNL     1       8.571  34.453  23.623  1.00  0.00     0.019 A 
HETATM   33  C16 UNL     1       9.836  33.909  23.171  1.00  0.00     0.004 A 
HETATM   34  C17 UNL     1      10.264  34.067  21.904  1.00  0.00     0.032 A 
ENDBRANCH   1  19
TORSDOF 5
ENDMDL
