MODEL 1
REMARK minimizedAffinity -8.01187611
REMARK  9 active torsions:
REMARK  status: ('A' for Active; 'I' for Inactive)
REMARK    1  A    between atoms: N1_1  and  C1_2 
REMARK    2  A    between atoms: C3_8  and  N4_9 
REMARK    3  A    between atoms: N4_9  and  C4_10 
REMARK    4  A    between atoms: N6_18  and  C10_19 
REMARK    5  A    between atoms: C10_19  and  C11_20 
REMARK    6  A    between atoms: C18_28  and  C19_29 
REMARK    7  A    between atoms: N7_30  and  O1_32 
REMARK    8  A    between atoms: O1_32  and  C20_33 
REMARK    9  A    between atoms: C20_33  and  C21_34 
ROOT
HETATM    1  C1  UNL     1      17.018  39.285  14.431  1.00  0.00     0.094 A 
HETATM    2  N2  UNL     1      16.510  40.355  15.055  1.00  0.00    -0.342 N 
ATOM      3  H2  UNL     1      16.774  41.305  14.791  1.00  0.00     0.167 HD
HETATM    4  C2  UNL     1      15.641  40.117  16.043  1.00  0.00     0.183 A 
HETATM    5  N3  UNL     1      15.238  38.912  16.465  1.00  0.00    -0.338 N 
ATOM      6  H3  UNL     1      14.570  38.815  17.231  1.00  0.00     0.168 HD
HETATM    7  C3  UNL     1      15.748  37.833  15.841  1.00  0.00     0.121 A 
HETATM    8  C18 UNL     1      16.669  37.990  14.803  1.00  0.00     0.063 A 
ENDROOT
BRANCH   7   9
HETATM    9  N4  UNL     1      15.418  36.531  16.288  1.00  0.00    -0.342 N 
HETATM   10  H4  UNL     1      15.856  35.830  15.685  1.00  0.00     0.167 HD
BRANCH   9  11
HETATM   11  C4  UNL     1      14.302  36.026  16.988  1.00  0.00     0.034 A 
HETATM   12  C5  UNL     1      14.539  35.234  18.124  1.00  0.00     0.032 A 
HETATM   13  C6  UNL     1      13.504  34.721  18.919  1.00  0.00     0.034 A 
HETATM   14  C7  UNL     1      12.194  35.044  18.550  1.00  0.00     0.062 A 
HETATM   15  C8  UNL     1      11.916  35.844  17.447  1.00  0.00     0.011 A 
HETATM   16  N6  UNL     1      10.967  34.737  19.092  1.00  0.00    -0.288 N 
HETATM   17  C9  UNL     1      10.508  35.939  17.419  1.00  0.00     0.121 A 
HETATM   18  C17 UNL     1      12.976  36.350  16.669  1.00  0.00     0.044 A 
HETATM   19  N5  UNL     1       9.923  35.257  18.405  1.00  0.00    -0.308 N 
ATOM     20  H5  UNL     1       8.926  35.152  18.596  1.00  0.00     0.186 HD
BRANCH  16  21
HETATM   21  C10 UNL     1      10.709  33.913  20.267  1.00  0.00     0.187 C 
BRANCH  21  22
HETATM   22  C11 UNL     1       9.717  34.558  21.204  1.00  0.00    -0.035 A 
HETATM   23  C12 UNL     1       8.338  34.332  21.057  1.00  0.00     0.009 A 
HETATM   24  C13 UNL     1       7.420  34.932  21.926  1.00  0.00     0.004 A 
HETATM   25  C14 UNL     1       7.872  35.765  22.949  1.00  0.00     0.042 A 
HETATM   26  C15 UNL     1       9.233  35.995  23.094  1.00  0.00     0.117 A 
HETATM   27  F1  UNL     1       9.664  36.797  24.078  1.00  0.00    -0.206 F 
HETATM   28  C16 UNL     1      10.155  35.405  22.236  1.00  0.00     0.051 A 
ENDBRANCH  21  22
ENDBRANCH  16  21
ENDBRANCH   9  11
ENDBRANCH   7   9
BRANCH   8  29
HETATM   29  C19 UNL     1      17.235  36.846  14.078  1.00  0.00     0.132 C 
HETATM   30  N7  UNL     1      16.825  36.513  12.892  1.00  0.00    -0.277 N 
ATOM     31  H7  UNL     1      16.061  36.952  12.378  1.00  0.00     0.193 HD
BRANCH  30  32
HETATM   32  O1  UNL     1      17.617  35.441  12.437  1.00  0.00    -0.276 OA
BRANCH  32  33
HETATM   33  C20 UNL     1      16.997  34.197  12.798  1.00  0.00     0.239 C 
BRANCH  33  34
HETATM   34  C21 UNL     1      17.505  33.094  11.897  1.00  0.00    -0.032 A 
HETATM   35  C22 UNL     1      18.250  33.400  10.747  1.00  0.00     0.009 A 
HETATM   36  C23 UNL     1      18.772  32.379   9.952  1.00  0.00     0.001 A 
HETATM   37  C24 UNL     1      18.556  31.046  10.297  1.00  0.00     0.000 A 
HETATM   38  C25 UNL     1      17.819  30.730  11.439  1.00  0.00     0.001 A 
HETATM   39  C26 UNL     1      17.297  31.750  12.236  1.00  0.00     0.009 A 
ENDBRANCH  33  34
ENDBRANCH  32  33
ENDBRANCH  30  32
ENDBRANCH   8  29
BRANCH   1  40
HETATM   40  N1  UNL     1      17.890  39.569  13.370  1.00  0.00    -0.288 NA
HETATM   41  H1  UNL     1      18.818  39.194  13.543  1.00  0.00     0.125 HD
HETATM   42  H2  UNL     1      17.541  39.175  12.497  1.00  0.00     0.125 HD
ENDBRANCH   1  40
TORSDOF 9
ENDMDL
