MODEL 1
REMARK minimizedAffinity -6.68724966
REMARK CNNscore 0.510215878
REMARK CNNaffinity 5.54715538
REMARK  6 active torsions:
REMARK  status: ('A' for Active; 'I' for Inactive)
REMARK    1  A    between atoms: C5_6  and  N1_7 
REMARK    2  A    between atoms: N1_7  and  C6_8 
REMARK    3  A    between atoms: C11_17  and  N4_18 
REMARK    4  A    between atoms: N4_18  and  N5_19 
REMARK    5  A    between atoms: N6_21  and  C12_23 
REMARK    6  A    between atoms: C12_23  and  C13_24 
ROOT
HETATM    1  C6  UNL     1      13.892  56.920   1.946  1.00  0.00     0.119 A 
HETATM    2  N2  UNL     1      14.177  58.132   1.436  1.00  0.00    -0.338 N 
ATOM      3  H2  UNL     1      13.890  58.396   0.493  1.00  0.00     0.168 HD
HETATM    4  C7  UNL     1      14.852  58.974   2.223  1.00  0.00     0.182 A 
HETATM    5  N3  UNL     1      15.272  58.727   3.467  1.00  0.00    -0.352 N 
ATOM      6  H3  UNL     1      15.775  59.428   4.012  1.00  0.00     0.166 HD
HETATM    7  C8  UNL     1      15.001  57.517   3.960  1.00  0.00     0.047 A 
HETATM    8  C9  UNL     1      15.437  57.210   5.241  1.00  0.00     0.033 A 
HETATM    9  C10 UNL     1      15.198  55.961   5.826  1.00  0.00     0.033 A 
HETATM   10  C11 UNL     1      14.489  54.976   5.139  1.00  0.00     0.050 A 
HETATM   11  C19 UNL     1      14.072  55.269   3.835  1.00  0.00     0.048 A 
HETATM   12  C20 UNL     1      14.303  56.541   3.240  1.00  0.00     0.037 A 
ENDROOT
BRANCH  10  13
HETATM   13  N4  UNL     1      14.287  53.686   5.657  1.00  0.00    -0.287 N 
HETATM   14  H8  UNL     1      14.141  53.627   6.659  1.00  0.00     0.188 HD
BRANCH  13  15
HETATM   15  N5  UNL     1      14.978  52.656   5.134  1.00  0.00    -0.246 N 
HETATM   16  N6  UNL     1      16.082  52.668   5.708  1.00  0.00    -0.318 N 
ATOM     17  H6  UNL     1      16.342  53.347   6.423  1.00  0.00     0.182 HD
ATOM     18  H5  UNL     1      14.663  52.004   4.417  1.00  0.00     0.208 HD
BRANCH  16  19
HETATM   19  C12 UNL     1      16.969  51.592   5.240  1.00  0.00     0.179 C 
BRANCH  19  20
HETATM   20  C13 UNL     1      17.989  51.220   6.287  1.00  0.00    -0.039 A 
HETATM   21  C14 UNL     1      18.340  49.877   6.484  1.00  0.00     0.009 A 
HETATM   22  C15 UNL     1      19.294  49.529   7.443  1.00  0.00     0.001 A 
HETATM   23  C16 UNL     1      19.910  50.519   8.206  1.00  0.00     0.000 A 
HETATM   24  C17 UNL     1      19.578  51.858   8.010  1.00  0.00     0.001 A 
HETATM   25  C18 UNL     1      18.624  52.209   7.052  1.00  0.00     0.009 A 
ENDBRANCH  19  20
ENDBRANCH  16  19
ENDBRANCH  13  15
ENDBRANCH  10  13
BRANCH   1  26
HETATM   26  N1  UNL     1      13.134  55.999   1.170  1.00  0.00    -0.342 N 
HETATM   27  H4  UNL     1      12.258  55.818   1.651  1.00  0.00     0.167 HD
BRANCH  26  28
HETATM   28  C5  UNL     1      12.967  55.963  -0.234  1.00  0.00     0.034 A 
HETATM   29  C4  UNL     1      14.027  55.501  -1.032  1.00  0.00     0.029 A 
HETATM   30  C3  UNL     1      13.939  55.502  -2.427  1.00  0.00     0.004 A 
HETATM   31  C2  UNL     1      12.794  55.993  -3.049  1.00  0.00     0.019 A 
HETATM   32  C1  UNL     1      11.752  56.490  -2.271  1.00  0.00     0.013 A 
HETATM   33 BR1  UNL     1      10.206  57.185  -3.112  1.00  0.00    -0.051 Br
HETATM   34  C21 UNL     1      11.840  56.490  -0.877  1.00  0.00     0.048 A 
ENDBRANCH  26  28
ENDBRANCH   1  26
TORSDOF 6
ENDMDL
