MODEL 1
REMARK minimizedAffinity -10.0927525
REMARK CNNscore 0.874178827
REMARK CNNaffinity 7.67813301
REMARK  5 active torsions:
REMARK  status: ('A' for Active; 'I' for Inactive)
REMARK    1  A    between atoms: O1_2  and  C2_3 
REMARK    2  A    between atoms: C3_4  and  N1_5 
REMARK    3  A    between atoms: N1_5  and  S1_7 
REMARK    4  A    between atoms: C7_12  and  N3_33 
REMARK    5  A    between atoms: C8_14  and  N2_16 
ROOT
HETATM    1  C2  UNL     1       9.611  -8.479  26.892  1.00  0.00     0.200 C 
HETATM    2  C3  UNL     1      10.359  -9.732  26.395  1.00  0.00     0.133 C 
HETATM    3  C6  UNL     1      11.725  -9.825  27.074  1.00  0.00     0.083 C 
HETATM    4  C7  UNL     1      11.619  -9.583  28.584  1.00  0.00     0.233 C 
HETATM    5  O4  UNL     1      10.281  -9.570  29.080  1.00  0.00    -0.333 OA
HETATM    6  C8  UNL     1       9.318  -8.704  28.426  1.00  0.00     0.168 C 
HETATM    7  C9  UNL     1       8.040  -9.563  28.575  1.00  0.00     0.074 C 
ENDROOT
BRANCH   2   8
HETATM    8  N1  UNL     1      10.505  -9.842  24.906  1.00  0.00    -0.308 N 
HETATM    9  C4  UNL     1      11.707 -10.489  24.354  1.00  0.00     0.163 C 
BRANCH   8  10
HETATM   10  S1  UNL     1       9.682  -8.752  23.908  1.00  0.00     0.224 S 
HETATM   11  C5  UNL     1       9.673  -9.592  22.337  1.00  0.00     0.186 C 
HETATM   12  O2  UNL     1       8.311  -8.668  24.363  1.00  0.00    -0.206 OA
HETATM   13  O3  UNL     1      10.502  -7.568  23.762  1.00  0.00    -0.206 OA
ENDBRANCH   8  10
ENDBRANCH   2   8
BRANCH   1  14
HETATM   14  O1  UNL     1      10.464  -7.345  26.637  1.00  0.00    -0.384 OA
HETATM   15  C1  UNL     1       9.761  -6.131  26.395  1.00  0.00     0.202 C 
ENDBRANCH   1  14
BRANCH   6  16
HETATM   16  N2  UNL     1       9.257  -7.445  29.188  1.00  0.00    -0.308 N 
HETATM   17  C10 UNL     1      10.256  -6.811  29.929  1.00  0.00     0.049 A 
HETATM   18  C11 UNL     1      11.608  -7.119  30.177  1.00  0.00     0.030 A 
HETATM   19  C15 UNL     1       9.677  -5.665  30.513  1.00  0.00     0.004 A 
HETATM   20  C12 UNL     1      12.374  -6.259  30.972  1.00  0.00     0.002 A 
HETATM   21  C13 UNL     1      11.821  -5.117  31.528  1.00  0.00     0.001 A 
HETATM   22  C14 UNL     1      10.476  -4.816  31.310  1.00  0.00     0.014 A 
HETATM   23  C16 UNL     1       8.298  -5.650  30.168  1.00  0.00     0.015 A 
HETATM   24  C17 UNL     1       7.178  -4.853  30.456  1.00  0.00    -0.010 A 
HETATM   25  C27 UNL     1       8.087  -6.747  29.361  1.00  0.00     0.077 A 
HETATM   26  C18 UNL     1       5.877  -5.174  29.962  1.00  0.00     0.054 A 
HETATM   27  C29 UNL     1       7.095  -3.610  31.293  1.00  0.00     0.163 A 
HETATM   28  C19 UNL     1       5.576  -6.276  29.146  1.00  0.00     0.022 A 
HETATM   29  C28 UNL     1       4.958  -4.146  30.473  1.00  0.00     0.253 A 
HETATM   30  C20 UNL     1       4.443  -6.873  28.512  1.00  0.00     0.004 A 
HETATM   31  C26 UNL     1       6.663  -7.070  28.816  1.00  0.00     0.077 A 
HETATM   32  C21 UNL     1       3.064  -6.569  28.463  1.00  0.00     0.014 A 
HETATM   33  C25 UNL     1       4.897  -7.994  27.800  1.00  0.00     0.048 A 
HETATM   34  C22 UNL     1       2.191  -7.370  27.721  1.00  0.00     0.001 A 
HETATM   35  C23 UNL     1       2.668  -8.470  27.020  1.00  0.00     0.002 A 
HETATM   36  C24 UNL     1       4.023  -8.802  27.047  1.00  0.00     0.030 A 
HETATM   37  N3  UNL     1       6.269  -8.081  27.996  1.00  0.00    -0.316 N 
HETATM   38  O5  UNL     1       3.762  -4.051  30.285  1.00  0.00    -0.268 OA
HETATM   39  N4  UNL     1       5.702  -3.271  31.233  1.00  0.00    -0.353 N 
HETATM   40  H26 UNL     1       5.270  -2.473  31.675  1.00  0.00     0.163 HD
ENDBRANCH   6  16
TORSDOF 5
ENDMDL
