MODEL 1
REMARK minimizedAffinity -7.18392181
REMARK  2 active torsions:
REMARK  status: ('A' for Active; 'I' for Inactive)
REMARK    1  A    between atoms: C5_6  and  N2_7 
REMARK    2  A    between atoms: N2_7  and  C6_8 
ROOT
HETATM    1  N1  UNL     1       4.927  33.898  19.980  1.00  0.00    -0.191 NA
HETATM    2  C1  UNL     1       5.986  34.361  19.877  1.00  0.00     0.099 C 
HETATM    3  C2  UNL     1       7.299  34.924  19.754  1.00  0.00     0.044 A 
HETATM    4  C3  UNL     1       7.536  35.969  18.860  1.00  0.00     0.025 A 
HETATM    5  C4  UNL     1       8.819  36.515  18.740  1.00  0.00     0.031 A 
HETATM    6  C5  UNL     1       9.881  36.050  19.527  1.00  0.00     0.033 A 
HETATM    7  C14 UNL     1       9.634  34.974  20.393  1.00  0.00     0.031 A 
HETATM    8  C15 UNL     1       8.355  34.422  20.518  1.00  0.00     0.025 A 
ENDROOT
BRANCH   6   9
HETATM    9  N2  UNL     1      11.202  36.529  19.388  1.00  0.00    -0.341 N 
HETATM   10  H3  UNL     1      11.235  37.544  19.369  1.00  0.00     0.167 HD
BRANCH   9  11
HETATM   11  C6  UNL     1      12.230  36.035  18.537  1.00  0.00     0.131 A 
HETATM   12  N3  UNL     1      12.184  36.266  17.204  1.00  0.00    -0.285 N 
HETATM   13  N4  UNL     1      13.176  35.831  16.374  1.00  0.00    -0.309 N 
ATOM     14  H3  UNL     1      11.392  36.776  16.812  1.00  0.00     0.188 HD
HETATM   15  C7  UNL     1      14.216  35.159  16.894  1.00  0.00     0.119 A 
ATOM     16  H4  UNL     1      13.128  36.014  15.371  1.00  0.00     0.186 HD
HETATM   17  C8  UNL     1      14.333  34.872  18.247  1.00  0.00    -0.005 A 
HETATM   18  C9  UNL     1      15.435  34.159  18.756  1.00  0.00     0.014 A 
HETATM   19  C13 UNL     1      13.307  35.313  19.107  1.00  0.00     0.021 A 
HETATM   20  C10 UNL     1      15.526  33.870  20.116  1.00  0.00     0.001 A 
HETATM   21  C11 UNL     1      14.518  34.283  20.980  1.00  0.00     0.001 A 
HETATM   22  C12 UNL     1      13.422  34.992  20.483  1.00  0.00     0.016 A 
ENDBRANCH   9  11
ENDBRANCH   6   9
TORSDOF 2
ENDMDL
