MODEL 1
REMARK minimizedAffinity -7.71810055
REMARK  3 active torsions:
REMARK  status: ('A' for Active; 'I' for Inactive)
REMARK    1  A    between atoms: O1_1  and  C1_2 
REMARK    2  A    between atoms: C4_5  and  N1_6 
REMARK    3  A    between atoms: N1_6  and  C5_7 
ROOT
HETATM    1  C5  UNL     1      12.489  35.572  17.325  1.00  0.00     0.135 A 
HETATM    2  N2  UNL     1      11.876  36.049  16.207  1.00  0.00    -0.270 N 
ATOM      3  H2  UNL     1      10.858  36.098  16.197  1.00  0.00     0.190 HD
HETATM    4  N3  UNL     1      12.538  36.452  15.130  1.00  0.00    -0.240 N 
ATOM      5  H3  UNL     1      12.007  36.800  14.332  1.00  0.00     0.208 HD
HETATM    6  N4  UNL     1      13.794  36.423  15.050  1.00  0.00    -0.279 N 
ATOM      7  H4  UNL     1      14.277  36.735  14.207  1.00  0.00     0.189 HD
HETATM    8  C6  UNL     1      14.471  35.967  16.110  1.00  0.00     0.105 A 
HETATM    9  S1  UNL     1      16.186  35.882  16.105  1.00  0.00    -0.074 SA
HETATM   10  C7  UNL     1      16.172  35.268  17.658  1.00  0.00    -0.008 A 
HETATM   11  C8  UNL     1      14.919  35.121  18.194  1.00  0.00    -0.028 A 
HETATM   12  C9  UNL     1      13.893  35.523  17.292  1.00  0.00     0.052 A 
HETATM   13  C10 UNL     1      15.001  34.573  19.572  1.00  0.00     0.041 C 
HETATM   14  C11 UNL     1      16.515  34.735  19.913  1.00  0.00     0.010 C 
HETATM   15  C12 UNL     1      17.274  34.852  18.557  1.00  0.00     0.047 C 
ENDROOT
BRANCH   1  16
HETATM   16  N1  UNL     1      11.769  35.140  18.452  1.00  0.00    -0.341 N 
HETATM   17  H4  UNL     1      12.333  34.626  19.112  1.00  0.00     0.167 HD
BRANCH  16  18
HETATM   18  C4  UNL     1      10.422  35.269  18.830  1.00  0.00     0.033 A 
HETATM   19  C3  UNL     1       9.478  36.028  18.129  1.00  0.00     0.032 A 
HETATM   20  C2  UNL     1       8.147  36.113  18.558  1.00  0.00     0.039 A 
HETATM   21  C1  UNL     1       7.749  35.432  19.701  1.00  0.00     0.065 A 
HETATM   22  C14 UNL     1       8.660  34.672  20.418  1.00  0.00     0.039 A 
HETATM   23  C13 UNL     1       9.986  34.592  19.984  1.00  0.00     0.032 A 
BRANCH  21  24
HETATM   24  O1  UNL     1       6.466  35.487  20.155  1.00  0.00    -0.361 OA
HETATM   25  H1  UNL     1       5.951  36.050  19.553  1.00  0.00     0.217 HD
ENDBRANCH  21  24
ENDBRANCH  16  18
ENDBRANCH   1  16
TORSDOF 3
ENDMDL
