MODEL 1
REMARK minimizedAffinity -8.81670666
REMARK  3 active torsions:
REMARK  status: ('A' for Active; 'I' for Inactive)
REMARK    1  A    between atoms: C2_2  and  N1_3 
REMARK    2  A    between atoms: N1_3  and  C3_4 
REMARK    3  A    between atoms: C7_10  and  C8_11 
ROOT
HETATM    1  C3  UNL     1       4.919  -5.001  29.084  1.00  0.00     0.158 A 
HETATM    2  N2  UNL     1       4.610  -3.919  29.808  1.00  0.00    -0.342 N 
ATOM      3  H2  UNL     1       3.715  -3.442  29.696  1.00  0.00     0.167 HD
HETATM    4  C4  UNL     1       5.530  -3.489  30.690  1.00  0.00     0.106 A 
HETATM    5  C5  UNL     1       6.745  -4.103  30.884  1.00  0.00     0.025 A 
HETATM    6  C6  UNL     1       7.734  -3.634  31.840  1.00  0.00     0.034 A 
HETATM    7  C7  UNL     1       8.894  -4.296  31.969  1.00  0.00     0.047 A 
HETATM    8  C14 UNL     1       9.181  -5.513  31.135  1.00  0.00     0.260 A 
HETATM    9  O1  UNL     1      10.254  -6.099  31.277  1.00  0.00    -0.267 OA
HETATM   10  N3  UNL     1       8.201  -5.909  30.240  1.00  0.00    -0.303 N 
HETATM   11  C15 UNL     1       8.416  -7.073  29.398  1.00  0.00     0.161 C 
HETATM   12  C16 UNL     1       6.971  -5.217  30.099  1.00  0.00     0.124 A 
HETATM   13  N4  UNL     1       6.068  -5.673  29.205  1.00  0.00    -0.318 N 
ATOM     14  H4  UNL     1       6.257  -6.502  28.641  1.00  0.00     0.170 HD
ENDROOT
BRANCH   7  15
HETATM   15  C8  UNL     1       9.902  -3.826  32.939  1.00  0.00     0.023 A 
HETATM   16  C9  UNL     1       9.833  -4.200  34.294  1.00  0.00     0.046 A 
HETATM   17 CL1  UNL     1       8.593  -5.251  34.889  1.00  0.00    -0.083 Cl
HETATM   18  C10 UNL     1      10.782  -3.740  35.214  1.00  0.00     0.025 A 
HETATM   19  C11 UNL     1      11.812  -2.899  34.799  1.00  0.00     0.003 A 
HETATM   20  C12 UNL     1      11.896  -2.519  33.462  1.00  0.00     0.025 A 
HETATM   21  C13 UNL     1      10.950  -2.976  32.538  1.00  0.00     0.046 A 
HETATM   22 CL2  UNL     1      11.134  -2.464  30.893  1.00  0.00    -0.083 Cl
ENDBRANCH   7  15
BRANCH   1  23
HETATM   23  N1  UNL     1       4.035  -5.501  28.141  1.00  0.00    -0.264 NA
HETATM   24  H6  UNL     1       4.460  -5.327  27.238  1.00  0.00     0.130 HD
BRANCH  23  25
HETATM   25  C2  UNL     1       3.561  -6.857  28.354  1.00  0.00     0.091 C 
HETATM   26  C1  UNL     1       2.051  -6.936  28.197  1.00  0.00     0.021 C 
ENDBRANCH  23  25
ENDBRANCH   1  23
TORSDOF 3
ENDMDL
