MODEL 1
REMARK minimizedAffinity -7.89775801
REMARK  4 active torsions:
REMARK  status: ('A' for Active; 'I' for Inactive)
REMARK    1  A    between atoms: N1_1  and  C1_2 
REMARK    2  A    between atoms: C1_2  and  N2_4 
REMARK    3  A    between atoms: C2_7  and  C3_8 
REMARK    4  A    between atoms: C10_17  and  C11_18 
ROOT
HETATM    1  N2  UNL     1      10.509  35.386  18.439  1.00  0.00    -0.258 N 
HETATM    2  N3  UNL     1      11.680  35.552  17.721  1.00  0.00    -0.299 N 
ATOM      3  H3  UNL     1      11.805  36.116  16.881  1.00  0.00     0.187 HD
HETATM    4  C2  UNL     1      12.591  34.851  18.327  1.00  0.00     0.038 C 
HETATM    5  C9  UNL     1      12.104  34.038  19.498  1.00  0.00     0.091 C 
HETATM    6  C10 UNL     1      10.717  34.640  19.693  1.00  0.00     0.150 C 
ENDROOT
BRANCH   6   7
HETATM    7  C11 UNL     1      10.678  35.493  20.961  1.00  0.00    -0.022 A 
HETATM    8  C12 UNL     1      11.560  36.583  21.101  1.00  0.00     0.010 A 
HETATM    9  C13 UNL     1      11.569  37.361  22.253  1.00  0.00     0.002 A 
HETATM   10  C14 UNL     1      10.704  37.057  23.298  1.00  0.00     0.012 A 
HETATM   11  C15 UNL     1       9.823  35.973  23.209  1.00  0.00    -0.025 A 
HETATM   12  C16 UNL     1       8.969  35.685  24.288  1.00  0.00     0.012 A 
HETATM   13  C20 UNL     1       9.796  35.169  22.040  1.00  0.00    -0.018 A 
HETATM   14  C17 UNL     1       8.084  34.610  24.238  1.00  0.00     0.001 A 
HETATM   15  C18 UNL     1       8.044  33.809  23.106  1.00  0.00     0.001 A 
HETATM   16  C19 UNL     1       8.886  34.083  22.025  1.00  0.00     0.013 A 
ENDBRANCH   6   7
BRANCH   1  17
HETATM   17  C1  UNL     1       9.310  35.863  17.935  1.00  0.00     0.187 C 
HETATM   18  S1  UNL     1       8.045  36.515  18.800  1.00  0.00    -0.040 SA
BRANCH  17  19
HETATM   19  N1  UNL     1       9.206  35.760  16.580  1.00  0.00    -0.375 N 
HETATM   20  H1  UNL     1       9.940  35.248  16.107  1.00  0.00     0.158 HD
HETATM   21  H2  UNL     1       8.346  35.990  16.105  1.00  0.00     0.158 HD
ENDBRANCH  17  19
ENDBRANCH   1  17
BRANCH   4  22
HETATM   22  C3  UNL     1      14.003  34.806  17.877  1.00  0.00    -0.010 A 
HETATM   23  C4  UNL     1      15.001  34.220  18.660  1.00  0.00     0.015 A 
HETATM   24  C5  UNL     1      16.324  34.195  18.205  1.00  0.00     0.026 A 
HETATM   25  C6  UNL     1      16.655  34.753  16.967  1.00  0.00     0.055 A 
HETATM   26 CL1  UNL     1      18.308  34.685  16.471  1.00  0.00    -0.083 Cl
HETATM   27  C7  UNL     1      15.658  35.339  16.180  1.00  0.00     0.056 A 
HETATM   28 CL2  UNL     1      15.991  36.047  14.640  1.00  0.00    -0.083 Cl
HETATM   29  C8  UNL     1      14.335  35.363  16.635  1.00  0.00     0.039 A 
ENDBRANCH   4  22
TORSDOF 4
ENDMDL
