MODEL 1
REMARK minimizedAffinity -9.41890144
REMARK  6 active torsions:
REMARK  status: ('A' for Active; 'I' for Inactive)
REMARK    1  A    between atoms: C2_2  and  C3_3 
REMARK       I    between atoms: C3_3  and  N1_5 
REMARK    2  A    between atoms: C6_8  and  N2_9 
REMARK    3  A    between atoms: C7_12  and  C8_13 
REMARK    4  A    between atoms: C11_16  and  O2_17 
REMARK    5  A    between atoms: O2_17  and  C12_18 
REMARK    6  A    between atoms: C21_27  and  N4_28 
ROOT
HETATM    1  N2  UNL     1       6.407  -8.308  28.102  1.00  0.00    -0.270 N 
HETATM    2  N3  UNL     1       7.361  -7.549  28.683  1.00  0.00    -0.295 N 
ATOM      3  H3  UNL     1       8.364  -7.727  28.728  1.00  0.00     0.187 HD
HETATM    4  C7  UNL     1       6.685  -6.503  29.189  1.00  0.00     0.076 A 
HETATM    5  C20 UNL     1       5.297  -6.575  28.879  1.00  0.00     0.082 A 
HETATM    6  C21 UNL     1       4.137  -5.820  29.078  1.00  0.00     0.116 A 
HETATM    7  N5  UNL     1       2.971  -6.282  28.579  1.00  0.00    -0.338 N 
ATOM      8  H5  UNL     1       2.107  -5.753  28.700  1.00  0.00     0.168 HD
HETATM    9  C22 UNL     1       2.973  -7.455  27.919  1.00  0.00     0.183 A 
HETATM   10  N6  UNL     1       4.019  -8.259  27.662  1.00  0.00    -0.337 N 
ATOM     11  H6  UNL     1       3.957  -9.136  27.146  1.00  0.00     0.168 HD
HETATM   12  C23 UNL     1       5.157  -7.757  28.172  1.00  0.00     0.140 A 
ENDROOT
BRANCH   4  13
HETATM   13  C8  UNL     1       7.380  -5.466  29.939  1.00  0.00    -0.007 A 
HETATM   14  C9  UNL     1       8.763  -5.280  29.775  1.00  0.00     0.016 A 
HETATM   15  C10 UNL     1       9.428  -4.290  30.502  1.00  0.00     0.038 A 
HETATM   16  C11 UNL     1       8.719  -3.498  31.408  1.00  0.00     0.076 A 
HETATM   17  C18 UNL     1       7.339  -3.661  31.555  1.00  0.00     0.038 A 
HETATM   18  C19 UNL     1       6.671  -4.644  30.821  1.00  0.00     0.016 A 
BRANCH  16  19
HETATM   19  O2  UNL     1       9.303  -2.487  32.137  1.00  0.00    -0.311 OA
BRANCH  19  20
HETATM   20  C12 UNL     1      10.128  -2.840  33.183  1.00  0.00     0.076 A 
HETATM   21  C13 UNL     1       9.742  -3.728  34.195  1.00  0.00     0.037 A 
HETATM   22  C14 UNL     1      10.625  -4.013  35.240  1.00  0.00     0.003 A 
HETATM   23  C15 UNL     1      11.875  -3.394  35.285  1.00  0.00     0.000 A 
HETATM   24  C16 UNL     1      12.245  -2.487  34.291  1.00  0.00     0.003 A 
HETATM   25  C17 UNL     1      11.370  -2.205  33.242  1.00  0.00     0.037 A 
ENDBRANCH  19  20
ENDBRANCH  16  19
ENDBRANCH   4  13
BRANCH   1  26
HETATM   26  C6  UNL     1       6.778  -9.592  27.515  1.00  0.00     0.113 C 
HETATM   27  C5  UNL     1       8.117 -10.133  28.057  1.00  0.00     0.047 C 
HETATM   28  C4  UNL     1       9.108 -10.436  26.938  1.00  0.00     0.128 C 
HETATM   29  N1  UNL     1       8.483 -11.290  25.925  1.00  0.00    -0.349 N 
HETATM   30  C3  UNL     1       9.013 -12.452  25.394  1.00  0.00     0.242 C 
HETATM   31  C25 UNL     1       7.212 -10.836  25.371  1.00  0.00     0.128 C 
HETATM   32  O1  UNL     1       8.502 -13.074  24.465  1.00  0.00    -0.268 OA
HETATM   33  C24 UNL     1       6.721  -9.532  25.982  1.00  0.00     0.047 C 
BRANCH  30  34
HETATM   34  C2  UNL     1      10.277 -12.960  25.970  1.00  0.00     0.064 C 
HETATM   35  C1  UNL     1      10.255 -13.837  26.983  1.00  0.00     0.017 C 
ENDBRANCH  30  34
ENDBRANCH   1  26
BRANCH   6  36
HETATM   36  N4  UNL     1       4.088  -4.606  29.746  1.00  0.00    -0.385 N 
HETATM   37  H18 UNL     1       3.237  -4.101  29.534  1.00  0.00     0.157 HD
HETATM   38  H19 UNL     1       4.945  -4.068  29.759  1.00  0.00     0.157 HD
ENDBRANCH   6  36
TORSDOF 6
ENDMDL
