MODEL 1
REMARK minimizedAffinity -7.74130535
REMARK CNNscore 0.784199893
REMARK CNNaffinity 6.86238241
REMARK  10 active torsions:
REMARK  status: ('A' for Active; 'I' for Inactive)
REMARK    1  A    between atoms: C1_2  and  C2_3 
REMARK       I    between atoms: C1_2  and  N1_5 
REMARK    2  A    between atoms: C2_3  and  O2_4 
REMARK    3  A    between atoms: C6_9  and  C7_10 
REMARK    4  A    between atoms: C7_10  and  O3_11 
REMARK    5  A    between atoms: O3_11  and  C8_12 
REMARK    6  A    between atoms: C14_22  and  N4_23 
REMARK    7  A    between atoms: N4_23  and  C15_24 
REMARK    8  A    between atoms: C18_27  and  O4_28 
REMARK    9  A    between atoms: O4_28  and  C19_29 
REMARK   10  A    between atoms: C19_29  and  C20_30 
ROOT
HETATM    1  C8  UNL     1      13.362  58.728   3.975  1.00  0.00     0.085 A 
HETATM    2  C9  UNL     1      13.329  59.426   5.185  1.00  0.00     0.038 A 
HETATM    3  C10 UNL     1      13.048  60.785   5.187  1.00  0.00     0.005 A 
HETATM    4  C11 UNL     1      12.788  61.438   3.984  1.00  0.00     0.030 A 
HETATM    5  C12 UNL     1      12.795  60.772   2.768  1.00  0.00     0.049 A 
HETATM    6  N2  UNL     1      12.520  61.492   1.679  1.00  0.00    -0.351 N 
ATOM      7  H2  UNL     1      12.311  62.489   1.735  1.00  0.00     0.166 HD
HETATM    8  C13 UNL     1      12.530  60.844   0.512  1.00  0.00     0.182 A 
HETATM    9  N3  UNL     1      12.800  59.551   0.334  1.00  0.00    -0.338 N 
ATOM     10  H3  UNL     1      12.799  59.130  -0.595  1.00  0.00     0.168 HD
HETATM   11  C14 UNL     1      13.074  58.824   1.434  1.00  0.00     0.122 A 
HETATM   12  C27 UNL     1      13.085  59.397   2.737  1.00  0.00     0.068 A 
ENDROOT
BRANCH  11  13
HETATM   13  N4  UNL     1      13.427  57.458   1.288  1.00  0.00    -0.342 N 
HETATM   14  H17 UNL     1      13.436  57.010   2.202  1.00  0.00     0.167 HD
BRANCH  13  15
HETATM   15  C15 UNL     1      13.305  56.551   0.221  1.00  0.00     0.035 A 
HETATM   16  C16 UNL     1      12.115  56.306  -0.466  1.00  0.00     0.032 A 
HETATM   17  C17 UNL     1      12.064  55.434  -1.565  1.00  0.00     0.041 A 
HETATM   18  C18 UNL     1      13.219  54.800  -2.023  1.00  0.00     0.091 A 
HETATM   19  C25 UNL     1      14.423  55.065  -1.359  1.00  0.00     0.069 A 
HETATM   20 CL1  UNL     1      15.911  54.337  -1.865  1.00  0.00    -0.081 Cl
HETATM   21  C26 UNL     1      14.465  55.931  -0.259  1.00  0.00     0.056 A 
BRANCH  18  22
HETATM   22  O4  UNL     1      13.277  53.935  -3.082  1.00  0.00    -0.344 OA
BRANCH  22  23
HETATM   23  C19 UNL     1      12.119  53.162  -3.418  1.00  0.00     0.232 C 
BRANCH  23  24
HETATM   24  C20 UNL     1      12.068  51.824  -2.715  1.00  0.00     0.033 A 
HETATM   25  C21 UNL     1      13.236  51.218  -2.256  1.00  0.00     0.027 A 
HETATM   26  C22 UNL     1      13.150  49.987  -1.614  1.00  0.00     0.003 A 
HETATM   27  C23 UNL     1      11.906  49.390  -1.452  1.00  0.00     0.017 A 
HETATM   28  C24 UNL     1      10.795  50.050  -1.946  1.00  0.00     0.088 A 
HETATM   29  N5  UNL     1      10.846  51.247  -2.572  1.00  0.00    -0.367 N 
ATOM     30  H5  UNL     1      10.002  51.699  -2.923  1.00  0.00     0.165 HD
ENDBRANCH  23  24
ENDBRANCH  22  23
ENDBRANCH  18  22
ENDBRANCH  13  15
ENDBRANCH  11  13
BRANCH   1  31
HETATM   31  O3  UNL     1      13.592  57.371   3.916  1.00  0.00    -0.348 OA
BRANCH  31  32
HETATM   32  C7  UNL     1      14.746  56.866   4.604  1.00  0.00     0.201 C 
BRANCH  32  33
HETATM   33  C6  UNL     1      15.059  55.404   4.234  1.00  0.00     0.111 C 
HETATM   34  N1  UNL     1      16.466  55.023   4.390  1.00  0.00    -0.344 N 
HETATM   35  C1  UNL     1      17.468  55.639   3.674  1.00  0.00     0.243 C 
HETATM   36  C3  UNL     1      16.602  53.792   5.154  1.00  0.00     0.126 C 
HETATM   37  O1  UNL     1      17.254  56.586   2.911  1.00  0.00    -0.271 OA
HETATM   38  C4  UNL     1      15.205  53.193   5.156  1.00  0.00     0.022 C 
HETATM   39  C5  UNL     1      14.306  54.419   5.142  1.00  0.00     0.029 C 
BRANCH  35  40
HETATM   40  C2  UNL     1      18.898  55.126   3.872  1.00  0.00     0.267 C 
BRANCH  40  41
HETATM   41  O2  UNL     1      19.236  54.128   2.914  1.00  0.00    -0.392 OA
HETATM   42  H3  UNL     1      18.423  53.981   2.386  1.00  0.00     0.210 HD
ENDBRANCH  40  41
ENDBRANCH  35  40
ENDBRANCH  32  33
ENDBRANCH  31  32
ENDBRANCH   1  31
TORSDOF 10
ENDMDL
