MODEL 1
REMARK minimizedAffinity -7.73499823
REMARK  3 active torsions:
REMARK  status: ('A' for Active; 'I' for Inactive)
REMARK    1  A    between atoms: C9_16  and  N4_17 
REMARK    2  A    between atoms: C10_19  and  C11_20 
REMARK    3  A    between atoms: C12_21  and  C13_22 
ROOT
HETATM    1 CL1  UNL     1      13.440  36.507  15.905  1.00  0.00    -0.044 Cl
HETATM    2  C1  UNL     1      15.020  35.868  15.699  1.00  0.00     0.203 A 
HETATM    3  N1  UNL     1      15.591  36.122  14.554  1.00  0.00    -0.331 N 
ATOM      4  H1  UNL     1      15.102  36.668  13.844  1.00  0.00     0.168 HD
HETATM    5  C2  UNL     1      16.896  35.634  14.302  1.00  0.00     0.048 A 
HETATM    6  C3  UNL     1      17.497  35.910  13.074  1.00  0.00     0.030 A 
HETATM    7  C4  UNL     1      18.785  35.441  12.797  1.00  0.00     0.002 A 
HETATM    8  C5  UNL     1      19.480  34.691  13.748  1.00  0.00     0.001 A 
HETATM    9  C6  UNL     1      18.891  34.406  14.980  1.00  0.00     0.017 A 
HETATM   10  C7  UNL     1      17.605  34.877  15.252  1.00  0.00     0.037 A 
HETATM   11  C8  UNL     1      16.924  34.626  16.504  1.00  0.00     0.159 A 
HETATM   12  N2  UNL     1      17.309  33.968  17.571  1.00  0.00    -0.269 N 
ATOM     13  H2  UNL     1      18.204  33.496  17.701  1.00  0.00     0.189 HD
HETATM   14  N3  UNL     1      16.281  34.032  18.479  1.00  0.00    -0.130 N 
ATOM     15  H3  UNL     1      16.285  33.611  19.408  1.00  0.00     0.205 HD
HETATM   16  C9  UNL     1      15.282  34.728  17.957  1.00  0.00     0.707 A 
HETATM   17  N5  UNL     1      15.659  35.126  16.690  1.00  0.00    -0.103 N 
ENDROOT
BRANCH  16  18
HETATM   18  N4  UNL     1      14.073  35.047  18.482  1.00  0.00    -0.200 N 
HETATM   19  C10 UNL     1      13.212  34.083  18.519  1.00  0.00     0.106 C 
ATOM     20  H4  UNL     1      13.858  35.983  18.825  1.00  0.00     0.183 HD
BRANCH  19  21
HETATM   21  C11 UNL     1      11.857  34.304  19.066  1.00  0.00     0.018 C 
HETATM   22  C12 UNL     1      11.064  35.229  18.510  1.00  0.00     0.013 C 
BRANCH  22  23
HETATM   23  C13 UNL     1       9.707  35.532  18.986  1.00  0.00    -0.036 A 
HETATM   24  C14 UNL     1       9.165  34.941  20.135  1.00  0.00     0.011 A 
HETATM   25  C15 UNL     1       7.858  35.233  20.537  1.00  0.00     0.001 A 
HETATM   26  C16 UNL     1       7.077  36.110  19.789  1.00  0.00     0.000 A 
HETATM   27  C17 UNL     1       7.597  36.691  18.636  1.00  0.00     0.001 A 
HETATM   28  C18 UNL     1       8.904  36.399  18.233  1.00  0.00     0.011 A 
ENDBRANCH  22  23
ENDBRANCH  19  21
ENDBRANCH  16  18
TORSDOF 3
ENDMDL
