MODEL 1
REMARK minimizedAffinity -7.57967615
REMARK CNNscore 0.835367262
REMARK CNNaffinity 5.59071541
REMARK  3 active torsions:
REMARK  status: ('A' for Active; 'I' for Inactive)
REMARK    1  A    between atoms: C4_4  and  C5_5 
REMARK    2  A    between atoms: N2_8  and  C6_9 
REMARK    3  A    between atoms: C12_15  and  C13_16 
ROOT
HETATM    1  C5  UNL     1      17.162  52.279   5.466  1.00  0.00     0.038 C 
HETATM    2  N1  UNL     1      16.685  51.099   5.721  1.00  0.00    -0.301 N 
ATOM      3  H1  UNL     1      15.709  50.813   5.651  1.00  0.00     0.187 HD
HETATM    4  N2  UNL     1      17.734  50.311   6.102  1.00  0.00    -0.283 N 
HETATM    5  C12 UNL     1      18.997  51.045   6.207  1.00  0.00     0.147 C 
HETATM    6  C23 UNL     1      18.655  52.403   5.591  1.00  0.00     0.091 C 
ENDROOT
BRANCH   5   7
HETATM    7  C13 UNL     1      19.488  51.210   7.638  1.00  0.00    -0.032 A 
HETATM    8  C14 UNL     1      20.138  50.177   8.327  1.00  0.00     0.010 A 
HETATM    9  C15 UNL     1      20.554  50.353   9.649  1.00  0.00     0.013 A 
HETATM   10  C16 UNL     1      20.325  51.562  10.320  1.00  0.00    -0.026 A 
HETATM   11  C17 UNL     1      20.737  51.752  11.649  1.00  0.00     0.012 A 
HETATM   12  C21 UNL     1      19.664  52.611   9.643  1.00  0.00    -0.025 A 
HETATM   13  C18 UNL     1      20.501  52.962  12.303  1.00  0.00     0.001 A 
HETATM   14  C19 UNL     1      19.849  53.995  11.638  1.00  0.00     0.001 A 
HETATM   15  C20 UNL     1      19.434  53.822  10.317  1.00  0.00     0.012 A 
HETATM   16  C22 UNL     1      19.253  52.421   8.313  1.00  0.00     0.021 A 
ENDBRANCH   5   7
BRANCH   4  17
HETATM   17  C6  UNL     1      17.583  48.930   6.227  1.00  0.00     0.051 A 
HETATM   18  C7  UNL     1      18.680  48.112   6.546  1.00  0.00     0.031 A 
HETATM   19  C8  UNL     1      18.559  46.724   6.677  1.00  0.00     0.002 A 
HETATM   20  C9  UNL     1      17.325  46.116   6.487  1.00  0.00     0.000 A 
HETATM   21  C10 UNL     1      16.218  46.895   6.166  1.00  0.00     0.002 A 
HETATM   22  C11 UNL     1      16.350  48.284   6.039  1.00  0.00     0.031 A 
ENDBRANCH   4  17
BRANCH   1  23
HETATM   23  C4  UNL     1      16.316  53.421   5.046  1.00  0.00    -0.012 A 
HETATM   24  C3  UNL     1      14.933  53.424   5.255  1.00  0.00     0.013 A 
HETATM   25  C2  UNL     1      14.165  54.518   4.846  1.00  0.00     0.001 A 
HETATM   26  C1  UNL     1      14.774  55.609   4.229  1.00  0.00     0.000 A 
HETATM   27  C25 UNL     1      16.152  55.613   4.019  1.00  0.00     0.001 A 
HETATM   28  C24 UNL     1      16.922  54.522   4.428  1.00  0.00     0.013 A 
ENDBRANCH   1  23
TORSDOF 3
ENDMDL
