MODEL 1
REMARK minimizedAffinity -7.88305902
REMARK  6 active torsions:
REMARK  status: ('A' for Active; 'I' for Inactive)
REMARK    1  A    between atoms: O1_1  and  C1_2 
REMARK    2  A    between atoms: C6_11  and  N3_12 
REMARK    3  A    between atoms: N3_12  and  C7_13 
REMARK    4  A    between atoms: C10_16  and  O2_17 
REMARK    5  A    between atoms: O2_17  and  C11_18 
REMARK    6  A    between atoms: C11_18  and  C12_19 
ROOT
HETATM    1  N3  UNL     1      11.870  34.449  18.569  1.00  0.00    -0.342 N 
HETATM    2  H5  UNL     1      12.110  34.128  19.501  1.00  0.00     0.167 HD
ENDROOT
BRANCH   1   3
HETATM    3  C6  UNL     1      10.575  35.034  18.603  1.00  0.00     0.119 A 
HETATM    4  N2  UNL     1      10.044  35.535  17.472  1.00  0.00    -0.338 N 
HETATM    5  C5  UNL     1       8.838  36.101  17.569  1.00  0.00     0.182 A 
ATOM      6  H2  UNL     1      10.539  35.486  16.582  1.00  0.00     0.168 HD
HETATM    7  N1  UNL     1       8.105  36.217  18.680  1.00  0.00    -0.352 N 
HETATM    8  C4  UNL     1       8.628  35.707  19.797  1.00  0.00     0.047 A 
ATOM      9  H1  UNL     1       7.192  36.673  18.676  1.00  0.00     0.166 HD
HETATM   10  C3  UNL     1       7.894  35.799  20.974  1.00  0.00     0.033 A 
HETATM   11  C20 UNL     1       9.884  35.082  19.832  1.00  0.00     0.037 A 
HETATM   12  C2  UNL     1       8.366  35.286  22.186  1.00  0.00     0.039 A 
HETATM   13  C1  UNL     1       9.600  34.660  22.215  1.00  0.00     0.066 A 
HETATM   14  C21 UNL     1      10.359  34.551  21.058  1.00  0.00     0.054 A 
BRANCH  13  15
HETATM   15  O1  UNL     1      10.108  34.135  23.363  1.00  0.00    -0.361 OA
HETATM   16  H1  UNL     1       9.463  34.255  24.079  1.00  0.00     0.217 HD
ENDBRANCH  13  15
ENDBRANCH   1   3
BRANCH   1  17
HETATM   17  C7  UNL     1      13.013  34.872  17.857  1.00  0.00     0.033 A 
HETATM   18  C8  UNL     1      12.924  36.007  17.039  1.00  0.00     0.032 A 
HETATM   19  C9  UNL     1      14.047  36.499  16.364  1.00  0.00     0.039 A 
HETATM   20  C10 UNL     1      15.288  35.879  16.503  1.00  0.00     0.069 A 
HETATM   21  C18 UNL     1      15.401  34.783  17.352  1.00  0.00     0.039 A 
HETATM   22  C19 UNL     1      14.274  34.293  18.028  1.00  0.00     0.032 A 
BRANCH  20  23
HETATM   23  O2  UNL     1      16.303  36.460  15.796  1.00  0.00    -0.347 OA
BRANCH  23  24
HETATM   24  C11 UNL     1      17.476  35.681  15.544  1.00  0.00     0.214 C 
BRANCH  24  25
HETATM   25  C12 UNL     1      17.368  34.812  14.310  1.00  0.00    -0.034 A 
HETATM   26  C13 UNL     1      18.297  33.795  14.047  1.00  0.00     0.009 A 
HETATM   27  C14 UNL     1      18.197  33.023  12.888  1.00  0.00     0.001 A 
HETATM   28  C15 UNL     1      17.174  33.266  11.974  1.00  0.00     0.000 A 
HETATM   29  C16 UNL     1      16.253  34.283  12.215  1.00  0.00     0.001 A 
HETATM   30  C17 UNL     1      16.352  35.055  13.373  1.00  0.00     0.009 A 
ENDBRANCH  24  25
ENDBRANCH  23  24
ENDBRANCH  20  23
ENDBRANCH   1  17
TORSDOF 6
ENDMDL
