MODEL 1
REMARK minimizedAffinity -8.76622868
REMARK  1 active torsions:
REMARK  status: ('A' for Active; 'I' for Inactive)
REMARK    1  A    between atoms: C2_2  and  C3_3 
REMARK       I    between atoms: C3_3  and  N1_5 
ROOT
HETATM    1  C3  UNL     1       8.520   8.709  16.415  1.00  0.00     0.247 C 
HETATM    2  O1  UNL     1       9.119   7.951  17.180  1.00  0.00    -0.268 OA
HETATM    3  N1  UNL     1       8.315  10.080  16.648  1.00  0.00    -0.315 N 
HETATM    4  C4  UNL     1       7.424  10.911  15.814  1.00  0.00     0.132 C 
HETATM    5  C5  UNL     1       5.939  10.636  16.069  1.00  0.00     0.020 C 
HETATM    6  C6  UNL     1       5.058  11.548  15.211  1.00  0.00     0.002 C 
HETATM    7  C7  UNL     1       3.574  11.163  15.243  1.00  0.00     0.000 C 
HETATM    8  C8  UNL     1       2.973  11.232  16.644  1.00  0.00     0.000 C 
HETATM    9  C9  UNL     1       1.469  10.933  16.635  1.00  0.00     0.000 C 
HETATM   10  C10 UNL     1       0.892  10.925  18.053  1.00  0.00     0.002 C 
HETATM   11  C11 UNL     1       0.742  12.332  18.639  1.00  0.00     0.020 C 
HETATM   12  C12 UNL     1       0.753  12.349  20.168  1.00  0.00     0.128 C 
HETATM   13  N2  UNL     1       2.063  12.045  20.727  1.00  0.00    -0.355 N 
HETATM   14  C13 UNL     1       3.113  12.933  20.723  1.00  0.00     0.106 A 
HETATM   15  C14 UNL     1       4.184  12.331  21.349  1.00  0.00     0.019 A 
HETATM   16  C15 UNL     1       3.766  11.027  21.758  1.00  0.00     0.005 A 
HETATM   17  C16 UNL     1       4.400   9.967  22.443  1.00  0.00     0.014 A 
HETATM   18  C17 UNL     1       3.693   8.790  22.713  1.00  0.00     0.001 A 
HETATM   19  C18 UNL     1       2.366   8.660  22.315  1.00  0.00     0.002 A 
HETATM   20  C19 UNL     1       1.713   9.697  21.638  1.00  0.00     0.030 A 
HETATM   21  C20 UNL     1       2.429  10.876  21.368  1.00  0.00     0.045 A 
HETATM   22  C21 UNL     1       5.424  13.025  21.622  1.00  0.00     0.048 A 
HETATM   23  C22 UNL     1       5.572  13.668  22.833  1.00  0.00     0.047 A 
HETATM   24  C23 UNL     1       6.755  14.331  22.999  1.00  0.00     0.093 A 
HETATM   25  N3  UNL     1       7.721  14.356  22.064  1.00  0.00    -0.342 N 
ATOM     26  H3  UNL     1       8.588  14.874  22.211  1.00  0.00     0.167 HD
HETATM   27  C24 UNL     1       7.500  13.670  20.923  1.00  0.00     0.162 A 
HETATM   28  N4  UNL     1       6.368  13.006  20.657  1.00  0.00    -0.332 N 
ATOM     29  H4  UNL     1       6.226  12.514  19.775  1.00  0.00     0.168 HD
HETATM   30  N5  UNL     1       8.578  13.709  20.021  1.00  0.00    -0.230 NA
HETATM   31  C25 UNL     1       9.122  12.567  19.390  1.00  0.00     0.017 A 
HETATM   32  C26 UNL     1      10.380  12.104  19.792  1.00  0.00     0.024 A 
HETATM   33  C27 UNL     1      10.935  10.977  19.198  1.00  0.00     0.004 A 
HETATM   34  C28 UNL     1      10.245  10.309  18.186  1.00  0.00     0.030 A 
HETATM   35  C29 UNL     1       8.983  10.743  17.750  1.00  0.00     0.039 A 
HETATM   36  C30 UNL     1       8.430  11.873  18.385  1.00  0.00     0.053 A 
HETATM   37  H29 UNL     1       9.287  14.207  20.553  1.00  0.00     0.136 HD
ENDROOT
BRANCH   1  38
HETATM   38  C2  UNL     1       7.950   8.118  15.160  1.00  0.00     0.064 C 
HETATM   39  C1  UNL     1       8.734   7.900  14.095  1.00  0.00     0.017 C 
ENDBRANCH   1  38
TORSDOF 1
ENDMDL
