MODEL 1
REMARK minimizedAffinity -7.55346823
REMARK CNNscore 0.693158627
REMARK CNNaffinity 6.59194374
REMARK  7 active torsions:
REMARK  status: ('A' for Active; 'I' for Inactive)
REMARK    1  A    between atoms: C8_10  and  N2_11 
REMARK    2  A    between atoms: N2_11  and  C9_12 
REMARK    3  A    between atoms: C10_15  and  O1_16 
REMARK    4  A    between atoms: C12_18  and  C13_19 
REMARK    5  A    between atoms: C13_19  and  S1_20 
REMARK    6  A    between atoms: S1_20  and  C14_21 
REMARK    7  A    between atoms: N7_26  and  C15_27 
ROOT
HETATM    1  C9  UNL     1      12.850  54.438  -1.876  1.00  0.00     0.699 A 
HETATM    2  N3  UNL     1      14.143  54.250  -2.164  1.00  0.00    -0.170 N 
ATOM      3  H3  UNL     1      14.817  55.014  -2.136  1.00  0.00     0.186 HD
HETATM    4  C10 UNL     1      14.502  53.009  -2.488  1.00  0.00     0.157 A 
HETATM    5  C11 UNL     1      13.670  51.932  -2.560  1.00  0.00     0.082 A 
HETATM    6  C12 UNL     1      12.356  52.200  -2.253  1.00  0.00     0.040 A 
HETATM    7  N8  UNL     1      11.938  53.446  -1.921  1.00  0.00    -0.194 N 
ATOM      8  H8  UNL     1      10.957  53.629  -1.711  1.00  0.00     0.184 HD
ENDROOT
BRANCH   1   9
HETATM    9  N2  UNL     1      12.357  55.675  -1.528  1.00  0.00    -0.022 N 
HETATM   10  H9  UNL     1      11.616  56.001  -2.120  1.00  0.00     0.203 HD
BRANCH   9  11
HETATM   11  C8  UNL     1      12.664  56.541  -0.499  1.00  0.00     0.697 A 
HETATM   12  N1  UNL     1      12.553  57.867  -0.635  1.00  0.00    -0.194 N 
HETATM   13  C6  UNL     1      12.867  58.649   0.420  1.00  0.00     0.035 A 
ATOM     14  H1  UNL     1      12.238  58.278  -1.513  1.00  0.00     0.184 HD
HETATM   15  C5  UNL     1      13.295  58.125   1.643  1.00  0.00     0.014 A 
HETATM   16  C7  UNL     1      12.723  60.126   0.191  1.00  0.00     0.070 C 
HETATM   17  C4  UNL     1      13.639  58.886   2.786  1.00  0.00     0.016 A 
HETATM   18  C21 UNL     1      13.372  56.731   1.685  1.00  0.00     0.061 A 
HETATM   19  C3  UNL     1      14.052  58.258   3.960  1.00  0.00     0.008 A 
HETATM   20  C2  UNL     1      14.117  56.867   4.015  1.00  0.00    -0.060 A 
HETATM   21  C1  UNL     1      14.581  56.165   5.257  1.00  0.00     0.048 C 
HETATM   22  C22 UNL     1      13.786  56.128   2.869  1.00  0.00     0.037 A 
HETATM   23  N9  UNL     1      13.065  55.954   0.639  1.00  0.00    -0.190 N 
ATOM     24  H9  UNL     1      13.134  54.938   0.706  1.00  0.00     0.184 HD
ENDBRANCH   9  11
ENDBRANCH   1   9
BRANCH   4  25
HETATM   25  O1  UNL     1      15.823  52.879  -2.769  1.00  0.00    -0.346 OA
HETATM   26  H10 UNL     1      16.114  53.797  -2.607  1.00  0.00     0.219 HD
ENDBRANCH   4  25
BRANCH   6  27
HETATM   27  C13 UNL     1      11.308  51.119  -2.303  1.00  0.00     0.140 C 
BRANCH  27  28
HETATM   28  S1  UNL     1      11.844  49.517  -1.631  1.00  0.00    -0.085 SA
BRANCH  28  29
HETATM   29  C14 UNL     1      10.313  48.737  -1.429  1.00  0.00     0.177 A 
HETATM   30  N4  UNL     1       9.751  48.568  -0.253  1.00  0.00    -0.264 N 
HETATM   31  N5  UNL     1       8.512  48.051  -0.493  1.00  0.00    -0.006 NA
ATOM     32  H4  UNL     1      10.160  48.780   0.657  1.00  0.00     0.186 HD
HETATM   33  N6  UNL     1       8.303  47.899  -1.791  1.00  0.00     0.001 NA
HETATM   34  N7  UNL     1       9.452  48.277  -2.421  1.00  0.00    -0.219 N 
BRANCH  34  35
HETATM   35  C15 UNL     1       9.558  48.147  -3.836  1.00  0.00     0.056 A 
HETATM   36  C16 UNL     1      10.351  47.175  -4.456  1.00  0.00     0.031 A 
HETATM   37  C17 UNL     1      10.415  47.097  -5.851  1.00  0.00     0.002 A 
HETATM   38  C18 UNL     1       9.685  47.979  -6.642  1.00  0.00     0.000 A 
HETATM   39  C19 UNL     1       8.878  48.940  -6.041  1.00  0.00     0.002 A 
HETATM   40  C20 UNL     1       8.810  49.022  -4.649  1.00  0.00     0.031 A 
ENDBRANCH  34  35
ENDBRANCH  28  29
ENDBRANCH  27  28
ENDBRANCH   6  27
TORSDOF 7
ENDMDL
