MODEL 1
REMARK minimizedAffinity -6.85248518
REMARK  2 active torsions:
REMARK  status: ('A' for Active; 'I' for Inactive)
REMARK    1  A    between atoms: C6_6  and  N1_7 
REMARK    2  A    between atoms: N1_7  and  C7_8 
ROOT
HETATM    1  C7  UNL     1      11.367  34.691  18.525  1.00  0.00     0.119 A 
HETATM    2  N2  UNL     1      11.984  33.885  19.409  1.00  0.00    -0.338 N 
ATOM      3  H2  UNL     1      12.905  33.490  19.219  1.00  0.00     0.168 HD
HETATM    4  C8  UNL     1      11.334  33.625  20.546  1.00  0.00     0.182 A 
HETATM    5  N3  UNL     1      10.129  34.089  20.892  1.00  0.00    -0.352 N 
ATOM      6  H3  UNL     1       9.691  33.836  21.778  1.00  0.00     0.166 HD
HETATM    7  C9  UNL     1       9.527  34.900  20.019  1.00  0.00     0.047 A 
HETATM    8  C10 UNL     1       8.277  35.413  20.344  1.00  0.00     0.030 A 
HETATM    9  C11 UNL     1       7.585  36.277  19.489  1.00  0.00     0.002 A 
HETATM   10  C12 UNL     1       8.153  36.646  18.278  1.00  0.00     0.001 A 
HETATM   11  C13 UNL     1       9.404  36.143  17.929  1.00  0.00     0.017 A 
HETATM   12  C14 UNL     1      10.103  35.257  18.791  1.00  0.00     0.035 A 
ENDROOT
BRANCH   1  13
HETATM   13  N1  UNL     1      11.991  34.970  17.278  1.00  0.00    -0.342 N 
HETATM   14  H7  UNL     1      11.805  34.200  16.645  1.00  0.00     0.167 HD
BRANCH  13  15
HETATM   15  C6  UNL     1      13.263  35.536  17.035  1.00  0.00     0.034 A 
HETATM   16  C5  UNL     1      13.436  36.762  16.385  1.00  0.00     0.029 A 
HETATM   17  C4  UNL     1      14.713  37.250  16.094  1.00  0.00     0.003 A 
HETATM   18  C3  UNL     1      15.841  36.506  16.432  1.00  0.00     0.007 A 
HETATM   19  C2  UNL     1      15.700  35.266  17.059  1.00  0.00    -0.060 A 
HETATM   20  C1  UNL     1      16.907  34.433  17.376  1.00  0.00     0.048 C 
HETATM   21  C15 UNL     1      14.412  34.781  17.332  1.00  0.00     0.036 A 
ENDBRANCH  13  15
ENDBRANCH   1  13
TORSDOF 2
ENDMDL
