MODEL 1
REMARK minimizedAffinity -10.7857437
REMARK  4 active torsions:
REMARK  status: ('A' for Active; 'I' for Inactive)
REMARK    1  A    between atoms: C4_4  and  C5_5 
REMARK    2  A    between atoms: C10_16  and  N4_17 
REMARK    3  A    between atoms: N4_17  and  C11_18 
REMARK    4  A    between atoms: C18_28  and  C19_29 
REMARK       I    between atoms: C19_29  and  N6_31 
ROOT
HETATM    1  C5  UNL     1      -2.290   5.255  13.191  1.00  0.00     0.047 C 
HETATM    2  C6  UNL     1      -1.926   5.927  14.297  1.00  0.00     0.052 A 
HETATM    3  C7  UNL     1      -2.748   6.312  15.503  1.00  0.00     0.258 A 
HETATM    4  O1  UNL     1      -3.887   5.986  15.775  1.00  0.00    -0.267 OA
HETATM    5  N1  UNL     1      -1.930   7.120  16.260  1.00  0.00    -0.308 N 
HETATM    6  C8  UNL     1      -0.674   7.250  15.693  1.00  0.00     0.124 A 
HETATM    7  N2  UNL     1       0.298   7.964  16.253  1.00  0.00    -0.338 N 
ATOM      8  H2  UNL     1       0.184   8.486  17.122  1.00  0.00     0.168 HD
HETATM    9  C9  UNL     1       1.439   7.928  15.558  1.00  0.00     0.183 A 
HETATM   10  N3  UNL     1       1.655   7.241  14.418  1.00  0.00    -0.338 N 
ATOM     11  H3  UNL     1       2.564   7.267  13.957  1.00  0.00     0.168 HD
HETATM   12  C10 UNL     1       0.638   6.516  13.900  1.00  0.00     0.121 A 
HETATM   13  C17 UNL     1      -0.593   6.522  14.517  1.00  0.00     0.068 A 
HETATM   14  H6  UNL     1      -2.192   7.543  17.136  1.00  0.00     0.170 HD
ENDROOT
BRANCH   1  15
HETATM   15  C4  UNL     1      -3.539   4.662  12.859  1.00  0.00     0.034 A 
HETATM   16  C3  UNL     1      -3.812   3.464  12.221  1.00  0.00     0.038 A 
HETATM   17  C2  UNL     1      -5.223   3.296  12.148  1.00  0.00    -0.028 A 
HETATM   18  C1  UNL     1      -5.945   2.136  11.563  1.00  0.00     0.050 C 
HETATM   19  C18 UNL     1      -5.784   4.424  12.727  1.00  0.00     0.107 A 
HETATM   20  N5  UNL     1      -4.754   5.215  13.180  1.00  0.00    -0.351 N 
HETATM   21  H12 UNL     1      -4.898   6.106  13.646  1.00  0.00     0.166 HD
BRANCH  19  22
HETATM   22  C19 UNL     1      -7.173   4.773  12.921  1.00  0.00     0.271 C 
HETATM   23  O2  UNL     1      -8.075   4.037  12.531  1.00  0.00    -0.266 OA
HETATM   24  N6  UNL     1      -7.427   5.969  13.585  1.00  0.00    -0.343 N 
HETATM   25  C20 UNL     1      -6.394   6.841  14.155  1.00  0.00     0.156 C 
HETATM   26  C24 UNL     1      -8.812   6.337  13.882  1.00  0.00     0.156 C 
HETATM   27  C21 UNL     1      -6.938   8.247  14.465  1.00  0.00     0.291 C 
HETATM   28  N7  UNL     1      -8.072   8.239  15.409  1.00  0.00     0.087 N 
HETATM   29  C22 UNL     1      -8.821   9.490  15.333  1.00  0.00     0.310 C 
HETATM   30  C23 UNL     1      -8.945   7.060  15.235  1.00  0.00     0.291 C 
ENDBRANCH  19  22
ENDBRANCH   1  15
BRANCH  12  31
HETATM   31  N4  UNL     1       0.855   5.726  12.748  1.00  0.00    -0.342 N 
HETATM   32  H8  UNL     1       1.360   4.885  13.016  1.00  0.00     0.167 HD
BRANCH  31  33
HETATM   33  C11 UNL     1       1.223   6.150  11.450  1.00  0.00     0.035 A 
HETATM   34  C12 UNL     1       2.324   5.539  10.823  1.00  0.00     0.032 A 
HETATM   35  C13 UNL     1       2.694   5.881   9.520  1.00  0.00     0.046 A 
HETATM   36  C14 UNL     1       1.947   6.821   8.819  1.00  0.00     0.138 A 
HETATM   37  F1  UNL     1       2.318   7.136   7.570  1.00  0.00    -0.204 F 
HETATM   38  C15 UNL     1       0.829   7.407   9.404  1.00  0.00     0.074 A 
HETATM   39 CL1  UNL     1      -0.116   8.553   8.531  1.00  0.00    -0.081 Cl
HETATM   40  C16 UNL     1       0.461   7.063  10.706  1.00  0.00     0.056 A 
ENDBRANCH  31  33
ENDBRANCH  12  31
TORSDOF 4
ENDMDL
