MODEL 1
REMARK minimizedAffinity -7.96522522
REMARK  3 active torsions:
REMARK  status: ('A' for Active; 'I' for Inactive)
REMARK    1  A    between atoms: C4_5  and  C5_6 
REMARK    2  A    between atoms: N2_9  and  C6_10 
REMARK    3  A    between atoms: C12_16  and  C13_17 
ROOT
HETATM    1  C5  UNL     1      13.564  57.462   1.103  1.00  0.00     0.038 C 
HETATM    2  N1  UNL     1      13.694  56.363   1.784  1.00  0.00    -0.301 N 
ATOM      3  H1  UNL     1      13.269  55.462   1.566  1.00  0.00     0.187 HD
HETATM    4  N2  UNL     1      14.508  56.643   2.846  1.00  0.00    -0.283 N 
HETATM    5  C12 UNL     1      14.832  58.066   2.962  1.00  0.00     0.147 C 
HETATM    6  C23 UNL     1      14.364  58.628   1.617  1.00  0.00     0.091 C 
ENDROOT
BRANCH   5   7
HETATM    7  C13 UNL     1      14.121  58.764   4.113  1.00  0.00    -0.032 A 
HETATM    8  C14 UNL     1      14.261  58.263   5.416  1.00  0.00     0.010 A 
HETATM    9  C15 UNL     1      13.643  58.898   6.495  1.00  0.00     0.013 A 
HETATM   10  C16 UNL     1      12.872  60.053   6.304  1.00  0.00    -0.026 A 
HETATM   11  C17 UNL     1      12.241  60.701   7.378  1.00  0.00     0.012 A 
HETATM   12  C21 UNL     1      12.727  60.576   5.000  1.00  0.00    -0.025 A 
HETATM   13  C18 UNL     1      11.475  61.850   7.168  1.00  0.00     0.001 A 
HETATM   14  C19 UNL     1      11.332  62.364   5.884  1.00  0.00     0.001 A 
HETATM   15  C20 UNL     1      11.954  61.733   4.805  1.00  0.00     0.012 A 
HETATM   16  C22 UNL     1      13.356  59.928   3.924  1.00  0.00     0.021 A 
ENDBRANCH   5   7
BRANCH   4  17
HETATM   17  C6  UNL     1      14.978  55.626   3.676  1.00  0.00     0.051 A 
HETATM   18  C7  UNL     1      14.087  54.847   4.435  1.00  0.00     0.031 A 
HETATM   19  C8  UNL     1      14.531  53.823   5.279  1.00  0.00     0.002 A 
HETATM   20  C9  UNL     1      15.891  53.551   5.384  1.00  0.00     0.000 A 
HETATM   21  C10 UNL     1      16.798  54.302   4.646  1.00  0.00     0.002 A 
HETATM   22  C11 UNL     1      16.343  55.325   3.802  1.00  0.00     0.031 A 
ENDBRANCH   4  17
BRANCH   1  23
HETATM   23  C4  UNL     1      12.718  57.566  -0.109  1.00  0.00    -0.012 A 
HETATM   24  C3  UNL     1      12.662  58.744  -0.862  1.00  0.00     0.015 A 
HETATM   25  C2  UNL     1      11.849  58.810  -1.998  1.00  0.00     0.024 A 
HETATM   26  C1  UNL     1      11.096  57.701  -2.381  1.00  0.00     0.034 A 
HETATM   27 CL1  UNL     1      10.096  57.787  -3.778  1.00  0.00    -0.084 Cl
HETATM   28  C25 UNL     1      11.148  56.524  -1.638  1.00  0.00     0.024 A 
HETATM   29  C24 UNL     1      11.961  56.455  -0.504  1.00  0.00     0.015 A 
ENDBRANCH   1  23
TORSDOF 3
ENDMDL
