MODEL 1
REMARK minimizedAffinity -7.30763817
REMARK  9 active torsions:
REMARK  status: ('A' for Active; 'I' for Inactive)
REMARK    1  A    between atoms: O1_1  and  C1_2 
REMARK    2  A    between atoms: C1_2  and  C2_3 
REMARK    3  A    between atoms: C3_6  and  C4_7 
REMARK    4  A    between atoms: C5_8  and  C6_9 
REMARK    5  A    between atoms: C9_16  and  N4_17 
REMARK    6  A    between atoms: N4_17  and  C10_18 
REMARK    7  A    between atoms: C13_21  and  O2_22 
REMARK    8  A    between atoms: O2_22  and  C14_23 
REMARK    9  A    between atoms: C14_23  and  C15_24 
ROOT
HETATM    1  C6  UNL     1      18.458  36.158  17.736  1.00  0.00     0.077 A 
HETATM    2  C7  UNL     1      19.243  37.289  17.845  1.00  0.00     0.113 A 
HETATM    3  N2  UNL     1      19.454  37.947  19.000  1.00  0.00    -0.361 N 
ATOM      4  H2  UNL     1      20.041  38.778  19.055  1.00  0.00     0.166 HD
HETATM    5  C8  UNL     1      18.837  37.433  20.070  1.00  0.00     0.181 A 
HETATM    6  N3  UNL     1      18.053  36.345  20.083  1.00  0.00    -0.337 N 
ATOM      7  H3  UNL     1      17.614  36.019  20.943  1.00  0.00     0.168 HD
HETATM    8  C9  UNL     1      17.866  35.698  18.914  1.00  0.00     0.127 A 
ENDROOT
BRANCH   8   9
HETATM    9  N4  UNL     1      17.037  34.546  18.863  1.00  0.00    -0.341 N 
HETATM   10  H6  UNL     1      17.414  33.827  19.474  1.00  0.00     0.167 HD
BRANCH   9  11
HETATM   11  C10 UNL     1      15.636  34.455  18.729  1.00  0.00     0.035 A 
HETATM   12  C11 UNL     1      15.057  34.730  17.481  1.00  0.00     0.032 A 
HETATM   13  C12 UNL     1      13.667  34.715  17.298  1.00  0.00     0.041 A 
HETATM   14  C13 UNL     1      12.818  34.447  18.372  1.00  0.00     0.091 A 
HETATM   15  C21 UNL     1      13.389  34.199  19.629  1.00  0.00     0.069 A 
HETATM   16 CL1  UNL     1      12.400  33.887  21.015  1.00  0.00    -0.081 Cl
HETATM   17  C22 UNL     1      14.778  34.216  19.804  1.00  0.00     0.056 A 
BRANCH  14  18
HETATM   18  O2  UNL     1      11.452  34.405  18.293  1.00  0.00    -0.345 OA
BRANCH  18  19
HETATM   19  C14 UNL     1      10.767  35.598  17.914  1.00  0.00     0.214 C 
BRANCH  19  20
HETATM   20  C15 UNL     1       9.476  35.708  18.693  1.00  0.00    -0.031 A 
HETATM   21  C16 UNL     1       8.433  36.542  18.255  1.00  0.00     0.009 A 
HETATM   22  C17 UNL     1       7.229  36.614  18.961  1.00  0.00     0.004 A 
HETATM   23  C18 UNL     1       7.049  35.843  20.108  1.00  0.00     0.042 A 
HETATM   24  C19 UNL     1       8.073  35.008  20.536  1.00  0.00     0.117 A 
HETATM   25  F1  UNL     1       7.898  34.260  21.635  1.00  0.00    -0.206 F 
HETATM   26  C20 UNL     1       9.276  34.928  19.841  1.00  0.00     0.051 A 
ENDBRANCH  19  20
ENDBRANCH  18  19
ENDBRANCH  14  18
ENDBRANCH   9  11
ENDBRANCH   8   9
BRANCH   1  27
HETATM   27  C5  UNL     1      18.279  35.520  16.468  1.00  0.00    -0.055 C 
HETATM   28  C4  UNL     1      18.155  34.993  15.396  1.00  0.00    -0.043 C 
BRANCH  28  29
HETATM   29  C3  UNL     1      18.034  34.383  14.116  1.00  0.00     0.094 A 
HETATM   30  N1  UNL     1      18.368  33.053  13.992  1.00  0.00    -0.345 N 
HETATM   31  C2  UNL     1      18.176  32.673  12.741  1.00  0.00     0.075 A 
ATOM     32  H1  UNL     1      18.709  32.456  14.746  1.00  0.00     0.167 HD
HETATM   33  S1  UNL     1      17.603  33.892  11.672  1.00  0.00    -0.084 SA
HETATM   34  C23 UNL     1      17.599  35.012  12.972  1.00  0.00     0.090 A 
BRANCH  31  35
HETATM   35  C1  UNL     1      18.443  31.287  12.238  1.00  0.00     0.229 C 
BRANCH  35  36
HETATM   36  O1  UNL     1      17.478  30.403  12.814  1.00  0.00    -0.394 OA
HETATM   37  H1  UNL     1      17.157  30.848  13.624  1.00  0.00     0.209 HD
ENDBRANCH  35  36
ENDBRANCH  31  35
ENDBRANCH  28  29
ENDBRANCH   1  27
TORSDOF 9
ENDMDL
