MODEL 1
REMARK minimizedAffinity -9.09777832
REMARK CNNscore 0.482738912
REMARK CNNaffinity 8.02557468
REMARK  8 active torsions:
REMARK  status: ('A' for Active; 'I' for Inactive)
REMARK    1  A    between atoms: N2_5  and  C4_6 
REMARK    2  A    between atoms: C7_9  and  N3_10 
REMARK    3  A    between atoms: N3_10  and  C8_11 
REMARK    4  A    between atoms: C11_18  and  N6_19 
REMARK    5  A    between atoms: N6_19  and  C12_20 
REMARK    6  A    between atoms: N7_26  and  C18_27 
REMARK    7  A    between atoms: N8_30  and  S1_31 
REMARK    8  A    between atoms: S1_31  and  C21_34 
ROOT
HETATM    1  C8  UNL     1       5.030  -5.997  28.873  1.00  0.00     0.684 A 
HETATM    2  N4  UNL     1       4.155  -5.275  29.603  1.00  0.00    -0.199 N 
ATOM      3  H4  UNL     1       3.151  -5.394  29.466  1.00  0.00     0.183 HD
HETATM    4  C9  UNL     1       4.616  -4.388  30.524  1.00  0.00     0.140 A 
HETATM    5  C10 UNL     1       5.983  -4.234  30.693  1.00  0.00     0.110 A 
HETATM    6  N5  UNL     1       6.740  -3.423  31.490  1.00  0.00    -0.186 N 
ATOM      7  H5  UNL     1       6.404  -2.767  32.195  1.00  0.00     0.184 HD
HETATM    8  C11 UNL     1       7.995  -3.661  31.160  1.00  0.00     0.687 A 
HETATM    9  N7  UNL     1       8.071  -4.715  30.257  1.00  0.00    -0.159 N 
HETATM   10  C25 UNL     1       6.783  -5.033  29.904  1.00  0.00     0.168 A 
HETATM   11  N9  UNL     1       6.370  -5.922  28.990  1.00  0.00    -0.173 N 
ATOM     12  H9  UNL     1       7.011  -6.488  28.434  1.00  0.00     0.186 HD
ENDROOT
BRANCH   1  13
HETATM   13  N3  UNL     1       4.601  -6.890  27.894  1.00  0.00    -0.192 N 
HETATM   14  H10 UNL     1       5.230  -6.837  27.106  1.00  0.00     0.184 HD
BRANCH  13  15
HETATM   15  C7  UNL     1       3.461  -7.681  27.723  1.00  0.00     0.049 A 
HETATM   16  C6  UNL     1       3.479  -9.016  27.332  1.00  0.00     0.032 A 
HETATM   17  C5  UNL     1       2.287  -9.750  27.190  1.00  0.00     0.031 A 
HETATM   18  C4  UNL     1       1.024  -9.190  27.434  1.00  0.00     0.030 A 
HETATM   19  C27 UNL     1       1.021  -7.844  27.821  1.00  0.00     0.031 A 
HETATM   20  C26 UNL     1       2.207  -7.104  27.959  1.00  0.00     0.032 A 
BRANCH  18  21
HETATM   21  N2  UNL     1      -0.144  -9.919  27.302  1.00  0.00    -0.378 N 
HETATM   22  C3  UNL     1      -0.223 -11.337  27.690  1.00  0.00     0.153 C 
HETATM   23  C2  UNL     1      -1.674 -11.751  28.035  1.00  0.00     0.291 C 
HETATM   24  N1  UNL     1      -2.686 -11.489  26.989  1.00  0.00     0.087 N 
HETATM   25  C1  UNL     1      -3.009 -12.692  26.227  1.00  0.00     0.310 C 
HETATM   26  C29 UNL     1      -2.254 -10.402  26.082  1.00  0.00     0.291 C 
HETATM   27  C28 UNL     1      -1.379  -9.323  26.760  1.00  0.00     0.153 C 
ENDBRANCH  18  21
ENDBRANCH  13  15
ENDBRANCH   1  13
BRANCH   9  28
HETATM   28  C18 UNL     1       9.287  -5.321  29.757  1.00  0.00     0.125 C 
HETATM   29  C19 UNL     1       9.563  -6.721  30.311  1.00  0.00     0.043 C 
HETATM   30  C20 UNL     1      10.715  -7.215  29.448  1.00  0.00     0.109 C 
HETATM   31  N8  UNL     1      10.530  -6.559  28.128  1.00  0.00    -0.208 NA
HETATM   32  C24 UNL     1       9.381  -5.608  28.252  1.00  0.00     0.133 C 
BRANCH  31  33
HETATM   33  S1  UNL     1      10.435  -7.583  26.769  1.00  0.00     0.215 S 
HETATM   34  O1  UNL     1      10.655  -6.758  25.600  1.00  0.00    -0.211 OA
HETATM   35  O2  UNL     1      11.268  -8.733  27.045  1.00  0.00    -0.211 OA
BRANCH  33  36
HETATM   36  C21 UNL     1       8.730  -8.201  26.726  1.00  0.00     0.124 A 
HETATM   37  C22 UNL     1       7.848  -7.632  25.646  1.00  0.00     0.023 A 
HETATM   38  C23 UNL     1       8.409  -9.025  25.507  1.00  0.00     0.023 A 
ENDBRANCH  33  36
ENDBRANCH  31  33
ENDBRANCH   9  28
BRANCH   8  39
HETATM   39  N6  UNL     1       9.108  -2.998  31.554  1.00  0.00    -0.191 N 
HETATM   40  H12 UNL     1       9.442  -2.200  31.025  1.00  0.00     0.184 HD
BRANCH  39  41
HETATM   41  C12 UNL     1       9.825  -3.169  32.757  1.00  0.00     0.049 A 
HETATM   42  C13 UNL     1      11.047  -2.535  33.021  1.00  0.00     0.030 A 
HETATM   43  C14 UNL     1      11.719  -2.739  34.231  1.00  0.00     0.002 A 
HETATM   44  C15 UNL     1      11.184  -3.595  35.190  1.00  0.00     0.000 A 
HETATM   45  C16 UNL     1       9.983  -4.252  34.939  1.00  0.00     0.002 A 
HETATM   46  C17 UNL     1       9.313  -4.041  33.730  1.00  0.00     0.030 A 
ENDBRANCH  39  41
ENDBRANCH   8  39
TORSDOF 8
ENDMDL
