MODEL 1
REMARK minimizedAffinity -10.162715
REMARK CNNscore 0.902863204
REMARK CNNaffinity 7.59124899
REMARK  4 active torsions:
REMARK  status: ('A' for Active; 'I' for Inactive)
REMARK    1  A    between atoms: O1_2  and  C2_3 
REMARK    2  A    between atoms: C7_8  and  N1_9 
REMARK    3  A    between atoms: N1_9  and  C8_10 
REMARK    4  A    between atoms: C12_16  and  C13_17 
ROOT
HETATM    1  C8  UNL     1       5.006  -5.175  29.118  1.00  0.00     0.684 A 
HETATM    2  N2  UNL     1       4.658  -4.100  29.844  1.00  0.00    -0.201 N 
ATOM      3  H2  UNL     1       3.748  -3.653  29.726  1.00  0.00     0.183 HD
HETATM    4  C9  UNL     1       5.555  -3.636  30.734  1.00  0.00     0.121 A 
HETATM    5  C10 UNL     1       6.793  -4.198  30.932  1.00  0.00     0.026 A 
HETATM    6  C11 UNL     1       7.757  -3.690  31.893  1.00  0.00     0.034 A 
HETATM    7  C12 UNL     1       8.945  -4.301  32.023  1.00  0.00     0.047 A 
HETATM    8  C19 UNL     1       9.287  -5.502  31.186  1.00  0.00     0.260 A 
HETATM    9  O2  UNL     1      10.385  -6.041  31.327  1.00  0.00    -0.267 OA
HETATM   10  N3  UNL     1       8.327  -5.937  30.287  1.00  0.00    -0.303 N 
HETATM   11  C20 UNL     1       8.592  -7.091  29.447  1.00  0.00     0.161 C 
HETATM   12  C21 UNL     1       7.069  -5.297  30.144  1.00  0.00     0.137 A 
HETATM   13  N4  UNL     1       6.191  -5.787  29.245  1.00  0.00    -0.175 N 
ATOM     14  H4  UNL     1       6.424  -6.602  28.676  1.00  0.00     0.186 HD
ENDROOT
BRANCH   1  15
HETATM   15  N1  UNL     1       4.046  -5.612  28.219  1.00  0.00    -0.189 N 
HETATM   16  H8  UNL     1       3.792  -4.875  27.572  1.00  0.00     0.184 HD
BRANCH  15  17
HETATM   17  C7  UNL     1       3.361  -6.819  28.001  1.00  0.00     0.082 A 
HETATM   18  C2  UNL     1       4.092  -7.923  27.499  1.00  0.00     0.095 A 
HETATM   19  C3  UNL     1       3.454  -9.147  27.265  1.00  0.00     0.039 A 
HETATM   20  C4  UNL     1       2.091  -9.287  27.526  1.00  0.00     0.003 A 
HETATM   21  C5  UNL     1       1.363  -8.209  28.018  1.00  0.00     0.002 A 
HETATM   22  C6  UNL     1       1.994  -6.985  28.253  1.00  0.00     0.033 A 
BRANCH  18  23
HETATM   23  O1  UNL     1       5.430  -7.680  27.277  1.00  0.00    -0.354 OA
HETATM   24  C1  UNL     1       5.964  -8.097  26.028  1.00  0.00     0.210 C 
ENDBRANCH  18  23
ENDBRANCH  15  17
ENDBRANCH   1  15
BRANCH   7  25
HETATM   25  C13 UNL     1       9.929  -3.792  32.998  1.00  0.00     0.023 A 
HETATM   26  C14 UNL     1       9.870  -4.173  34.351  1.00  0.00     0.046 A 
HETATM   27 CL1  UNL     1       8.632  -5.224  34.953  1.00  0.00    -0.083 Cl
HETATM   28  C15 UNL     1      10.814  -3.700  35.271  1.00  0.00     0.025 A 
HETATM   29  C16 UNL     1      11.831  -2.844  34.855  1.00  0.00     0.003 A 
HETATM   30  C17 UNL     1      11.904  -2.456  33.520  1.00  0.00     0.025 A 
HETATM   31  C18 UNL     1      10.963  -2.925  32.597  1.00  0.00     0.046 A 
HETATM   32 CL2  UNL     1      11.119  -2.386  30.958  1.00  0.00    -0.083 Cl
ENDBRANCH   7  25
TORSDOF 4
ENDMDL
