MODEL 1
REMARK minimizedAffinity -9.98253345
REMARK  8 active torsions:
REMARK  status: ('A' for Active; 'I' for Inactive)
REMARK    1  A    between atoms: C3_3  and  C4_4 
REMARK       I    between atoms: C4_4  and  N1_6 
REMARK    2  A    between atoms: N1_6  and  C5_7 
REMARK    3  A    between atoms: C7_9  and  N2_10 
REMARK    4  A    between atoms: N2_10  and  C8_11 
REMARK    5  A    between atoms: C11_16  and  C12_17 
REMARK    6  A    between atoms: C21_29  and  O2_30 
REMARK    7  A    between atoms: C24_33  and  O3_34 
REMARK    8  A    between atoms: O3_34  and  C25_35 
ROOT
HETATM    1  C1  UNL     1       1.733   7.322   6.644  1.00  0.00     0.102 C 
HETATM    2  C2  UNL     1       2.341   6.516   7.460  1.00  0.00    -0.155 C 
HETATM    3  C3  UNL     1       2.962   5.704   8.265  1.00  0.00     0.124 C 
ENDROOT
BRANCH   3   4
HETATM    4  C4  UNL     1       2.762   5.645   9.738  1.00  0.00     0.253 C 
HETATM    5  O1  UNL     1       2.543   4.549  10.236  1.00  0.00    -0.268 OA
HETATM    6  N1  UNL     1       2.812   6.864  10.372  1.00  0.00    -0.321 N 
HETATM    7  H4  UNL     1       2.787   7.674   9.764  1.00  0.00     0.169 HD
BRANCH   6   8
HETATM    8  C5  UNL     1       2.657   7.151  11.750  1.00  0.00     0.071 A 
HETATM    9  C6  UNL     1       1.590   6.480  12.377  1.00  0.00     0.065 A 
HETATM   10  C7  UNL     1       1.339   6.588  13.751  1.00  0.00     0.085 A 
HETATM   11  C21 UNL     1       2.196   7.397  14.526  1.00  0.00     0.098 A 
HETATM   12  C23 UNL     1       3.234   8.101  13.912  1.00  0.00     0.078 A 
HETATM   13  C24 UNL     1       3.437   8.016  12.528  1.00  0.00     0.099 A 
BRANCH  10  14
HETATM   14  N2  UNL     1       0.294   5.912  14.401  1.00  0.00    -0.189 N 
HETATM   15  H6  UNL     1       0.515   4.958  14.661  1.00  0.00     0.184 HD
BRANCH  14  16
HETATM   16  C8  UNL     1      -1.013   6.221  14.751  1.00  0.00     0.683 A 
HETATM   17  N3  UNL     1      -1.296   7.145  15.681  1.00  0.00    -0.202 N 
HETATM   18  C9  UNL     1      -2.594   7.388  15.933  1.00  0.00     0.108 A 
ATOM     19  H3  UNL     1      -0.558   7.644  16.177  1.00  0.00     0.183 HD
HETATM   20  C10 UNL     1      -3.623   6.739  15.303  1.00  0.00     0.048 A 
HETATM   21  C11 UNL     1      -3.249   5.797  14.371  1.00  0.00     0.063 A 
HETATM   22  N5  UNL     1      -1.954   5.536  14.089  1.00  0.00    -0.191 N 
ATOM     23  H5  UNL     1      -1.700   4.836  13.391  1.00  0.00     0.184 HD
BRANCH  21  24
HETATM   24  C12 UNL     1      -4.234   5.021  13.621  1.00  0.00     0.019 A 
HETATM   25  C13 UNL     1      -3.925   3.901  12.868  1.00  0.00     0.105 A 
HETATM   26  N4  UNL     1      -5.076   3.435  12.290  1.00  0.00    -0.360 N 
HETATM   27  C14 UNL     1      -5.153   2.276  11.428  1.00  0.00     0.156 C 
HETATM   28  C15 UNL     1      -6.145   4.231  12.638  1.00  0.00     0.045 A 
HETATM   29  C16 UNL     1      -7.503   4.152  12.288  1.00  0.00     0.030 A 
HETATM   30  C20 UNL     1      -5.646   5.239  13.470  1.00  0.00     0.005 A 
HETATM   31  C17 UNL     1      -8.373   5.119  12.797  1.00  0.00     0.002 A 
HETATM   32  C18 UNL     1      -7.907   6.131  13.630  1.00  0.00     0.001 A 
HETATM   33  C19 UNL     1      -6.554   6.199  13.973  1.00  0.00     0.014 A 
ENDBRANCH  21  24
ENDBRANCH  14  16
ENDBRANCH  10  14
BRANCH  11  34
HETATM   34  O2  UNL     1       1.906   7.442  15.870  1.00  0.00    -0.354 OA
HETATM   35  C22 UNL     1       1.999   8.708  16.509  1.00  0.00     0.210 C 
ENDBRANCH  11  34
BRANCH  13  36
HETATM   36  O3  UNL     1       4.425   8.839  12.058  1.00  0.00    -0.341 OA
BRANCH  36  37
HETATM   37  C25 UNL     1       5.727   8.511  12.573  1.00  0.00     0.154 C 
HETATM   38  C26 UNL     1       6.078   7.062  12.292  1.00  0.00     0.061 C 
HETATM   39  C27 UNL     1       6.506   7.117  10.844  1.00  0.00     0.170 C 
HETATM   40  O4  UNL     1       7.212   8.351  10.687  1.00  0.00    -0.389 OA
HETATM   41  C28 UNL     1       6.781   9.242  11.739  1.00  0.00     0.200 C 
ENDBRANCH  36  37
ENDBRANCH  13  36
ENDBRANCH   6   8
ENDBRANCH   3   4
TORSDOF 8
ENDMDL
