MODEL 1
REMARK minimizedAffinity -6.89460421
REMARK CNNscore 0.573358417
REMARK CNNaffinity 5.40625048
REMARK  4 active torsions:
REMARK  status: ('A' for Active; 'I' for Inactive)
REMARK    1  A    between atoms: N1_1  and  C1_2 
REMARK    2  A    between atoms: C1_2  and  N2_4 
REMARK    3  A    between atoms: C2_7  and  C3_8 
REMARK    4  A    between atoms: C10_17  and  C11_18 
ROOT
HETATM    1  N2  UNL     1      17.791  50.656   6.046  1.00  0.00    -0.258 N 
HETATM    2  N3  UNL     1      16.674  51.368   5.645  1.00  0.00    -0.299 N 
ATOM      3  H3  UNL     1      15.720  51.013   5.570  1.00  0.00     0.187 HD
HETATM    4  C2  UNL     1      17.075  52.576   5.384  1.00  0.00     0.038 C 
HETATM    5  C9  UNL     1      18.561  52.797   5.493  1.00  0.00     0.091 C 
HETATM    6  C10 UNL     1      18.979  51.513   6.201  1.00  0.00     0.150 C 
ENDROOT
BRANCH   6   7
HETATM    7  C11 UNL     1      19.376  51.806   7.649  1.00  0.00    -0.022 A 
HETATM    8  C12 UNL     1      19.742  50.747   8.503  1.00  0.00     0.010 A 
HETATM    9  C13 UNL     1      20.080  50.977   9.832  1.00  0.00     0.002 A 
HETATM   10  C14 UNL     1      20.047  52.271  10.339  1.00  0.00     0.012 A 
HETATM   11  C15 UNL     1      19.673  53.351   9.530  1.00  0.00    -0.025 A 
HETATM   12  C16 UNL     1      19.638  54.645  10.076  1.00  0.00     0.012 A 
HETATM   13  C20 UNL     1      19.327  53.137   8.170  1.00  0.00    -0.018 A 
HETATM   14  C17 UNL     1      19.264  55.742   9.304  1.00  0.00     0.001 A 
HETATM   15  C18 UNL     1      18.918  55.556   7.973  1.00  0.00     0.001 A 
HETATM   16  C19 UNL     1      18.948  54.275   7.416  1.00  0.00     0.013 A 
ENDBRANCH   6   7
BRANCH   1  17
HETATM   17  C1  UNL     1      17.718  49.284   6.215  1.00  0.00     0.187 C 
HETATM   18  S1  UNL     1      18.991  48.216   6.329  1.00  0.00    -0.040 SA
BRANCH  17  19
HETATM   19  N1  UNL     1      16.442  48.808   6.285  1.00  0.00    -0.375 N 
HETATM   20  H1  UNL     1      15.701  49.468   6.088  1.00  0.00     0.158 HD
HETATM   21  H2  UNL     1      16.258  47.816   6.317  1.00  0.00     0.158 HD
ENDBRANCH  17  19
ENDBRANCH   1  17
BRANCH   4  22
HETATM   22  C3  UNL     1      16.152  53.656   4.959  1.00  0.00    -0.010 A 
HETATM   23  C4  UNL     1      14.774  53.565   5.171  1.00  0.00     0.015 A 
HETATM   24  C5  UNL     1      13.933  54.602   4.757  1.00  0.00     0.026 A 
HETATM   25  C6  UNL     1      14.462  55.735   4.132  1.00  0.00     0.055 A 
HETATM   26 CL1  UNL     1      13.361  56.975   3.649  1.00  0.00    -0.083 Cl
HETATM   27  C7  UNL     1      15.841  55.830   3.920  1.00  0.00     0.056 A 
HETATM   28 CL2  UNL     1      16.568  57.198   3.155  1.00  0.00    -0.083 Cl
HETATM   29  C8  UNL     1      16.683  54.792   4.334  1.00  0.00     0.039 A 
ENDBRANCH   4  22
TORSDOF 4
ENDMDL
