MODEL 1
REMARK minimizedAffinity -9.3945322
REMARK  1 active torsions:
REMARK  status: ('A' for Active; 'I' for Inactive)
REMARK    1  A    between atoms: C2_2  and  C3_3 
REMARK       I    between atoms: C3_3  and  N1_5 
ROOT
HETATM    1  C3  UNL     1      -7.105   7.288  14.542  1.00  0.00     0.247 C 
HETATM    2  O1  UNL     1      -7.842   6.595  13.842  1.00  0.00    -0.268 OA
HETATM    3  N1  UNL     1      -5.777   6.957  14.835  1.00  0.00    -0.315 N 
HETATM    4  C4  UNL     1      -5.389   5.567  14.567  1.00  0.00     0.132 C 
HETATM    5  C5  UNL     1      -4.696   5.394  13.211  1.00  0.00     0.020 C 
HETATM    6  C6  UNL     1      -4.566   3.913  12.842  1.00  0.00     0.002 C 
HETATM    7  C7  UNL     1      -3.641   3.668  11.644  1.00  0.00     0.000 C 
HETATM    8  C8  UNL     1      -2.168   3.803  12.033  1.00  0.00     0.002 C 
HETATM    9  C9  UNL     1      -1.220   3.531  10.861  1.00  0.00     0.020 C 
HETATM   10  C10 UNL     1       0.249   3.480  11.297  1.00  0.00     0.128 C 
HETATM   11  N2  UNL     1       0.753   4.749  11.796  1.00  0.00    -0.355 N 
HETATM   12  C11 UNL     1       0.655   5.143  13.106  1.00  0.00     0.106 A 
HETATM   13  C12 UNL     1       1.144   6.428  13.209  1.00  0.00     0.019 A 
HETATM   14  C13 UNL     1       1.627   6.802  11.918  1.00  0.00     0.005 A 
HETATM   15  C14 UNL     1       2.231   7.967  11.394  1.00  0.00     0.014 A 
HETATM   16  C15 UNL     1       2.580   8.021  10.041  1.00  0.00     0.001 A 
HETATM   17  C16 UNL     1       2.326   6.940   9.203  1.00  0.00     0.002 A 
HETATM   18  C17 UNL     1       1.716   5.781   9.689  1.00  0.00     0.030 A 
HETATM   19  C18 UNL     1       1.375   5.730  11.050  1.00  0.00     0.045 A 
HETATM   20  C19 UNL     1       1.098   7.171  14.453  1.00  0.00     0.048 A 
HETATM   21  C20 UNL     1       2.237   7.730  14.983  1.00  0.00     0.047 A 
HETATM   22  C21 UNL     1       2.060   8.399  16.166  1.00  0.00     0.093 A 
HETATM   23  N3  UNL     1       0.866   8.531  16.776  1.00  0.00    -0.342 N 
ATOM     24  H3  UNL     1       0.769   9.040  17.654  1.00  0.00     0.167 HD
HETATM   25  C22 UNL     1      -0.192   7.961  16.175  1.00  0.00     0.162 A 
HETATM   26  N4  UNL     1      -0.115   7.267  15.033  1.00  0.00    -0.332 N 
ATOM     27  H4  UNL     1      -0.938   6.830  14.619  1.00  0.00     0.168 HD
HETATM   28  N5  UNL     1      -1.434   8.166  16.805  1.00  0.00    -0.230 NA
HETATM   29  C23 UNL     1      -2.581   8.534  16.061  1.00  0.00     0.017 A 
HETATM   30  C24 UNL     1      -2.694   9.816  15.514  1.00  0.00     0.024 A 
HETATM   31  C25 UNL     1      -3.806  10.155  14.751  1.00  0.00     0.004 A 
HETATM   32  C26 UNL     1      -4.815   9.214  14.532  1.00  0.00     0.030 A 
HETATM   33  C27 UNL     1      -4.737   7.921  15.076  1.00  0.00     0.039 A 
HETATM   34  C28 UNL     1      -3.591   7.590  15.817  1.00  0.00     0.053 A 
HETATM   35  H25 UNL     1      -1.198   8.893  17.475  1.00  0.00     0.136 HD
ENDROOT
BRANCH   1  36
HETATM   36  C2  UNL     1      -7.660   8.480  15.253  1.00  0.00     0.064 C 
HETATM   37  C1  UNL     1      -8.966   8.771  15.188  1.00  0.00     0.017 C 
ENDBRANCH   1  36
TORSDOF 1
ENDMDL
