MODEL 1
REMARK minimizedAffinity -7.46547365
REMARK  7 active torsions:
REMARK  status: ('A' for Active; 'I' for Inactive)
REMARK    1  A    between atoms: O1_2  and  C2_3 
REMARK    2  A    between atoms: C6_11  and  N3_12 
REMARK    3  A    between atoms: N3_12  and  C7_13 
REMARK    4  A    between atoms: C9_15  and  O2_16 
REMARK    5  A    between atoms: C11_18  and  O3_19 
REMARK    6  A    between atoms: C13_21  and  O4_22 
REMARK    7  A    between atoms: C18_27  and  O5_28 
ROOT
HETATM    1  C2  UNL     1       4.292  -8.188  27.619  1.00  0.00     0.103 A 
HETATM    2  C3  UNL     1       3.736  -7.076  28.214  1.00  0.00     0.070 A 
HETATM    3  C4  UNL     1       4.455  -6.206  29.006  1.00  0.00     0.050 A 
HETATM    4  N1  UNL     1       3.905  -5.115  29.581  1.00  0.00    -0.351 N 
ATOM      5  H1  UNL     1       2.915  -4.921  29.429  1.00  0.00     0.166 HD
HETATM    6  C5  UNL     1       4.620  -4.279  30.346  1.00  0.00     0.182 A 
HETATM    7  N2  UNL     1       5.946  -4.470  30.594  1.00  0.00    -0.338 N 
ATOM      8  H2  UNL     1       6.475  -3.821  31.178  1.00  0.00     0.168 HD
HETATM    9  C6  UNL     1       6.540  -5.563  30.031  1.00  0.00     0.119 A 
HETATM   10  C16 UNL     1       5.795  -6.420  29.245  1.00  0.00     0.039 A 
HETATM   11  C17 UNL     1       6.375  -7.520  28.667  1.00  0.00     0.208 A 
HETATM   12  C18 UNL     1       5.641  -8.400  27.862  1.00  0.00     0.104 A 
ENDROOT
BRANCH   9  13
HETATM   13  N3  UNL     1       7.915  -5.848  30.219  1.00  0.00    -0.342 N 
HETATM   14  H6  UNL     1       8.180  -6.876  30.137  1.00  0.00     0.167 HD
BRANCH  13  15
HETATM   15  C7  UNL     1       8.900  -4.864  30.502  1.00  0.00     0.039 A 
HETATM   16  C8  UNL     1       9.071  -4.312  31.755  1.00  0.00     0.069 A 
HETATM   17  C9  UNL     1      10.031  -3.366  32.020  1.00  0.00     0.106 A 
HETATM   18  C11 UNL     1      10.840  -2.981  30.957  1.00  0.00     0.135 A 
HETATM   19  C13 UNL     1      10.698  -3.513  29.690  1.00  0.00     0.106 A 
HETATM   20  C15 UNL     1       9.714  -4.475  29.438  1.00  0.00     0.069 A 
BRANCH  17  21
HETATM   21  O2  UNL     1      10.194  -2.817  33.278  1.00  0.00    -0.353 OA
HETATM   22  C10 UNL     1      10.046  -3.665  34.399  1.00  0.00     0.210 C 
ENDBRANCH  17  21
BRANCH  18  23
HETATM   23  O3  UNL     1      11.800  -2.039  31.210  1.00  0.00    -0.351 OA
HETATM   24  C12 UNL     1      12.354  -1.719  32.450  1.00  0.00     0.210 C 
ENDBRANCH  18  23
BRANCH  19  25
HETATM   25  O4  UNL     1      11.534  -3.093  28.659  1.00  0.00    -0.353 OA
HETATM   26  C14 UNL     1      11.174  -3.449  27.336  1.00  0.00     0.210 C 
ENDBRANCH  19  25
ENDBRANCH  13  15
ENDBRANCH   9  13
BRANCH  12  27
HETATM   27  O5  UNL     1       6.296  -9.516  27.298  1.00  0.00    -0.353 OA
HETATM   28  C19 UNL     1       7.457  -9.998  27.953  1.00  0.00     0.210 C 
ENDBRANCH  12  27
BRANCH   1  29
HETATM   29  O1  UNL     1       3.592  -9.055  26.833  1.00  0.00    -0.353 OA
HETATM   30  C1  UNL     1       2.246  -9.392  27.070  1.00  0.00     0.210 C 
ENDBRANCH   1  29
TORSDOF 7
ENDMDL
