MODEL 1
REMARK minimizedAffinity -6.83114958
REMARK CNNscore 0.66999954
REMARK CNNaffinity 6.34934378
REMARK  5 active torsions:
REMARK  status: ('A' for Active; 'I' for Inactive)
REMARK    1  A    between atoms: C5_6  and  C6_7 
REMARK    2  A    between atoms: C6_7  and  O1_8 
REMARK    3  A    between atoms: O1_8  and  C7_9 
REMARK    4  A    between atoms: C10_12  and  N1_13 
REMARK    5  A    between atoms: N1_13  and  C11_14 
ROOT
HETATM    1  N1  UNL     1      13.696  57.607   0.786  1.00  0.00    -0.342 N 
HETATM    2  H8  UNL     1      14.469  57.506   1.425  1.00  0.00     0.167 HD
ENDROOT
BRANCH   1   3
HETATM    3  C10 UNL     1      13.585  56.556  -0.144  1.00  0.00     0.035 A 
HETATM    4  C9  UNL     1      12.365  56.063  -0.622  1.00  0.00     0.032 A 
HETATM    5  C8  UNL     1      12.314  54.993  -1.522  1.00  0.00     0.041 A 
HETATM    6  C7  UNL     1      13.491  54.376  -1.935  1.00  0.00     0.091 A 
HETATM    7  C21 UNL     1      14.719  54.849  -1.476  1.00  0.00     0.069 A 
HETATM    8  C20 UNL     1      14.762  55.922  -0.579  1.00  0.00     0.056 A 
HETATM    9 CL1  UNL     1      16.207  54.132  -1.978  1.00  0.00    -0.081 Cl
BRANCH   6  10
HETATM   10  O1  UNL     1      13.401  53.350  -2.837  1.00  0.00    -0.345 OA
BRANCH  10  11
HETATM   11  C6  UNL     1      12.081  52.787  -2.857  1.00  0.00     0.214 C 
BRANCH  11  12
HETATM   12  C5  UNL     1      12.120  51.362  -2.361  1.00  0.00    -0.031 A 
HETATM   13  C4  UNL     1      10.927  50.657  -2.129  1.00  0.00     0.009 A 
HETATM   14  C3  UNL     1      10.955  49.338  -1.670  1.00  0.00     0.004 A 
HETATM   15  C2  UNL     1      12.177  48.710  -1.438  1.00  0.00     0.042 A 
HETATM   16  C1  UNL     1      13.359  49.407  -1.664  1.00  0.00     0.117 A 
HETATM   17  F1  UNL     1      14.532  48.803  -1.439  1.00  0.00    -0.206 F 
HETATM   18  C22 UNL     1      13.342  50.720  -2.121  1.00  0.00     0.051 A 
ENDBRANCH  11  12
ENDBRANCH  10  11
ENDBRANCH   6  10
ENDBRANCH   1   3
BRANCH   1  19
HETATM   19  C11 UNL     1      13.153  58.897   0.809  1.00  0.00     0.123 A 
HETATM   20  N2  UNL     1      12.704  59.527  -0.318  1.00  0.00    -0.338 N 
HETATM   21  C12 UNL     1      12.245  60.815  -0.262  1.00  0.00     0.183 A 
ATOM     22  H2  UNL     1      12.713  59.033  -1.211  1.00  0.00     0.168 HD
HETATM   23  N3  UNL     1      12.142  61.652   0.793  1.00  0.00    -0.337 N 
HETATM   24  C13 UNL     1      12.560  61.051   1.930  1.00  0.00     0.137 A 
ATOM     25  H3  UNL     1      11.795  62.610   0.740  1.00  0.00     0.168 HD
HETATM   26  N4  UNL     1      12.579  61.611   3.135  1.00  0.00    -0.278 N 
HETATM   27  C19 UNL     1      13.043  59.716   1.949  1.00  0.00     0.082 A 
HETATM   28  N5  UNL     1      13.047  60.643   3.958  1.00  0.00    -0.265 N 
ATOM     29  H4  UNL     1      12.302  62.560   3.385  1.00  0.00     0.189 HD
HETATM   30  C14 UNL     1      13.251  60.770   5.334  1.00  0.00     0.116 A 
HETATM   31  C18 UNL     1      13.316  59.443   3.270  1.00  0.00     0.073 A 
HETATM   32  C15 UNL     1      13.698  59.731   6.054  1.00  0.00     0.019 A 
HETATM   33  C16 UNL     1      13.939  58.470   5.379  1.00  0.00     0.004 A 
HETATM   34  C17 UNL     1      13.752  58.328   4.054  1.00  0.00     0.032 A 
ENDBRANCH   1  19
TORSDOF 5
ENDMDL
