MODEL 1
REMARK minimizedAffinity -7.42804289
REMARK  3 active torsions:
REMARK  status: ('A' for Active; 'I' for Inactive)
REMARK    1  A    between atoms: N1_1  and  C1_2 
REMARK    2  A    between atoms: C6_11  and  N4_12 
REMARK    3  A    between atoms: N4_12  and  C7_13 
ROOT
HETATM    1  C1  UNL     1       8.936  35.955  17.822  1.00  0.00     0.006 A 
HETATM    2  C2  UNL     1       7.824  36.496  18.455  1.00  0.00     0.025 A 
HETATM    3  C3  UNL     1       7.644  36.335  19.833  1.00  0.00     0.032 A 
HETATM    4  C4  UNL     1       8.527  35.596  20.606  1.00  0.00     0.047 A 
HETATM    5  N2  UNL     1       8.298  35.494  21.917  1.00  0.00    -0.352 N 
ATOM      6  H2  UNL     1       7.499  35.950  22.359  1.00  0.00     0.166 HD
HETATM    7  C5  UNL     1       9.168  34.764  22.621  1.00  0.00     0.182 A 
HETATM    8  N3  UNL     1      10.232  34.118  22.136  1.00  0.00    -0.338 N 
ATOM      9  H3  UNL     1      10.851  33.579  22.742  1.00  0.00     0.168 HD
HETATM   10  C6  UNL     1      10.449  34.212  20.812  1.00  0.00     0.119 A 
HETATM   11  C16 UNL     1       9.614  34.978  19.973  1.00  0.00     0.036 A 
HETATM   12  C17 UNL     1       9.798  35.158  18.576  1.00  0.00     0.040 A 
ENDROOT
BRANCH  10  13
HETATM   13  N4  UNL     1      11.539  33.507  20.230  1.00  0.00    -0.342 N 
HETATM   14  H6  UNL     1      11.576  32.580  20.639  1.00  0.00     0.167 HD
BRANCH  13  15
HETATM   15  C7  UNL     1      12.837  33.983  19.928  1.00  0.00     0.034 A 
HETATM   16  C8  UNL     1      13.393  33.894  18.636  1.00  0.00     0.030 A 
HETATM   17  C9  UNL     1      14.708  34.300  18.371  1.00  0.00     0.010 A 
HETATM   18  C10 UNL     1      15.469  34.784  19.417  1.00  0.00    -0.052 A 
HETATM   19  C11 UNL     1      14.949  34.848  20.710  1.00  0.00    -0.050 A 
HETATM   20  C15 UNL     1      16.896  35.234  19.392  1.00  0.00     0.039 C 
HETATM   21  C12 UNL     1      13.652  34.436  20.981  1.00  0.00     0.037 A 
HETATM   22  C13 UNL     1      15.980  35.342  21.676  1.00  0.00     0.039 C 
HETATM   23  C14 UNL     1      16.992  35.994  20.723  1.00  0.00     0.009 C 
ENDBRANCH  13  15
ENDBRANCH  10  13
BRANCH   1  24
HETATM   24  N1  UNL     1       9.065  36.020  16.433  1.00  0.00    -0.303 NA
HETATM   25  H1  UNL     1       8.610  36.825  16.012  1.00  0.00     0.124 HD
HETATM   26  H2  UNL     1      10.016  35.902  16.096  1.00  0.00     0.124 HD
ENDBRANCH   1  24
TORSDOF 3
ENDMDL
