MODEL 1
REMARK minimizedAffinity -10.5473871
REMARK CNNscore 0.937856793
REMARK CNNaffinity 7.83850527
REMARK  4 active torsions:
REMARK  status: ('A' for Active; 'I' for Inactive)
REMARK    1  A    between atoms: O1_2  and  C2_3 
REMARK    2  A    between atoms: C3_4  and  N1_5 
REMARK       I    between atoms: N1_5  and  C5_7 
REMARK    3  A    between atoms: C8_11  and  N3_32 
REMARK    4  A    between atoms: C9_13  and  N2_15 
ROOT
HETATM    1  C2  UNL     1       9.069  -8.104  27.020  1.00  0.00     0.199 C 
HETATM    2  C3  UNL     1       9.907  -9.000  26.075  1.00  0.00     0.124 C 
HETATM    3  C7  UNL     1      11.343  -8.466  26.053  1.00  0.00     0.082 C 
HETATM    4  C8  UNL     1      11.888  -8.271  27.472  1.00  0.00     0.233 C 
HETATM    5  O3  UNL     1      11.015  -8.717  28.509  1.00  0.00    -0.333 OA
HETATM    6  C9  UNL     1       9.630  -8.288  28.473  1.00  0.00     0.168 C 
HETATM    7  C10 UNL     1       8.960  -9.519  29.130  1.00  0.00     0.074 C 
ENDROOT
BRANCH   2   8
HETATM    8  N1  UNL     1       9.290  -9.161  24.730  1.00  0.00    -0.349 N 
HETATM    9  C4  UNL     1       8.123 -10.032  24.594  1.00  0.00     0.153 C 
HETATM   10  C5  UNL     1       9.874  -8.693  23.551  1.00  0.00     0.215 C 
HETATM   11  C6  UNL     1      11.066  -7.775  23.680  1.00  0.00     0.117 C 
HETATM   12  O2  UNL     1       9.453  -8.981  22.431  1.00  0.00    -0.274 OA
ENDBRANCH   2   8
BRANCH   1  13
HETATM   13  O1  UNL     1       9.221  -6.749  26.549  1.00  0.00    -0.384 OA
HETATM   14  C1  UNL     1      10.532  -6.230  26.734  1.00  0.00     0.202 C 
ENDBRANCH   1  13
BRANCH   6  15
HETATM   15  N2  UNL     1       9.498  -7.067  29.287  1.00  0.00    -0.308 N 
HETATM   16  C11 UNL     1      10.473  -6.418  30.048  1.00  0.00     0.049 A 
HETATM   17  C12 UNL     1      11.831  -6.695  30.297  1.00  0.00     0.030 A 
HETATM   18  C16 UNL     1       9.857  -5.302  30.648  1.00  0.00     0.004 A 
HETATM   19  C13 UNL     1      12.571  -5.824  31.103  1.00  0.00     0.002 A 
HETATM   20  C14 UNL     1      11.984  -4.702  31.670  1.00  0.00     0.001 A 
HETATM   21  C15 UNL     1      10.630  -4.438  31.455  1.00  0.00     0.014 A 
HETATM   22  C17 UNL     1       8.477  -5.335  30.313  1.00  0.00     0.015 A 
HETATM   23  C18 UNL     1       7.329  -4.588  30.623  1.00  0.00    -0.010 A 
HETATM   24  C28 UNL     1       8.299  -6.433  29.498  1.00  0.00     0.077 A 
HETATM   25  C19 UNL     1       6.032  -4.960  30.149  1.00  0.00     0.054 A 
HETATM   26  C30 UNL     1       7.207  -3.360  31.476  1.00  0.00     0.163 A 
HETATM   27  C20 UNL     1       5.764  -6.071  29.335  1.00  0.00     0.022 A 
HETATM   28  C29 UNL     1       5.079  -3.978  30.685  1.00  0.00     0.253 A 
HETATM   29  C21 UNL     1       4.646  -6.716  28.722  1.00  0.00     0.004 A 
HETATM   30  C27 UNL     1       6.879  -6.815  28.984  1.00  0.00     0.077 A 
HETATM   31  C22 UNL     1       3.255  -6.472  28.698  1.00  0.00     0.014 A 
HETATM   32  C26 UNL     1       5.135  -7.821  28.005  1.00  0.00     0.048 A 
HETATM   33  C23 UNL     1       2.404  -7.316  27.978  1.00  0.00     0.001 A 
HETATM   34  C24 UNL     1       2.913  -8.402  27.277  1.00  0.00     0.002 A 
HETATM   35  C25 UNL     1       4.283  -8.673  27.278  1.00  0.00     0.030 A 
HETATM   36  N3  UNL     1       6.511  -7.844  28.174  1.00  0.00    -0.316 N 
HETATM   37  O4  UNL     1       3.878  -3.931  30.518  1.00  0.00    -0.268 OA
HETATM   38  N4  UNL     1       5.799  -3.078  31.439  1.00  0.00    -0.353 N 
HETATM   39  H26 UNL     1       5.339  -2.307  31.905  1.00  0.00     0.163 HD
ENDBRANCH   6  15
TORSDOF 4
ENDMDL
