MODEL 1
REMARK minimizedAffinity -7.29874563
REMARK CNNscore 0.629993975
REMARK CNNaffinity 6.60406065
REMARK  8 active torsions:
REMARK  status: ('A' for Active; 'I' for Inactive)
REMARK    1  A    between atoms: C2_2  and  C3_3 
REMARK       I    between atoms: C3_3  and  N1_5 
REMARK    2  A    between atoms: N1_5  and  C4_6 
REMARK    3  A    between atoms: C7_9  and  O2_10 
REMARK    4  A    between atoms: C9_12  and  N2_13 
REMARK    5  A    between atoms: N2_13  and  C10_14 
REMARK    6  A    between atoms: C12_16  and  C13_17 
REMARK    7  A    between atoms: C14_20  and  S1_21 
REMARK    8  A    between atoms: C17_25  and  C18_26 
ROOT
HETATM    1  C10 UNL     1      13.120  54.421  -1.597  1.00  0.00     0.106 A 
HETATM    2  C11 UNL     1      12.862  55.490  -0.739  1.00  0.00     0.062 A 
HETATM    3  C12 UNL     1      13.917  56.273  -0.267  1.00  0.00    -0.002 A 
HETATM    4  C24 UNL     1      15.216  55.935  -0.634  1.00  0.00     0.031 A 
HETATM    5  C25 UNL     1      15.394  54.854  -1.472  1.00  0.00     0.090 A 
HETATM    6  N5  UNL     1      14.382  54.100  -1.954  1.00  0.00    -0.352 N 
ATOM      7  H5  UNL     1      14.565  53.308  -2.571  1.00  0.00     0.166 HD
ENDROOT
BRANCH   1   8
HETATM    8  N2  UNL     1      12.016  53.667  -2.045  1.00  0.00    -0.340 N 
HETATM    9  H10 UNL     1      11.252  54.265  -2.355  1.00  0.00     0.167 HD
BRANCH   8  10
HETATM   10  C9  UNL     1      11.993  52.450  -2.766  1.00  0.00     0.069 A 
HETATM   11  C7  UNL     1      11.913  52.492  -4.169  1.00  0.00     0.095 A 
HETATM   12  C6  UNL     1      11.796  51.319  -4.914  1.00  0.00     0.041 A 
HETATM   13  C5  UNL     1      11.795  50.080  -4.268  1.00  0.00     0.032 A 
HETATM   14  C4  UNL     1      11.896  50.009  -2.879  1.00  0.00     0.037 A 
HETATM   15  C26 UNL     1      11.979  51.198  -2.138  1.00  0.00     0.062 A 
BRANCH  11  16
HETATM   16  O2  UNL     1      11.910  53.733  -4.766  1.00  0.00    -0.354 OA
HETATM   17  C8  UNL     1      10.661  54.010  -5.404  1.00  0.00     0.210 C 
ENDBRANCH  11  16
BRANCH  14  18
HETATM   18  N1  UNL     1      11.923  48.802  -2.150  1.00  0.00    -0.324 N 
HETATM   19  C3  UNL     1      10.893  48.231  -1.430  1.00  0.00     0.244 C 
HETATM   20  O1  UNL     1       9.767  48.678  -1.263  1.00  0.00    -0.268 OA
HETATM   21  H4  UNL     1      12.806  48.310  -2.172  1.00  0.00     0.169 HD
BRANCH  19  22
HETATM   22  C2  UNL     1      11.299  46.925  -0.830  1.00  0.00     0.064 C 
HETATM   23  C1  UNL     1      10.380  46.072  -0.363  1.00  0.00     0.017 C 
ENDBRANCH  19  22
ENDBRANCH  14  18
ENDBRANCH   8  10
ENDBRANCH   1   8
BRANCH   3  24
HETATM   24  C13 UNL     1      13.700  57.415   0.603  1.00  0.00     0.072 A 
HETATM   25  N3  UNL     1      13.200  58.601   0.122  1.00  0.00    -0.334 N 
HETATM   26  C14 UNL     1      13.127  59.394   1.163  1.00  0.00     0.146 A 
ATOM     27  H3  UNL     1      12.941  58.818  -0.840  1.00  0.00     0.168 HD
HETATM   28  N4  UNL     1      13.510  58.760   2.318  1.00  0.00    -0.329 N 
HETATM   29  C16 UNL     1      13.463  59.318   3.651  1.00  0.00     0.158 C 
HETATM   30  C17 UNL     1      13.917  57.479   1.976  1.00  0.00     0.074 A 
BRANCH  26  31
HETATM   31  S1  UNL     1      12.611  61.048   1.116  1.00  0.00    -0.098 SA
HETATM   32  C15 UNL     1      13.536  61.641  -0.320  1.00  0.00     0.099 C 
ENDBRANCH  26  31
BRANCH  30  33
HETATM   33  C18 UNL     1      14.390  56.474   2.926  1.00  0.00    -0.007 A 
HETATM   34  C19 UNL     1      13.469  55.720   3.665  1.00  0.00     0.017 A 
HETATM   35  C20 UNL     1      13.916  54.735   4.547  1.00  0.00     0.043 A 
HETATM   36  C21 UNL     1      15.280  54.506   4.685  1.00  0.00     0.116 A 
HETATM   37  F1  UNL     1      15.707  53.554   5.522  1.00  0.00    -0.206 F 
HETATM   38  C22 UNL     1      16.206  55.244   3.960  1.00  0.00     0.043 A 
HETATM   39  C23 UNL     1      15.762  56.229   3.076  1.00  0.00     0.017 A 
ENDBRANCH  30  33
ENDBRANCH   3  24
TORSDOF 8
ENDMDL
