MODEL 1
REMARK minimizedAffinity -8.14605522
REMARK  7 active torsions:
REMARK  status: ('A' for Active; 'I' for Inactive)
REMARK    1  A    between atoms: N1_1  and  C1_2 
REMARK    2  A    between atoms: C3_8  and  N4_9 
REMARK    3  A    between atoms: N4_9  and  C4_10 
REMARK    4  A    between atoms: N6_18  and  C10_19 
REMARK    5  A    between atoms: C10_19  and  C11_20 
REMARK    6  A    between atoms: C18_28  and  C19_29 
REMARK    7  A    between atoms: N7_30  and  O1_32 
ROOT
HETATM    1  C4  UNL     1      13.482  36.200  18.219  1.00  0.00     0.034 A 
HETATM    2  C5  UNL     1      13.619  36.757  16.935  1.00  0.00     0.032 A 
HETATM    3  C6  UNL     1      14.787  36.623  16.172  1.00  0.00     0.034 A 
HETATM    4  C7  UNL     1      15.847  35.914  16.745  1.00  0.00     0.062 A 
HETATM    5  C8  UNL     1      15.764  35.367  18.020  1.00  0.00     0.011 A 
HETATM    6  C9  UNL     1      17.019  34.758  18.233  1.00  0.00     0.121 A 
HETATM    7  N5  UNL     1      17.840  34.884  17.188  1.00  0.00    -0.308 N 
ATOM      8  H5  UNL     1      18.789  34.526  17.082  1.00  0.00     0.186 HD
HETATM    9  N6  UNL     1      17.112  35.603  16.300  1.00  0.00    -0.288 N 
HETATM   10  C17 UNL     1      14.578  35.518  18.766  1.00  0.00     0.044 A 
ENDROOT
BRANCH   1  11
HETATM   11  N4  UNL     1      12.277  36.420  18.914  1.00  0.00    -0.342 N 
HETATM   12  H4  UNL     1      11.676  37.120  18.476  1.00  0.00     0.167 HD
BRANCH  11  13
HETATM   13  C3  UNL     1      11.528  35.609  19.799  1.00  0.00     0.121 A 
HETATM   14  N3  UNL     1      12.101  35.146  20.928  1.00  0.00    -0.338 N 
HETATM   15  C2  UNL     1      11.334  34.450  21.775  1.00  0.00     0.183 A 
ATOM     16  H3  UNL     1      13.086  35.320  21.130  1.00  0.00     0.168 HD
HETATM   17  N2  UNL     1      10.039  34.159  21.606  1.00  0.00    -0.342 N 
HETATM   18  C1  UNL     1       9.478  34.610  20.477  1.00  0.00     0.094 A 
ATOM     19  H2  UNL     1       9.511  33.625  22.296  1.00  0.00     0.167 HD
HETATM   20  C18 UNL     1      10.180  35.354  19.537  1.00  0.00     0.063 A 
BRANCH  18  21
HETATM   21  N1  UNL     1       8.129  34.270  20.337  1.00  0.00    -0.288 NA
HETATM   22  H1  UNL     1       7.875  33.715  21.152  1.00  0.00     0.125 HD
HETATM   23  H2  UNL     1       7.949  33.757  19.480  1.00  0.00     0.125 HD
ENDBRANCH  18  21
BRANCH  20  24
HETATM   24  C19 UNL     1       9.493  35.826  18.322  1.00  0.00     0.132 C 
HETATM   25  N7  UNL     1       9.787  35.384  17.136  1.00  0.00    -0.279 N 
ATOM     26  H7  UNL     1      10.508  34.696  16.920  1.00  0.00     0.193 HD
BRANCH  25  27
HETATM   27  O1  UNL     1       8.950  36.010  16.205  1.00  0.00    -0.290 OA
HETATM   28  H16 UNL     1       9.256  35.644  15.355  1.00  0.00     0.244 HD
ENDBRANCH  25  27
ENDBRANCH  20  24
ENDBRANCH  11  13
ENDBRANCH   1  11
BRANCH   9  29
HETATM   29  C10 UNL     1      17.689  35.920  14.999  1.00  0.00     0.187 C 
BRANCH  29  30
HETATM   30  C11 UNL     1      17.325  34.901  13.947  1.00  0.00    -0.035 A 
HETATM   31  C12 UNL     1      18.227  33.883  13.597  1.00  0.00     0.009 A 
HETATM   32  C13 UNL     1      17.898  32.945  12.613  1.00  0.00     0.004 A 
HETATM   33  C14 UNL     1      16.666  33.018  11.965  1.00  0.00     0.042 A 
HETATM   34  C15 UNL     1      15.775  34.029  12.303  1.00  0.00     0.117 A 
HETATM   35  F1  UNL     1      14.594  34.102  11.675  1.00  0.00    -0.206 F 
HETATM   36  C16 UNL     1      16.092  34.968  13.280  1.00  0.00     0.051 A 
ENDBRANCH  29  30
ENDBRANCH   9  29
TORSDOF 7
ENDMDL
