MODEL 1
REMARK minimizedAffinity -7.56583643
REMARK  4 active torsions:
REMARK  status: ('A' for Active; 'I' for Inactive)
REMARK    1  A    between atoms: N1_1  and  C1_2 
REMARK    2  A    between atoms: C1_2  and  N2_4 
REMARK    3  A    between atoms: C2_7  and  C3_8 
REMARK    4  A    between atoms: C10_15  and  C11_16 
ROOT
HETATM    1  N2  UNL     1      12.729  35.872  17.257  1.00  0.00    -0.258 N 
HETATM    2  N3  UNL     1      11.445  36.256  17.603  1.00  0.00    -0.299 N 
ATOM      3  H3  UNL     1      10.949  37.086  17.277  1.00  0.00     0.187 HD
HETATM    4  C2  UNL     1      10.992  35.354  18.424  1.00  0.00     0.038 C 
HETATM    5  C9  UNL     1      11.913  34.187  18.669  1.00  0.00     0.091 C 
HETATM    6  C10 UNL     1      13.192  34.705  18.021  1.00  0.00     0.149 C 
ENDROOT
BRANCH   6   7
HETATM    7  C11 UNL     1      14.240  35.040  19.071  1.00  0.00    -0.032 A 
HETATM    8  C12 UNL     1      15.534  34.502  19.027  1.00  0.00     0.010 A 
HETATM    9  C13 UNL     1      16.486  34.855  19.985  1.00  0.00     0.013 A 
HETATM   10  C14 UNL     1      16.173  35.758  21.011  1.00  0.00    -0.026 A 
HETATM   11  C15 UNL     1      17.120  36.123  21.981  1.00  0.00     0.012 A 
HETATM   12  C19 UNL     1      14.875  36.311  21.069  1.00  0.00    -0.025 A 
HETATM   13  C16 UNL     1      16.792  37.023  22.997  1.00  0.00     0.001 A 
HETATM   14  C17 UNL     1      15.513  37.567  23.055  1.00  0.00     0.001 A 
HETATM   15  C18 UNL     1      14.560  37.215  22.098  1.00  0.00     0.012 A 
HETATM   16  C20 UNL     1      13.926  35.947  20.098  1.00  0.00     0.021 A 
ENDBRANCH   6   7
BRANCH   1  17
HETATM   17  C1  UNL     1      13.409  36.543  16.255  1.00  0.00     0.187 C 
HETATM   18  S1  UNL     1      14.888  37.301  16.376  1.00  0.00    -0.040 SA
BRANCH  17  19
HETATM   19  N1  UNL     1      12.756  36.546  15.058  1.00  0.00    -0.375 N 
HETATM   20  H1  UNL     1      11.914  35.985  15.004  1.00  0.00     0.158 HD
HETATM   21  H2  UNL     1      13.181  36.934  14.231  1.00  0.00     0.158 HD
ENDBRANCH  17  19
ENDBRANCH   1  17
BRANCH   4  22
HETATM   22  C3  UNL     1       9.650  35.430  19.050  1.00  0.00    -0.012 A 
HETATM   23  C4  UNL     1       9.336  34.694  20.197  1.00  0.00     0.013 A 
HETATM   24  C5  UNL     1       8.061  34.789  20.763  1.00  0.00     0.001 A 
HETATM   25  C6  UNL     1       7.100  35.618  20.186  1.00  0.00     0.000 A 
HETATM   26  C7  UNL     1       7.407  36.352  19.042  1.00  0.00     0.001 A 
HETATM   27  C8  UNL     1       8.679  36.258  18.474  1.00  0.00     0.013 A 
ENDBRANCH   4  22
TORSDOF 4
ENDMDL
