MODEL 1
REMARK minimizedAffinity -8.02320385
REMARK  3 active torsions:
REMARK  status: ('A' for Active; 'I' for Inactive)
REMARK    1  A    between atoms: N1_1  and  C1_2 
REMARK    2  A    between atoms: C6_11  and  N4_12 
REMARK    3  A    between atoms: N4_12  and  C7_13 
ROOT
HETATM    1  C1  UNL     1      14.531  37.747  15.798  1.00  0.00     0.006 A 
HETATM    2  C2  UNL     1      15.829  37.612  16.276  1.00  0.00     0.025 A 
HETATM    3  C3  UNL     1      16.155  36.583  17.166  1.00  0.00     0.032 A 
HETATM    4  C4  UNL     1      15.202  35.688  17.633  1.00  0.00     0.047 A 
HETATM    5  N2  UNL     1      15.585  34.736  18.485  1.00  0.00    -0.352 N 
ATOM      6  H2  UNL     1      16.557  34.639  18.782  1.00  0.00     0.166 HD
HETATM    7  C5  UNL     1      14.631  33.913  18.931  1.00  0.00     0.182 A 
HETATM    8  N3  UNL     1      13.339  33.948  18.595  1.00  0.00    -0.338 N 
ATOM      9  H3  UNL     1      12.670  33.283  18.983  1.00  0.00     0.168 HD
HETATM   10  C6  UNL     1      12.962  34.900  17.723  1.00  0.00     0.119 A 
HETATM   11  C15 UNL     1      13.879  35.835  17.199  1.00  0.00     0.036 A 
HETATM   12  C16 UNL     1      13.554  36.890  16.303  1.00  0.00     0.040 A 
ENDROOT
BRANCH  10  13
HETATM   13  N4  UNL     1      11.607  34.959  17.295  1.00  0.00    -0.342 N 
HETATM   14  H6  UNL     1      11.408  34.135  16.738  1.00  0.00     0.167 HD
BRANCH  13  15
HETATM   15  C7  UNL     1      10.467  35.373  18.025  1.00  0.00     0.034 A 
HETATM   16  C8  UNL     1       9.405  36.064  17.436  1.00  0.00     0.032 A 
HETATM   17  C9  UNL     1       8.251  36.412  18.150  1.00  0.00     0.033 A 
HETATM   18  C10 UNL     1       8.174  36.017  19.488  1.00  0.00     0.043 A 
HETATM   19  N5  UNL     1       7.175  36.215  20.417  1.00  0.00    -0.364 N 
HETATM   20  C13 UNL     1       9.190  35.294  20.115  1.00  0.00     0.011 A 
HETATM   21  C11 UNL     1       7.517  35.640  21.612  1.00  0.00     0.108 A 
HETATM   22  H9  UNL     1       6.315  36.713  20.233  1.00  0.00     0.165 HD
HETATM   23  C12 UNL     1       8.752  35.067  21.445  1.00  0.00     0.038 A 
HETATM   24 BR1  UNL     1       9.720  34.133  22.753  1.00  0.00    -0.049 Br
HETATM   25  C14 UNL     1      10.339  34.960  19.365  1.00  0.00     0.044 A 
ENDBRANCH  13  15
ENDBRANCH  10  13
BRANCH   1  26
HETATM   26  N1  UNL     1      14.175  38.848  15.018  1.00  0.00    -0.303 NA
HETATM   27  H1  UNL     1      13.324  38.730  14.477  1.00  0.00     0.124 HD
HETATM   28  H2  UNL     1      14.934  39.233  14.464  1.00  0.00     0.124 HD
ENDBRANCH   1  26
TORSDOF 3
ENDMDL
