MODEL 1
REMARK minimizedAffinity -7.31240177
REMARK  4 active torsions:
REMARK  status: ('A' for Active; 'I' for Inactive)
REMARK    1  A    between atoms: N1_1  and  C1_2 
REMARK    2  A    between atoms: C1_2  and  N2_4 
REMARK    3  A    between atoms: C2_7  and  C3_8 
REMARK    4  A    between atoms: C10_16  and  C11_17 
ROOT
HETATM    1  N2  UNL     1      14.606  35.224  17.376  1.00  0.00    -0.258 N 
HETATM    2  N3  UNL     1      13.581  34.928  18.258  1.00  0.00    -0.299 N 
ATOM      3  H3  UNL     1      13.658  34.396  19.125  1.00  0.00     0.187 HD
HETATM    4  C2  UNL     1      12.499  35.458  17.767  1.00  0.00     0.038 C 
HETATM    5  C9  UNL     1      12.662  36.127  16.427  1.00  0.00     0.091 C 
HETATM    6  C10 UNL     1      14.182  36.149  16.314  1.00  0.00     0.149 C 
ENDROOT
BRANCH   6   7
HETATM    7  C11 UNL     1      14.724  37.559  16.482  1.00  0.00    -0.032 A 
HETATM    8  C12 UNL     1      14.734  38.148  17.754  1.00  0.00     0.010 A 
HETATM    9  C13 UNL     1      15.255  39.431  17.942  1.00  0.00     0.013 A 
HETATM   10  C14 UNL     1      15.785  40.156  16.865  1.00  0.00    -0.026 A 
HETATM   11  C15 UNL     1      16.314  41.445  17.039  1.00  0.00     0.012 A 
HETATM   12  C19 UNL     1      15.785  39.577  15.578  1.00  0.00    -0.025 A 
HETATM   13  C16 UNL     1      16.837  42.154  15.956  1.00  0.00     0.001 A 
HETATM   14  C17 UNL     1      16.835  41.584  14.687  1.00  0.00     0.001 A 
HETATM   15  C18 UNL     1      16.313  40.304  14.498  1.00  0.00     0.012 A 
HETATM   16  C20 UNL     1      15.256  38.286  15.403  1.00  0.00     0.021 A 
ENDBRANCH   6   7
BRANCH   1  17
HETATM   17  C1  UNL     1      15.853  34.648  17.537  1.00  0.00     0.187 C 
HETATM   18  S1  UNL     1      17.182  34.827  16.547  1.00  0.00    -0.040 SA
BRANCH  17  19
HETATM   19  N1  UNL     1      15.944  33.836  18.630  1.00  0.00    -0.375 N 
HETATM   20  H1  UNL     1      15.156  33.850  19.265  1.00  0.00     0.158 HD
HETATM   21  H2  UNL     1      16.830  33.439  18.908  1.00  0.00     0.158 HD
ENDBRANCH  17  19
ENDBRANCH   1  17
BRANCH   4  22
HETATM   22  C3  UNL     1      11.183  35.383  18.446  1.00  0.00    -0.012 A 
HETATM   23  C4  UNL     1      10.090  36.055  17.881  1.00  0.00     0.015 A 
HETATM   24  C5  UNL     1       8.835  36.003  18.495  1.00  0.00     0.020 A 
HETATM   25  C6  UNL     1       8.674  35.280  19.674  1.00  0.00     0.011 A 
HETATM   26 BR1  UNL     1       6.978  35.207  20.506  1.00  0.00    -0.051 Br
HETATM   27  C7  UNL     1       9.755  34.610  20.245  1.00  0.00     0.020 A 
HETATM   28  C8  UNL     1      11.011  34.662  19.632  1.00  0.00     0.015 A 
ENDBRANCH   4  22
TORSDOF 4
ENDMDL
