MODEL 1
REMARK minimizedAffinity -7.22625971
REMARK  4 active torsions:
REMARK  status: ('A' for Active; 'I' for Inactive)
REMARK    1  A    between atoms: N1_1  and  C1_2 
REMARK    2  A    between atoms: C1_2  and  N2_4 
REMARK    3  A    between atoms: C2_7  and  C3_8 
REMARK    4  A    between atoms: C10_16  and  C11_17 
ROOT
HETATM    1  N2  UNL     1       1.544  64.451  -3.576  1.00  0.00    -0.258 N 
HETATM    2  N3  UNL     1       1.797  64.570  -4.931  1.00  0.00    -0.299 N 
ATOM      3  H3  UNL     1       1.240  64.179  -5.691  1.00  0.00     0.187 HD
HETATM    4  C2  UNL     1       2.881  65.278  -5.048  1.00  0.00     0.038 C 
HETATM    5  C9  UNL     1       3.550  65.650  -3.750  1.00  0.00     0.091 C 
HETATM    6  C10 UNL     1       2.456  65.271  -2.758  1.00  0.00     0.150 C 
ENDROOT
BRANCH   6   7
HETATM    7  C11 UNL     1       1.823  66.525  -2.154  1.00  0.00    -0.022 A 
HETATM    8  C12 UNL     1       1.108  66.435  -0.942  1.00  0.00     0.010 A 
HETATM    9  C13 UNL     1       0.499  67.551  -0.381  1.00  0.00     0.002 A 
HETATM   10  C14 UNL     1       0.579  68.780  -1.023  1.00  0.00     0.012 A 
HETATM   11  C15 UNL     1       1.262  68.912  -2.239  1.00  0.00    -0.025 A 
HETATM   12  C16 UNL     1       1.315  70.165  -2.872  1.00  0.00     0.012 A 
HETATM   13  C20 UNL     1       1.894  67.785  -2.827  1.00  0.00    -0.018 A 
HETATM   14  C17 UNL     1       1.979  70.331  -4.084  1.00  0.00     0.001 A 
HETATM   15  C18 UNL     1       2.599  69.244  -4.680  1.00  0.00     0.001 A 
HETATM   16  C19 UNL     1       2.558  67.991  -4.062  1.00  0.00     0.013 A 
ENDBRANCH   6   7
BRANCH   1  17
HETATM   17  C1  UNL     1       0.556  63.592  -3.125  1.00  0.00     0.187 C 
HETATM   18  S1  UNL     1      -1.066  63.929  -2.945  1.00  0.00    -0.040 SA
BRANCH  17  19
HETATM   19  N1  UNL     1       1.018  62.349  -2.803  1.00  0.00    -0.375 N 
HETATM   20  H1  UNL     1       2.024  62.236  -2.790  1.00  0.00     0.158 HD
HETATM   21  H2  UNL     1       0.414  61.672  -2.362  1.00  0.00     0.158 HD
ENDBRANCH  17  19
ENDBRANCH   1  17
BRANCH   4  22
HETATM   22  C3  UNL     1       3.459  65.659  -6.359  1.00  0.00    -0.012 A 
HETATM   23  C4  UNL     1       4.851  65.795  -6.473  1.00  0.00     0.016 A 
HETATM   24  C5  UNL     1       5.424  66.152  -7.695  1.00  0.00     0.043 A 
HETATM   25  C6  UNL     1       4.606  66.374  -8.797  1.00  0.00     0.116 A 
HETATM   26  F1  UNL     1       5.155  66.717  -9.969  1.00  0.00    -0.206 F 
HETATM   27  C7  UNL     1       3.225  66.244  -8.699  1.00  0.00     0.043 A 
HETATM   28  C8  UNL     1       2.647  65.886  -7.478  1.00  0.00     0.016 A 
ENDBRANCH   4  22
TORSDOF 4
ENDMDL
