MODEL 1
REMARK minimizedAffinity -7.47964048
REMARK  5 active torsions:
REMARK  status: ('A' for Active; 'I' for Inactive)
REMARK    1  A    between atoms: O1_1  and  C1_2 
REMARK    2  A    between atoms: C1_2  and  C2_3 
REMARK    3  A    between atoms: C5_6  and  C6_7 
REMARK    4  A    between atoms: C9_10  and  N1_11 
REMARK    5  A    between atoms: N1_11  and  C10_12 
ROOT
HETATM    1  C6  UNL     1      13.554  59.241   4.475  1.00  0.00     0.018 A 
HETATM    2  C7  UNL     1      12.782  60.000   5.337  1.00  0.00     0.038 A 
HETATM    3  C8  UNL     1      12.589  61.354   4.891  1.00  0.00     0.043 A 
HETATM    4  C9  UNL     1      11.898  62.465   5.431  1.00  0.00     0.119 A 
HETATM    5  N2  UNL     1      11.923  63.621   4.726  1.00  0.00    -0.338 N 
ATOM      6  H2  UNL     1      11.438  64.447   5.076  1.00  0.00     0.168 HD
HETATM    7  C16 UNL     1      12.589  63.674   3.563  1.00  0.00     0.182 A 
HETATM    8  N3  UNL     1      13.269  62.693   2.970  1.00  0.00    -0.346 N 
ATOM      9  H3  UNL     1      13.758  62.795   2.082  1.00  0.00     0.167 HD
HETATM   10  C17 UNL     1      13.233  61.554   3.681  1.00  0.00     0.089 A 
HETATM   11  S1  UNL     1      14.033  60.164   3.114  1.00  0.00    -0.071 SA
ENDROOT
BRANCH   1  12
HETATM   12  C5  UNL     1      13.942  57.829   4.597  1.00  0.00    -0.019 A 
HETATM   13  C4  UNL     1      14.892  57.406   5.537  1.00  0.00     0.013 A 
HETATM   14  C3  UNL     1      15.237  56.054   5.647  1.00  0.00     0.010 A 
HETATM   15  C2  UNL     1      14.642  55.091   4.820  1.00  0.00    -0.035 A 
HETATM   16  C19 UNL     1      13.682  55.512   3.892  1.00  0.00     0.010 A 
HETATM   17  C18 UNL     1      13.339  56.864   3.780  1.00  0.00     0.013 A 
BRANCH  15  18
HETATM   18  C1  UNL     1      15.022  53.641   4.984  1.00  0.00     0.202 C 
BRANCH  18  19
HETATM   19  O1  UNL     1      14.086  52.935   5.787  1.00  0.00    -0.396 OA
HETATM   20  H1  UNL     1      14.382  52.010   5.810  1.00  0.00     0.209 HD
ENDBRANCH  18  19
ENDBRANCH  15  18
ENDBRANCH   1  12
BRANCH   4  21
HETATM   21  N1  UNL     1      11.219  62.364   6.656  1.00  0.00    -0.342 N 
HETATM   22  H7  UNL     1      10.571  63.121   6.817  1.00  0.00     0.167 HD
BRANCH  21  23
HETATM   23  C10 UNL     1      11.261  61.424   7.701  1.00  0.00     0.033 A 
HETATM   24  C11 UNL     1      10.481  60.265   7.749  1.00  0.00     0.029 A 
HETATM   25  C12 UNL     1      10.570  59.373   8.825  1.00  0.00     0.002 A 
HETATM   26  C13 UNL     1      11.445  59.627   9.876  1.00  0.00     0.000 A 
HETATM   27  C14 UNL     1      12.230  60.774   9.852  1.00  0.00     0.002 A 
HETATM   28  C15 UNL     1      12.137  61.661   8.776  1.00  0.00     0.029 A 
ENDBRANCH  21  23
ENDBRANCH   4  21
TORSDOF 5
ENDMDL
