MODEL 1
REMARK minimizedAffinity -8.9068985
REMARK  8 active torsions:
REMARK  status: ('A' for Active; 'I' for Inactive)
REMARK    1  A    between atoms: N1_1  and  C1_2 
REMARK    2  A    between atoms: C5_10  and  C6_11 
REMARK    3  A    between atoms: N4_18  and  C13_19 
REMARK    4  A    between atoms: C17_23  and  C18_24 
REMARK    5  A    between atoms: C18_24  and  N5_25 
REMARK    6  A    between atoms: N5_25  and  C19_26 
REMARK    7  A    between atoms: C19_26  and  C20_27 
REMARK    8  A    between atoms: C20_27  and  O1_28 
ROOT
HETATM    1  C1  UNL     1      11.594  -4.405  30.048  1.00  0.00     0.093 A 
HETATM    2  N2  UNL     1      11.694  -4.751  28.753  1.00  0.00    -0.343 N 
ATOM      3  H2  UNL     1      12.600  -4.774  28.285  1.00  0.00     0.167 HD
HETATM    4  C2  UNL     1      10.569  -5.064  28.093  1.00  0.00     0.183 A 
HETATM    5  N3  UNL     1       9.318  -5.088  28.566  1.00  0.00    -0.337 N 
ATOM      6  H3  UNL     1       8.508  -5.348  28.002  1.00  0.00     0.168 HD
HETATM    7  C3  UNL     1       9.236  -4.734  29.865  1.00  0.00     0.127 A 
HETATM    8  C4  UNL     1      10.328  -4.388  30.661  1.00  0.00     0.059 A 
HETATM    9  C5  UNL     1       9.826  -4.110  31.962  1.00  0.00     0.007 A 
HETATM   10  C12 UNL     1       8.462  -4.306  31.922  1.00  0.00     0.112 A 
HETATM   11  N4  UNL     1       8.076  -4.683  30.645  1.00  0.00    -0.307 N 
ENDROOT
BRANCH  11  12
HETATM   12  C13 UNL     1       6.722  -4.957  30.244  1.00  0.00     0.041 A 
HETATM   13  C14 UNL     1       5.663  -4.128  30.635  1.00  0.00     0.030 A 
HETATM   14  C15 UNL     1       4.349  -4.415  30.251  1.00  0.00     0.003 A 
HETATM   15  C16 UNL     1       4.074  -5.533  29.468  1.00  0.00     0.009 A 
HETATM   16  C17 UNL     1       5.111  -6.377  29.057  1.00  0.00    -0.028 A 
HETATM   17  C21 UNL     1       6.429  -6.083  29.452  1.00  0.00     0.039 A 
BRANCH  16  18
HETATM   18  C18 UNL     1       4.813  -7.589  28.204  1.00  0.00     0.308 C 
BRANCH  18  19
HETATM   19  N5  UNL     1       5.999  -8.152  27.551  1.00  0.00     0.089 N 
HETATM   20  H15 UNL     1       5.700  -8.895  26.920  1.00  0.00     0.316 HD
BRANCH  19  21
HETATM   21  C19 UNL     1       6.792  -7.169  26.805  1.00  0.00     0.295 C 
BRANCH  21  22
HETATM   22  C20 UNL     1       7.385  -7.677  25.482  1.00  0.00     0.194 C 
BRANCH  22  23
HETATM   23  O1  UNL     1       6.377  -7.785  24.482  1.00  0.00    -0.399 OA
HETATM   24  H20 UNL     1       5.961  -6.910  24.386  1.00  0.00     0.209 HD
ENDBRANCH  22  23
ENDBRANCH  21  22
ENDBRANCH  19  21
ENDBRANCH  18  19
ENDBRANCH  16  18
ENDBRANCH  11  12
BRANCH   9  25
HETATM   25  C6  UNL     1      10.510  -3.677  33.167  1.00  0.00    -0.024 A 
HETATM   26  C7  UNL     1      11.464  -2.654  33.106  1.00  0.00     0.012 A 
HETATM   27  C8  UNL     1      12.130  -2.244  34.262  1.00  0.00     0.001 A 
HETATM   28  C9  UNL     1      11.846  -2.852  35.485  1.00  0.00     0.000 A 
HETATM   29  C10 UNL     1      10.894  -3.868  35.554  1.00  0.00     0.001 A 
HETATM   30  C11 UNL     1      10.226  -4.281  34.398  1.00  0.00     0.012 A 
ENDBRANCH   9  25
BRANCH   1  31
HETATM   31  N1  UNL     1      12.783  -4.110  30.700  1.00  0.00    -0.288 NA
HETATM   32  H1  UNL     1      13.579  -4.466  30.184  1.00  0.00     0.125 HD
HETATM   33  H2  UNL     1      12.779  -4.270  31.700  1.00  0.00     0.125 HD
ENDBRANCH   1  31
TORSDOF 8
ENDMDL
