MODEL 1
REMARK minimizedAffinity -7.50427389
REMARK CNNscore 0.744615138
REMARK CNNaffinity 6.30283117
REMARK  3 active torsions:
REMARK  status: ('A' for Active; 'I' for Inactive)
REMARK    1  A    between atoms: C4_5  and  C5_6 
REMARK    2  A    between atoms: N2_9  and  C6_10 
REMARK    3  A    between atoms: C12_16  and  C13_17 
ROOT
HETATM    1  C5  UNL     1      17.103  52.152   5.135  1.00  0.00     0.038 C 
HETATM    2  N1  UNL     1      16.509  50.999   5.135  1.00  0.00    -0.301 N 
ATOM      3  H1  UNL     1      15.508  50.834   5.032  1.00  0.00     0.187 HD
HETATM    4  N2  UNL     1      17.474  50.046   5.297  1.00  0.00    -0.283 N 
HETATM    5  C12 UNL     1      18.813  50.608   5.513  1.00  0.00     0.148 C 
HETATM    6  C23 UNL     1      18.602  52.099   5.237  1.00  0.00     0.091 C 
ENDROOT
BRANCH   5   7
HETATM    7  C13 UNL     1      19.365  50.397   6.923  1.00  0.00    -0.022 A 
HETATM    8  C14 UNL     1      19.740  49.104   7.342  1.00  0.00     0.010 A 
HETATM    9  C15 UNL     1      20.232  48.876   8.622  1.00  0.00     0.002 A 
HETATM   10  C16 UNL     1      20.351  49.934   9.515  1.00  0.00     0.012 A 
HETATM   11  C17 UNL     1      19.973  51.232   9.148  1.00  0.00    -0.025 A 
HETATM   12  C18 UNL     1      20.094  52.278  10.078  1.00  0.00     0.012 A 
HETATM   13  C22 UNL     1      19.469  51.486   7.844  1.00  0.00    -0.018 A 
HETATM   14  C19 UNL     1      19.719  53.578   9.750  1.00  0.00     0.001 A 
HETATM   15  C20 UNL     1      19.217  53.850   8.486  1.00  0.00     0.001 A 
HETATM   16  C21 UNL     1      19.093  52.820   7.549  1.00  0.00     0.013 A 
ENDBRANCH   5   7
BRANCH   4  17
HETATM   17  C6  UNL     1      17.195  48.699   5.054  1.00  0.00     0.051 A 
HETATM   18  C7  UNL     1      17.596  48.086   3.854  1.00  0.00     0.031 A 
HETATM   19  C8  UNL     1      17.326  46.740   3.584  1.00  0.00     0.002 A 
HETATM   20  C9  UNL     1      16.640  45.969   4.514  1.00  0.00     0.000 A 
HETATM   21  C10 UNL     1      16.224  46.547   5.709  1.00  0.00     0.002 A 
HETATM   22  C11 UNL     1      16.499  47.896   5.972  1.00  0.00     0.031 A 
ENDBRANCH   4  17
BRANCH   1  23
HETATM   23  C4  UNL     1      16.370  53.434   5.011  1.00  0.00    -0.010 A 
HETATM   24  C3  UNL     1      14.982  53.440   5.199  1.00  0.00     0.015 A 
HETATM   25  C2  UNL     1      14.259  54.630   5.088  1.00  0.00     0.026 A 
HETATM   26  C1  UNL     1      14.918  55.824   4.788  1.00  0.00     0.055 A 
HETATM   27 CL1  UNL     1      13.967  57.260   4.664  1.00  0.00    -0.083 Cl
HETATM   28  C25 UNL     1      16.305  55.823   4.597  1.00  0.00     0.056 A 
HETATM   29  C24 UNL     1      17.030  54.629   4.708  1.00  0.00     0.039 A 
HETATM   30 CL2  UNL     1      17.188  57.260   4.219  1.00  0.00    -0.083 Cl
ENDBRANCH   1  23
TORSDOF 3
ENDMDL
