MODEL 1
REMARK minimizedAffinity -10.3071499
REMARK  4 active torsions:
REMARK  status: ('A' for Active; 'I' for Inactive)
REMARK    1  A    between atoms: C3_3  and  C4_4 
REMARK       I    between atoms: C4_4  and  N1_6 
REMARK    2  A    between atoms: N1_6  and  C5_7 
REMARK    3  A    between atoms: C9_11  and  C10_12 
REMARK    4  A    between atoms: C13_17  and  C14_18 
ROOT
HETATM    1  C1  UNL     1      -9.820   9.951  15.682  1.00  0.00     0.112 C 
HETATM    2  C2  UNL     1      -8.932   8.848  15.314  1.00  0.00    -0.101 C 
HETATM    3  C3  UNL     1      -8.211   7.937  15.007  1.00  0.00    -0.006 C 
ENDROOT
BRANCH   3   4
HETATM    4  C4  UNL     1      -7.331   6.846  14.633  1.00  0.00     0.300 C 
HETATM    5  O1  UNL     1      -6.201   6.834  15.092  1.00  0.00    -0.258 OA
HETATM    6  N1  UNL     1      -7.918   5.939  13.780  1.00  0.00    -0.316 N 
HETATM    7  H4  UNL     1      -8.874   6.144  13.520  1.00  0.00     0.170 HD
BRANCH   6   8
HETATM    8  C5  UNL     1      -7.356   4.766  13.240  1.00  0.00     0.036 A 
HETATM    9  C6  UNL     1      -8.217   3.678  13.058  1.00  0.00     0.029 A 
HETATM   10  C7  UNL     1      -7.739   2.478  12.538  1.00  0.00     0.003 A 
HETATM   11  C8  UNL     1      -6.393   2.355  12.196  1.00  0.00     0.015 A 
HETATM   12  C9  UNL     1      -5.493   3.425  12.362  1.00  0.00     0.010 A 
HETATM   13  C25 UNL     1      -6.007   4.630  12.890  1.00  0.00     0.044 A 
BRANCH  12  14
HETATM   14  C10 UNL     1      -4.066   3.286  12.001  1.00  0.00     0.116 A 
HETATM   15  N2  UNL     1      -3.634   2.083  11.579  1.00  0.00    -0.352 N 
HETATM   16  C11 UNL     1      -2.332   1.984  11.257  1.00  0.00     0.092 A 
ATOM     17  H2  UNL     1      -4.264   1.284  11.509  1.00  0.00     0.166 HD
HETATM   18  C12 UNL     1      -1.450   3.033  11.335  1.00  0.00     0.049 A 
HETATM   19  C13 UNL     1      -1.984   4.225  11.770  1.00  0.00     0.062 A 
HETATM   20  N6  UNL     1      -3.281   4.377  12.112  1.00  0.00    -0.340 N 
ATOM     21  H6  UNL     1      -3.649   5.271  12.438  1.00  0.00     0.167 HD
BRANCH  19  22
HETATM   22  C14 UNL     1      -1.190   5.444  11.899  1.00  0.00     0.060 A 
HETATM   23  C15 UNL     1      -1.438   6.660  12.518  1.00  0.00     0.051 A 
HETATM   24  C16 UNL     1      -0.307   7.494  12.325  1.00  0.00     0.057 A 
HETATM   25  C17 UNL     1       0.615   6.759  11.602  1.00  0.00     0.036 A 
HETATM   26  C24 UNL     1      -0.061   8.869  12.734  1.00  0.00     0.253 C 
HETATM   27  N3  UNL     1       0.067   5.536  11.335  1.00  0.00    -0.356 N 
HETATM   28  C18 UNL     1       1.961   7.281  11.146  1.00  0.00     0.022 C 
HETATM   29  H11 UNL     1       0.484   4.782  10.803  1.00  0.00     0.166 HD
HETATM   30  C19 UNL     1       3.066   6.197  11.225  1.00  0.00     0.047 C 
HETATM   31  C22 UNL     1       1.840   7.848   9.706  1.00  0.00     0.047 C 
HETATM   32  C23 UNL     1       2.313   8.454  12.128  1.00  0.00     0.138 C 
HETATM   33  C20 UNL     1       4.112   6.395  10.133  1.00  0.00     0.270 C 
HETATM   34  N4  UNL     1       3.540   6.260   8.794  1.00  0.00     0.083 N 
HETATM   35  C21 UNL     1       2.185   6.794   8.658  1.00  0.00     0.270 C 
HETATM   36  H16 UNL     1       4.161   6.701   8.115  1.00  0.00     0.315 HD
HETATM   37  N5  UNL     1       1.194   9.350  12.409  1.00  0.00    -0.356 N 
HETATM   38  H23 UNL     1       1.380  10.258  12.815  1.00  0.00     0.162 HD
HETATM   39  O2  UNL     1      -0.888   9.569  13.307  1.00  0.00    -0.268 OA
ENDBRANCH  19  22
ENDBRANCH  12  14
ENDBRANCH   6   8
ENDBRANCH   3   4
TORSDOF 4
ENDMDL
