MODEL 1
REMARK minimizedAffinity -10.2378292
REMARK  4 active torsions:
REMARK  status: ('A' for Active; 'I' for Inactive)
REMARK    1  A    between atoms: O1_2  and  C2_3 
REMARK    2  A    between atoms: C3_4  and  N1_5 
REMARK    3  A    between atoms: C8_10  and  N3_31 
REMARK    4  A    between atoms: C9_12  and  N2_14 
ROOT
HETATM    1  C2  UNL     1       9.205  -8.603  26.955  1.00  0.00     0.207 C 
HETATM    2  C3  UNL     1       9.866  -9.865  26.330  1.00  0.00     0.226 C 
HETATM    3  C7  UNL     1      11.370  -9.866  26.629  1.00  0.00     0.090 C 
HETATM    4  C8  UNL     1      11.665  -9.494  28.087  1.00  0.00     0.234 C 
HETATM    5  O2  UNL     1      10.507  -9.531  28.913  1.00  0.00    -0.333 OA
HETATM    6  C9  UNL     1       9.351  -8.751  28.525  1.00  0.00     0.168 C 
HETATM    7  C10 UNL     1       8.222  -9.674  29.041  1.00  0.00     0.074 C 
ENDROOT
BRANCH   2   8
HETATM    8  N1  UNL     1       9.582 -10.060  24.770  1.00  0.00    -0.072 N 
HETATM    9  C4  UNL     1       8.390 -10.971  24.461  1.00  0.00     0.272 C 
HETATM   10  C5  UNL     1       9.311  -8.697  24.113  1.00  0.00     0.272 C 
HETATM   11  C6  UNL     1      10.819 -10.650  24.084  1.00  0.00     0.272 C 
ENDBRANCH   2   8
BRANCH   1  12
HETATM   12  O1  UNL     1       9.895  -7.471  26.397  1.00  0.00    -0.384 OA
HETATM   13  C1  UNL     1       9.066  -6.336  26.148  1.00  0.00     0.202 C 
ENDBRANCH   1  12
BRANCH   6  14
HETATM   14  N2  UNL     1       9.412  -7.463  29.232  1.00  0.00    -0.308 N 
HETATM   15  C11 UNL     1      10.487  -6.863  29.889  1.00  0.00     0.049 A 
HETATM   16  C12 UNL     1      11.839  -7.226  30.055  1.00  0.00     0.030 A 
HETATM   17  C16 UNL     1      10.002  -5.680  30.485  1.00  0.00     0.004 A 
HETATM   18  C13 UNL     1      12.692  -6.391  30.785  1.00  0.00     0.002 A 
HETATM   19  C14 UNL     1      12.225  -5.218  31.358  1.00  0.00     0.001 A 
HETATM   20  C15 UNL     1      10.886  -4.858  31.217  1.00  0.00     0.014 A 
HETATM   21  C17 UNL     1       8.609  -5.598  30.220  1.00  0.00     0.015 A 
HETATM   22  C18 UNL     1       7.549  -4.740  30.558  1.00  0.00    -0.010 A 
HETATM   23  C28 UNL     1       8.296  -6.694  29.446  1.00  0.00     0.077 A 
HETATM   24  C19 UNL     1       6.206  -5.003  30.148  1.00  0.00     0.054 A 
HETATM   25  C30 UNL     1       7.575  -3.481  31.376  1.00  0.00     0.163 A 
HETATM   26  C20 UNL     1       5.805  -6.095  29.362  1.00  0.00     0.022 A 
HETATM   27  C29 UNL     1       5.367  -3.933  30.705  1.00  0.00     0.253 A 
HETATM   28  C21 UNL     1       4.611  -6.639  28.799  1.00  0.00     0.004 A 
HETATM   29  C27 UNL     1       6.831  -6.945  28.982  1.00  0.00     0.077 A 
HETATM   30  C22 UNL     1       3.249  -6.268  28.825  1.00  0.00     0.014 A 
HETATM   31  C26 UNL     1       4.969  -7.782  28.066  1.00  0.00     0.048 A 
HETATM   32  C23 UNL     1       2.298  -7.023  28.131  1.00  0.00     0.001 A 
HETATM   33  C24 UNL     1       2.680  -8.142  27.405  1.00  0.00     0.002 A 
HETATM   34  C25 UNL     1       4.018  -8.540  27.357  1.00  0.00     0.030 A 
HETATM   35  N3  UNL     1       6.343  -7.935  28.191  1.00  0.00    -0.316 N 
HETATM   36  O3  UNL     1       4.166  -3.796  30.591  1.00  0.00    -0.268 OA
HETATM   37  N4  UNL     1       6.195  -3.087  31.408  1.00  0.00    -0.353 N 
HETATM   38  H29 UNL     1       5.827  -2.261  31.861  1.00  0.00     0.163 HD
ENDBRANCH   6  14
TORSDOF 4
ENDMDL
