MODEL 1
REMARK minimizedAffinity -9.27159882
REMARK CNNscore 0.672989368
REMARK CNNaffinity 8.1622448
REMARK  8 active torsions:
REMARK  status: ('A' for Active; 'I' for Inactive)
REMARK    1  A    between atoms: N2_5  and  C4_6 
REMARK    2  A    between atoms: C7_9  and  N3_10 
REMARK    3  A    between atoms: N3_10  and  C8_11 
REMARK    4  A    between atoms: C11_18  and  N6_19 
REMARK    5  A    between atoms: N6_19  and  C12_20 
REMARK    6  A    between atoms: N7_26  and  C18_27 
REMARK    7  A    between atoms: N8_30  and  S1_31 
REMARK    8  A    between atoms: S1_31  and  C21_34 
ROOT
HETATM    1  C8  UNL     1       4.864  -4.982  29.280  1.00  0.00     0.684 A 
HETATM    2  N4  UNL     1       4.538  -3.945  30.079  1.00  0.00    -0.199 N 
ATOM      3  H4  UNL     1       3.611  -3.523  30.018  1.00  0.00     0.183 HD
HETATM    4  C9  UNL     1       5.446  -3.466  30.965  1.00  0.00     0.140 A 
HETATM    5  C10 UNL     1       6.698  -4.052  31.036  1.00  0.00     0.110 A 
HETATM    6  N5  UNL     1       7.794  -3.804  31.809  1.00  0.00    -0.186 N 
ATOM      7  H5  UNL     1       7.886  -3.083  32.525  1.00  0.00     0.184 HD
HETATM    8  C11 UNL     1       8.709  -4.681  31.448  1.00  0.00     0.687 A 
HETATM    9  N7  UNL     1       8.213  -5.507  30.440  1.00  0.00    -0.159 N 
HETATM   10  C25 UNL     1       6.927  -5.106  30.175  1.00  0.00     0.168 A 
HETATM   11  N9  UNL     1       6.057  -5.612  29.287  1.00  0.00    -0.173 N 
ATOM     12  H9  UNL     1       6.277  -6.399  28.675  1.00  0.00     0.186 HD
ENDROOT
BRANCH   1  13
HETATM   13  N3  UNL     1       3.956  -5.490  28.353  1.00  0.00    -0.192 N 
HETATM   14  H10 UNL     1       3.552  -4.728  27.832  1.00  0.00     0.184 HD
BRANCH  13  15
HETATM   15  C7  UNL     1       3.485  -6.772  28.054  1.00  0.00     0.049 A 
HETATM   16  C6  UNL     1       4.292  -7.829  27.640  1.00  0.00     0.032 A 
HETATM   17  C5  UNL     1       3.750  -9.095  27.358  1.00  0.00     0.031 A 
HETATM   18  C4  UNL     1       2.380  -9.369  27.475  1.00  0.00     0.030 A 
HETATM   19  C27 UNL     1       1.577  -8.297  27.882  1.00  0.00     0.031 A 
HETATM   20  C26 UNL     1       2.114  -7.030  28.167  1.00  0.00     0.032 A 
BRANCH  18  21
HETATM   21  N2  UNL     1       1.859 -10.620  27.198  1.00  0.00    -0.378 N 
HETATM   22  C3  UNL     1       0.435 -10.800  26.865  1.00  0.00     0.153 C 
HETATM   23  C2  UNL     1       0.221 -12.027  25.947  1.00  0.00     0.291 C 
HETATM   24  N1  UNL     1       0.755 -13.310  26.449  1.00  0.00     0.087 N 
HETATM   25  C1  UNL     1      -0.286 -14.123  27.075  1.00  0.00     0.310 C 
HETATM   26  C29 UNL     1       1.877 -13.094  27.388  1.00  0.00     0.291 C 
HETATM   27  C28 UNL     1       2.707 -11.820  27.105  1.00  0.00     0.153 C 
ENDBRANCH  18  21
ENDBRANCH  13  15
ENDBRANCH   1  13
BRANCH   9  28
HETATM   28  C18 UNL     1       8.931  -6.606  29.838  1.00  0.00     0.130 C 
HETATM   29  C19 UNL     1       9.917  -6.340  28.698  1.00  0.00     0.048 C 
HETATM   30  C20 UNL     1      10.181  -7.738  28.143  1.00  0.00     0.137 C 
HETATM   31  N8  UNL     1       8.930  -8.483  28.407  1.00  0.00    -0.308 N 
HETATM   32  C24 UNL     1       8.003  -7.635  29.185  1.00  0.00     0.161 C 
BRANCH  31  33
HETATM   33  S1  UNL     1       8.297  -9.473  27.202  1.00  0.00     0.232 S 
HETATM   34  O1  UNL     1       9.394 -10.239  26.656  1.00  0.00    -0.205 OA
HETATM   35  O2  UNL     1       7.125 -10.118  27.754  1.00  0.00    -0.205 OA
BRANCH  33  36
HETATM   36  C21 UNL     1       7.755  -8.375  25.854  1.00  0.00     0.129 A 
HETATM   37  C22 UNL     1       7.480  -6.961  26.294  1.00  0.00     0.023 A 
HETATM   38  C23 UNL     1       8.709  -7.273  25.482  1.00  0.00     0.023 A 
ENDBRANCH  33  36
ENDBRANCH  31  33
ENDBRANCH   9  28
BRANCH   8  39
HETATM   39  N6  UNL     1       9.965  -4.843  31.934  1.00  0.00    -0.191 N 
HETATM   40  H12 UNL     1      10.578  -5.555  31.558  1.00  0.00     0.184 HD
BRANCH  39  41
HETATM   41  C12 UNL     1      10.629  -4.080  32.925  1.00  0.00     0.049 A 
HETATM   42  C13 UNL     1      10.587  -4.357  34.296  1.00  0.00     0.030 A 
HETATM   43  C14 UNL     1      11.281  -3.564  35.219  1.00  0.00     0.002 A 
HETATM   44  C15 UNL     1      12.035  -2.479  34.784  1.00  0.00     0.000 A 
HETATM   45  C16 UNL     1      12.097  -2.187  33.426  1.00  0.00     0.002 A 
HETATM   46  C17 UNL     1      11.403  -2.981  32.508  1.00  0.00     0.030 A 
ENDBRANCH  39  41
ENDBRANCH   8  39
TORSDOF 8
ENDMDL
