MODEL 1
REMARK minimizedAffinity -8.85719872
REMARK  9 active torsions:
REMARK  status: ('A' for Active; 'I' for Inactive)
REMARK    1  A    between atoms: C2_2  and  N1_4 
REMARK    2  A    between atoms: N1_4  and  C4_5 
REMARK    3  A    between atoms: C4_5  and  C5_6 
REMARK    4  A    between atoms: C6_7  and  C7_8 
REMARK       I    between atoms: C7_8  and  N2_10 
REMARK    5  A    between atoms: N2_10  and  C8_11 
REMARK    6  A    between atoms: C11_14  and  N3_15 
REMARK    7  A    between atoms: N3_15  and  C12_16 
REMARK    8  A    between atoms: C21_31  and  O2_32 
REMARK    9  A    between atoms: O2_32  and  C22_33 
ROOT
HETATM    1  C8  UNL     1      -3.818   5.524  12.774  1.00  0.00     0.069 A 
HETATM    2  C9  UNL     1      -5.114   5.012  12.738  1.00  0.00     0.050 A 
HETATM    3  C10 UNL     1      -5.372   3.704  12.256  1.00  0.00     0.037 A 
HETATM    4  C11 UNL     1      -6.647   3.106  12.164  1.00  0.00     0.119 A 
HETATM    5  N4  UNL     1      -6.808   1.850  11.715  1.00  0.00    -0.338 N 
ATOM      6  H4  UNL     1      -7.731   1.418  11.660  1.00  0.00     0.168 HD
HETATM    7  C18 UNL     1      -5.708   1.192  11.344  1.00  0.00     0.182 A 
HETATM    8  N5  UNL     1      -4.457   1.665  11.377  1.00  0.00    -0.351 N 
ATOM      9  H5  UNL     1      -3.664   1.102  11.069  1.00  0.00     0.166 HD
HETATM   10  C19 UNL     1      -4.299   2.909  11.833  1.00  0.00     0.049 A 
HETATM   11  C20 UNL     1      -3.010   3.425  11.886  1.00  0.00     0.069 A 
HETATM   12  C21 UNL     1      -2.751   4.720  12.340  1.00  0.00     0.098 A 
ENDROOT
BRANCH   1  13
HETATM   13  N2  UNL     1      -3.504   6.825  13.222  1.00  0.00    -0.321 N 
HETATM   14  C7  UNL     1      -4.365   7.859  13.501  1.00  0.00     0.245 C 
HETATM   15  O1  UNL     1      -5.589   7.846  13.448  1.00  0.00    -0.268 OA
HETATM   16  H13 UNL     1      -2.511   6.983  13.362  1.00  0.00     0.169 HD
BRANCH  14  17
HETATM   17  C6  UNL     1      -3.683   9.097  13.961  1.00  0.00     0.072 C 
HETATM   18  C5  UNL     1      -4.051   9.790  15.051  1.00  0.00     0.008 C 
BRANCH  18  19
HETATM   19  C4  UNL     1      -3.348  11.027  15.521  1.00  0.00     0.297 C 
BRANCH  19  20
HETATM   20  N1  UNL     1      -4.153  11.646  16.569  1.00  0.00     0.090 N 
HETATM   21  H8  UNL     1      -4.990  11.081  16.711  1.00  0.00     0.316 HD
BRANCH  20  22
HETATM   22  C2  UNL     1      -3.479  11.797  17.867  1.00  0.00     0.212 C 
HETATM   23  C1  UNL     1      -3.112  10.452  18.499  1.00  0.00     0.042 C 
HETATM   24  C3  UNL     1      -4.251  12.679  18.850  1.00  0.00     0.042 C 
ENDBRANCH  20  22
ENDBRANCH  19  20
ENDBRANCH  18  19
ENDBRANCH  14  17
ENDBRANCH   1  13
BRANCH  12  25
HETATM   25  O2  UNL     1      -1.510   5.305  12.409  1.00  0.00    -0.341 OA
BRANCH  25  26
HETATM   26  C22 UNL     1      -0.653   5.246  11.275  1.00  0.00     0.154 C 
HETATM   27  C23 UNL     1       0.009   6.568  10.953  1.00  0.00     0.061 C 
HETATM   28  C24 UNL     1       1.253   6.128  10.217  1.00  0.00     0.170 C 
HETATM   29  O3  UNL     1       1.653   4.879  10.796  1.00  0.00    -0.389 OA
HETATM   30  C25 UNL     1       0.568   4.392  11.599  1.00  0.00     0.200 C 
ENDBRANCH  25  26
ENDBRANCH  12  25
BRANCH   4  31
HETATM   31  N3  UNL     1      -7.787   3.854  12.566  1.00  0.00    -0.342 N 
HETATM   32  H15 UNL     1      -8.624   3.294  12.427  1.00  0.00     0.167 HD
BRANCH  31  33
HETATM   33  C12 UNL     1      -7.930   4.752  13.646  1.00  0.00     0.035 A 
HETATM   34  C13 UNL     1      -7.419   4.382  14.904  1.00  0.00     0.032 A 
HETATM   35  C14 UNL     1      -7.576   5.209  16.020  1.00  0.00     0.046 A 
HETATM   36  C15 UNL     1      -8.267   6.407  15.892  1.00  0.00     0.138 A 
HETATM   37  F1  UNL     1      -8.405   7.189  16.973  1.00  0.00    -0.204 F 
HETATM   38  C16 UNL     1      -8.814   6.776  14.668  1.00  0.00     0.074 A 
HETATM   39 CL1  UNL     1      -9.698   8.247  14.512  1.00  0.00    -0.081 Cl
HETATM   40  C17 UNL     1      -8.658   5.947  13.554  1.00  0.00     0.056 A 
ENDBRANCH  31  33
ENDBRANCH   4  31
TORSDOF 9
ENDMDL
