MODEL 1
REMARK minimizedAffinity -9.8369875
REMARK  7 active torsions:
REMARK  status: ('A' for Active; 'I' for Inactive)
REMARK    1  A    between atoms: C2_2  and  C3_3 
REMARK       I    between atoms: C3_3  and  N1_5 
REMARK    2  A    between atoms: N1_5  and  C4_6 
REMARK    3  A    between atoms: C7_9  and  N2_10 
REMARK    4  A    between atoms: C8_13  and  C9_14 
REMARK    5  A    between atoms: C12_17  and  O2_18 
REMARK    6  A    between atoms: O2_18  and  C13_19 
REMARK    7  A    between atoms: C22_28  and  N4_29 
ROOT
HETATM    1  N2  UNL     1       7.643  -6.033  29.008  1.00  0.00    -0.270 N 
HETATM    2  N3  UNL     1       6.353  -6.304  29.287  1.00  0.00    -0.295 N 
ATOM      3  H3  UNL     1       5.854  -6.134  30.160  1.00  0.00     0.187 HD
HETATM    4  C8  UNL     1       5.872  -6.849  28.156  1.00  0.00     0.075 A 
HETATM    5  C21 UNL     1       6.897  -6.982  27.170  1.00  0.00     0.076 A 
HETATM    6  C22 UNL     1       7.055  -7.491  25.876  1.00  0.00     0.095 A 
HETATM    7  N5  UNL     1       8.263  -7.392  25.283  1.00  0.00    -0.342 N 
ATOM      8  H5  UNL     1       8.411  -7.748  24.339  1.00  0.00     0.167 HD
HETATM    9  C23 UNL     1       9.271  -6.811  25.963  1.00  0.00     0.183 A 
HETATM   10  N6  UNL     1       9.244  -6.308  27.205  1.00  0.00    -0.337 N 
ATOM     11  H6  UNL     1      10.047  -5.888  27.673  1.00  0.00     0.168 HD
HETATM   12  C24 UNL     1       8.023  -6.429  27.756  1.00  0.00     0.139 A 
ENDROOT
BRANCH   4  13
HETATM   13  C9  UNL     1       4.463  -7.225  28.071  1.00  0.00    -0.007 A 
HETATM   14  C10 UNL     1       3.470  -6.314  28.459  1.00  0.00     0.016 A 
HETATM   15  C11 UNL     1       2.119  -6.658  28.373  1.00  0.00     0.038 A 
HETATM   16  C12 UNL     1       1.749  -7.919  27.901  1.00  0.00     0.076 A 
HETATM   17  C19 UNL     1       2.727  -8.822  27.483  1.00  0.00     0.038 A 
HETATM   18  C20 UNL     1       4.080  -8.477  27.570  1.00  0.00     0.016 A 
BRANCH  16  19
HETATM   19  O2  UNL     1       0.396  -8.162  27.802  1.00  0.00    -0.311 OA
BRANCH  19  20
HETATM   20  C13 UNL     1      -0.022  -9.463  27.940  1.00  0.00     0.076 A 
HETATM   21  C14 UNL     1       0.529 -10.502  27.184  1.00  0.00     0.037 A 
HETATM   22  C15 UNL     1       0.091 -11.812  27.390  1.00  0.00     0.003 A 
HETATM   23  C16 UNL     1      -0.879 -12.081  28.359  1.00  0.00     0.000 A 
HETATM   24  C17 UNL     1      -1.409 -11.043  29.128  1.00  0.00     0.003 A 
HETATM   25  C18 UNL     1      -0.974  -9.734  28.925  1.00  0.00     0.037 A 
ENDBRANCH  19  20
ENDBRANCH  16  19
ENDBRANCH   4  13
BRANCH   1  26
HETATM   26  C7  UNL     1       8.489  -5.387  30.005  1.00  0.00     0.110 C 
HETATM   27  C6  UNL     1       7.658  -4.734  31.121  1.00  0.00     0.029 C 
HETATM   28  C5  UNL     1       8.552  -4.057  32.157  1.00  0.00     0.027 C 
HETATM   29  C4  UNL     1       9.580  -5.034  32.740  1.00  0.00     0.084 C 
HETATM   30  C26 UNL     1      10.410  -5.685  31.626  1.00  0.00     0.027 C 
HETATM   31  C25 UNL     1       9.523  -6.364  30.583  1.00  0.00     0.029 C 
BRANCH  29  32
HETATM   32  N1  UNL     1      10.444  -4.346  33.689  1.00  0.00    -0.353 N 
HETATM   33  C3  UNL     1      11.232  -3.286  33.305  1.00  0.00     0.240 C 
HETATM   34  O1  UNL     1      11.335  -2.883  32.155  1.00  0.00    -0.269 OA
HETATM   35  H4  UNL     1      10.328  -4.542  34.674  1.00  0.00     0.163 HD
BRANCH  33  36
HETATM   36  C2  UNL     1      11.948  -2.659  34.444  1.00  0.00     0.064 C 
HETATM   37  C1  UNL     1      12.362  -3.405  35.475  1.00  0.00     0.017 C 
ENDBRANCH  33  36
ENDBRANCH  29  32
ENDBRANCH   1  26
BRANCH   6  38
HETATM   38  N4  UNL     1       6.062  -8.124  25.142  1.00  0.00    -0.288 NA
HETATM   39  H20 UNL     1       6.464  -8.638  24.367  1.00  0.00     0.125 HD
HETATM   40  H21 UNL     1       5.369  -8.621  25.689  1.00  0.00     0.125 HD
ENDBRANCH   6  38
TORSDOF 7
ENDMDL
