MODEL 1
REMARK minimizedAffinity -9.91514015
REMARK CNNscore 0.869350851
REMARK CNNaffinity 8.11361027
REMARK  6 active torsions:
REMARK  status: ('A' for Active; 'I' for Inactive)
REMARK    1  A    between atoms: N1_2  and  C2_3 
REMARK    2  A    between atoms: C2_3  and  N2_5 
REMARK    3  A    between atoms: N2_5  and  C4_7 
REMARK    4  A    between atoms: C6_9  and  N4_33 
REMARK    5  A    between atoms: C7_11  and  N3_16 
REMARK    6  A    between atoms: C9_13  and  O2_14 
ROOT
HETATM    1  C4  UNL     1      10.737  -8.152  26.946  1.00  0.00     0.124 C 
HETATM    2  C5  UNL     1      10.278  -7.451  28.225  1.00  0.00     0.082 C 
HETATM    3  C6  UNL     1       9.199  -8.266  28.945  1.00  0.00     0.233 C 
HETATM    4  O1  UNL     1       8.985  -9.568  28.401  1.00  0.00    -0.333 OA
HETATM    5  C7  UNL     1       8.750  -9.683  26.970  1.00  0.00     0.168 C 
HETATM    6  C8  UNL     1       9.407 -11.059  26.703  1.00  0.00     0.074 C 
HETATM    7  C9  UNL     1       9.494  -8.581  26.125  1.00  0.00     0.199 C 
ENDROOT
BRANCH   1   8
HETATM    8  N2  UNL     1      11.751  -7.357  26.183  1.00  0.00    -0.355 N 
HETATM    9  C3  UNL     1      12.013  -5.985  26.634  1.00  0.00     0.152 C 
BRANCH   8  10
HETATM   10  C2  UNL     1      12.109  -7.726  24.865  1.00  0.00     0.169 C 
HETATM   11  S1  UNL     1      13.548  -8.494  24.451  1.00  0.00    -0.041 SA
BRANCH  10  12
HETATM   12  N1  UNL     1      11.139  -7.381  23.938  1.00  0.00    -0.371 N 
HETATM   13  C1  UNL     1      10.876  -8.090  22.696  1.00  0.00     0.148 C 
HETATM   14  H4  UNL     1      10.316  -6.974  24.363  1.00  0.00     0.161 HD
ENDBRANCH  10  12
ENDBRANCH   8  10
ENDBRANCH   1   8
BRANCH   7  15
HETATM   15  O2  UNL     1       8.696  -7.396  25.927  1.00  0.00    -0.384 OA
HETATM   16  C10 UNL     1       9.409  -6.179  26.117  1.00  0.00     0.202 C 
ENDBRANCH   7  15
BRANCH   3  17
HETATM   17  N4  UNL     1       7.934  -7.576  29.170  1.00  0.00    -0.316 N 
HETATM   18  C26 UNL     1       6.726  -7.948  28.599  1.00  0.00     0.048 A 
HETATM   19  C21 UNL     1       5.790  -6.947  28.911  1.00  0.00     0.004 A 
HETATM   20  C25 UNL     1       6.384  -9.070  27.822  1.00  0.00     0.030 A 
HETATM   21  C20 UNL     1       6.462  -5.961  29.698  1.00  0.00     0.022 A 
HETATM   22  C22 UNL     1       4.473  -7.093  28.422  1.00  0.00     0.014 A 
HETATM   23  C19 UNL     1       6.186  -4.736  30.324  1.00  0.00     0.054 A 
HETATM   24  C27 UNL     1       7.764  -6.410  29.848  1.00  0.00     0.077 A 
HETATM   25  C18 UNL     1       7.126  -3.976  31.084  1.00  0.00    -0.010 A 
HETATM   26  C29 UNL     1       4.916  -3.993  30.343  1.00  0.00     0.253 A 
HETATM   27  C17 UNL     1       8.446  -4.413  31.282  1.00  0.00     0.015 A 
HETATM   28  C30 UNL     1       6.455  -2.737  31.604  1.00  0.00     0.163 A 
HETATM   29  C16 UNL     1       9.590  -3.963  31.995  1.00  0.00     0.004 A 
HETATM   30  C28 UNL     1       8.802  -5.603  30.685  1.00  0.00     0.077 A 
HETATM   31  C11 UNL     1      10.605  -4.930  31.836  1.00  0.00     0.049 A 
HETATM   32  C15 UNL     1       9.835  -2.829  32.800  1.00  0.00     0.014 A 
HETATM   33  N3  UNL     1      10.108  -5.913  30.977  1.00  0.00    -0.308 N 
HETATM   34  C12 UNL     1      11.828  -4.784  32.519  1.00  0.00     0.030 A 
HETATM   35  C13 UNL     1      12.041  -3.651  33.311  1.00  0.00     0.002 A 
HETATM   36  C14 UNL     1      11.062  -2.679  33.446  1.00  0.00     0.001 A 
HETATM   37  N5  UNL     1       5.121  -2.850  31.083  1.00  0.00    -0.353 N 
HETATM   38  H27 UNL     1       4.371  -2.190  31.234  1.00  0.00     0.163 HD
HETATM   39  O3  UNL     1       3.864  -4.297  29.819  1.00  0.00    -0.268 OA
HETATM   40  C23 UNL     1       4.126  -8.208  27.652  1.00  0.00     0.001 A 
HETATM   41  C24 UNL     1       5.071  -9.182  27.359  1.00  0.00     0.002 A 
ENDBRANCH   3  17
TORSDOF 6
ENDMDL
