MODEL 1
REMARK minimizedAffinity -7.60966587
REMARK CNNscore 0.830657065
REMARK CNNaffinity 5.75029898
REMARK  3 active torsions:
REMARK  status: ('A' for Active; 'I' for Inactive)
REMARK    1  A    between atoms: C4_5  and  C5_6 
REMARK    2  A    between atoms: N2_9  and  C6_10 
REMARK    3  A    between atoms: C12_16  and  C13_17 
ROOT
HETATM    1  C5  UNL     1      17.181  52.240   5.451  1.00  0.00     0.038 C 
HETATM    2  N1  UNL     1      16.698  51.058   5.690  1.00  0.00    -0.301 N 
ATOM      3  H1  UNL     1      15.720  50.779   5.621  1.00  0.00     0.187 HD
HETATM    4  N2  UNL     1      17.746  50.260   6.052  1.00  0.00    -0.283 N 
HETATM    5  C12 UNL     1      19.006  50.993   6.188  1.00  0.00     0.147 C 
HETATM    6  C23 UNL     1      18.676  52.352   5.566  1.00  0.00     0.091 C 
ENDROOT
BRANCH   5   7
HETATM    7  C13 UNL     1      19.466  51.157   7.629  1.00  0.00    -0.032 A 
HETATM    8  C14 UNL     1      20.175  50.115   8.247  1.00  0.00     0.010 A 
HETATM    9  C15 UNL     1      20.633  50.244   9.559  1.00  0.00     0.013 A 
HETATM   10  C16 UNL     1      20.398  51.417  10.290  1.00  0.00    -0.026 A 
HETATM   11  C17 UNL     1      20.846  51.559  11.614  1.00  0.00     0.012 A 
HETATM   12  C21 UNL     1      19.693  52.479   9.682  1.00  0.00    -0.025 A 
HETATM   13  C18 UNL     1      20.602  52.733  12.328  1.00  0.00     0.001 A 
HETATM   14  C19 UNL     1      19.906  53.779  11.729  1.00  0.00     0.001 A 
HETATM   15  C20 UNL     1      19.454  53.652  10.413  1.00  0.00     0.012 A 
HETATM   16  C22 UNL     1      19.241  52.336   8.359  1.00  0.00     0.021 A 
ENDBRANCH   5   7
BRANCH   4  17
HETATM   17  C6  UNL     1      17.585  48.881   6.182  1.00  0.00     0.051 A 
HETATM   18  C7  UNL     1      16.317  48.288   6.055  1.00  0.00     0.031 A 
HETATM   19  C8  UNL     1      16.126  46.909   6.184  1.00  0.00     0.002 A 
HETATM   20  C9  UNL     1      17.209  46.080   6.448  1.00  0.00     0.000 A 
HETATM   21  C10 UNL     1      18.477  46.635   6.581  1.00  0.00     0.002 A 
HETATM   22  C11 UNL     1      18.660  48.017   6.448  1.00  0.00     0.031 A 
ENDBRANCH   4  17
BRANCH   1  23
HETATM   23  C4  UNL     1      16.336  53.393   5.063  1.00  0.00    -0.012 A 
HETATM   24  C3  UNL     1      16.886  54.534   4.461  1.00  0.00     0.016 A 
HETATM   25  C2  UNL     1      16.058  55.604   4.110  1.00  0.00     0.043 A 
HETATM   26  C1  UNL     1      14.691  55.529   4.357  1.00  0.00     0.116 A 
HETATM   27  F1  UNL     1      13.902  56.556   4.015  1.00  0.00    -0.206 F 
HETATM   28  C25 UNL     1      14.132  54.403   4.949  1.00  0.00     0.043 A 
HETATM   29  C24 UNL     1      14.956  53.333   5.303  1.00  0.00     0.016 A 
ENDBRANCH   1  23
TORSDOF 3
ENDMDL
