MODEL 1
REMARK minimizedAffinity -9.07801437
REMARK  7 active torsions:
REMARK  status: ('A' for Active; 'I' for Inactive)
REMARK    1  A    between atoms: O1_2  and  C2_3 
REMARK    2  A    between atoms: C5_6  and  C6_7 
REMARK    3  A    between atoms: N1_8  and  C7_10 
REMARK    4  A    between atoms: C15_24  and  N5_25 
REMARK    5  A    between atoms: N5_25  and  C16_26 
REMARK    6  A    between atoms: C22_32  and  N6_33 
REMARK    7  A    between atoms: C24_36  and  O2_37 
ROOT
HETATM    1  C7  UNL     1      11.032  35.247  17.547  1.00  0.00     0.707 A 
HETATM    2  N2  UNL     1       9.988  35.690  16.861  1.00  0.00    -0.130 N 
ATOM      3  H2  UNL     1       9.959  35.825  15.851  1.00  0.00     0.205 HD
HETATM    4  N3  UNL     1       8.952  35.937  17.728  1.00  0.00    -0.269 N 
ATOM      5  H3  UNL     1       8.026  36.286  17.480  1.00  0.00     0.189 HD
HETATM    6  C8  UNL     1       9.376  35.642  18.934  1.00  0.00     0.159 A 
HETATM    7  C9  UNL     1       8.697  35.699  20.209  1.00  0.00     0.037 A 
HETATM    8  C10 UNL     1       7.378  36.137  20.345  1.00  0.00     0.017 A 
HETATM    9  C11 UNL     1       6.792  36.170  21.611  1.00  0.00     0.001 A 
HETATM   10  C12 UNL     1       7.520  35.766  22.730  1.00  0.00     0.002 A 
HETATM   11  C13 UNL     1       8.840  35.326  22.588  1.00  0.00     0.030 A 
HETATM   12  C14 UNL     1       9.439  35.287  21.329  1.00  0.00     0.048 A 
HETATM   13  N4  UNL     1      10.779  34.845  21.221  1.00  0.00    -0.331 N 
ATOM     14  H4  UNL     1      11.278  34.527  22.052  1.00  0.00     0.168 HD
HETATM   15  C15 UNL     1      11.382  34.842  20.053  1.00  0.00     0.187 A 
HETATM   16  N7  UNL     1      10.682  35.218  18.889  1.00  0.00    -0.103 N 
ENDROOT
BRANCH   1  17
HETATM   17  N1  UNL     1      12.264  34.879  17.118  1.00  0.00    -0.199 N 
HETATM   18  C6  UNL     1      13.123  35.835  16.974  1.00  0.00     0.117 C 
ATOM     19  H1  UNL     1      12.499  33.907  16.920  1.00  0.00     0.183 HD
BRANCH  18  20
HETATM   20  C5  UNL     1      14.511  35.556  16.553  1.00  0.00    -0.017 A 
HETATM   21  C4  UNL     1      14.931  35.822  15.247  1.00  0.00     0.016 A 
HETATM   22  C3  UNL     1      16.246  35.542  14.854  1.00  0.00     0.040 A 
HETATM   23  C2  UNL     1      17.143  34.988  15.771  1.00  0.00     0.101 A 
HETATM   24  C24 UNL     1      16.700  34.727  17.073  1.00  0.00     0.099 A 
HETATM   25  C23 UNL     1      15.398  35.003  17.476  1.00  0.00     0.052 A 
BRANCH  23  26
HETATM   26  O1  UNL     1      18.453  34.661  15.527  1.00  0.00    -0.353 OA
HETATM   27  C1  UNL     1      18.745  34.141  14.234  1.00  0.00     0.210 C 
ENDBRANCH  23  26
BRANCH  24  28
HETATM   28  O2  UNL     1      17.555  34.180  17.991  1.00  0.00    -0.358 OA
HETATM   29  H21 UNL     1      18.405  34.076  17.519  1.00  0.00     0.217 HD
ENDBRANCH  24  28
ENDBRANCH  18  20
ENDBRANCH   1  17
BRANCH  15  30
HETATM   30  N5  UNL     1      12.686  34.408  19.976  1.00  0.00    -0.228 NA
HETATM   31  H11 UNL     1      12.766  33.434  20.277  1.00  0.00     0.136 HD
BRANCH  30  32
HETATM   32  C16 UNL     1      13.742  35.062  20.690  1.00  0.00     0.036 A 
HETATM   33  C17 UNL     1      14.799  34.376  21.297  1.00  0.00     0.026 A 
HETATM   34  C18 UNL     1      15.756  35.067  22.049  1.00  0.00     0.009 A 
HETATM   35  C19 UNL     1      15.671  36.452  22.213  1.00  0.00    -0.060 A 
HETATM   36  C20 UNL     1      16.727  37.198  22.977  1.00  0.00     0.048 C 
HETATM   37  C21 UNL     1      14.618  37.147  21.602  1.00  0.00     0.032 A 
HETATM   38  C22 UNL     1      13.629  36.457  20.887  1.00  0.00     0.028 A 
BRANCH  38  39
HETATM   39  N6  UNL     1      12.663  37.182  20.133  1.00  0.00    -0.301 NA
HETATM   40  H18 UNL     1      13.051  37.391  19.213  1.00  0.00     0.124 HD
HETATM   41  H19 UNL     1      12.443  38.065  20.591  1.00  0.00     0.124 HD
ENDBRANCH  38  39
ENDBRANCH  30  32
ENDBRANCH  15  30
TORSDOF 7
ENDMDL
