MODEL 1
REMARK minimizedAffinity -9.28138161
REMARK  4 active torsions:
REMARK  status: ('A' for Active; 'I' for Inactive)
REMARK    1  A    between atoms: C4_4  and  N1_5 
REMARK    2  A    between atoms: N1_5  and  C5_6 
REMARK    3  A    between atoms: C7_10  and  C8_11 
REMARK       I    between atoms: C8_11  and  N3_13 
REMARK    4  A    between atoms: N3_13  and  C9_14 
ROOT
HETATM    1  C5  UNL     1       4.914  -5.293  29.587  1.00  0.00     0.150 A 
HETATM    2  N2  UNL     1       5.911  -6.149  29.556  1.00  0.00    -0.345 N 
ATOM      3  H2  UNL     1       5.907  -7.026  29.034  1.00  0.00     0.167 HD
HETATM    4  C6  UNL     1       6.963  -5.698  30.325  1.00  0.00     0.115 A 
HETATM    5  C7  UNL     1       6.802  -4.452  30.893  1.00  0.00     0.091 A 
HETATM    6  S1  UNL     1       5.245  -3.857  30.491  1.00  0.00    -0.047 SA
ENDROOT
BRANCH   1   7
HETATM    7  N1  UNL     1       3.722  -5.401  28.952  1.00  0.00    -0.323 N 
HETATM    8  H5  UNL     1       2.975  -4.841  29.342  1.00  0.00     0.169 HD
BRANCH   7   9
HETATM    9  C4  UNL     1       3.221  -6.603  28.406  1.00  0.00     0.110 A 
HETATM   10  C3  UNL     1       4.137  -7.508  27.900  1.00  0.00     0.073 A 
HETATM   11  C2  UNL     1       3.645  -8.683  27.366  1.00  0.00     0.010 A 
HETATM   12  C1  UNL     1       4.579  -9.711  26.804  1.00  0.00     0.068 C 
HETATM   13  N5  UNL     1       2.328  -8.958  27.331  1.00  0.00    -0.350 N 
HETATM   14  C16 UNL     1       1.506  -8.034  27.857  1.00  0.00     0.078 A 
ATOM     15  H5  UNL     1       1.972  -9.823  26.925  1.00  0.00     0.167 HD
HETATM   16  N4  UNL     1       1.904  -6.863  28.379  1.00  0.00    -0.332 N 
HETATM   17  C17 UNL     1       0.036  -8.305  27.816  1.00  0.00     0.089 C 
ATOM     18  H4  UNL     1       1.228  -6.192  28.744  1.00  0.00     0.168 HD
ENDBRANCH   7   9
ENDBRANCH   1   7
BRANCH   5  19
HETATM   19  C8  UNL     1       7.696  -3.668  31.725  1.00  0.00     0.264 C 
HETATM   20  O1  UNL     1       7.483  -2.493  32.018  1.00  0.00    -0.267 OA
HETATM   21  N3  UNL     1       8.864  -4.338  32.081  1.00  0.00    -0.320 N 
HETATM   22  H7  UNL     1       9.177  -5.022  31.408  1.00  0.00     0.169 HD
BRANCH  21  23
HETATM   23  C9  UNL     1       9.854  -3.791  32.938  1.00  0.00     0.062 A 
HETATM   24  C10 UNL     1       9.803  -4.120  34.312  1.00  0.00    -0.034 A 
HETATM   25  C11 UNL     1       8.754  -5.038  34.883  1.00  0.00     0.050 C 
HETATM   26  C12 UNL     1      10.780  -3.605  35.183  1.00  0.00     0.009 A 
HETATM   27  C13 UNL     1      11.786  -2.763  34.714  1.00  0.00     0.002 A 
HETATM   28  C14 UNL     1      11.812  -2.399  33.371  1.00  0.00     0.026 A 
HETATM   29  C15 UNL     1      10.846  -2.892  32.486  1.00  0.00     0.061 A 
HETATM   30 CL1  UNL     1      10.839  -2.194  30.900  1.00  0.00    -0.082 Cl
ENDBRANCH  21  23
ENDBRANCH   5  19
TORSDOF 4
ENDMDL
