MODEL 1
REMARK minimizedAffinity -10.3837376
REMARK CNNscore 0.271322042
REMARK CNNaffinity 7.47023153
REMARK  5 active torsions:
REMARK  status: ('A' for Active; 'I' for Inactive)
REMARK    1  A    between atoms: C5_5  and  C6_6 
REMARK    2  A    between atoms: C8_10  and  C9_11 
REMARK       I    between atoms: N3_21  and  C16_22 
REMARK    3  A    between atoms: C16_22  and  C17_24 
REMARK    4  A    between atoms: C17_24  and  C18_25 
REMARK    5  A    between atoms: N6_34  and  C23_35 
ROOT
HETATM    1  C6  UNL     1      -0.036   8.758  12.887  1.00  0.00     0.141 C 
HETATM    2  N1  UNL     1      -0.432   9.966  13.146  1.00  0.00    -0.336 N 
ATOM      3  H1  UNL     1      -0.301  10.709  12.461  1.00  0.00     0.168 HD
HETATM    4  C7  UNL     1      -1.032  10.233  14.354  1.00  0.00     0.104 C 
HETATM    5  C8  UNL     1      -1.569  11.458  14.520  1.00  0.00     0.046 C 
HETATM    6  C15 UNL     1      -1.074   9.190  15.435  1.00  0.00     0.287 C 
HETATM    7  O1  UNL     1      -1.382   9.387  16.605  1.00  0.00    -0.264 OA
HETATM    8  N2  UNL     1      -0.718   7.929  15.034  1.00  0.00    -0.254 N 
HETATM    9  N3  UNL     1      -0.151   7.666  13.767  1.00  0.00    -0.203 N 
HETATM   10  C16 UNL     1       0.082   6.322  13.424  1.00  0.00     0.251 C 
HETATM   11  O2  UNL     1       0.886   5.932  12.572  1.00  0.00    -0.271 OA
HETATM   12  H11 UNL     1      -0.551   7.281  15.799  1.00  0.00     0.191 HD
ENDROOT
BRANCH   1  13
HETATM   13  C5  UNL     1       0.523   8.531  11.534  1.00  0.00     0.010 A 
HETATM   14  C4  UNL     1      -0.320   8.384  10.432  1.00  0.00     0.016 A 
HETATM   15  C3  UNL     1       0.237   8.161   9.169  1.00  0.00     0.007 A 
HETATM   16  C2  UNL     1       1.627   8.046   9.013  1.00  0.00    -0.062 A 
HETATM   17  C1  UNL     1       2.232   7.826   7.658  1.00  0.00     0.048 C 
HETATM   18  C31 UNL     1       2.455   8.163  10.138  1.00  0.00     0.007 A 
HETATM   19  C30 UNL     1       1.907   8.398  11.399  1.00  0.00     0.016 A 
ENDBRANCH   1  13
BRANCH  10  20
HETATM   20  C17 UNL     1      -0.643   5.266  14.225  1.00  0.00     0.181 C 
BRANCH  20  21
HETATM   21  C18 UNL     1      -1.864   4.777  13.499  1.00  0.00     0.094 A 
HETATM   22  N4  UNL     1      -3.050   5.094  13.935  1.00  0.00    -0.329 N 
HETATM   23  C19 UNL     1      -4.070   4.623  13.158  1.00  0.00     0.146 A 
ATOM     24  H4  UNL     1      -3.203   5.645  14.780  1.00  0.00     0.168 HD
HETATM   25  C20 UNL     1      -3.930   3.840  12.031  1.00  0.00     0.101 A 
HETATM   26  N6  UNL     1      -5.445   4.828  13.316  1.00  0.00    -0.239 N 
HETATM   27  C21 UNL     1      -5.223   3.621  11.539  1.00  0.00     0.042 A 
HETATM   28  C29 UNL     1      -2.617   3.451  11.601  1.00  0.00     0.262 A 
HETATM   29  C22 UNL     1      -5.634   2.871  10.328  1.00  0.00     0.071 C 
HETATM   30  N5  UNL     1      -6.143   4.207  12.312  1.00  0.00    -0.295 N 
ATOM     31  H5  UNL     1      -7.154   4.196  12.182  1.00  0.00     0.187 HD
HETATM   32  O3  UNL     1      -2.382   2.712  10.653  1.00  0.00    -0.267 OA
HETATM   33  N7  UNL     1      -1.619   3.992  12.384  1.00  0.00    -0.312 N 
HETATM   34  H22 UNL     1      -0.677   3.735  12.116  1.00  0.00     0.170 HD
BRANCH  26  35
HETATM   35  C23 UNL     1      -6.157   5.559  14.319  1.00  0.00     0.058 A 
HETATM   36  C24 UNL     1      -7.241   5.007  15.018  1.00  0.00     0.031 A 
HETATM   37  C25 UNL     1      -7.900   5.753  16.003  1.00  0.00     0.002 A 
HETATM   38  C26 UNL     1      -7.483   7.049  16.301  1.00  0.00     0.000 A 
HETATM   39  C27 UNL     1      -6.418   7.615  15.600  1.00  0.00     0.002 A 
HETATM   40  C28 UNL     1      -5.758   6.876  14.613  1.00  0.00     0.031 A 
ENDBRANCH  26  35
ENDBRANCH  20  21
ENDBRANCH  10  20
BRANCH   5  41
HETATM   41  C9  UNL     1      -2.323  11.994  15.654  1.00  0.00    -0.034 A 
HETATM   42  C10 UNL     1      -3.700  11.767  15.739  1.00  0.00     0.013 A 
HETATM   43  C11 UNL     1      -4.422  12.217  16.848  1.00  0.00     0.024 A 
HETATM   44  C12 UNL     1      -3.765  12.884  17.881  1.00  0.00     0.034 A 
HETATM   45 CL1  UNL     1      -4.654  13.435  19.246  1.00  0.00    -0.084 Cl
HETATM   46  C13 UNL     1      -2.392  13.108  17.813  1.00  0.00     0.024 A 
HETATM   47  C14 UNL     1      -1.669  12.661  16.701  1.00  0.00     0.013 A 
ENDBRANCH   5  41
TORSDOF 5
ENDMDL
