MODEL 1
REMARK minimizedAffinity -7.95617771
REMARK  3 active torsions:
REMARK  status: ('A' for Active; 'I' for Inactive)
REMARK    1  A    between atoms: C4_5  and  C5_6 
REMARK    2  A    between atoms: N2_9  and  C6_10 
REMARK    3  A    between atoms: C12_16  and  C13_17 
ROOT
HETATM    1  C5  UNL     1      13.131  57.544   0.470  1.00  0.00     0.038 C 
HETATM    2  N1  UNL     1      13.246  56.547   1.295  1.00  0.00    -0.301 N 
ATOM      3  H1  UNL     1      12.792  55.637   1.213  1.00  0.00     0.187 HD
HETATM    4  N2  UNL     1      14.088  56.949   2.293  1.00  0.00    -0.283 N 
HETATM    5  C12 UNL     1      14.448  58.365   2.206  1.00  0.00     0.147 C 
HETATM    6  C23 UNL     1      13.970  58.746   0.803  1.00  0.00     0.091 C 
ENDROOT
BRANCH   5   7
HETATM    7  C13 UNL     1      13.781  59.236   3.260  1.00  0.00    -0.032 A 
HETATM    8  C14 UNL     1      13.203  60.455   2.880  1.00  0.00     0.010 A 
HETATM    9  C15 UNL     1      12.560  61.264   3.821  1.00  0.00     0.013 A 
HETATM   10  C16 UNL     1      12.473  60.873   5.165  1.00  0.00    -0.026 A 
HETATM   11  C17 UNL     1      11.832  61.676   6.123  1.00  0.00     0.012 A 
HETATM   12  C21 UNL     1      13.045  59.645   5.563  1.00  0.00    -0.025 A 
HETATM   13  C18 UNL     1      11.756  61.273   7.457  1.00  0.00     0.001 A 
HETATM   14  C19 UNL     1      12.321  60.063   7.849  1.00  0.00     0.001 A 
HETATM   15  C20 UNL     1      12.961  59.253   6.910  1.00  0.00     0.012 A 
HETATM   16  C22 UNL     1      13.687  58.842   4.606  1.00  0.00     0.021 A 
ENDBRANCH   5   7
BRANCH   4  17
HETATM   17  C6  UNL     1      14.551  56.044   3.248  1.00  0.00     0.051 A 
HETATM   18  C7  UNL     1      15.929  55.865   3.462  1.00  0.00     0.031 A 
HETATM   19  C8  UNL     1      16.421  54.964   4.413  1.00  0.00     0.002 A 
HETATM   20  C9  UNL     1      15.538  54.212   5.178  1.00  0.00     0.000 A 
HETATM   21  C10 UNL     1      14.170  54.364   4.991  1.00  0.00     0.002 A 
HETATM   22  C11 UNL     1      13.685  55.270   4.038  1.00  0.00     0.031 A 
ENDBRANCH   4  17
BRANCH   1  23
HETATM   23  C4  UNL     1      12.265  57.503  -0.731  1.00  0.00    -0.012 A 
HETATM   24  C3  UNL     1      11.496  56.375  -1.042  1.00  0.00     0.015 A 
HETATM   25  C2  UNL     1      10.692  56.369  -2.187  1.00  0.00     0.020 A 
HETATM   26  C1  UNL     1      10.655  57.489  -3.017  1.00  0.00     0.011 A 
HETATM   27 BR1  UNL     1       9.565  57.477  -4.560  1.00  0.00    -0.051 Br
HETATM   28  C25 UNL     1      11.415  58.617  -2.715  1.00  0.00     0.020 A 
HETATM   29  C24 UNL     1      12.219  58.624  -1.571  1.00  0.00     0.015 A 
ENDBRANCH   1  23
TORSDOF 3
ENDMDL
