MODEL 1
REMARK minimizedAffinity -9.09925652
REMARK  8 active torsions:
REMARK  status: ('A' for Active; 'I' for Inactive)
REMARK    1  A    between atoms: C2_2  and  C3_3 
REMARK       I    between atoms: C3_3  and  N1_5 
REMARK    2  A    between atoms: N1_5  and  C4_6 
REMARK    3  A    between atoms: C8_10  and  C9_11 
REMARK    4  A    between atoms: C13_20  and  N4_21 
REMARK    5  A    between atoms: N4_21  and  C14_22 
REMARK    6  A    between atoms: C14_22  and  C15_23 
REMARK    7  A    between atoms: C14_22  and  C16_25 
REMARK    8  A    between atoms: C15_23  and  O3_24 
ROOT
HETATM    1  C9  UNL     1      -6.150   3.850  12.678  1.00  0.00     0.014 A 
HETATM    2  C10 UNL     1      -6.974   2.816  12.290  1.00  0.00     0.157 A 
HETATM    3  O2  UNL     1      -6.248   1.812  11.735  1.00  0.00    -0.304 OA
HETATM    4  C11 UNL     1      -4.940   2.195  11.764  1.00  0.00     0.162 A 
HETATM    5  N2  UNL     1      -3.951   1.422  11.300  1.00  0.00    -0.332 N 
ATOM      6  H2  UNL     1      -4.085   0.500  10.885  1.00  0.00     0.168 HD
HETATM    7  C12 UNL     1      -2.764   2.016  11.452  1.00  0.00     0.183 A 
HETATM    8  N3  UNL     1      -2.502   3.227  11.981  1.00  0.00    -0.342 N 
ATOM      9  H3  UNL     1      -1.541   3.564  12.047  1.00  0.00     0.167 HD
HETATM   10  C13 UNL     1      -3.528   3.990  12.424  1.00  0.00     0.097 A 
HETATM   11  C22 UNL     1      -4.824   3.456  12.332  1.00  0.00     0.067 A 
ENDROOT
BRANCH   1  12
HETATM   12  C8  UNL     1      -6.633   5.041  13.337  1.00  0.00    -0.021 A 
HETATM   13  C7  UNL     1      -5.747   6.090  13.599  1.00  0.00     0.012 A 
HETATM   14  C6  UNL     1      -6.212   7.253  14.206  1.00  0.00     0.003 A 
HETATM   15  C5  UNL     1      -7.562   7.372  14.543  1.00  0.00     0.029 A 
HETATM   16  C4  UNL     1      -8.464   6.332  14.275  1.00  0.00     0.035 A 
HETATM   17  C23 UNL     1      -7.990   5.164  13.673  1.00  0.00     0.042 A 
BRANCH  16  18
HETATM   18  N1  UNL     1      -9.811   6.549  14.637  1.00  0.00    -0.324 N 
HETATM   19  C3  UNL     1     -10.853   6.912  13.807  1.00  0.00     0.244 C 
HETATM   20  O1  UNL     1     -10.794   7.136  12.607  1.00  0.00    -0.268 OA
HETATM   21  H4  UNL     1     -10.025   6.419  15.617  1.00  0.00     0.169 HD
BRANCH  19  22
HETATM   22  C2  UNL     1     -12.140   7.032  14.552  1.00  0.00     0.064 C 
HETATM   23  C1  UNL     1     -13.152   6.191  14.300  1.00  0.00     0.017 C 
ENDBRANCH  19  22
ENDBRANCH  16  18
ENDBRANCH   1  12
BRANCH  10  24
HETATM   24  N4  UNL     1      -3.281   5.253  12.968  1.00  0.00    -0.267 NA
HETATM   25  H10 UNL     1      -3.701   5.985  12.405  1.00  0.00     0.130 HD
BRANCH  24  26
HETATM   26  C14 UNL     1      -1.893   5.535  13.349  1.00  0.00     0.118 C 
BRANCH  26  27
HETATM   27  C15 UNL     1      -1.858   6.032  14.818  1.00  0.00     0.188 C 
BRANCH  27  28
HETATM   28  O3  UNL     1      -0.588   5.824  15.440  1.00  0.00    -0.399 OA
HETATM   29  H14 UNL     1       0.074   6.303  14.909  1.00  0.00     0.209 HD
ENDBRANCH  27  28
ENDBRANCH  26  27
BRANCH  26  30
HETATM   30  C16 UNL     1      -1.275   6.568  12.410  1.00  0.00    -0.038 A 
HETATM   31  C17 UNL     1      -1.619   7.922  12.551  1.00  0.00     0.009 A 
HETATM   32  C18 UNL     1      -1.067   8.890  11.711  1.00  0.00     0.001 A 
HETATM   33  C19 UNL     1      -0.157   8.520  10.723  1.00  0.00     0.000 A 
HETATM   34  C20 UNL     1       0.199   7.183  10.574  1.00  0.00     0.001 A 
HETATM   35  C21 UNL     1      -0.358   6.210  11.408  1.00  0.00     0.009 A 
ENDBRANCH  26  30
ENDBRANCH  24  26
ENDBRANCH  10  24
TORSDOF 8
ENDMDL
