MODEL 1
REMARK minimizedAffinity -11.0269213
REMARK CNNscore 0.817015767
REMARK CNNaffinity 7.97076178
REMARK  6 active torsions:
REMARK  status: ('A' for Active; 'I' for Inactive)
REMARK    1  A    between atoms: O1_2  and  C2_3 
REMARK    2  A    between atoms: C3_4  and  N1_5 
REMARK       I    between atoms: N1_5  and  C5_7 
REMARK    3  A    between atoms: C5_7  and  C6_9 
REMARK    4  A    between atoms: C6_9  and  N2_10 
REMARK    5  A    between atoms: C8_12  and  N4_33 
REMARK    6  A    between atoms: C9_14  and  N3_16 
ROOT
HETATM    1  C2  UNL     1      -0.651   6.815  13.955  1.00  0.00     0.199 C 
HETATM    2  C3  UNL     1      -0.364   8.331  13.889  1.00  0.00     0.124 C 
HETATM    3  C7  UNL     1      -0.964   8.898  12.599  1.00  0.00     0.082 C 
HETATM    4  C8  UNL     1      -2.436   8.490  12.462  1.00  0.00     0.233 C 
HETATM    5  O3  UNL     1      -2.962   7.769  13.577  1.00  0.00    -0.333 OA
HETATM    6  C9  UNL     1      -2.203   6.637  14.081  1.00  0.00     0.168 C 
HETATM    7  C10 UNL     1      -2.613   6.695  15.573  1.00  0.00     0.074 C 
ENDROOT
BRANCH   2   8
HETATM    8  N1  UNL     1       1.047   8.702  14.166  1.00  0.00    -0.347 N 
HETATM    9  C4  UNL     1       1.729   9.418  13.090  1.00  0.00     0.153 C 
HETATM   10  C5  UNL     1       1.682   8.366  15.363  1.00  0.00     0.247 C 
HETATM   11  O2  UNL     1       1.106   7.808  16.298  1.00  0.00    -0.271 OA
BRANCH  10  12
HETATM   12  C6  UNL     1       3.177   8.689  15.521  1.00  0.00     0.369 C 
BRANCH  12  13
HETATM   13  N2  UNL     1       4.009   7.520  15.194  1.00  0.00     0.087 N 
HETATM   14  H11 UNL     1       3.725   6.751  15.806  1.00  0.00     0.313 HD
HETATM   15  H12 UNL     1       4.974   7.728  15.451  1.00  0.00     0.313 HD
ENDBRANCH  12  13
ENDBRANCH  10  12
ENDBRANCH   2   8
BRANCH   1  16
HETATM   16  O1  UNL     1      -0.169   6.211  12.745  1.00  0.00    -0.384 OA
HETATM   17  C1  UNL     1       1.247   6.154  12.660  1.00  0.00     0.202 C 
ENDBRANCH   1  16
BRANCH   6  18
HETATM   18  N3  UNL     1      -2.683   5.413  13.415  1.00  0.00    -0.308 N 
HETATM   19  C11 UNL     1      -1.944   4.468  12.702  1.00  0.00     0.049 A 
HETATM   20  C12 UNL     1      -0.578   4.382  12.367  1.00  0.00     0.030 A 
HETATM   21  C16 UNL     1      -2.842   3.473  12.274  1.00  0.00     0.004 A 
HETATM   22  C13 UNL     1      -0.118   3.269  11.656  1.00  0.00     0.002 A 
HETATM   23  C14 UNL     1      -0.988   2.262  11.265  1.00  0.00     0.001 A 
HETATM   24  C15 UNL     1      -2.349   2.358  11.559  1.00  0.00     0.014 A 
HETATM   25  C17 UNL     1      -4.152   3.882  12.645  1.00  0.00     0.015 A 
HETATM   26  C18 UNL     1      -5.464   3.412  12.465  1.00  0.00    -0.010 A 
HETATM   27  C28 UNL     1      -4.010   5.080  13.312  1.00  0.00     0.077 A 
HETATM   28  C19 UNL     1      -6.601   4.151  12.917  1.00  0.00     0.054 A 
HETATM   29  C30 UNL     1      -5.930   2.160  11.784  1.00  0.00     0.163 A 
HETATM   30  C20 UNL     1      -6.544   5.391  13.574  1.00  0.00     0.022 A 
HETATM   31  C29 UNL     1      -7.794   3.376  12.546  1.00  0.00     0.253 A 
HETATM   32  C21 UNL     1      -7.434   6.371  14.112  1.00  0.00     0.004 A 
HETATM   33  C27 UNL     1      -5.263   5.871  13.796  1.00  0.00     0.077 A 
HETATM   34  C22 UNL     1      -8.838   6.489  14.197  1.00  0.00     0.014 A 
HETATM   35  C26 UNL     1      -6.650   7.406  14.649  1.00  0.00     0.048 A 
HETATM   36  C23 UNL     1      -9.415   7.612  14.799  1.00  0.00     0.001 A 
HETATM   37  C24 UNL     1      -8.618   8.621  15.322  1.00  0.00     0.002 A 
HETATM   38  C25 UNL     1      -7.226   8.536  15.258  1.00  0.00     0.030 A 
HETATM   39  N4  UNL     1      -5.321   7.059  14.456  1.00  0.00    -0.316 N 
HETATM   40  O4  UNL     1      -8.959   3.649  12.751  1.00  0.00    -0.268 OA
HETATM   41  N5  UNL     1      -7.359   2.238  11.903  1.00  0.00    -0.353 N 
HETATM   42  H27 UNL     1      -8.019   1.559  11.549  1.00  0.00     0.163 HD
ENDBRANCH   6  18
TORSDOF 6
ENDMDL
