MODEL 1
REMARK minimizedAffinity -8.09715462
REMARK  3 active torsions:
REMARK  status: ('A' for Active; 'I' for Inactive)
REMARK    1  A    between atoms: C4_5  and  C5_6 
REMARK    2  A    between atoms: N2_9  and  C6_10 
REMARK    3  A    between atoms: C12_16  and  C13_17 
ROOT
HETATM    1  C5  UNL     1      13.590  57.437   1.178  1.00  0.00     0.038 C 
HETATM    2  N1  UNL     1      13.697  56.336   1.855  1.00  0.00    -0.301 N 
ATOM      3  H1  UNL     1      13.265  55.440   1.628  1.00  0.00     0.187 HD
HETATM    4  N2  UNL     1      14.496  56.601   2.932  1.00  0.00    -0.283 N 
HETATM    5  C12 UNL     1      14.859  58.014   3.045  1.00  0.00     0.147 C 
HETATM    6  C23 UNL     1      14.389  58.595   1.709  1.00  0.00     0.091 C 
ENDROOT
BRANCH   5   7
HETATM    7  C13 UNL     1      14.185  58.727   4.209  1.00  0.00    -0.032 A 
HETATM    8  C14 UNL     1      14.258  58.247   5.524  1.00  0.00     0.010 A 
HETATM    9  C15 UNL     1      13.604  58.912   6.563  1.00  0.00     0.013 A 
HETATM   10  C16 UNL     1      12.853  60.069   6.316  1.00  0.00    -0.026 A 
HETATM   11  C17 UNL     1      12.191  60.748   7.352  1.00  0.00     0.012 A 
HETATM   12  C21 UNL     1      12.761  60.563   4.996  1.00  0.00    -0.025 A 
HETATM   13  C18 UNL     1      11.445  61.898   7.089  1.00  0.00     0.001 A 
HETATM   14  C19 UNL     1      11.354  62.385   5.789  1.00  0.00     0.001 A 
HETATM   15  C20 UNL     1      12.007  61.723   4.748  1.00  0.00     0.012 A 
HETATM   16  C22 UNL     1      13.426  59.884   3.960  1.00  0.00     0.021 A 
ENDBRANCH   5   7
BRANCH   4  17
HETATM   17  C6  UNL     1      14.978  55.568   3.737  1.00  0.00     0.051 A 
HETATM   18  C7  UNL     1      16.346  55.269   3.843  1.00  0.00     0.031 A 
HETATM   19  C8  UNL     1      16.811  54.230   4.659  1.00  0.00     0.002 A 
HETATM   20  C9  UNL     1      15.914  53.461   5.392  1.00  0.00     0.000 A 
HETATM   21  C10 UNL     1      14.553  53.734   5.310  1.00  0.00     0.002 A 
HETATM   22  C11 UNL     1      14.098  54.775   4.494  1.00  0.00     0.031 A 
ENDBRANCH   4  17
BRANCH   1  23
HETATM   23  C4  UNL     1      12.772  57.546  -0.052  1.00  0.00    -0.010 A 
HETATM   24  C3  UNL     1      11.988  56.453  -0.443  1.00  0.00     0.015 A 
HETATM   25  C2  UNL     1      11.203  56.523  -1.598  1.00  0.00     0.026 A 
HETATM   26  C1  UNL     1      11.198  57.686  -2.373  1.00  0.00     0.055 A 
HETATM   27 CL1  UNL     1      10.208  57.707  -3.787  1.00  0.00    -0.083 Cl
HETATM   28  C25 UNL     1      11.982  58.779  -1.986  1.00  0.00     0.056 A 
HETATM   29  C24 UNL     1      12.768  58.710  -0.827  1.00  0.00     0.039 A 
HETATM   30 CL2  UNL     1      12.029  60.249  -2.894  1.00  0.00    -0.083 Cl
ENDBRANCH   1  23
TORSDOF 3
ENDMDL
