MODEL 1
REMARK minimizedAffinity -7.09736633
REMARK CNNscore 0.444353223
REMARK CNNaffinity 6.05103445
REMARK  10 active torsions:
REMARK  status: ('A' for Active; 'I' for Inactive)
REMARK    1  A    between atoms: C1_2  and  C2_3 
REMARK       I    between atoms: C1_2  and  N1_5 
REMARK    2  A    between atoms: C2_3  and  O2_4 
REMARK    3  A    between atoms: C6_9  and  C7_10 
REMARK    4  A    between atoms: C7_10  and  O3_11 
REMARK    5  A    between atoms: O3_11  and  C8_12 
REMARK    6  A    between atoms: C14_22  and  N4_23 
REMARK    7  A    between atoms: N4_23  and  C15_24 
REMARK    8  A    between atoms: C18_27  and  O4_28 
REMARK    9  A    between atoms: O4_28  and  C19_29 
REMARK   10  A    between atoms: C19_29  and  C20_30 
ROOT
HETATM    1  C8  UNL     1      11.439  56.528  -2.048  1.00  0.00     0.085 A 
HETATM    2  C9  UNL     1      10.453  56.261  -3.001  1.00  0.00     0.038 A 
HETATM    3  C10 UNL     1      10.020  57.277  -3.837  1.00  0.00     0.005 A 
HETATM    4  C11 UNL     1      10.566  58.553  -3.702  1.00  0.00     0.030 A 
HETATM    5  C12 UNL     1      11.518  58.853  -2.735  1.00  0.00     0.049 A 
HETATM    6  N2  UNL     1      11.957  60.111  -2.688  1.00  0.00    -0.351 N 
ATOM      7  H2  UNL     1      11.624  60.819  -3.342  1.00  0.00     0.166 HD
HETATM    8  C13 UNL     1      12.854  60.399  -1.744  1.00  0.00     0.182 A 
HETATM    9  N3  UNL     1      13.344  59.548  -0.843  1.00  0.00    -0.338 N 
ATOM     10  H3  UNL     1      14.021  59.848  -0.142  1.00  0.00     0.168 HD
HETATM   11  C14 UNL     1      12.907  58.275  -0.896  1.00  0.00     0.122 A 
HETATM   12  C27 UNL     1      11.963  57.844  -1.866  1.00  0.00     0.068 A 
ENDROOT
BRANCH  11  13
HETATM   13  N4  UNL     1      13.375  57.358   0.075  1.00  0.00    -0.342 N 
HETATM   14  H17 UNL     1      14.082  56.756  -0.333  1.00  0.00     0.167 HD
BRANCH  13  15
HETATM   15  C15 UNL     1      13.503  57.496   1.470  1.00  0.00     0.035 A 
HETATM   16  C16 UNL     1      13.355  58.718   2.131  1.00  0.00     0.032 A 
HETATM   17  C17 UNL     1      13.446  58.815   3.527  1.00  0.00     0.041 A 
HETATM   18  C18 UNL     1      13.665  57.678   4.303  1.00  0.00     0.091 A 
HETATM   19  C25 UNL     1      13.810  56.446   3.648  1.00  0.00     0.069 A 
HETATM   20 CL1  UNL     1      14.082  54.983   4.535  1.00  0.00    -0.081 Cl
HETATM   21  C26 UNL     1      13.721  56.356   2.253  1.00  0.00     0.056 A 
BRANCH  18  22
HETATM   22  O4  UNL     1      13.772  57.672   5.669  1.00  0.00    -0.344 OA
BRANCH  22  23
HETATM   23  C19 UNL     1      13.907  58.925   6.348  1.00  0.00     0.232 C 
BRANCH  23  24
HETATM   24  C20 UNL     1      12.781  59.196   7.319  1.00  0.00     0.033 A 
HETATM   25  C21 UNL     1      12.901  58.847   8.663  1.00  0.00     0.027 A 
HETATM   26  C22 UNL     1      11.835  59.104   9.523  1.00  0.00     0.003 A 
HETATM   27  C23 UNL     1      10.682  59.694   9.021  1.00  0.00     0.017 A 
HETATM   28  C24 UNL     1      10.639  60.002   7.672  1.00  0.00     0.088 A 
HETATM   29  N5  UNL     1      11.655  59.763   6.813  1.00  0.00    -0.367 N 
ATOM     30  H5  UNL     1      11.578  59.998   5.823  1.00  0.00     0.165 HD
ENDBRANCH  23  24
ENDBRANCH  22  23
ENDBRANCH  18  22
ENDBRANCH  13  15
ENDBRANCH  11  13
BRANCH   1  31
HETATM   31  O3  UNL     1      11.850  55.499  -1.230  1.00  0.00    -0.348 OA
BRANCH  31  32
HETATM   32  C7  UNL     1      13.134  54.989  -1.625  1.00  0.00     0.201 C 
BRANCH  32  33
HETATM   33  C6  UNL     1      13.015  54.416  -3.049  1.00  0.00     0.111 C 
HETATM   34  N1  UNL     1      13.568  53.063  -3.145  1.00  0.00    -0.344 N 
HETATM   35  C1  UNL     1      12.898  51.980  -2.633  1.00  0.00     0.243 C 
HETATM   36  C3  UNL     1      14.783  53.034  -3.948  1.00  0.00     0.126 C 
HETATM   37  O1  UNL     1      11.820  52.094  -2.043  1.00  0.00    -0.271 OA
HETATM   38  C4  UNL     1      15.181  54.498  -4.079  1.00  0.00     0.022 C 
HETATM   39  C5  UNL     1      13.834  55.219  -4.069  1.00  0.00     0.029 C 
BRANCH  35  40
HETATM   40  C2  UNL     1      13.549  50.605  -2.805  1.00  0.00     0.267 C 
BRANCH  40  41
HETATM   41  O2  UNL     1      13.731  49.941  -1.563  1.00  0.00    -0.392 OA
HETATM   42  H3  UNL     1      13.572  50.615  -0.870  1.00  0.00     0.210 HD
ENDBRANCH  40  41
ENDBRANCH  35  40
ENDBRANCH  32  33
ENDBRANCH  31  32
ENDBRANCH   1  31
TORSDOF 10
ENDMDL
