MODEL 1
REMARK minimizedAffinity -7.91808367
REMARK  4 active torsions:
REMARK  status: ('A' for Active; 'I' for Inactive)
REMARK    1  A    between atoms: O1_1  and  C1_2 
REMARK    2  A    between atoms: C4_5  and  C5_6 
REMARK    3  A    between atoms: N1_7  and  N2_9 
REMARK    4  A    between atoms: N2_9  and  C6_10 
ROOT
HETATM    1  C6  UNL     1      13.642  36.370  18.412  1.00  0.00     0.706 A 
HETATM    2  N3  UNL     1      14.763  36.021  18.997  1.00  0.00    -0.189 N 
ATOM      3  H3  UNL     1      14.833  36.059  20.014  1.00  0.00     0.184 HD
HETATM    4  C7  UNL     1      15.876  35.592  18.236  1.00  0.00     0.063 A 
HETATM    5  C8  UNL     1      17.048  35.230  18.899  1.00  0.00     0.031 A 
HETATM    6  C9  UNL     1      18.166  34.800  18.178  1.00  0.00     0.002 A 
HETATM    7  C10 UNL     1      18.118  34.731  16.784  1.00  0.00     0.001 A 
HETATM    8  C11 UNL     1      16.954  35.090  16.106  1.00  0.00     0.017 A 
HETATM    9  C12 UNL     1      15.840  35.517  16.832  1.00  0.00     0.038 A 
HETATM   10  C13 UNL     1      14.597  35.907  16.211  1.00  0.00     0.157 A 
HETATM   11  N4  UNL     1      14.234  35.954  14.947  1.00  0.00    -0.283 N 
ATOM     12  H4  UNL     1      14.812  35.706  14.143  1.00  0.00     0.188 HD
HETATM   13  N5  UNL     1      12.930  36.400  14.906  1.00  0.00    -0.293 N 
ATOM     14  H5  UNL     1      12.368  36.542  14.067  1.00  0.00     0.187 HD
HETATM   15  C14 UNL     1      12.542  36.609  16.145  1.00  0.00     0.225 A 
HETATM   16  N6  UNL     1      13.557  36.314  17.009  1.00  0.00    -0.124 N 
ENDROOT
BRANCH   1  17
HETATM   17  N2  UNL     1      12.523  36.799  19.117  1.00  0.00    -0.132 N 
HETATM   18  H5  UNL     1      12.623  37.568  19.769  1.00  0.00     0.205 HD
BRANCH  17  19
HETATM   19  N1  UNL     1      11.289  36.232  18.974  1.00  0.00    -0.297 N 
HETATM   20  C5  UNL     1      10.480  36.367  19.974  1.00  0.00     0.119 C 
ATOM     21  H1  UNL     1      11.020  35.732  18.127  1.00  0.00     0.186 HD
BRANCH  20  22
HETATM   22  C4  UNL     1       9.115  35.802  19.949  1.00  0.00    -0.019 A 
HETATM   23  C3  UNL     1       8.169  36.359  19.080  1.00  0.00     0.015 A 
HETATM   24  C2  UNL     1       6.872  35.840  19.040  1.00  0.00     0.037 A 
HETATM   25  C1  UNL     1       6.536  34.772  19.869  1.00  0.00     0.065 A 
HETATM   26  C16 UNL     1       7.471  34.215  20.734  1.00  0.00     0.037 A 
HETATM   27  C15 UNL     1       8.768  34.730  20.776  1.00  0.00     0.015 A 
BRANCH  25  28
HETATM   28  O1  UNL     1       5.282  34.236  19.861  1.00  0.00    -0.361 OA
HETATM   29  H1  UNL     1       4.736  34.716  19.218  1.00  0.00     0.217 HD
ENDBRANCH  25  28
ENDBRANCH  20  22
ENDBRANCH  17  19
ENDBRANCH   1  17
TORSDOF 4
ENDMDL
