MODEL 1
REMARK minimizedAffinity -11.8890772
REMARK CNNscore 0.785619617
REMARK CNNaffinity 8.08616924
REMARK  6 active torsions:
REMARK  status: ('A' for Active; 'I' for Inactive)
REMARK    1  A    between atoms: C4_4  and  C5_5 
REMARK       I    between atoms: C5_5  and  N1_7 
REMARK    2  A    between atoms: C10_14  and  C11_15 
REMARK    3  A    between atoms: C16_26  and  N6_27 
REMARK    4  A    between atoms: N6_27  and  C17_28 
REMARK    5  A    between atoms: N8_36  and  C23_37 
REMARK    6  A    between atoms: C23_37  and  C24_38 
ROOT
HETATM    1  C11 UNL     1      -6.505   5.192  13.616  1.00  0.00     0.048 C 
HETATM    2  C12 UNL     1      -6.416   4.047  12.918  1.00  0.00     0.052 A 
HETATM    3  C13 UNL     1      -7.519   3.087  12.548  1.00  0.00     0.258 A 
HETATM    4  O3  UNL     1      -8.720   3.257  12.611  1.00  0.00    -0.267 OA
HETATM    5  N3  UNL     1      -6.873   1.971  12.064  1.00  0.00    -0.308 N 
HETATM    6  C14 UNL     1      -5.500   2.157  12.006  1.00  0.00     0.124 A 
HETATM    7  N4  UNL     1      -4.668   1.243  11.517  1.00  0.00    -0.338 N 
ATOM      8  H4  UNL     1      -4.969   0.327  11.183  1.00  0.00     0.168 HD
HETATM    9  C15 UNL     1      -3.396   1.651  11.509  1.00  0.00     0.183 A 
HETATM   10  N5  UNL     1      -2.942   2.858  11.903  1.00  0.00    -0.338 N 
ATOM     11  H5  UNL     1      -1.949   3.084  11.851  1.00  0.00     0.168 HD
HETATM   12  C16 UNL     1      -3.834   3.763  12.367  1.00  0.00     0.121 A 
HETATM   13  C31 UNL     1      -5.162   3.416  12.472  1.00  0.00     0.068 A 
HETATM   14  H15 UNL     1      -7.332   1.138  11.733  1.00  0.00     0.170 HD
ENDROOT
BRANCH  12  15
HETATM   15  N6  UNL     1      -3.413   5.068  12.717  1.00  0.00    -0.342 N 
HETATM   16  H17 UNL     1      -4.195   5.706  12.615  1.00  0.00     0.167 HD
BRANCH  15  17
HETATM   17  C17 UNL     1      -2.200   5.728  12.400  1.00  0.00     0.034 A 
HETATM   18  C18 UNL     1      -1.290   5.077  11.552  1.00  0.00     0.032 A 
HETATM   19  C19 UNL     1      -0.076   5.660  11.161  1.00  0.00     0.034 A 
HETATM   20  C20 UNL     1       0.194   6.950  11.627  1.00  0.00     0.062 A 
HETATM   21  C21 UNL     1      -0.707   7.651  12.422  1.00  0.00     0.011 A 
HETATM   22  N8  UNL     1       1.267   7.799  11.459  1.00  0.00    -0.288 N 
HETATM   23  C22 UNL     1      -0.090   8.900  12.647  1.00  0.00     0.121 A 
HETATM   24  C30 UNL     1      -1.922   7.044  12.797  1.00  0.00     0.044 A 
HETATM   25  N7  UNL     1       1.116   8.994  12.080  1.00  0.00    -0.308 N 
ATOM     26  H7  UNL     1       1.767   9.778  12.108  1.00  0.00     0.186 HD
BRANCH  22  27
HETATM   27  C23 UNL     1       2.533   7.492  10.798  1.00  0.00     0.187 C 
BRANCH  27  28
HETATM   28  C24 UNL     1       2.365   7.179   9.330  1.00  0.00    -0.038 A 
HETATM   29  C25 UNL     1       1.700   8.071   8.473  1.00  0.00     0.009 A 
HETATM   30  C26 UNL     1       1.560   7.780   7.117  1.00  0.00     0.001 A 
HETATM   31  C27 UNL     1       2.095   6.602   6.595  1.00  0.00     0.000 A 
HETATM   32  C28 UNL     1       2.773   5.718   7.428  1.00  0.00     0.001 A 
HETATM   33  C29 UNL     1       2.909   6.003   8.788  1.00  0.00     0.009 A 
ENDBRANCH  27  28
ENDBRANCH  22  27
ENDBRANCH  15  17
ENDBRANCH  12  15
BRANCH   1  34
HETATM   34  C10 UNL     1      -7.676   5.791  14.146  1.00  0.00     0.039 A 
HETATM   35  C2  UNL     1      -7.959   6.261  15.419  1.00  0.00    -0.033 A 
HETATM   36  C1  UNL     1      -7.098   6.162  16.629  1.00  0.00     0.050 C 
HETATM   37  C3  UNL     1      -9.229   6.892  15.347  1.00  0.00     0.044 A 
HETATM   38  C4  UNL     1      -9.705   6.803  14.049  1.00  0.00     0.102 A 
HETATM   39  N2  UNL     1      -8.744   6.116  13.341  1.00  0.00    -0.351 N 
HETATM   40  H13 UNL     1      -8.796   5.910  12.353  1.00  0.00     0.166 HD
BRANCH  38  41
HETATM   41  C5  UNL     1     -10.912   7.431  13.532  1.00  0.00     0.270 C 
HETATM   42  O1  UNL     1     -11.197   7.333  12.337  1.00  0.00    -0.266 OA
HETATM   43  N1  UNL     1     -11.757   8.123  14.407  1.00  0.00    -0.343 N 
HETATM   44  C6  UNL     1     -13.003   8.675  13.864  1.00  0.00     0.152 C 
HETATM   45  C9  UNL     1     -11.259   8.826  15.598  1.00  0.00     0.152 C 
HETATM   46  C7  UNL     1     -12.974  10.209  13.897  1.00  0.00     0.187 C 
HETATM   47  O2  UNL     1     -12.738  10.764  15.201  1.00  0.00    -0.388 OA
HETATM   48  C8  UNL     1     -12.296   9.805  16.168  1.00  0.00     0.187 C 
ENDBRANCH  38  41
ENDBRANCH   1  34
TORSDOF 6
ENDMDL
