MODEL 1
REMARK minimizedAffinity -8.37004375
REMARK  8 active torsions:
REMARK  status: ('A' for Active; 'I' for Inactive)
REMARK    1  A    between atoms: O1_2  and  C2_3 
REMARK    2  A    between atoms: C5_6  and  N1_7 
REMARK    3  A    between atoms: N1_7  and  C6_8 
REMARK    4  A    between atoms: C15_23  and  O2_24 
REMARK    5  A    between atoms: O2_24  and  C16_25 
REMARK    6  A    between atoms: C16_25  and  C17_26 
REMARK    7  A    between atoms: C17_26  and  C18_27 
REMARK    8  A    between atoms: C18_27  and  N4_28 
ROOT
HETATM    1  C2  UNL     1       6.302  -6.788  29.291  1.00  0.00     0.102 A 
HETATM    2  C3  UNL     1       7.190  -6.086  30.106  1.00  0.00     0.057 A 
HETATM    3  C4  UNL     1       6.846  -4.812  30.617  1.00  0.00     0.038 A 
HETATM    4  C5  UNL     1       7.669  -4.018  31.443  1.00  0.00     0.119 A 
HETATM    5  N2  UNL     1       7.291  -2.797  31.860  1.00  0.00    -0.338 N 
ATOM      6  H2  UNL     1       7.899  -2.218  32.440  1.00  0.00     0.168 HD
HETATM    7  C12 UNL     1       6.081  -2.378  31.481  1.00  0.00     0.182 A 
HETATM    8  N3  UNL     1       5.213  -3.056  30.722  1.00  0.00    -0.351 N 
ATOM      9  H3  UNL     1       4.299  -2.671  30.482  1.00  0.00     0.166 HD
HETATM   10  C13 UNL     1       5.599  -4.260  30.294  1.00  0.00     0.050 A 
HETATM   11  C14 UNL     1       4.721  -4.988  29.499  1.00  0.00     0.070 A 
HETATM   12  C15 UNL     1       5.044  -6.252  28.998  1.00  0.00     0.104 A 
ENDROOT
BRANCH   4  13
HETATM   13  N1  UNL     1       8.932  -4.527  31.845  1.00  0.00    -0.339 N 
HETATM   14  H5  UNL     1       8.857  -5.529  32.011  1.00  0.00     0.167 HD
BRANCH  13  15
HETATM   15  C6  UNL     1       9.860  -3.953  32.745  1.00  0.00     0.072 A 
HETATM   16  C7  UNL     1      10.863  -3.065  32.344  1.00  0.00     0.034 A 
HETATM   17  C8  UNL     1      11.798  -2.578  33.265  1.00  0.00     0.026 A 
HETATM   18  C9  UNL     1      11.750  -2.995  34.594  1.00  0.00     0.037 A 
HETATM   19 CL1  UNL     1      12.903  -2.396  35.720  1.00  0.00    -0.084 Cl
HETATM   20  C10 UNL     1      10.782  -3.900  35.013  1.00  0.00     0.068 A 
HETATM   21  C11 UNL     1       9.859  -4.374  34.085  1.00  0.00     0.144 A 
HETATM   22  F1  UNL     1       8.933  -5.259  34.490  1.00  0.00    -0.204 F 
ENDBRANCH  13  15
ENDBRANCH   4  13
BRANCH   1  23
HETATM   23  O1  UNL     1       6.605  -8.042  28.823  1.00  0.00    -0.353 OA
HETATM   24  C1  UNL     1       7.971  -8.396  29.034  1.00  0.00     0.210 C 
ENDBRANCH   1  23
BRANCH  12  25
HETATM   25  O2  UNL     1       4.232  -7.028  28.214  1.00  0.00    -0.348 OA
BRANCH  25  26
HETATM   26  C16 UNL     1       2.817  -6.857  28.273  1.00  0.00     0.177 C 
BRANCH  26  27
HETATM   27  C17 UNL     1       2.095  -8.110  27.779  1.00  0.00     0.057 C 
BRANCH  27  28
HETATM   28  C18 UNL     1       3.093  -9.130  27.220  1.00  0.00     0.274 C 
BRANCH  28  29
HETATM   29  N4  UNL     1       3.474  -8.967  25.816  1.00  0.00     0.092 N 
HETATM   30  C19 UNL     1       2.350  -8.631  24.927  1.00  0.00     0.298 C 
HETATM   31  C20 UNL     1       2.740  -8.808  23.451  1.00  0.00     0.198 C 
HETATM   32  O3  UNL     1       3.066 -10.164  23.116  1.00  0.00    -0.388 OA
HETATM   33  C21 UNL     1       3.563 -10.919  24.231  1.00  0.00     0.198 C 
HETATM   34  C22 UNL     1       4.301 -10.057  25.267  1.00  0.00     0.298 C 
ENDBRANCH  28  29
ENDBRANCH  27  28
ENDBRANCH  26  27
ENDBRANCH  25  26
ENDBRANCH  12  25
TORSDOF 8
ENDMDL
