MODEL 1
REMARK minimizedAffinity -7.03938913
REMARK CNNscore 0.765499234
REMARK CNNaffinity 6.77495241
REMARK  8 active torsions:
REMARK  status: ('A' for Active; 'I' for Inactive)
REMARK    1  A    between atoms: C2_2  and  C3_3 
REMARK       I    between atoms: C3_3  and  N1_5 
REMARK    2  A    between atoms: N1_5  and  C4_6 
REMARK    3  A    between atoms: C7_9  and  O2_10 
REMARK    4  A    between atoms: C9_12  and  N2_13 
REMARK    5  A    between atoms: N2_13  and  C10_14 
REMARK    6  A    between atoms: C12_16  and  C13_17 
REMARK    7  A    between atoms: C14_18  and  C15_19 
REMARK    8  A    between atoms: C21_28  and  S1_29 
ROOT
HETATM    1  C10 UNL     1      16.117  54.594   4.354  1.00  0.00     0.106 A 
HETATM    2  C11 UNL     1      16.124  55.703   3.511  1.00  0.00     0.062 A 
HETATM    3  C12 UNL     1      14.923  56.349   3.208  1.00  0.00    -0.002 A 
HETATM    4  C24 UNL     1      13.739  55.864   3.752  1.00  0.00     0.031 A 
HETATM    5  C25 UNL     1      13.815  54.762   4.580  1.00  0.00     0.090 A 
HETATM    6  N5  UNL     1      14.969  54.136   4.892  1.00  0.00    -0.352 N 
ATOM      7  H5  UNL     1      14.972  53.332   5.521  1.00  0.00     0.166 HD
ENDROOT
BRANCH   1   8
HETATM    8  N2  UNL     1      17.348  53.954   4.607  1.00  0.00    -0.340 N 
HETATM    9  H10 UNL     1      18.086  54.638   4.753  1.00  0.00     0.167 HD
BRANCH   8  10
HETATM   10  C9  UNL     1      17.594  52.828   5.440  1.00  0.00     0.069 A 
HETATM   11  C7  UNL     1      18.619  52.917   6.408  1.00  0.00     0.095 A 
HETATM   12  C6  UNL     1      18.915  51.813   7.207  1.00  0.00     0.041 A 
HETATM   13  C5  UNL     1      18.214  50.617   7.034  1.00  0.00     0.032 A 
HETATM   14  C4  UNL     1      17.215  50.500   6.061  1.00  0.00     0.037 A 
HETATM   15  C26 UNL     1      16.916  51.609   5.265  1.00  0.00     0.062 A 
BRANCH  11  16
HETATM   16  O2  UNL     1      19.247  54.140   6.483  1.00  0.00    -0.354 OA
HETATM   17  C8  UNL     1      19.158  54.834   7.721  1.00  0.00     0.210 C 
ENDBRANCH  11  16
BRANCH  14  18
HETATM   18  N1  UNL     1      16.584  49.243   5.942  1.00  0.00    -0.324 N 
HETATM   19  C3  UNL     1      17.151  47.999   6.099  1.00  0.00     0.244 C 
HETATM   20  O1  UNL     1      18.323  47.724   6.315  1.00  0.00    -0.268 OA
HETATM   21  H4  UNL     1      15.609  49.263   5.681  1.00  0.00     0.169 HD
BRANCH  19  22
HETATM   22  C2  UNL     1      16.190  46.874   5.917  1.00  0.00     0.064 C 
HETATM   23  C1  UNL     1      14.969  46.808   6.466  1.00  0.00     0.017 C 
ENDBRANCH  19  22
ENDBRANCH  14  18
ENDBRANCH   8  10
ENDBRANCH   1   8
BRANCH   3  24
HETATM   24  C13 UNL     1      14.906  57.499   2.309  1.00  0.00     0.074 A 
HETATM   25  C14 UNL     1      14.621  57.606   0.950  1.00  0.00     0.072 A 
HETATM   26  N3  UNL     1      14.688  58.917   0.535  1.00  0.00    -0.334 N 
HETATM   27  C21 UNL     1      15.025  59.604   1.597  1.00  0.00     0.146 A 
ATOM     28  H3  UNL     1      14.511  59.278  -0.402  1.00  0.00     0.168 HD
HETATM   29  N4  UNL     1      15.140  58.807   2.706  1.00  0.00    -0.329 N 
HETATM   30  C23 UNL     1      15.418  59.261   4.050  1.00  0.00     0.158 C 
BRANCH  25  31
HETATM   31  C15 UNL     1      14.262  56.537   0.028  1.00  0.00    -0.007 A 
HETATM   32  C16 UNL     1      15.226  55.775  -0.647  1.00  0.00     0.017 A 
HETATM   33  C17 UNL     1      14.839  54.757  -1.524  1.00  0.00     0.043 A 
HETATM   34  C18 UNL     1      13.488  54.510  -1.734  1.00  0.00     0.116 A 
HETATM   35  F1  UNL     1      13.119  53.534  -2.575  1.00  0.00    -0.206 F 
HETATM   36  C19 UNL     1      12.516  55.264  -1.091  1.00  0.00     0.043 A 
HETATM   37  C20 UNL     1      12.904  56.278  -0.213  1.00  0.00     0.017 A 
ENDBRANCH  25  31
BRANCH  27  38
HETATM   38  S1  UNL     1      15.302  61.315   1.628  1.00  0.00    -0.098 SA
HETATM   39  C22 UNL     1      13.613  61.927   1.435  1.00  0.00     0.099 C 
ENDBRANCH  27  38
ENDBRANCH   3  24
TORSDOF 8
ENDMDL
