MODEL 1
REMARK minimizedAffinity -8.56243992
REMARK CNNscore 0.492553771
REMARK CNNaffinity 7.70315933
REMARK  11 active torsions:
REMARK  status: ('A' for Active; 'I' for Inactive)
REMARK    1  A    between atoms: C2_2  and  N1_3 
REMARK    2  A    between atoms: N1_3  and  C3_4 
REMARK    3  A    between atoms: N1_3  and  C5_6 
REMARK    4  A    between atoms: C5_6  and  C6_7 
REMARK    5  A    between atoms: C6_7  and  O1_8 
REMARK    6  A    between atoms: C6_7  and  C7_9 
REMARK    7  A    between atoms: C7_9  and  N2_10 
REMARK       I    between atoms: N2_10  and  C8_11 
REMARK    8  A    between atoms: C8_11  and  C9_13 
REMARK    9  A    between atoms: C13_17  and  C14_18 
REMARK   10  A    between atoms: C19_29  and  N6_30 
REMARK   11  A    between atoms: N6_30  and  C20_31 
ROOT
HETATM    1  C14 UNL     1      -3.646   5.490  12.963  1.00  0.00     0.048 C 
HETATM    2  C15 UNL     1      -3.741   4.343  12.270  1.00  0.00     0.052 A 
HETATM    3  C16 UNL     1      -2.750   3.697  11.334  1.00  0.00     0.258 A 
HETATM    4  O3  UNL     1      -1.602   4.025  11.111  1.00  0.00    -0.267 OA
HETATM    5  N3  UNL     1      -3.417   2.633  10.771  1.00  0.00    -0.308 N 
HETATM    6  C17 UNL     1      -4.696   2.503  11.284  1.00  0.00     0.124 A 
HETATM    7  N4  UNL     1      -5.526   1.532  10.914  1.00  0.00    -0.338 N 
ATOM      8  H4  UNL     1      -5.293   0.830  10.211  1.00  0.00     0.168 HD
HETATM    9  C18 UNL     1      -6.695   1.570  11.559  1.00  0.00     0.183 A 
HETATM   10  N5  UNL     1      -7.046   2.452  12.517  1.00  0.00    -0.338 N 
ATOM     11  H5  UNL     1      -7.962   2.400  12.964  1.00  0.00     0.168 HD
HETATM   12  C19 UNL     1      -6.157   3.406  12.871  1.00  0.00     0.121 A 
HETATM   13  C26 UNL     1      -4.943   3.485  12.227  1.00  0.00     0.068 A 
HETATM   14  H23 UNL     1      -3.019   2.001  10.095  1.00  0.00     0.170 HD
ENDROOT
BRANCH   1  15
HETATM   15  C13 UNL     1      -2.565   6.411  13.071  1.00  0.00     0.039 A 
HETATM   16  C11 UNL     1      -2.566   7.801  13.040  1.00  0.00    -0.033 A 
HETATM   17  C10 UNL     1      -1.219   8.229  13.217  1.00  0.00     0.044 A 
HETATM   18  C12 UNL     1      -3.739   8.700  12.857  1.00  0.00     0.050 C 
HETATM   19  C9  UNL     1      -0.420   7.108  13.353  1.00  0.00     0.101 A 
HETATM   20  N7  UNL     1      -1.263   6.020  13.267  1.00  0.00    -0.351 N 
HETATM   21  H29 UNL     1      -0.925   5.062  13.319  1.00  0.00     0.166 HD
BRANCH  19  22
HETATM   22  C8  UNL     1       1.002   6.955  13.560  1.00  0.00     0.268 C 
HETATM   23  N2  UNL     1       1.537   7.726  14.562  1.00  0.00    -0.353 N 
HETATM   24  H17 UNL     1       0.983   8.490  14.922  1.00  0.00     0.162 HD
HETATM   25  O2  UNL     1       1.706   6.224  12.868  1.00  0.00    -0.266 OA
BRANCH  23  26
HETATM   26  C7  UNL     1       2.964   7.770  14.842  1.00  0.00     0.156 C 
BRANCH  26  27
HETATM   27  C6  UNL     1       3.796   8.590  13.834  1.00  0.00     0.164 C 
BRANCH  27  28
HETATM   28  C5  UNL     1       5.326   8.468  14.025  1.00  0.00     0.305 C 
BRANCH  28  29
HETATM   29  N1  UNL     1       5.960   7.353  13.281  1.00  0.00     0.090 N 
BRANCH  29  30
HETATM   30  C2  UNL     1       7.400   7.645  13.125  1.00  0.00     0.268 C 
HETATM   31  C1  UNL     1       8.159   7.769  14.442  1.00  0.00     0.037 C 
ENDBRANCH  29  30
BRANCH  29  32
HETATM   32  C3  UNL     1       5.293   7.143  11.982  1.00  0.00     0.268 C 
HETATM   33  C4  UNL     1       6.213   7.549  10.835  1.00  0.00     0.037 C 
ENDBRANCH  29  32
ENDBRANCH  28  29
ENDBRANCH  27  28
BRANCH  27  34
HETATM   34  O1  UNL     1       3.432   9.978  13.875  1.00  0.00    -0.392 OA
HETATM   35  H14 UNL     1       3.197  10.198  14.804  1.00  0.00     0.210 HD
ENDBRANCH  27  34
ENDBRANCH  26  27
ENDBRANCH  23  26
ENDBRANCH  19  22
ENDBRANCH   1  15
BRANCH  12  36
HETATM   36  N6  UNL     1      -6.464   4.293  13.930  1.00  0.00    -0.342 N 
HETATM   37  H25 UNL     1      -6.351   3.800  14.811  1.00  0.00     0.167 HD
BRANCH  36  38
HETATM   38  C20 UNL     1      -7.513   5.239  14.001  1.00  0.00     0.035 A 
HETATM   39  C21 UNL     1      -8.393   5.359  12.912  1.00  0.00     0.032 A 
HETATM   40  C22 UNL     1      -9.473   6.245  12.953  1.00  0.00     0.046 A 
HETATM   41  C23 UNL     1      -9.698   7.000  14.098  1.00  0.00     0.138 A 
HETATM   42  F1  UNL     1     -10.737   7.846  14.117  1.00  0.00    -0.204 F 
HETATM   43  C24 UNL     1      -8.865   6.866  15.203  1.00  0.00     0.074 A 
HETATM   44 CL1  UNL     1      -9.157   7.775  16.636  1.00  0.00    -0.081 Cl
HETATM   45  C25 UNL     1      -7.785   5.979  15.160  1.00  0.00     0.056 A 
ENDBRANCH  36  38
ENDBRANCH  12  36
TORSDOF 11
ENDMDL
