MODEL 1
REMARK minimizedAffinity -7.95266056
REMARK  3 active torsions:
REMARK  status: ('A' for Active; 'I' for Inactive)
REMARK    1  A    between atoms: N1_1  and  C1_2 
REMARK    2  A    between atoms: C2_5  and  N3_6 
REMARK    3  A    between atoms: N3_6  and  C3_7 
ROOT
HETATM    1  C1  UNL     1      12.458  35.980  16.151  1.00  0.00     0.156 A 
HETATM    2  N2  UNL     1      13.406  35.290  16.813  1.00  0.00    -0.323 N 
ATOM      3  H2  UNL     1      14.355  35.216  16.444  1.00  0.00     0.169 HD
HETATM    4  C2  UNL     1      13.069  34.698  17.976  1.00  0.00     0.096 A 
HETATM    5  C9  UNL     1      11.811  34.841  18.483  1.00  0.00     0.012 A 
HETATM    6  C10 UNL     1      10.926  35.596  17.731  1.00  0.00     0.055 A 
HETATM    7  N4  UNL     1      11.205  36.179  16.565  1.00  0.00    -0.332 N 
ATOM      8  H4  UNL     1      10.524  36.726  16.039  1.00  0.00     0.168 HD
HETATM    9  C11 UNL     1       9.660  35.678  18.421  1.00  0.00    -0.002 A 
HETATM   10  C12 UNL     1       8.478  36.309  18.076  1.00  0.00     0.014 A 
HETATM   11  C13 UNL     1       7.401  36.219  18.962  1.00  0.00     0.001 A 
HETATM   12  C14 UNL     1       7.516  35.508  20.170  1.00  0.00     0.001 A 
HETATM   13  C15 UNL     1       8.711  34.871  20.517  1.00  0.00     0.008 A 
HETATM   14  C16 UNL     1       9.772  34.965  19.634  1.00  0.00    -0.041 A 
HETATM   15  C17 UNL     1      11.167  34.374  19.758  1.00  0.00     0.083 A 
ENDROOT
BRANCH   4  16
HETATM   16  N3  UNL     1      14.083  33.995  18.645  1.00  0.00    -0.245 NA
HETATM   17  H3  UNL     1      13.604  33.210  19.091  1.00  0.00     0.135 HD
BRANCH  16  18
HETATM   18  C3  UNL     1      15.006  34.542  19.568  1.00  0.00     0.013 A 
HETATM   19  C4  UNL     1      14.644  34.595  20.919  1.00  0.00     0.024 A 
HETATM   20  C5  UNL     1      15.488  35.187  21.862  1.00  0.00     0.002 A 
HETATM   21  C6  UNL     1      16.693  35.757  21.457  1.00  0.00     0.000 A 
HETATM   22  C7  UNL     1      17.047  35.744  20.110  1.00  0.00     0.002 A 
HETATM   23  C8  UNL     1      16.202  35.152  19.169  1.00  0.00     0.024 A 
ENDBRANCH  16  18
ENDBRANCH   4  16
BRANCH   1  24
HETATM   24  N1  UNL     1      12.829  36.575  14.963  1.00  0.00    -0.274 NA
HETATM   25  H1  UNL     1      13.824  36.744  14.958  1.00  0.00     0.127 HD
HETATM   26  H2  UNL     1      12.224  37.363  14.777  1.00  0.00     0.127 HD
ENDBRANCH   1  24
TORSDOF 3
ENDMDL
