MODEL 1
REMARK minimizedAffinity -8.71198845
REMARK CNNscore 0.574148893
REMARK CNNaffinity 7.26580238
REMARK  9 active torsions:
REMARK  status: ('A' for Active; 'I' for Inactive)
REMARK    1  A    between atoms: C2_2  and  C3_3 
REMARK       I    between atoms: C3_3  and  N1_5 
REMARK    2  A    between atoms: N1_5  and  C4_6 
REMARK    3  A    between atoms: C4_6  and  C5_7 
REMARK    4  A    between atoms: C5_7  and  O2_8 
REMARK    5  A    between atoms: O2_8  and  C6_9 
REMARK    6  A    between atoms: C8_11  and  C9_12 
REMARK    7  A    between atoms: C9_12  and  C10_13 
REMARK    8  A    between atoms: C18_22  and  C19_23 
REMARK    9  A    between atoms: C22_29  and  C23_30 
ROOT
HETATM    1  C6  UNL     1      -7.840   8.243  15.005  1.00  0.00     0.082 A 
HETATM    2  C7  UNL     1      -9.106   8.790  15.269  1.00  0.00     0.045 A 
HETATM    3  C8  UNL     1     -10.292   8.138  14.881  1.00  0.00    -0.049 A 
HETATM    4  C16 UNL     1     -10.233   6.908  14.208  1.00  0.00     0.038 A 
HETATM    5  C17 UNL     1      -8.969   6.365  13.958  1.00  0.00     0.046 A 
HETATM    6  N2  UNL     1      -8.619   5.189  13.335  1.00  0.00    -0.354 N 
HETATM    7  C18 UNL     1      -7.256   5.043  13.319  1.00  0.00     0.062 A 
HETATM    8  C27 UNL     1      -6.710   6.147  13.929  1.00  0.00     0.048 A 
HETATM    9  C28 UNL     1      -7.785   6.995  14.341  1.00  0.00     0.026 A 
HETATM   10  H18 UNL     1      -9.255   4.503  12.951  1.00  0.00     0.166 HD
ENDROOT
BRANCH   7  11
HETATM   11  C19 UNL     1      -6.564   3.797  12.698  1.00  0.00     0.087 A 
HETATM   12  N3  UNL     1      -7.310   2.714  12.432  1.00  0.00    -0.297 N 
HETATM   13  N4  UNL     1      -6.423   1.838  11.936  1.00  0.00    -0.299 N 
ATOM     14  H3  UNL     1      -8.312   2.586  12.573  1.00  0.00     0.187 HD
HETATM   15  C20 UNL     1      -5.142   2.314  11.855  1.00  0.00     0.061 A 
HETATM   16  H19 UNL     1      -6.755   0.918  11.669  1.00  0.00     0.187 HD
HETATM   17  C21 UNL     1      -3.962   1.714  11.401  1.00  0.00     0.044 A 
HETATM   18  C26 UNL     1      -5.197   3.613  12.356  1.00  0.00     0.022 A 
HETATM   19  C22 UNL     1      -2.778   2.468  11.462  1.00  0.00     0.008 A 
HETATM   20  C24 UNL     1      -2.809   3.780  11.957  1.00  0.00     0.013 A 
HETATM   21  C25 UNL     1      -4.004   4.362  12.407  1.00  0.00     0.017 A 
BRANCH  19  22
HETATM   22  C23 UNL     1      -1.477   1.881  10.970  1.00  0.00     0.386 C 
HETATM   23  F1  UNL     1      -1.457   0.520  11.007  1.00  0.00    -0.209 F 
HETATM   24  F2  UNL     1      -0.405   2.288  11.707  1.00  0.00    -0.209 F 
ENDBRANCH  19  22
ENDBRANCH   7  11
BRANCH   1  25
HETATM   25  O2  UNL     1      -6.643   8.812  15.343  1.00  0.00    -0.349 OA
BRANCH  25  26
HETATM   26  C5  UNL     1      -5.450   8.385  14.678  1.00  0.00     0.195 C 
BRANCH  26  27
HETATM   27  C4  UNL     1      -4.420   9.512  14.589  1.00  0.00     0.149 C 
BRANCH  27  28
HETATM   28  N1  UNL     1      -4.611  10.496  15.638  1.00  0.00    -0.356 N 
HETATM   29  C3  UNL     1      -3.547  10.981  16.354  1.00  0.00     0.240 C 
HETATM   30  O1  UNL     1      -2.375  10.758  16.084  1.00  0.00    -0.269 OA
HETATM   31  H4  UNL     1      -5.541  10.546  16.037  1.00  0.00     0.162 HD
BRANCH  29  32
HETATM   32  C2  UNL     1      -3.964  11.800  17.519  1.00  0.00     0.064 C 
HETATM   33  C1  UNL     1      -3.588  11.460  18.760  1.00  0.00     0.017 C 
ENDBRANCH  29  32
ENDBRANCH  27  28
ENDBRANCH  26  27
ENDBRANCH  25  26
ENDBRANCH   1  25
BRANCH   3  34
HETATM   34  C9  UNL     1     -11.638   8.770  15.180  1.00  0.00     0.077 C 
BRANCH  34  35
HETATM   35  C10 UNL     1     -12.800   8.092  14.487  1.00  0.00    -0.054 A 
HETATM   36  C11 UNL     1     -13.294   8.583  13.269  1.00  0.00     0.007 A 
HETATM   37  C12 UNL     1     -14.377   7.964  12.643  1.00  0.00     0.001 A 
HETATM   38  C13 UNL     1     -14.975   6.848  13.225  1.00  0.00     0.000 A 
HETATM   39  C14 UNL     1     -14.491   6.349  14.435  1.00  0.00     0.001 A 
HETATM   40  C15 UNL     1     -13.410   6.967  15.064  1.00  0.00     0.007 A 
ENDBRANCH  34  35
ENDBRANCH   3  34
TORSDOF 9
ENDMDL
