MODEL 1
REMARK minimizedAffinity -9.65617466
REMARK  6 active torsions:
REMARK  status: ('A' for Active; 'I' for Inactive)
REMARK    1  A    between atoms: C2_2  and  C3_3 
REMARK       I    between atoms: C3_3  and  N1_5 
REMARK    2  A    between atoms: C13_17  and  C14_18 
REMARK    3  A    between atoms: C17_23  and  N4_24 
REMARK    4  A    between atoms: N4_24  and  C18_25 
REMARK    5  A    between atoms: C23_30  and  O3_31 
REMARK    6  A    between atoms: O3_31  and  C24_32 
ROOT
HETATM    1  C3  UNL     1       7.955   9.122  13.076  1.00  0.00     0.242 C 
HETATM    2  O1  UNL     1       8.558  10.008  12.473  1.00  0.00    -0.268 OA
HETATM    3  N1  UNL     1       6.588   8.929  12.974  1.00  0.00    -0.349 N 
HETATM    4  C4  UNL     1       5.768   8.182  13.923  1.00  0.00     0.127 C 
HETATM    5  C5  UNL     1       4.803   7.243  13.197  1.00  0.00     0.037 C 
HETATM    6  C6  UNL     1       4.253   7.837  11.869  1.00  0.00     0.022 C 
HETATM    7  C7  UNL     1       4.407   9.373  11.865  1.00  0.00     0.037 C 
HETATM    8  C8  UNL     1       5.866   9.795  12.048  1.00  0.00     0.127 C 
HETATM    9  C9  UNL     1       5.034   7.229  10.648  1.00  0.00     0.139 C 
HETATM   10  N2  UNL     1       4.647   5.861  10.312  1.00  0.00    -0.356 N 
HETATM   11  C10 UNL     1       3.326   5.458  10.249  1.00  0.00     0.253 C 
HETATM   12  O2  UNL     1       2.997   4.438   9.657  1.00  0.00    -0.268 OA
HETATM   13  C11 UNL     1       2.396   6.330  10.950  1.00  0.00     0.057 A 
HETATM   14  C12 UNL     1       0.986   6.278  11.059  1.00  0.00     0.051 A 
HETATM   15  C13 UNL     1       0.561   7.331  11.863  1.00  0.00     0.061 A 
HETATM   16  N6  UNL     1       1.703   8.015  12.237  1.00  0.00    -0.356 N 
HETATM   17  C27 UNL     1       2.810   7.422  11.689  1.00  0.00     0.036 A 
HETATM   18  H14 UNL     1       5.250   5.312   9.712  1.00  0.00     0.162 HD
HETATM   19  H30 UNL     1       1.717   8.834  12.828  1.00  0.00     0.166 HD
ENDROOT
BRANCH  15  20
HETATM   20  C14 UNL     1      -0.798   7.695  12.273  1.00  0.00     0.077 A 
HETATM   21  C15 UNL     1      -1.250   8.993  12.343  1.00  0.00     0.050 A 
HETATM   22  C16 UNL     1      -2.550   9.140  12.753  1.00  0.00     0.108 A 
HETATM   23  N3  UNL     1      -3.352   8.110  13.068  1.00  0.00    -0.202 N 
HETATM   24  C17 UNL     1      -2.837   6.875  12.974  1.00  0.00     0.683 A 
ATOM     25  H3  UNL     1      -4.315   8.261  13.368  1.00  0.00     0.183 HD
HETATM   26  N5  UNL     1      -1.576   6.640  12.583  1.00  0.00    -0.189 N 
ATOM     27  H5  UNL     1      -1.215   5.688  12.521  1.00  0.00     0.184 HD
BRANCH  24  28
HETATM   28  N4  UNL     1      -3.580   5.744  13.277  1.00  0.00    -0.189 N 
HETATM   29  H18 UNL     1      -2.976   4.989  13.577  1.00  0.00     0.184 HD
BRANCH  28  30
HETATM   30  C18 UNL     1      -4.942   5.408  13.244  1.00  0.00     0.082 A 
HETATM   31  C19 UNL     1      -5.969   6.327  13.480  1.00  0.00     0.033 A 
HETATM   32  C20 UNL     1      -7.310   5.936  13.436  1.00  0.00     0.002 A 
HETATM   33  C21 UNL     1      -7.642   4.616  13.151  1.00  0.00     0.003 A 
HETATM   34  C22 UNL     1      -6.635   3.679  12.912  1.00  0.00     0.039 A 
HETATM   35  C23 UNL     1      -5.292   4.063  12.966  1.00  0.00     0.096 A 
BRANCH  35  36
HETATM   36  O3  UNL     1      -4.223   3.226  12.738  1.00  0.00    -0.344 OA
BRANCH  36  37
HETATM   37  C24 UNL     1      -4.143   2.516  11.498  1.00  0.00     0.120 C 
HETATM   38  C25 UNL     1      -5.403   1.677  11.306  1.00  0.00     0.040 C 
HETATM   39  C26 UNL     1      -4.045   3.569  10.398  1.00  0.00     0.040 C 
ENDBRANCH  36  37
ENDBRANCH  35  36
ENDBRANCH  28  30
ENDBRANCH  24  28
ENDBRANCH  15  20
BRANCH   1  40
HETATM   40  C2  UNL     1       8.732   8.216  13.953  1.00  0.00     0.064 C 
HETATM   41  C1  UNL     1      10.073   8.210  13.950  1.00  0.00     0.017 C 
ENDBRANCH   1  40
TORSDOF 6
ENDMDL
