MODEL 1
REMARK minimizedAffinity -7.33297586
REMARK  3 active torsions:
REMARK  status: ('A' for Active; 'I' for Inactive)
REMARK    1  A    between atoms: C2_2  and  C3_3 
REMARK       I    between atoms: C3_3  and  N1_5 
REMARK    2  A    between atoms: C10_17  and  N4_18 
REMARK    3  A    between atoms: N4_18  and  C11_19 
ROOT
HETATM    1  C3  UNL     1      11.519  56.957  -1.947  1.00  0.00     0.242 C 
HETATM    2  O1  UNL     1      11.203  55.778  -1.802  1.00  0.00    -0.268 OA
HETATM    3  N1  UNL     1      12.688  57.490  -1.429  1.00  0.00    -0.344 N 
HETATM    4  C4  UNL     1      13.593  56.577  -0.721  1.00  0.00     0.131 C 
HETATM    5  C5  UNL     1      13.304  56.589   0.789  1.00  0.00     0.060 C 
HETATM    6  C6  UNL     1      13.181  58.005   1.293  1.00  0.00    -0.025 A 
HETATM    7  C7  UNL     1      12.987  59.043   0.393  1.00  0.00     0.010 A 
HETATM    8  S1  UNL     1      12.933  60.560   1.155  1.00  0.00    -0.074 SA
HETATM    9  C8  UNL     1      13.139  59.860   2.694  1.00  0.00     0.090 A 
HETATM   10  N2  UNL     1      13.191  60.649   3.779  1.00  0.00    -0.346 N 
ATOM     11  H2  UNL     1      13.118  61.665   3.746  1.00  0.00     0.167 HD
HETATM   12  C9  UNL     1      13.349  59.951   4.901  1.00  0.00     0.182 A 
HETATM   13  N3  UNL     1      13.436  58.621   5.026  1.00  0.00    -0.338 N 
ATOM     14  H3  UNL     1      13.558  58.201   5.948  1.00  0.00     0.168 HD
HETATM   15  C10 UNL     1      13.363  57.835   3.925  1.00  0.00     0.120 A 
HETATM   16  C18 UNL     1      13.230  58.473   2.664  1.00  0.00     0.049 A 
HETATM   17  C19 UNL     1      12.871  58.914  -1.103  1.00  0.00     0.172 C 
ENDROOT
BRANCH  15  18
HETATM   18  N4  UNL     1      13.376  56.435   4.044  1.00  0.00    -0.342 N 
HETATM   19  H9  UNL     1      12.451  56.038   4.104  1.00  0.00     0.167 HD
BRANCH  18  20
HETATM   20  C11 UNL     1      14.403  55.527   4.362  1.00  0.00     0.034 A 
HETATM   21  C12 UNL     1      14.059  54.309   4.964  1.00  0.00     0.031 A 
HETATM   22  C13 UNL     1      15.034  53.364   5.295  1.00  0.00     0.022 A 
HETATM   23  C14 UNL     1      16.377  53.619   5.023  1.00  0.00     0.017 A 
HETATM   24 BR1  UNL     1      17.641  52.286   5.502  1.00  0.00    -0.051 Br
HETATM   25  C15 UNL     1      16.758  54.820   4.413  1.00  0.00    -0.043 A 
HETATM   26  C16 UNL     1      18.191  55.143   4.091  1.00  0.00     0.049 C 
HETATM   27  C17 UNL     1      15.757  55.758   4.088  1.00  0.00     0.037 A 
ENDBRANCH  18  20
ENDBRANCH  15  18
BRANCH   1  28
HETATM   28  C2  UNL     1      10.656  57.873  -2.739  1.00  0.00     0.064 C 
HETATM   29  C1  UNL     1       9.876  57.392  -3.716  1.00  0.00     0.017 C 
ENDBRANCH   1  28
TORSDOF 3
ENDMDL
