MODEL 1
REMARK minimizedAffinity -8.56476307
REMARK  8 active torsions:
REMARK  status: ('A' for Active; 'I' for Inactive)
REMARK    1  A    between atoms: C4_4  and  N1_5 
REMARK    2  A    between atoms: N1_5  and  C5_6 
REMARK    3  A    between atoms: C5_6  and  C6_7 
REMARK    4  A    between atoms: C6_7  and  N2_8 
REMARK    5  A    between atoms: N2_8  and  C7_9 
REMARK    6  A    between atoms: N2_8  and  N7_30 
REMARK    7  A    between atoms: C11_17  and  N5_18 
REMARK    8  A    between atoms: N5_18  and  C12_19 
ROOT
HETATM    1  C7  UNL     1      15.565  37.511  15.802  1.00  0.00     0.095 A 
HETATM    2  C8  UNL     1      16.268  36.629  16.607  1.00  0.00     0.069 A 
HETATM    3  C9  UNL     1      15.459  35.652  17.255  1.00  0.00     0.056 A 
HETATM    4  N3  UNL     1      15.921  34.673  18.068  1.00  0.00    -0.351 N 
ATOM      5  H3  UNL     1      16.907  34.560  18.301  1.00  0.00     0.166 HD
HETATM    6  C10 UNL     1      14.965  33.868  18.536  1.00  0.00     0.182 A 
HETATM    7  N4  UNL     1      13.649  33.935  18.291  1.00  0.00    -0.337 N 
ATOM      8  H4  UNL     1      13.012  33.256  18.707  1.00  0.00     0.168 HD
HETATM    9  C11 UNL     1      13.172  34.914  17.488  1.00  0.00     0.126 A 
HETATM   10  C20 UNL     1      14.116  35.807  16.953  1.00  0.00     0.077 A 
HETATM   11  S1  UNL     1      13.882  37.151  15.913  1.00  0.00    -0.065 SA
ENDROOT
BRANCH   1  12
HETATM   12  N2  UNL     1      16.095  38.533  15.046  1.00  0.00    -0.279 N 
BRANCH  12  13
HETATM   13  C6  UNL     1      17.055  38.307  13.945  1.00  0.00     0.165 C 
BRANCH  13  14
HETATM   14  C5  UNL     1      17.346  36.805  13.720  1.00  0.00     0.114 C 
BRANCH  14  15
HETATM   15  N1  UNL     1      16.792  36.366  12.438  1.00  0.00    -0.291 NA
HETATM   16  H4  UNL     1      16.874  37.098  11.732  1.00  0.00     0.127 HD
BRANCH  15  17
HETATM   17  C4  UNL     1      17.171  35.118  11.929  1.00  0.00     0.008 A 
HETATM   18  C3  UNL     1      18.273  34.925  11.087  1.00  0.00     0.023 A 
HETATM   19  C2  UNL     1      18.650  33.644  10.667  1.00  0.00     0.002 A 
HETATM   20  C1  UNL     1      17.948  32.528  11.110  1.00  0.00     0.000 A 
HETATM   21  C26 UNL     1      16.878  32.693  11.984  1.00  0.00     0.002 A 
HETATM   22  C25 UNL     1      16.505  33.977  12.398  1.00  0.00     0.023 A 
ENDBRANCH  15  17
ENDBRANCH  14  15
ENDBRANCH  13  14
ENDBRANCH  12  13
BRANCH  12  23
HETATM   23  N7  UNL     1      16.132  39.835  15.539  1.00  0.00    -0.276 N 
HETATM   24  C21 UNL     1      16.668  40.924  14.896  1.00  0.00     0.116 A 
HETATM   25  C22 UNL     1      16.510  42.028  15.704  1.00  0.00     0.021 A 
HETATM   26  C23 UNL     1      15.862  41.593  16.884  1.00  0.00     0.021 A 
HETATM   27  C24 UNL     1      15.649  40.237  16.758  1.00  0.00     0.116 A 
ENDBRANCH  12  23
ENDBRANCH   1  12
BRANCH   9  28
HETATM   28  N5  UNL     1      11.810  35.048  17.183  1.00  0.00    -0.341 N 
HETATM   29  H11 UNL     1      11.624  34.948  16.192  1.00  0.00     0.167 HD
BRANCH  28  30
HETATM   30  C12 UNL     1      10.668  35.312  17.962  1.00  0.00     0.034 A 
HETATM   31  C13 UNL     1       9.591  35.974  17.353  1.00  0.00     0.032 A 
HETATM   32  C14 UNL     1       8.407  36.282  18.038  1.00  0.00     0.033 A 
HETATM   33  C15 UNL     1       8.326  35.902  19.377  1.00  0.00     0.042 A 
HETATM   34  N6  UNL     1       7.311  36.069  20.292  1.00  0.00    -0.365 N 
HETATM   35  C18 UNL     1       9.361  35.234  20.026  1.00  0.00    -0.006 A 
HETATM   36  C16 UNL     1       7.665  35.519  21.494  1.00  0.00     0.089 A 
HETATM   37  H14 UNL     1       6.432  36.525  20.093  1.00  0.00     0.165 HD
HETATM   38  C17 UNL     1       8.930  34.996  21.362  1.00  0.00     0.030 A 
HETATM   39  C19 UNL     1      10.538  34.936  19.307  1.00  0.00     0.043 A 
ENDBRANCH  28  30
ENDBRANCH   9  28
TORSDOF 8
ENDMDL
