MODEL 1
REMARK minimizedAffinity -7.69420242
REMARK CNNscore 0.842545271
REMARK CNNaffinity 5.96904802
REMARK  3 active torsions:
REMARK  status: ('A' for Active; 'I' for Inactive)
REMARK    1  A    between atoms: C4_5  and  C5_6 
REMARK    2  A    between atoms: N2_9  and  C6_10 
REMARK    3  A    between atoms: C12_16  and  C13_17 
ROOT
HETATM    1  C5  UNL     1      17.226  52.118   5.422  1.00  0.00     0.038 C 
HETATM    2  N1  UNL     1      16.684  50.961   5.658  1.00  0.00    -0.301 N 
ATOM      3  H1  UNL     1      15.691  50.733   5.601  1.00  0.00     0.187 HD
HETATM    4  N2  UNL     1      17.695  50.106   5.998  1.00  0.00    -0.283 N 
HETATM    5  C12 UNL     1      18.988  50.776   6.140  1.00  0.00     0.147 C 
HETATM    6  C23 UNL     1      18.726  52.148   5.517  1.00  0.00     0.091 C 
ENDROOT
BRANCH   5   7
HETATM    7  C13 UNL     1      19.453  50.916   7.583  1.00  0.00    -0.032 A 
HETATM    8  C14 UNL     1      20.148  49.859   8.187  1.00  0.00     0.010 A 
HETATM    9  C15 UNL     1      20.610  49.968   9.502  1.00  0.00     0.013 A 
HETATM   10  C16 UNL     1      20.396  51.139  10.244  1.00  0.00    -0.026 A 
HETATM   11  C17 UNL     1      20.853  51.263  11.566  1.00  0.00     0.012 A 
HETATM   12  C21 UNL     1      19.703  52.215   9.647  1.00  0.00    -0.025 A 
HETATM   13  C18 UNL     1      20.628  52.434  12.291  1.00  0.00     0.001 A 
HETATM   14  C19 UNL     1      19.944  53.495  11.703  1.00  0.00     0.001 A 
HETATM   15  C20 UNL     1      19.485  53.387  10.390  1.00  0.00     0.012 A 
HETATM   16  C22 UNL     1      19.245  52.091   8.325  1.00  0.00     0.021 A 
ENDBRANCH   5   7
BRANCH   4  17
HETATM   17  C6  UNL     1      17.459  48.740   6.144  1.00  0.00     0.051 A 
HETATM   18  C7  UNL     1      16.151  48.226   6.108  1.00  0.00     0.031 A 
HETATM   19  C8  UNL     1      15.887  46.860   6.251  1.00  0.00     0.002 A 
HETATM   20  C9  UNL     1      16.934  45.966   6.437  1.00  0.00     0.000 A 
HETATM   21  C10 UNL     1      18.240  46.441   6.477  1.00  0.00     0.002 A 
HETATM   22  C11 UNL     1      18.496  47.811   6.330  1.00  0.00     0.031 A 
ENDBRANCH   4  17
BRANCH   1  23
HETATM   23  C4  UNL     1      16.441  53.319   5.056  1.00  0.00    -0.012 A 
HETATM   24  C3  UNL     1      17.048  54.449   4.495  1.00  0.00     0.015 A 
HETATM   25  C2  UNL     1      16.276  55.568   4.165  1.00  0.00     0.020 A 
HETATM   26  C1  UNL     1      14.901  55.556   4.395  1.00  0.00     0.011 A 
HETATM   27 BR1  UNL     1      13.862  57.070   3.946  1.00  0.00    -0.051 Br
HETATM   28  C25 UNL     1      14.287  54.436   4.951  1.00  0.00     0.020 A 
HETATM   29  C24 UNL     1      15.058  53.318   5.281  1.00  0.00     0.015 A 
ENDBRANCH   1  23
TORSDOF 3
ENDMDL
