MODEL 1
REMARK minimizedAffinity -7.16599607
REMARK  3 active torsions:
REMARK  status: ('A' for Active; 'I' for Inactive)
REMARK    1  A    between atoms: C5_5  and  N1_6 
REMARK    2  A    between atoms: N1_6  and  C6_7 
REMARK    3  A    between atoms: C14_20  and  O1_21 
ROOT
HETATM    1  C6  UNL     1      11.485  34.606  18.423  1.00  0.00     0.136 A 
HETATM    2  N2  UNL     1      11.815  33.893  19.458  1.00  0.00    -0.336 N 
ATOM      3  H2  UNL     1      12.697  33.381  19.462  1.00  0.00     0.168 HD
HETATM    4  C7  UNL     1      10.983  33.825  20.544  1.00  0.00     0.199 A 
HETATM    5  N3  UNL     1       9.835  34.408  20.687  1.00  0.00    -0.289 N 
ATOM      6  H3  UNL     1       9.261  34.314  21.524  1.00  0.00     0.188 HD
HETATM    7  N4  UNL     1       9.474  35.147  19.628  1.00  0.00    -0.256 N 
HETATM    8  C8  UNL     1       8.312  35.872  19.505  1.00  0.00     0.031 A 
HETATM    9  C9  UNL     1       7.293  35.908  20.584  1.00  0.00     0.070 C 
HETATM   10  C10 UNL     1       8.331  36.487  18.267  1.00  0.00     0.029 A 
HETATM   11  C11 UNL     1       9.540  36.121  17.628  1.00  0.00     0.037 A 
HETATM   12  C12 UNL     1      10.221  35.291  18.496  1.00  0.00     0.100 A 
ENDROOT
BRANCH   1  13
HETATM   13  N1  UNL     1      12.266  34.716  17.290  1.00  0.00    -0.340 N 
HETATM   14  H6  UNL     1      12.019  34.101  16.529  1.00  0.00     0.167 HD
BRANCH  13  15
HETATM   15  C5  UNL     1      13.323  35.594  16.985  1.00  0.00     0.036 A 
HETATM   16  C4  UNL     1      14.574  35.355  17.577  1.00  0.00     0.030 A 
HETATM   17  C3  UNL     1      15.670  36.195  17.343  1.00  0.00     0.012 A 
HETATM   18  C2  UNL     1      15.549  37.311  16.508  1.00  0.00    -0.029 A 
HETATM   19  C1  UNL     1      16.740  38.193  16.275  1.00  0.00     0.051 C 
HETATM   20  C14 UNL     1      14.304  37.558  15.926  1.00  0.00     0.073 A 
HETATM   21  C13 UNL     1      13.209  36.718  16.162  1.00  0.00     0.066 A 
BRANCH  20  22
HETATM   22  O1  UNL     1      14.075  38.619  15.096  1.00  0.00    -0.360 OA
HETATM   23  H14 UNL     1      14.882  39.149  15.017  1.00  0.00     0.217 HD
ENDBRANCH  20  22
ENDBRANCH  13  15
ENDBRANCH   1  13
TORSDOF 3
ENDMDL
