MODEL 1
REMARK minimizedAffinity -7.95956278
REMARK  3 active torsions:
REMARK  status: ('A' for Active; 'I' for Inactive)
REMARK    1  A    between atoms: O1_1  and  C1_2 
REMARK    2  A    between atoms: C5_6  and  N1_7 
REMARK    3  A    between atoms: N1_7  and  C6_8 
ROOT
HETATM    1  C6  UNL     1      12.241  35.474  17.265  1.00  0.00     0.135 A 
HETATM    2  N2  UNL     1      11.746  36.018  16.119  1.00  0.00    -0.270 N 
ATOM      3  H2  UNL     1      10.734  36.038  15.991  1.00  0.00     0.190 HD
HETATM    4  N3  UNL     1      12.513  36.522  15.161  1.00  0.00    -0.240 N 
ATOM      5  H3  UNL     1      12.066  36.914  14.333  1.00  0.00     0.208 HD
HETATM    6  N4  UNL     1      13.770  36.536  15.230  1.00  0.00    -0.279 N 
ATOM      7  H4  UNL     1      14.336  36.926  14.476  1.00  0.00     0.189 HD
HETATM    8  C7  UNL     1      14.335  36.021  16.326  1.00  0.00     0.105 A 
HETATM    9  S1  UNL     1      16.041  35.988  16.520  1.00  0.00    -0.074 SA
HETATM   10  C8  UNL     1      15.870  35.255  18.011  1.00  0.00    -0.008 A 
HETATM   11  C9  UNL     1      14.570  35.030  18.381  1.00  0.00    -0.028 A 
HETATM   12  C10 UNL     1      13.641  35.470  17.395  1.00  0.00     0.052 A 
HETATM   13  C11 UNL     1      14.511  34.380  19.716  1.00  0.00     0.041 C 
HETATM   14  C12 UNL     1      15.968  34.560  20.245  1.00  0.00     0.010 C 
HETATM   15  C13 UNL     1      16.874  34.804  19.001  1.00  0.00     0.047 C 
ENDROOT
BRANCH   1  16
HETATM   16  N1  UNL     1      11.411  34.938  18.263  1.00  0.00    -0.341 N 
HETATM   17  H5  UNL     1      11.799  34.117  18.705  1.00  0.00     0.167 HD
BRANCH  16  18
HETATM   18  C5  UNL     1      10.144  35.307  18.750  1.00  0.00     0.036 A 
HETATM   19  C4  UNL     1       9.380  36.216  17.993  1.00  0.00     0.029 A 
HETATM   20  C3  UNL     1       8.113  36.632  18.413  1.00  0.00     0.005 A 
HETATM   21  C2  UNL     1       7.584  36.145  19.603  1.00  0.00     0.036 A 
HETATM   22  C1  UNL     1       8.327  35.249  20.358  1.00  0.00     0.067 A 
HETATM   23  C14 UNL     1       9.593  34.830  19.944  1.00  0.00     0.066 A 
BRANCH  22  24
HETATM   24  O1  UNL     1       7.776  34.792  21.520  1.00  0.00    -0.361 OA
HETATM   25  H1  UNL     1       8.408  34.184  21.941  1.00  0.00     0.217 HD
ENDBRANCH  22  24
ENDBRANCH  16  18
ENDBRANCH   1  16
TORSDOF 3
ENDMDL
