MODEL 1
REMARK minimizedAffinity -7.56337214
REMARK CNNscore 0.467137307
REMARK CNNaffinity 6.40524292
REMARK  9 active torsions:
REMARK  status: ('A' for Active; 'I' for Inactive)
REMARK       I    between atoms: N1_1  and  C1_2 
REMARK    1  A    between atoms: C1_2  and  O2_4 
REMARK    2  A    between atoms: O2_4  and  C2_5 
REMARK    3  A    between atoms: C4_8  and  C5_9 
REMARK    4  A    between atoms: C6_10  and  C7_11 
REMARK    5  A    between atoms: C11_19  and  N5_20 
REMARK    6  A    between atoms: N5_20  and  C12_21 
REMARK    7  A    between atoms: C15_24  and  O3_25 
REMARK    8  A    between atoms: O3_25  and  C16_26 
REMARK    9  A    between atoms: C16_26  and  C17_27 
ROOT
HETATM    1  C7  UNL     1       9.277  58.235  -5.463  1.00  0.00     0.061 A 
HETATM    2  C8  UNL     1       9.726  57.399  -6.459  1.00  0.00     0.059 A 
HETATM    3  C9  UNL     1      10.423  56.267  -5.947  1.00  0.00     0.056 A 
HETATM    4  N3  UNL     1      10.972  55.286  -6.702  1.00  0.00    -0.351 N 
ATOM      5  H3  UNL     1      10.932  55.280  -7.720  1.00  0.00     0.166 HD
HETATM    6  C10 UNL     1      11.571  54.329  -5.991  1.00  0.00     0.182 A 
HETATM    7  N4  UNL     1      11.679  54.248  -4.657  1.00  0.00    -0.337 N 
ATOM      8  H4  UNL     1      12.165  53.461  -4.226  1.00  0.00     0.168 HD
HETATM    9  C11 UNL     1      11.137  55.220  -3.887  1.00  0.00     0.126 A 
HETATM   10  C25 UNL     1      10.484  56.269  -4.558  1.00  0.00     0.077 A 
HETATM   11  S1  UNL     1       9.689  57.656  -3.914  1.00  0.00    -0.075 SA
ENDROOT
BRANCH   9  12
HETATM   12  N5  UNL     1      11.205  55.196  -2.486  1.00  0.00    -0.341 N 
HETATM   13  H10 UNL     1      10.344  54.864  -2.065  1.00  0.00     0.167 HD
BRANCH  12  14
HETATM   14  C12 UNL     1      12.206  55.554  -1.569  1.00  0.00     0.035 A 
HETATM   15  C13 UNL     1      11.981  56.329  -0.428  1.00  0.00     0.032 A 
HETATM   16  C14 UNL     1      13.024  56.668   0.448  1.00  0.00     0.041 A 
HETATM   17  C15 UNL     1      14.329  56.249   0.195  1.00  0.00     0.091 A 
HETATM   18  C23 UNL     1      14.563  55.462  -0.940  1.00  0.00     0.069 A 
HETATM   19 CL1  UNL     1      16.150  54.885  -1.322  1.00  0.00    -0.081 Cl
HETATM   20  C24 UNL     1      13.519  55.126  -1.810  1.00  0.00     0.056 A 
BRANCH  17  21
HETATM   21  O3  UNL     1      15.405  56.519   0.997  1.00  0.00    -0.345 OA
BRANCH  21  22
HETATM   22  C16 UNL     1      15.170  56.957   2.337  1.00  0.00     0.214 C 
BRANCH  22  23
HETATM   23  C17 UNL     1      15.525  55.911   3.369  1.00  0.00    -0.031 A 
HETATM   24  C18 UNL     1      16.872  55.593   3.612  1.00  0.00     0.009 A 
HETATM   25  C19 UNL     1      17.216  54.609   4.543  1.00  0.00     0.004 A 
HETATM   26  C20 UNL     1      16.217  53.924   5.232  1.00  0.00     0.042 A 
HETATM   27  C21 UNL     1      14.884  54.225   4.982  1.00  0.00     0.117 A 
HETATM   28  F1  UNL     1      13.924  53.560   5.638  1.00  0.00    -0.206 F 
HETATM   29  C22 UNL     1      14.530  55.202   4.057  1.00  0.00     0.051 A 
ENDBRANCH  22  23
ENDBRANCH  21  22
ENDBRANCH  17  21
ENDBRANCH  12  14
ENDBRANCH   9  12
BRANCH   1  30
HETATM   30  C6  UNL     1       8.552  59.442  -5.679  1.00  0.00    -0.057 C 
HETATM   31  C5  UNL     1       7.942  60.460  -5.864  1.00  0.00    -0.065 C 
BRANCH  31  32
HETATM   32  C4  UNL     1       7.197  61.698  -6.091  1.00  0.00     0.301 C 
HETATM   33  N2  UNL     1       6.723  62.259  -4.829  1.00  0.00     0.102 N 
HETATM   34  C3  UNL     1       6.396  63.662  -5.117  1.00  0.00     0.303 C 
HETATM   35  H6  UNL     1       5.903  61.755  -4.497  1.00  0.00     0.317 HD
HETATM   36  C2  UNL     1       7.272  64.071  -6.311  1.00  0.00     0.164 C 
HETATM   37  C26 UNL     1       8.073  62.815  -6.637  1.00  0.00     0.083 C 
BRANCH  36  38
HETATM   38  O2  UNL     1       6.469  64.391  -7.463  1.00  0.00    -0.297 OA
BRANCH  38  39
HETATM   39  C1  UNL     1       6.463  65.700  -7.799  1.00  0.00     0.358 C 
HETATM   40  N1  UNL     1       7.445  65.951  -8.690  1.00  0.00    -0.346 N 
HETATM   41  H1  UNL     1       8.104  65.227  -8.928  1.00  0.00     0.161 HD
HETATM   42  H2  UNL     1       7.608  66.906  -8.974  1.00  0.00     0.161 HD
HETATM   43  O1  UNL     1       5.695  66.550  -7.378  1.00  0.00    -0.239 OA
ENDBRANCH  38  39
ENDBRANCH  36  38
ENDBRANCH  31  32
ENDBRANCH   1  30
TORSDOF 9
ENDMDL
