MODEL 1
REMARK minimizedAffinity -7.95380116
REMARK  3 active torsions:
REMARK  status: ('A' for Active; 'I' for Inactive)
REMARK    1  A    between atoms: C4_4  and  C5_5 
REMARK    2  A    between atoms: N2_8  and  C6_9 
REMARK    3  A    between atoms: C12_15  and  C13_16 
ROOT
HETATM    1  C5  UNL     1      13.916  35.369  18.100  1.00  0.00     0.038 C 
HETATM    2  N1  UNL     1      13.963  36.136  19.146  1.00  0.00    -0.301 N 
ATOM      3  H1  UNL     1      14.742  36.735  19.418  1.00  0.00     0.187 HD
HETATM    4  N2  UNL     1      12.775  35.995  19.823  1.00  0.00    -0.283 N 
HETATM    5  C12 UNL     1      11.961  34.908  19.267  1.00  0.00     0.148 C 
HETATM    6  C23 UNL     1      12.646  34.589  17.936  1.00  0.00     0.091 C 
ENDROOT
BRANCH   5   7
HETATM    7  C13 UNL     1      10.476  35.202  19.069  1.00  0.00    -0.022 A 
HETATM    8  C14 UNL     1      10.121  35.780  17.829  1.00  0.00     0.010 A 
HETATM    9  C15 UNL     1       8.805  36.117  17.537  1.00  0.00     0.002 A 
HETATM   10  C16 UNL     1       7.813  35.897  18.484  1.00  0.00     0.012 A 
HETATM   11  C17 UNL     1       8.119  35.340  19.732  1.00  0.00    -0.025 A 
HETATM   12  C18 UNL     1       7.087  35.144  20.666  1.00  0.00     0.012 A 
HETATM   13  C22 UNL     1       9.458  34.982  20.050  1.00  0.00    -0.018 A 
HETATM   14  C19 UNL     1       7.345  34.599  21.921  1.00  0.00     0.001 A 
HETATM   15  C20 UNL     1       8.641  34.243  22.256  1.00  0.00     0.001 A 
HETATM   16  C21 UNL     1       9.677  34.433  21.338  1.00  0.00     0.013 A 
ENDBRANCH   5   7
BRANCH   4  17
HETATM   17  C6  UNL     1      12.718  36.425  21.155  1.00  0.00     0.051 A 
HETATM   18  C7  UNL     1      11.660  37.242  21.595  1.00  0.00     0.031 A 
HETATM   19  C8  UNL     1      11.559  37.683  22.919  1.00  0.00     0.002 A 
HETATM   20  C9  UNL     1      12.521  37.308  23.849  1.00  0.00     0.000 A 
HETATM   21  C10 UNL     1      13.573  36.492  23.451  1.00  0.00     0.002 A 
HETATM   22  C11 UNL     1      13.666  36.056  22.122  1.00  0.00     0.031 A 
ENDBRANCH   4  17
BRANCH   1  23
HETATM   23  C4  UNL     1      15.023  35.267  17.121  1.00  0.00    -0.012 A 
HETATM   24  C3  UNL     1      16.232  34.683  17.521  1.00  0.00     0.013 A 
HETATM   25  C2  UNL     1      17.292  34.572  16.621  1.00  0.00     0.001 A 
HETATM   26  C1  UNL     1      17.152  35.045  15.317  1.00  0.00     0.000 A 
HETATM   27  C25 UNL     1      15.953  35.631  14.913  1.00  0.00     0.001 A 
HETATM   28  C24 UNL     1      14.888  35.743  15.812  1.00  0.00     0.013 A 
ENDBRANCH   1  23
TORSDOF 3
ENDMDL
