MODEL 1
REMARK minimizedAffinity -8.43356323
REMARK  1 active torsions:
REMARK  status: ('A' for Active; 'I' for Inactive)
REMARK    1  A    between atoms: C2_2  and  C3_3 
REMARK       I    between atoms: C3_3  and  N1_5 
ROOT
HETATM    1  C3  UNL     1       2.154   7.279   9.761  1.00  0.00     0.247 C 
HETATM    2  O1  UNL     1       1.065   6.853   9.379  1.00  0.00    -0.268 OA
HETATM    3  N1  UNL     1       2.558   7.443  11.098  1.00  0.00    -0.315 N 
HETATM    4  C4  UNL     1       3.951   7.810  11.450  1.00  0.00     0.132 C 
HETATM    5  C5  UNL     1       4.874   6.584  11.386  1.00  0.00     0.020 C 
HETATM    6  C6  UNL     1       6.341   6.926  11.108  1.00  0.00     0.002 C 
HETATM    7  C7  UNL     1       7.031   7.833  12.129  1.00  0.00     0.000 C 
HETATM    8  C8  UNL     1       7.010   7.265  13.547  1.00  0.00     0.002 C 
HETATM    9  C9  UNL     1       8.010   7.926  14.506  1.00  0.00     0.020 C 
HETATM   10  C10 UNL     1       8.035   9.460  14.528  1.00  0.00     0.128 C 
HETATM   11  N2  UNL     1       6.816  10.155  14.905  1.00  0.00    -0.355 N 
HETATM   12  C11 UNL     1       5.760   9.625  15.591  1.00  0.00     0.106 A 
HETATM   13  C12 UNL     1       4.782  10.592  15.706  1.00  0.00     0.019 A 
HETATM   14  C13 UNL     1       5.293  11.787  15.124  1.00  0.00     0.005 A 
HETATM   15  C14 UNL     1       4.781  13.090  14.947  1.00  0.00     0.014 A 
HETATM   16  C15 UNL     1       5.564  14.063  14.318  1.00  0.00     0.001 A 
HETATM   17  C16 UNL     1       6.840  13.754  13.860  1.00  0.00     0.002 A 
HETATM   18  C17 UNL     1       7.368  12.468  14.009  1.00  0.00     0.030 A 
HETATM   19  C18 UNL     1       6.574  11.494  14.640  1.00  0.00     0.045 A 
HETATM   20  C19 UNL     1       3.499  10.312  16.316  1.00  0.00     0.063 A 
HETATM   21  C20 UNL     1       3.061  11.005  17.417  1.00  0.00     0.048 A 
HETATM   22  C21 UNL     1       1.850  10.595  17.908  1.00  0.00     0.108 A 
HETATM   23  N3  UNL     1       1.121   9.601  17.362  1.00  0.00    -0.202 N 
ATOM     24  H3  UNL     1       0.227   9.316  17.764  1.00  0.00     0.183 HD
HETATM   25  C22 UNL     1       1.617   9.001  16.269  1.00  0.00     0.683 A 
HETATM   26  N4  UNL     1       2.799   9.318  15.736  1.00  0.00    -0.191 N 
ATOM     27  H4  UNL     1       3.160   8.825  14.918  1.00  0.00     0.184 HD
HETATM   28  N5  UNL     1       0.834   7.995  15.716  1.00  0.00    -0.189 N 
HETATM   29  C23 UNL     1       0.852   7.345  14.472  1.00  0.00     0.089 A 
HETATM   30  C24 UNL     1       1.710   7.695  13.416  1.00  0.00     0.063 A 
HETATM   31  C25 UNL     1       1.695   7.022  12.177  1.00  0.00     0.039 A 
HETATM   32  C26 UNL     1       0.804   5.949  12.029  1.00  0.00     0.033 A 
HETATM   33  C27 UNL     1      -0.039   5.562  13.071  1.00  0.00     0.047 A 
HETATM   34  C28 UNL     1      -0.006   6.256  14.273  1.00  0.00     0.143 A 
HETATM   35  F1  UNL     1      -0.830   5.876  15.262  1.00  0.00    -0.204 F 
HETATM   36  H25 UNL     1       0.020   7.821  16.290  1.00  0.00     0.184 HD
ENDROOT
BRANCH   1  37
HETATM   37  C2  UNL     1       3.131   7.693   8.713  1.00  0.00     0.064 C 
HETATM   38  C1  UNL     1       2.734   8.467   7.695  1.00  0.00     0.017 C 
ENDBRANCH   1  37
TORSDOF 1
ENDMDL
