MODEL 1
REMARK minimizedAffinity -6.86728621
REMARK  3 active torsions:
REMARK  status: ('A' for Active; 'I' for Inactive)
REMARK    1  A    between atoms: N1_1  and  C1_2 
REMARK    2  A    between atoms: C5_6  and  N2_7 
REMARK    3  A    between atoms: N2_7  and  C6_8 
ROOT
HETATM    1  C1  UNL     1      16.319  34.593  17.793  1.00  0.00     0.008 A 
HETATM    2  C2  UNL     1      15.444  33.975  18.679  1.00  0.00     0.024 A 
HETATM    3  C3  UNL     1      14.070  34.194  18.572  1.00  0.00     0.019 A 
HETATM    4  C4  UNL     1      13.543  35.014  17.544  1.00  0.00     0.035 A 
HETATM    5  C5  UNL     1      12.175  35.304  17.353  1.00  0.00     0.119 A 
HETATM    6  N3  UNL     1      11.746  36.054  16.323  1.00  0.00    -0.338 N 
ATOM      7  H3  UNL     1      10.756  36.251  16.183  1.00  0.00     0.168 HD
HETATM    8  C12 UNL     1      12.678  36.527  15.493  1.00  0.00     0.182 A 
HETATM    9  N4  UNL     1      13.997  36.332  15.589  1.00  0.00    -0.351 N 
ATOM     10  H4  UNL     1      14.649  36.739  14.918  1.00  0.00     0.166 HD
HETATM   11  C13 UNL     1      14.420  35.578  16.608  1.00  0.00     0.048 A 
HETATM   12  C14 UNL     1      15.784  35.342  16.740  1.00  0.00     0.053 A 
ENDROOT
BRANCH   5  13
HETATM   13  N2  UNL     1      11.235  34.801  18.294  1.00  0.00    -0.342 N 
HETATM   14  H5  UNL     1      11.741  34.388  19.070  1.00  0.00     0.167 HD
BRANCH  13  15
HETATM   15  C6  UNL     1      10.021  35.384  18.725  1.00  0.00     0.033 A 
HETATM   16  C7  UNL     1       9.238  36.202  17.904  1.00  0.00     0.029 A 
HETATM   17  C8  UNL     1       8.008  36.701  18.344  1.00  0.00     0.002 A 
HETATM   18  C9  UNL     1       7.528  36.367  19.607  1.00  0.00     0.000 A 
HETATM   19  C10 UNL     1       8.274  35.524  20.425  1.00  0.00     0.002 A 
HETATM   20  C11 UNL     1       9.504  35.028  19.981  1.00  0.00     0.029 A 
ENDBRANCH  13  15
ENDBRANCH   5  13
BRANCH   1  21
HETATM   21  N1  UNL     1      17.684  34.283  17.820  1.00  0.00    -0.303 NA
HETATM   22  H1  UNL     1      18.036  34.019  18.734  1.00  0.00     0.124 HD
HETATM   23  H2  UNL     1      18.275  34.970  17.361  1.00  0.00     0.124 HD
ENDBRANCH   1  21
TORSDOF 3
ENDMDL
