MODEL 1
REMARK minimizedAffinity -7.82866287
REMARK  3 active torsions:
REMARK  status: ('A' for Active; 'I' for Inactive)
REMARK    1  A    between atoms: C4_5  and  C5_6 
REMARK    2  A    between atoms: N2_9  and  C6_10 
REMARK    3  A    between atoms: C12_16  and  C13_17 
ROOT
HETATM    1  C5  UNL     1      13.903  58.821   3.348  1.00  0.00     0.038 C 
HETATM    2  N1  UNL     1      13.356  58.236   2.327  1.00  0.00    -0.301 N 
ATOM      3  H1  UNL     1      12.486  58.508   1.868  1.00  0.00     0.187 HD
HETATM    4  N2  UNL     1      14.161  57.188   1.981  1.00  0.00    -0.283 N 
HETATM    5  C12 UNL     1      15.300  57.009   2.887  1.00  0.00     0.148 C 
HETATM    6  C23 UNL     1      15.224  58.249   3.780  1.00  0.00     0.091 C 
ENDROOT
BRANCH   5   7
HETATM    7  C13 UNL     1      15.240  55.736   3.732  1.00  0.00    -0.022 A 
HETATM    8  C14 UNL     1      13.998  55.282   4.225  1.00  0.00     0.010 A 
HETATM    9  C15 UNL     1      13.907  54.137   5.007  1.00  0.00     0.002 A 
HETATM   10  C16 UNL     1      15.057  53.427   5.327  1.00  0.00     0.012 A 
HETATM   11  C17 UNL     1      16.314  53.852   4.877  1.00  0.00    -0.025 A 
HETATM   12  C18 UNL     1      17.460  53.119   5.228  1.00  0.00     0.012 A 
HETATM   13  C22 UNL     1      16.428  55.019   4.076  1.00  0.00    -0.018 A 
HETATM   14  C19 UNL     1      18.726  53.517   4.808  1.00  0.00     0.001 A 
HETATM   15  C20 UNL     1      18.862  54.656   4.030  1.00  0.00     0.001 A 
HETATM   16  C21 UNL     1      17.732  55.397   3.671  1.00  0.00     0.013 A 
ENDBRANCH   5   7
BRANCH   4  17
HETATM   17  C6  UNL     1      14.002  56.545   0.751  1.00  0.00     0.051 A 
HETATM   18  C7  UNL     1      12.725  56.372   0.189  1.00  0.00     0.031 A 
HETATM   19  C8  UNL     1      12.537  55.729  -1.040  1.00  0.00     0.002 A 
HETATM   20  C9  UNL     1      13.632  55.232  -1.738  1.00  0.00     0.000 A 
HETATM   21  C10 UNL     1      14.907  55.380  -1.206  1.00  0.00     0.002 A 
HETATM   22  C11 UNL     1      15.087  56.027   0.024  1.00  0.00     0.031 A 
ENDBRANCH   4  17
BRANCH   1  23
HETATM   23  C4  UNL     1      13.299  59.993   4.026  1.00  0.00    -0.012 A 
HETATM   24  C3  UNL     1      13.255  61.251   3.416  1.00  0.00     0.015 A 
HETATM   25  C2  UNL     1      12.678  62.335   4.086  1.00  0.00     0.024 A 
HETATM   26  C1  UNL     1      12.144  62.161   5.362  1.00  0.00     0.034 A 
HETATM   27 CL1  UNL     1      11.435  63.496   6.181  1.00  0.00    -0.084 Cl
HETATM   28  C25 UNL     1      12.182  60.912   5.977  1.00  0.00     0.024 A 
HETATM   29  C24 UNL     1      12.759  59.828   5.309  1.00  0.00     0.015 A 
ENDBRANCH   1  23
TORSDOF 3
ENDMDL
