MODEL 1
REMARK minimizedAffinity -7.00164318
REMARK  2 active torsions:
REMARK  status: ('A' for Active; 'I' for Inactive)
REMARK    1  A    between atoms: C5_6  and  N1_7 
REMARK    2  A    between atoms: N1_7  and  C6_8 
ROOT
HETATM    1  C6  UNL     1      10.813  34.898  18.749  1.00  0.00     0.120 A 
HETATM    2  N2  UNL     1      10.715  35.274  17.449  1.00  0.00    -0.338 N 
ATOM      3  H2  UNL     1      11.479  35.082  16.803  1.00  0.00     0.168 HD
HETATM    4  C7  UNL     1       9.611  35.897  17.018  1.00  0.00     0.182 A 
HETATM    5  N3  UNL     1       8.537  36.220  17.732  1.00  0.00    -0.346 N 
ATOM      6  H3  UNL     1       7.727  36.707  17.350  1.00  0.00     0.167 HD
HETATM    7  C8  UNL     1       8.641  35.831  19.013  1.00  0.00     0.090 A 
HETATM    8  S1  UNL     1       7.368  36.162  20.095  1.00  0.00    -0.075 SA
HETATM    9  C9  UNL     1       8.187  35.412  21.377  1.00  0.00    -0.008 A 
HETATM   10  C10 UNL     1       9.416  34.893  21.000  1.00  0.00    -0.028 A 
HETATM   11  C11 UNL     1       9.711  35.168  19.603  1.00  0.00     0.049 A 
HETATM   12  C12 UNL     1      10.278  34.162  21.992  1.00  0.00     0.041 C 
HETATM   13  C13 UNL     1       9.509  33.763  23.261  1.00  0.00     0.005 C 
HETATM   14  C14 UNL     1       8.631  34.910  23.777  1.00  0.00     0.005 C 
HETATM   15  C15 UNL     1       7.575  35.311  22.740  1.00  0.00     0.047 C 
ENDROOT
BRANCH   1  16
HETATM   16  N1  UNL     1      11.994  34.303  19.223  1.00  0.00    -0.342 N 
HETATM   17  H4  UNL     1      11.853  33.752  20.055  1.00  0.00     0.167 HD
BRANCH  16  18
HETATM   18  C5  UNL     1      13.345  34.468  18.868  1.00  0.00     0.034 A 
HETATM   19  C4  UNL     1      14.331  34.154  19.820  1.00  0.00     0.029 A 
HETATM   20  C3  UNL     1      15.692  34.296  19.536  1.00  0.00     0.004 A 
HETATM   21  C2  UNL     1      16.095  34.755  18.286  1.00  0.00     0.019 A 
HETATM   22  C1  UNL     1      15.131  35.066  17.332  1.00  0.00     0.013 A 
HETATM   23 BR1  UNL     1      15.673  35.681  15.626  1.00  0.00    -0.051 Br
HETATM   24  C16 UNL     1      13.770  34.922  17.616  1.00  0.00     0.048 A 
ENDBRANCH  16  18
ENDBRANCH   1  16
TORSDOF 2
ENDMDL
