MODEL 1
REMARK minimizedAffinity -6.99413013
REMARK  3 active torsions:
REMARK  status: ('A' for Active; 'I' for Inactive)
REMARK    1  A    between atoms: C5_5  and  N1_6 
REMARK    2  A    between atoms: N1_6  and  C6_7 
REMARK    3  A    between atoms: C14_20  and  O1_21 
ROOT
HETATM    1  C6  UNL     1      10.955  35.090  17.927  1.00  0.00     0.136 A 
HETATM    2  N2  UNL     1      10.134  35.668  17.100  1.00  0.00    -0.336 N 
ATOM      3  H2  UNL     1      10.436  35.876  16.149  1.00  0.00     0.168 HD
HETATM    4  C7  UNL     1       8.867  35.998  17.499  1.00  0.00     0.199 A 
HETATM    5  N3  UNL     1       8.340  35.800  18.663  1.00  0.00    -0.289 N 
ATOM      6  H3  UNL     1       7.384  36.068  18.897  1.00  0.00     0.188 HD
HETATM    7  N4  UNL     1       9.171  35.211  19.531  1.00  0.00    -0.263 N 
HETATM    8  C8  UNL     1       8.859  34.896  20.823  1.00  0.00     0.117 A 
HETATM    9  C9  UNL     1       9.967  34.327  21.404  1.00  0.00     0.028 A 
HETATM   10  C10 UNL     1      11.001  34.290  20.422  1.00  0.00    -0.028 A 
HETATM   11  C11 UNL     1      12.369  33.762  20.662  1.00  0.00     0.050 C 
HETATM   12  C12 UNL     1      10.459  34.838  19.263  1.00  0.00     0.105 A 
ENDROOT
BRANCH   1  13
HETATM   13  N1  UNL     1      12.230  34.709  17.557  1.00  0.00    -0.340 N 
HETATM   14  H6  UNL     1      12.430  33.724  17.612  1.00  0.00     0.167 HD
BRANCH  13  15
HETATM   15  C5  UNL     1      13.311  35.472  17.076  1.00  0.00     0.036 A 
HETATM   16  C4  UNL     1      14.612  34.982  17.285  1.00  0.00     0.030 A 
HETATM   17  C3  UNL     1      15.739  35.672  16.823  1.00  0.00     0.012 A 
HETATM   18  C2  UNL     1      15.595  36.876  16.130  1.00  0.00    -0.029 A 
HETATM   19  C1  UNL     1      16.798  37.620  15.628  1.00  0.00     0.051 C 
HETATM   20  C14 UNL     1      14.305  37.364  15.913  1.00  0.00     0.073 A 
HETATM   21  C13 UNL     1      13.179  36.675  16.377  1.00  0.00     0.066 A 
BRANCH  20  22
HETATM   22  O1  UNL     1      14.158  38.541  15.233  1.00  0.00    -0.360 OA
HETATM   23  H14 UNL     1      13.209  38.724  15.135  1.00  0.00     0.217 HD
ENDBRANCH  20  22
ENDBRANCH  13  15
ENDBRANCH   1  13
TORSDOF 3
ENDMDL
