MODEL 1
REMARK minimizedAffinity -9.94669342
REMARK CNNscore 0.832592726
REMARK CNNaffinity 7.83453703
REMARK  5 active torsions:
REMARK  status: ('A' for Active; 'I' for Inactive)
REMARK    1  A    between atoms: O1_2  and  C2_3 
REMARK       I    between atoms: C2_3  and  N1_5 
REMARK    2  A    between atoms: N1_5  and  C4_7 
REMARK    3  A    between atoms: C6_9  and  N3_33 
REMARK    4  A    between atoms: C7_11  and  N2_16 
REMARK    5  A    between atoms: C9_13  and  O4_14 
ROOT
HETATM    1  C4  UNL     1      10.909  -8.298  27.153  1.00  0.00     0.126 C 
HETATM    2  C5  UNL     1      10.378  -7.519  28.361  1.00  0.00     0.082 C 
HETATM    3  C6  UNL     1       9.285  -8.301  29.101  1.00  0.00     0.233 C 
HETATM    4  O3  UNL     1       9.080  -9.628  28.625  1.00  0.00    -0.333 OA
HETATM    5  C7  UNL     1       8.912  -9.824  27.197  1.00  0.00     0.168 C 
HETATM    6  C8  UNL     1       9.543 -11.228  27.045  1.00  0.00     0.074 C 
HETATM    7  C9  UNL     1       9.703  -8.794  26.324  1.00  0.00     0.199 C 
ENDROOT
BRANCH   1   8
HETATM    8  N1  UNL     1      11.905  -7.580  26.326  1.00  0.00    -0.325 N 
HETATM    9  C2  UNL     1      13.153  -7.358  26.898  1.00  0.00     0.362 C 
HETATM   10  O2  UNL     1      13.407  -7.629  28.068  1.00  0.00    -0.238 OA
HETATM   11  C3  UNL     1      11.656  -7.371  24.905  1.00  0.00     0.155 C 
BRANCH   9  12
HETATM   12  O1  UNL     1      14.056  -6.829  26.031  1.00  0.00    -0.309 OA
HETATM   13  C1  UNL     1      15.406  -7.236  26.265  1.00  0.00     0.215 C 
ENDBRANCH   9  12
ENDBRANCH   1   8
BRANCH   7  14
HETATM   14  O4  UNL     1       8.917  -7.622  26.010  1.00  0.00    -0.384 OA
HETATM   15  C10 UNL     1       7.887  -7.877  25.063  1.00  0.00     0.202 C 
ENDBRANCH   7  14
BRANCH   3  16
HETATM   16  N3  UNL     1       8.011  -7.607  29.259  1.00  0.00    -0.316 N 
HETATM   17  C26 UNL     1       6.819  -8.007  28.676  1.00  0.00     0.048 A 
HETATM   18  C21 UNL     1       5.865  -7.012  28.949  1.00  0.00     0.004 A 
HETATM   19  C25 UNL     1       6.502  -9.155  27.924  1.00  0.00     0.030 A 
HETATM   20  C20 UNL     1       6.513  -5.994  29.715  1.00  0.00     0.022 A 
HETATM   21  C22 UNL     1       4.556  -7.193  28.456  1.00  0.00     0.014 A 
HETATM   22  C19 UNL     1       6.213  -4.756  30.304  1.00  0.00     0.054 A 
HETATM   23  C27 UNL     1       7.818  -6.421  29.899  1.00  0.00     0.077 A 
HETATM   24  C18 UNL     1       7.131  -3.968  31.066  1.00  0.00    -0.010 A 
HETATM   25  C29 UNL     1       4.936  -4.026  30.280  1.00  0.00     0.253 A 
HETATM   26  C17 UNL     1       8.450  -4.387  31.305  1.00  0.00     0.015 A 
HETATM   27  C30 UNL     1       6.436  -2.725  31.540  1.00  0.00     0.163 A 
HETATM   28  C16 UNL     1       9.568  -3.923  32.049  1.00  0.00     0.004 A 
HETATM   29  C28 UNL     1       8.830  -5.582  30.736  1.00  0.00     0.077 A 
HETATM   30  C11 UNL     1      10.590  -4.887  31.936  1.00  0.00     0.049 A 
HETATM   31  C15 UNL     1       9.781  -2.784  32.858  1.00  0.00     0.014 A 
HETATM   32  N2  UNL     1      10.134  -5.867  31.055  1.00  0.00    -0.308 N 
HETATM   33  C12 UNL     1      11.784  -4.741  32.668  1.00  0.00     0.030 A 
HETATM   34  C13 UNL     1      11.964  -3.605  33.464  1.00  0.00     0.002 A 
HETATM   35  C14 UNL     1      10.981  -2.632  33.552  1.00  0.00     0.001 A 
HETATM   36  N4  UNL     1       5.112  -2.868  31.005  1.00  0.00    -0.353 N 
HETATM   37  H26 UNL     1       4.358  -2.204  31.108  1.00  0.00     0.163 HD
HETATM   38  O5  UNL     1       3.900  -4.349  29.735  1.00  0.00    -0.268 OA
HETATM   39  C23 UNL     1       4.233  -8.335  27.716  1.00  0.00     0.001 A 
HETATM   40  C24 UNL     1       5.197  -9.300  27.452  1.00  0.00     0.002 A 
ENDBRANCH   3  16
TORSDOF 5
ENDMDL
