MODEL 1
REMARK minimizedAffinity -7.49234581
REMARK  10 active torsions:
REMARK  status: ('A' for Active; 'I' for Inactive)
REMARK    1  A    between atoms: C7_7  and  N1_8 
REMARK    2  A    between atoms: N1_8  and  C8_9 
REMARK    3  A    between atoms: C14_18  and  O1_19 
REMARK    4  A    between atoms: O1_19  and  C15_20 
REMARK    5  A    between atoms: C15_20  and  C16_21 
REMARK    6  A    between atoms: C16_21  and  O2_22 
REMARK    7  A    between atoms: C18_24  and  O3_25 
REMARK    8  A    between atoms: O3_25  and  C19_26 
REMARK    9  A    between atoms: C19_26  and  C20_27 
REMARK   10  A    between atoms: C20_27  and  O4_28 
ROOT
HETATM    1  C1  UNL     1      12.272  -3.295  35.307  1.00  0.00     0.018 C 
HETATM    2  C2  UNL     1      11.454  -3.141  34.442  1.00  0.00    -0.078 C 
HETATM    3  C3  UNL     1      10.478  -2.957  33.412  1.00  0.00     0.019 A 
HETATM    4  C4  UNL     1      10.418  -1.751  32.716  1.00  0.00     0.021 A 
HETATM    5  C5  UNL     1       9.475  -1.582  31.704  1.00  0.00     0.004 A 
HETATM    6  C6  UNL     1       8.590  -2.616  31.391  1.00  0.00     0.029 A 
HETATM    7  C7  UNL     1       8.620  -3.827  32.096  1.00  0.00     0.034 A 
HETATM    8  C24 UNL     1       9.588  -3.990  33.099  1.00  0.00     0.050 A 
ENDROOT
BRANCH   7   9
HETATM    9  N1  UNL     1       7.790  -4.934  31.775  1.00  0.00    -0.354 N 
HETATM   10  H5  UNL     1       6.995  -4.962  32.414  1.00  0.00     0.166 HD
BRANCH   9  11
HETATM   11  C8  UNL     1       7.473  -5.404  30.466  1.00  0.00     0.067 A 
HETATM   12  C9  UNL     1       6.277  -5.021  29.842  1.00  0.00     0.087 A 
HETATM   13  C10 UNL     1       5.288  -4.224  30.495  1.00  0.00     0.103 C 
HETATM   14  C11 UNL     1       6.058  -5.429  28.540  1.00  0.00     0.113 A 
HETATM   15  N2  UNL     1       4.485  -3.594  31.046  1.00  0.00    -0.191 NA
HETATM   16  N3  UNL     1       6.932  -6.172  27.824  1.00  0.00    -0.364 N 
HETATM   17  C12 UNL     1       8.080  -6.546  28.408  1.00  0.00     0.047 A 
ATOM     18  H3  UNL     1       6.723  -6.441  26.863  1.00  0.00     0.165 HD
HETATM   19  C13 UNL     1       8.974  -7.315  27.678  1.00  0.00     0.070 A 
HETATM   20  C23 UNL     1       8.409  -6.192  29.734  1.00  0.00     0.022 A 
HETATM   21  C14 UNL     1      10.184  -7.760  28.217  1.00  0.00     0.104 A 
HETATM   22  C18 UNL     1      10.540  -7.392  29.514  1.00  0.00     0.103 A 
HETATM   23  C22 UNL     1       9.636  -6.647  30.274  1.00  0.00     0.055 A 
BRANCH  21  24
HETATM   24  O1  UNL     1      10.967  -8.486  27.359  1.00  0.00    -0.346 OA
BRANCH  24  25
HETATM   25  C15 UNL     1      11.418  -7.761  26.205  1.00  0.00     0.201 C 
BRANCH  25  26
HETATM   26  C16 UNL     1      11.994  -6.417  26.664  1.00  0.00     0.193 C 
BRANCH  26  27
HETATM   27  O2  UNL     1      11.181  -5.300  26.288  1.00  0.00    -0.394 OA
HETATM   28  C17 UNL     1      11.500  -4.108  26.992  1.00  0.00     0.201 C 
ENDBRANCH  26  27
ENDBRANCH  25  26
ENDBRANCH  24  25
ENDBRANCH  21  24
BRANCH  22  29
HETATM   29  O3  UNL     1      11.749  -7.797  30.007  1.00  0.00    -0.346 OA
BRANCH  29  30
HETATM   30  C19 UNL     1      12.046  -9.188  29.818  1.00  0.00     0.201 C 
BRANCH  30  31
HETATM   31  C20 UNL     1      13.304  -9.531  30.621  1.00  0.00     0.193 C 
BRANCH  31  32
HETATM   32  O4  UNL     1      13.052 -10.478  31.664  1.00  0.00    -0.394 OA
HETATM   33  C21 UNL     1      12.364 -11.637  31.215  1.00  0.00     0.201 C 
ENDBRANCH  31  32
ENDBRANCH  30  31
ENDBRANCH  29  30
ENDBRANCH  22  29
ENDBRANCH   9  11
ENDBRANCH   7   9
TORSDOF 10
ENDMDL
