MODEL 1
REMARK minimizedAffinity -11.0488014
REMARK CNNscore 0.812796712
REMARK CNNaffinity 7.96756744
REMARK  6 active torsions:
REMARK  status: ('A' for Active; 'I' for Inactive)
REMARK    1  A    between atoms: O1_2  and  C2_3 
REMARK    2  A    between atoms: C3_4  and  N1_5 
REMARK       I    between atoms: N1_5  and  C5_7 
REMARK    3  A    between atoms: C5_7  and  C6_9 
REMARK    4  A    between atoms: C6_9  and  N2_10 
REMARK    5  A    between atoms: C8_12  and  N4_33 
REMARK    6  A    between atoms: C9_14  and  N3_16 
ROOT
HETATM    1  C2  UNL     1      -0.663   6.819  13.971  1.00  0.00     0.199 C 
HETATM    2  C3  UNL     1      -0.370   8.333  13.904  1.00  0.00     0.124 C 
HETATM    3  C7  UNL     1      -0.962   8.901  12.611  1.00  0.00     0.082 C 
HETATM    4  C8  UNL     1      -2.436   8.499  12.469  1.00  0.00     0.233 C 
HETATM    5  O3  UNL     1      -2.969   7.782  13.583  1.00  0.00    -0.333 OA
HETATM    6  C9  UNL     1      -2.217   6.647  14.091  1.00  0.00     0.168 C 
HETATM    7  C10 UNL     1      -2.632   6.708  15.581  1.00  0.00     0.074 C 
ENDROOT
BRANCH   2   8
HETATM    8  N1  UNL     1       1.042   8.698  14.186  1.00  0.00    -0.347 N 
HETATM    9  C4  UNL     1       1.739   9.384  13.101  1.00  0.00     0.153 C 
HETATM   10  C5  UNL     1       1.663   8.383  15.396  1.00  0.00     0.247 C 
HETATM   11  O2  UNL     1       1.073   7.851  16.338  1.00  0.00    -0.271 OA
BRANCH  10  12
HETATM   12  C6  UNL     1       3.159   8.697  15.561  1.00  0.00     0.369 C 
BRANCH  12  13
HETATM   13  N2  UNL     1       3.983   7.510  15.283  1.00  0.00     0.087 N 
HETATM   14  H11 UNL     1       3.685   6.765  15.917  1.00  0.00     0.313 HD
HETATM   15  H12 UNL     1       4.947   7.718  15.544  1.00  0.00     0.313 HD
ENDBRANCH  12  13
ENDBRANCH  10  12
ENDBRANCH   2   8
BRANCH   1  16
HETATM   16  O1  UNL     1      -0.180   6.211  12.763  1.00  0.00    -0.384 OA
HETATM   17  C1  UNL     1       1.236   6.155  12.680  1.00  0.00     0.202 C 
ENDBRANCH   1  16
BRANCH   6  18
HETATM   18  N3  UNL     1      -2.700   5.424  13.424  1.00  0.00    -0.308 N 
HETATM   19  C11 UNL     1      -1.962   4.478  12.712  1.00  0.00     0.049 A 
HETATM   20  C12 UNL     1      -0.597   4.388  12.377  1.00  0.00     0.030 A 
HETATM   21  C16 UNL     1      -2.863   3.485  12.283  1.00  0.00     0.004 A 
HETATM   22  C13 UNL     1      -0.140   3.274  11.666  1.00  0.00     0.002 A 
HETATM   23  C14 UNL     1      -1.012   2.269  11.274  1.00  0.00     0.001 A 
HETATM   24  C15 UNL     1      -2.372   2.370  11.568  1.00  0.00     0.014 A 
HETATM   25  C17 UNL     1      -4.173   3.897  12.653  1.00  0.00     0.015 A 
HETATM   26  C18 UNL     1      -5.485   3.431  12.473  1.00  0.00    -0.010 A 
HETATM   27  C28 UNL     1      -4.028   5.095  13.321  1.00  0.00     0.077 A 
HETATM   28  C19 UNL     1      -6.621   4.173  12.925  1.00  0.00     0.054 A 
HETATM   29  C30 UNL     1      -5.955   2.180  11.791  1.00  0.00     0.163 A 
HETATM   30  C20 UNL     1      -6.561   5.412  13.582  1.00  0.00     0.022 A 
HETATM   31  C29 UNL     1      -7.816   3.401  12.553  1.00  0.00     0.253 A 
HETATM   32  C21 UNL     1      -7.448   6.394  14.119  1.00  0.00     0.004 A 
HETATM   33  C27 UNL     1      -5.279   5.889  13.804  1.00  0.00     0.077 A 
HETATM   34  C22 UNL     1      -8.852   6.516  14.204  1.00  0.00     0.014 A 
HETATM   35  C26 UNL     1      -6.663   7.428  14.658  1.00  0.00     0.048 A 
HETATM   36  C23 UNL     1      -9.427   7.640  14.807  1.00  0.00     0.001 A 
HETATM   37  C24 UNL     1      -8.627   8.647  15.330  1.00  0.00     0.002 A 
HETATM   38  C25 UNL     1      -7.235   8.559  15.266  1.00  0.00     0.030 A 
HETATM   39  N4  UNL     1      -5.334   7.077  14.465  1.00  0.00    -0.316 N 
HETATM   40  O4  UNL     1      -8.980   3.677  12.757  1.00  0.00    -0.268 OA
HETATM   41  N5  UNL     1      -7.383   2.262  11.909  1.00  0.00    -0.353 N 
HETATM   42  H27 UNL     1      -8.044   1.585  11.555  1.00  0.00     0.163 HD
ENDBRANCH   6  18
TORSDOF 6
ENDMDL
