MODEL 1
REMARK minimizedAffinity -7.88333893
REMARK  4 active torsions:
REMARK  status: ('A' for Active; 'I' for Inactive)
REMARK    1  A    between atoms: N1_1  and  C1_2 
REMARK    2  A    between atoms: C1_2  and  N2_4 
REMARK    3  A    between atoms: C2_7  and  C3_8 
REMARK    4  A    between atoms: C10_17  and  C11_18 
ROOT
HETATM    1  N2  UNL     1      14.533  35.091  17.815  1.00  0.00    -0.258 N 
HETATM    2  N3  UNL     1      13.492  34.842  18.681  1.00  0.00    -0.299 N 
ATOM      3  H3  UNL     1      13.558  34.366  19.581  1.00  0.00     0.187 HD
HETATM    4  C2  UNL     1      12.413  35.324  18.146  1.00  0.00     0.038 C 
HETATM    5  C9  UNL     1      12.587  35.920  16.777  1.00  0.00     0.091 C 
HETATM    6  C10 UNL     1      14.107  35.902  16.664  1.00  0.00     0.149 C 
ENDROOT
BRANCH   6   7
HETATM    7  C11 UNL     1      14.680  37.310  16.666  1.00  0.00    -0.032 A 
HETATM    8  C12 UNL     1      14.731  38.087  17.832  1.00  0.00     0.010 A 
HETATM    9  C13 UNL     1      15.254  39.382  17.801  1.00  0.00     0.013 A 
HETATM   10  C14 UNL     1      15.732  39.935  16.605  1.00  0.00    -0.026 A 
HETATM   11  C15 UNL     1      16.261  41.235  16.560  1.00  0.00     0.012 A 
HETATM   12  C19 UNL     1      15.679  39.169  15.420  1.00  0.00    -0.025 A 
HETATM   13  C16 UNL     1      16.732  41.773  15.361  1.00  0.00     0.001 A 
HETATM   14  C17 UNL     1      16.679  41.018  14.193  1.00  0.00     0.001 A 
HETATM   15  C18 UNL     1      16.156  39.724  14.221  1.00  0.00     0.012 A 
HETATM   16  C20 UNL     1      15.151  37.867  15.465  1.00  0.00     0.021 A 
ENDBRANCH   6   7
BRANCH   1  17
HETATM   17  C1  UNL     1      15.779  34.532  18.025  1.00  0.00     0.187 C 
HETATM   18  S1  UNL     1      17.081  34.585  16.976  1.00  0.00    -0.040 SA
BRANCH  17  19
HETATM   19  N1  UNL     1      15.964  33.905  19.224  1.00  0.00    -0.375 N 
HETATM   20  H1  UNL     1      16.853  33.422  19.304  1.00  0.00     0.158 HD
HETATM   21  H2  UNL     1      15.188  33.384  19.610  1.00  0.00     0.158 HD
ENDBRANCH  17  19
ENDBRANCH   1  17
BRANCH   4  22
HETATM   22  C3  UNL     1      11.091  35.257  18.812  1.00  0.00    -0.010 A 
HETATM   23  C4  UNL     1      10.920  34.378  19.889  1.00  0.00     0.015 A 
HETATM   24  C5  UNL     1       9.687  34.289  20.541  1.00  0.00     0.026 A 
HETATM   25  C6  UNL     1       8.614  35.078  20.121  1.00  0.00     0.055 A 
HETATM   26 CL1  UNL     1       7.118  34.923  20.968  1.00  0.00    -0.083 Cl
HETATM   27  C7  UNL     1       8.781  35.956  19.043  1.00  0.00     0.056 A 
HETATM   28 CL2  UNL     1       7.499  36.962  18.465  1.00  0.00    -0.083 Cl
HETATM   29  C8  UNL     1      10.016  36.045  18.389  1.00  0.00     0.039 A 
ENDBRANCH   4  22
TORSDOF 4
ENDMDL
