MODEL 1
REMARK minimizedAffinity -6.70359898
REMARK CNNscore 0.470168531
REMARK CNNaffinity 6.18219137
REMARK  5 active torsions:
REMARK  status: ('A' for Active; 'I' for Inactive)
REMARK    1  A    between atoms: C3_4  and  N1_5 
REMARK    2  A    between atoms: N1_5  and  C4_6 
REMARK    3  A    between atoms: C15_24  and  O1_25 
REMARK    4  A    between atoms: O1_25  and  C16_26 
REMARK    5  A    between atoms: C16_26  and  C17_27 
ROOT
HETATM    1  N1  UNL     1      12.166  57.409   0.775  1.00  0.00    -0.342 N 
HETATM    2  H2  UNL     1      11.184  57.471   0.998  1.00  0.00     0.167 HD
ENDROOT
BRANCH   1   3
HETATM    3  C3  UNL     1      12.463  56.546  -0.294  1.00  0.00     0.035 A 
HETATM    4  C2  UNL     1      13.696  55.910  -0.456  1.00  0.00     0.056 A 
HETATM    5  C1  UNL     1      13.927  55.045  -1.533  1.00  0.00     0.069 A 
HETATM    6 CL1  UNL     1      15.489  54.305  -1.653  1.00  0.00    -0.081 Cl
HETATM    7  C15 UNL     1      12.926  54.784  -2.478  1.00  0.00     0.091 A 
HETATM    8  C14 UNL     1      11.686  55.402  -2.316  1.00  0.00     0.041 A 
HETATM    9  C13 UNL     1      11.461  56.266  -1.234  1.00  0.00     0.032 A 
BRANCH   7  10
HETATM   10  O1  UNL     1      13.243  53.926  -3.498  1.00  0.00    -0.345 OA
BRANCH  10  11
HETATM   11  C16 UNL     1      12.284  52.940  -3.864  1.00  0.00     0.214 C 
BRANCH  11  12
HETATM   12  C17 UNL     1      12.557  51.694  -3.059  1.00  0.00    -0.034 A 
HETATM   13  C18 UNL     1      11.561  51.143  -2.241  1.00  0.00     0.009 A 
HETATM   14  C19 UNL     1      11.819  49.996  -1.487  1.00  0.00     0.001 A 
HETATM   15  C20 UNL     1      13.077  49.398  -1.534  1.00  0.00     0.000 A 
HETATM   16  C21 UNL     1      14.080  49.946  -2.332  1.00  0.00     0.001 A 
HETATM   17  C22 UNL     1      13.823  51.092  -3.088  1.00  0.00     0.009 A 
ENDBRANCH  11  12
ENDBRANCH  10  11
ENDBRANCH   7  10
ENDBRANCH   1   3
BRANCH   1  18
HETATM   18  C4  UNL     1      12.911  58.441   1.361  1.00  0.00     0.123 A 
HETATM   19  N2  UNL     1      12.953  59.701   0.835  1.00  0.00    -0.338 N 
HETATM   20  C5  UNL     1      13.625  60.702   1.481  1.00  0.00     0.183 A 
ATOM     21  H2  UNL     1      12.479  59.898  -0.048  1.00  0.00     0.168 HD
HETATM   22  N3  UNL     1      14.311  60.674   2.645  1.00  0.00    -0.337 N 
HETATM   23  C6  UNL     1      14.302  59.433   3.182  1.00  0.00     0.137 A 
ATOM     24  H3  UNL     1      14.773  61.482   3.063  1.00  0.00     0.168 HD
HETATM   25  N4  UNL     1      14.889  59.079   4.321  1.00  0.00    -0.278 N 
HETATM   26  C12 UNL     1      13.633  58.344   2.562  1.00  0.00     0.082 A 
HETATM   27  N5  UNL     1      14.637  57.754   4.443  1.00  0.00    -0.265 N 
ATOM     28  H4  UNL     1      15.413  59.674   4.963  1.00  0.00     0.189 HD
HETATM   29  C7  UNL     1      15.049  56.937   5.499  1.00  0.00     0.116 A 
HETATM   30  C11 UNL     1      13.891  57.252   3.359  1.00  0.00     0.073 A 
HETATM   31  C8  UNL     1      14.759  55.628   5.499  1.00  0.00     0.019 A 
HETATM   32  C9  UNL     1      14.035  55.077   4.369  1.00  0.00     0.004 A 
HETATM   33  C10 UNL     1      13.624  55.849   3.346  1.00  0.00     0.032 A 
ENDBRANCH   1  18
TORSDOF 5
ENDMDL
