MODEL 1
REMARK minimizedAffinity -10.0070934
REMARK  5 active torsions:
REMARK  status: ('A' for Active; 'I' for Inactive)
REMARK    1  A    between atoms: O1_2  and  C2_3 
REMARK    2  A    between atoms: C4_5  and  N1_6 
REMARK    3  A    between atoms: N1_6  and  C5_7 
REMARK    4  A    between atoms: C9_13  and  C10_14 
REMARK    5  A    between atoms: C20_30  and  O3_31 
ROOT
HETATM    1  C5  UNL     1       4.941  -4.927  29.169  1.00  0.00     0.684 A 
HETATM    2  N2  UNL     1       4.636  -3.852  29.906  1.00  0.00    -0.201 N 
ATOM      3  H2  UNL     1       3.741  -3.373  29.798  1.00  0.00     0.183 HD
HETATM    4  C6  UNL     1       5.551  -3.425  30.795  1.00  0.00     0.121 A 
HETATM    5  C7  UNL     1       6.770  -4.031  30.982  1.00  0.00     0.026 A 
HETATM    6  C8  UNL     1       7.755  -3.565  31.944  1.00  0.00     0.034 A 
HETATM    7  C9  UNL     1       8.922  -4.217  32.062  1.00  0.00     0.047 A 
HETATM    8  C16 UNL     1       9.219  -5.420  31.212  1.00  0.00     0.260 A 
HETATM    9  O2  UNL     1      10.298  -5.998  31.343  1.00  0.00    -0.267 OA
HETATM   10  N3  UNL     1       8.240  -5.816  30.314  1.00  0.00    -0.303 N 
HETATM   11  C17 UNL     1       8.464  -6.970  29.462  1.00  0.00     0.161 C 
HETATM   12  C18 UNL     1       7.004  -5.132  30.182  1.00  0.00     0.137 A 
HETATM   13  N4  UNL     1       6.106  -5.584  29.282  1.00  0.00    -0.175 N 
ATOM     14  H4  UNL     1       6.306  -6.400  28.704  1.00  0.00     0.186 HD
ENDROOT
BRANCH   1  15
HETATM   15  N1  UNL     1       4.065  -5.450  28.222  1.00  0.00    -0.191 N 
HETATM   16  H5  UNL     1       3.824  -4.722  27.567  1.00  0.00     0.184 HD
BRANCH  15  17
HETATM   17  C4  UNL     1       3.488  -6.710  28.015  1.00  0.00     0.054 A 
HETATM   18  C3  UNL     1       4.314  -7.756  27.564  1.00  0.00     0.066 A 
HETATM   19  C2  UNL     1       3.805  -9.037  27.336  1.00  0.00     0.073 A 
HETATM   20  C22 UNL     1       2.450  -9.290  27.558  1.00  0.00     0.073 A 
HETATM   21  C20 UNL     1       1.610  -8.272  28.003  1.00  0.00     0.073 A 
HETATM   22  C19 UNL     1       2.136  -6.995  28.227  1.00  0.00     0.066 A 
BRANCH  19  23
HETATM   23  O1  UNL     1       4.520 -10.121  26.900  1.00  0.00    -0.356 OA
HETATM   24  C1  UNL     1       5.934  -9.988  26.854  1.00  0.00     0.210 C 
ENDBRANCH  19  23
BRANCH  21  25
HETATM   25  O3  UNL     1       0.270  -8.393  28.257  1.00  0.00    -0.356 OA
HETATM   26  C21 UNL     1      -0.569  -8.708  27.154  1.00  0.00     0.210 C 
ENDBRANCH  21  25
ENDBRANCH  15  17
ENDBRANCH   1  15
BRANCH   7  27
HETATM   27  C10 UNL     1       9.927  -3.749  33.036  1.00  0.00     0.023 A 
HETATM   28  C11 UNL     1       9.875  -4.159  34.382  1.00  0.00     0.046 A 
HETATM   29 CL1  UNL     1       8.623  -5.199  34.973  1.00  0.00    -0.083 Cl
HETATM   30  C12 UNL     1      10.837  -3.726  35.300  1.00  0.00     0.025 A 
HETATM   31  C13 UNL     1      11.866  -2.881  34.893  1.00  0.00     0.003 A 
HETATM   32  C14 UNL     1      11.934  -2.465  33.564  1.00  0.00     0.025 A 
HETATM   33  C15 UNL     1      10.974  -2.895  32.642  1.00  0.00     0.046 A 
HETATM   34 CL2  UNL     1      11.125  -2.323  31.014  1.00  0.00    -0.083 Cl
ENDBRANCH   7  27
TORSDOF 5
ENDMDL
