MODEL 1
REMARK minimizedAffinity -10.3140621
REMARK CNNscore 0.801736653
REMARK CNNaffinity 7.46496964
REMARK  4 active torsions:
REMARK  status: ('A' for Active; 'I' for Inactive)
REMARK    1  A    between atoms: O1_2  and  C2_3 
REMARK    2  A    between atoms: C5_6  and  N1_7 
REMARK    3  A    between atoms: N1_7  and  C6_8 
REMARK    4  A    between atoms: C10_14  and  C11_15 
ROOT
HETATM    1  C6  UNL     1       4.755  -5.035  29.293  1.00  0.00     0.684 A 
HETATM    2  N2  UNL     1       4.469  -3.966  30.049  1.00  0.00    -0.201 N 
ATOM      3  H2  UNL     1       3.561  -3.503  29.989  1.00  0.00     0.183 HD
HETATM    4  C7  UNL     1       5.423  -3.526  30.889  1.00  0.00     0.121 A 
HETATM    5  C8  UNL     1       6.661  -4.110  31.010  1.00  0.00     0.026 A 
HETATM    6  C9  UNL     1       7.685  -3.628  31.920  1.00  0.00     0.034 A 
HETATM    7  C10 UNL     1       8.868  -4.259  31.975  1.00  0.00     0.047 A 
HETATM    8  C17 UNL     1       9.143  -5.455  31.108  1.00  0.00     0.260 A 
HETATM    9  O2  UNL     1      10.237  -6.013  31.181  1.00  0.00    -0.267 OA
HETATM   10  N3  UNL     1       8.125  -5.866  30.262  1.00  0.00    -0.303 N 
HETATM   11  C18 UNL     1       8.325  -7.015  29.395  1.00  0.00     0.161 C 
HETATM   12  C19 UNL     1       6.873  -5.205  30.196  1.00  0.00     0.137 A 
HETATM   13  N4  UNL     1       5.936  -5.671  29.343  1.00  0.00    -0.175 N 
ATOM     14  H4  UNL     1       6.120  -6.484  28.754  1.00  0.00     0.186 HD
ENDROOT
BRANCH   1  15
HETATM   15  N1  UNL     1       3.840  -5.572  28.392  1.00  0.00    -0.192 N 
HETATM   16  H6  UNL     1       3.381  -4.818  27.903  1.00  0.00     0.184 HD
BRANCH  15  17
HETATM   17  C5  UNL     1       3.455  -6.871  28.051  1.00  0.00     0.050 A 
HETATM   18  C4  UNL     1       4.346  -7.880  27.682  1.00  0.00     0.033 A 
HETATM   19  C3  UNL     1       3.897  -9.166  27.350  1.00  0.00     0.039 A 
HETATM   20  C2  UNL     1       2.537  -9.475  27.380  1.00  0.00     0.074 A 
HETATM   21  C21 UNL     1       1.620  -8.480  27.746  1.00  0.00    -0.026 A 
HETATM   22  C20 UNL     1       2.089  -7.195  28.077  1.00  0.00     0.039 A 
HETATM   23  C22 UNL     1       0.145  -8.771  27.791  1.00  0.00     0.051 C 
BRANCH  20  24
HETATM   24  O1  UNL     1       2.001 -10.699  27.074  1.00  0.00    -0.355 OA
HETATM   25  C1  UNL     1       2.908 -11.775  26.874  1.00  0.00     0.210 C 
ENDBRANCH  20  24
ENDBRANCH  15  17
ENDBRANCH   1  15
BRANCH   7  26
HETATM   26  C11 UNL     1       9.915  -3.776  32.898  1.00  0.00     0.023 A 
HETATM   27  C12 UNL     1       9.896  -4.129  34.260  1.00  0.00     0.046 A 
HETATM   28 CL1  UNL     1       8.676  -5.166  34.920  1.00  0.00    -0.083 Cl
HETATM   29  C13 UNL     1      10.880  -3.657  35.137  1.00  0.00     0.025 A 
HETATM   30  C14 UNL     1      11.895  -2.826  34.670  1.00  0.00     0.003 A 
HETATM   31  C15 UNL     1      11.930  -2.466  33.324  1.00  0.00     0.025 A 
HETATM   32  C16 UNL     1      10.948  -2.935  32.444  1.00  0.00     0.046 A 
HETATM   33 CL2  UNL     1      11.070  -2.450  30.786  1.00  0.00    -0.083 Cl
ENDBRANCH   7  26
TORSDOF 4
ENDMDL
