MODEL 1
REMARK minimizedAffinity -10.5361052
REMARK CNNscore 0.84529084
REMARK CNNaffinity 7.52105188
REMARK  3 active torsions:
REMARK  status: ('A' for Active; 'I' for Inactive)
REMARK    1  A    between atoms: C3_5  and  C4_6 
REMARK    2  A    between atoms: C13_19  and  N3_20 
REMARK    3  A    between atoms: N3_20  and  C14_21 
ROOT
HETATM    1  C1  UNL     1       8.322  -7.207  29.359  1.00  0.00     0.161 C 
HETATM    2  N1  UNL     1       8.094  -6.035  30.186  1.00  0.00    -0.303 N 
HETATM    3  C2  UNL     1       9.098  -5.569  31.018  1.00  0.00     0.260 A 
HETATM    4  O1  UNL     1      10.207  -6.096  31.110  1.00  0.00    -0.267 OA
HETATM    5  C3  UNL     1       8.794  -4.353  31.845  1.00  0.00     0.047 A 
HETATM    6  C10 UNL     1       7.594  -3.754  31.769  1.00  0.00     0.034 A 
HETATM    7  C11 UNL     1       6.582  -4.293  30.875  1.00  0.00     0.026 A 
HETATM    8  C12 UNL     1       5.329  -3.745  30.735  1.00  0.00     0.121 A 
HETATM    9  N2  UNL     1       4.387  -4.239  29.908  1.00  0.00    -0.201 N 
ATOM     10  H2  UNL     1       3.469  -3.803  29.832  1.00  0.00     0.183 HD
HETATM   11  C13 UNL     1       4.706  -5.328  29.190  1.00  0.00     0.684 A 
HETATM   12  N4  UNL     1       5.900  -5.927  29.263  1.00  0.00    -0.175 N 
ATOM     13  H4  UNL     1       6.107  -6.753  28.701  1.00  0.00     0.186 HD
HETATM   14  C20 UNL     1       6.824  -5.409  30.099  1.00  0.00     0.137 A 
ENDROOT
BRANCH  11  15
HETATM   15  N3  UNL     1       3.692  -5.790  28.356  1.00  0.00    -0.192 N 
HETATM   16  H9  UNL     1       3.202  -4.994  27.971  1.00  0.00     0.184 HD
BRANCH  15  17
HETATM   17  C14 UNL     1       3.246  -7.058  27.971  1.00  0.00     0.050 A 
HETATM   18  C15 UNL     1       4.096  -8.096  27.570  1.00  0.00     0.030 A 
HETATM   19  C16 UNL     1       3.592  -9.347  27.194  1.00  0.00     0.004 A 
HETATM   20  C17 UNL     1       2.220  -9.583  27.211  1.00  0.00     0.019 A 
HETATM   21  C18 UNL     1       1.362  -8.563  27.606  1.00  0.00     0.013 A 
HETATM   22 BR1  UNL     1      -0.505  -8.868  27.635  1.00  0.00    -0.051 Br
HETATM   23  C19 UNL     1       1.865  -7.315  27.982  1.00  0.00     0.049 A 
ENDBRANCH  15  17
ENDBRANCH  11  15
BRANCH   5  24
HETATM   24  C4  UNL     1       9.826  -3.811  32.750  1.00  0.00     0.023 A 
HETATM   25  C5  UNL     1      10.810  -2.925  32.276  1.00  0.00     0.046 A 
HETATM   26 CL1  UNL     1      10.846  -2.394  30.628  1.00  0.00    -0.083 Cl
HETATM   27  C6  UNL     1      11.797  -2.425  33.132  1.00  0.00     0.025 A 
HETATM   28  C7  UNL     1      11.821  -2.803  34.473  1.00  0.00     0.003 A 
HETATM   29  C8  UNL     1      10.854  -3.681  34.960  1.00  0.00     0.025 A 
HETATM   30  C9  UNL     1       9.865  -4.182  34.107  1.00  0.00     0.046 A 
HETATM   31 CL2  UNL     1       8.694  -5.258  34.795  1.00  0.00    -0.083 Cl
ENDBRANCH   5  24
TORSDOF 3
ENDMDL
