MODEL 1
REMARK minimizedAffinity -7.8507905
REMARK  3 active torsions:
REMARK  status: ('A' for Active; 'I' for Inactive)
REMARK    1  A    between atoms: C4_4  and  C5_5 
REMARK    2  A    between atoms: N2_8  and  C6_9 
REMARK    3  A    between atoms: C12_15  and  C13_16 
ROOT
HETATM    1  C5  UNL     1      14.075  58.803   2.787  1.00  0.00     0.038 C 
HETATM    2  N1  UNL     1      14.116  57.514   2.936  1.00  0.00    -0.301 N 
ATOM      3  H1  UNL     1      13.720  56.819   2.303  1.00  0.00     0.187 HD
HETATM    4  N2  UNL     1      14.790  57.261   4.097  1.00  0.00    -0.283 N 
HETATM    5  C12 UNL     1      15.139  58.476   4.836  1.00  0.00     0.147 C 
HETATM    6  C23 UNL     1      14.800  59.590   3.843  1.00  0.00     0.091 C 
ENDROOT
BRANCH   5   7
HETATM    7  C13 UNL     1      14.355  58.650   6.129  1.00  0.00    -0.032 A 
HETATM    8  C14 UNL     1      14.778  58.085   7.340  1.00  0.00     0.010 A 
HETATM    9  C15 UNL     1      14.022  58.242   8.504  1.00  0.00     0.013 A 
HETATM   10  C16 UNL     1      12.818  58.960   8.487  1.00  0.00    -0.026 A 
HETATM   11  C17 UNL     1      12.047  59.125   9.649  1.00  0.00     0.012 A 
HETATM   12  C21 UNL     1      12.371  59.529   7.273  1.00  0.00    -0.025 A 
HETATM   13  C18 UNL     1      10.851  59.842   9.616  1.00  0.00     0.001 A 
HETATM   14  C19 UNL     1      10.409  60.401   8.421  1.00  0.00     0.001 A 
HETATM   15  C20 UNL     1      11.164  60.247   7.257  1.00  0.00     0.012 A 
HETATM   16  C22 UNL     1      13.143  59.364   6.111  1.00  0.00     0.021 A 
ENDBRANCH   5   7
BRANCH   4  17
HETATM   17  C6  UNL     1      15.195  55.966   4.422  1.00  0.00     0.051 A 
HETATM   18  C7  UNL     1      14.260  55.005   4.842  1.00  0.00     0.031 A 
HETATM   19  C8  UNL     1      14.637  53.699   5.175  1.00  0.00     0.002 A 
HETATM   20  C9  UNL     1      15.972  53.322   5.099  1.00  0.00     0.000 A 
HETATM   21  C10 UNL     1      16.923  54.251   4.691  1.00  0.00     0.002 A 
HETATM   22  C11 UNL     1      16.536  55.555   4.358  1.00  0.00     0.031 A 
ENDBRANCH   4  17
BRANCH   1  23
HETATM   23  C4  UNL     1      13.398  59.465   1.647  1.00  0.00    -0.012 A 
HETATM   24  C3  UNL     1      12.807  60.726   1.778  1.00  0.00     0.013 A 
HETATM   25  C2  UNL     1      12.177  61.321   0.682  1.00  0.00     0.001 A 
HETATM   26  C1  UNL     1      12.136  60.662  -0.546  1.00  0.00     0.000 A 
HETATM   27  C25 UNL     1      12.725  59.406  -0.683  1.00  0.00     0.001 A 
HETATM   28  C24 UNL     1      13.356  58.809   0.410  1.00  0.00     0.013 A 
ENDBRANCH   1  23
TORSDOF 3
ENDMDL
