MODEL 1
REMARK minimizedAffinity -8.07804108
REMARK CNNscore 0.16335924
REMARK CNNaffinity 6.20596886
REMARK  4 active torsions:
REMARK  status: ('A' for Active; 'I' for Inactive)
REMARK    1  A    between atoms: C5_5  and  C6_6 
REMARK    2  A    between atoms: C8_10  and  C9_11 
REMARK       I    between atoms: N3_21  and  C16_22 
REMARK    3  A    between atoms: C16_22  and  C17_24 
REMARK    4  A    between atoms: N6_33  and  C22_34 
ROOT
HETATM    1  C6  UNL     1     -11.974   9.650  21.421  1.00  0.00     0.141 C 
HETATM    2  N1  UNL     1     -11.121  10.521  21.867  1.00  0.00    -0.336 N 
ATOM      3  H1  UNL     1     -10.595  11.108  21.220  1.00  0.00     0.168 HD
HETATM    4  C7  UNL     1     -10.937  10.640  23.221  1.00  0.00     0.104 C 
HETATM    5  C8  UNL     1     -10.057  11.503  23.765  1.00  0.00     0.046 C 
HETATM    6  C15 UNL     1     -11.762   9.845  24.188  1.00  0.00     0.287 C 
HETATM    7  O1  UNL     1     -11.751  10.014  25.404  1.00  0.00    -0.264 OA
HETATM    8  N2  UNL     1     -12.556   8.892  23.617  1.00  0.00    -0.253 N 
HETATM    9  N3  UNL     1     -12.727   8.769  22.220  1.00  0.00    -0.197 N 
HETATM   10  C16 UNL     1     -13.546   7.724  21.741  1.00  0.00     0.312 C 
HETATM   11  O2  UNL     1     -13.633   7.327  20.580  1.00  0.00    -0.262 OA
HETATM   12  H11 UNL     1     -13.227   8.437  24.235  1.00  0.00     0.191 HD
ENDROOT
BRANCH   1  13
HETATM   13  C5  UNL     1     -12.157   9.607  19.953  1.00  0.00     0.010 A 
HETATM   14  C4  UNL     1     -13.345  10.081  19.388  1.00  0.00     0.016 A 
HETATM   15  C3  UNL     1     -13.490  10.079  18.000  1.00  0.00     0.007 A 
HETATM   16  C2  UNL     1     -12.455   9.609  17.178  1.00  0.00    -0.062 A 
HETATM   17  C1  UNL     1     -12.598   9.635  15.683  1.00  0.00     0.048 C 
HETATM   18  C30 UNL     1     -11.257   9.170  17.759  1.00  0.00     0.007 A 
HETATM   19  C29 UNL     1     -11.102   9.173  19.147  1.00  0.00     0.016 A 
ENDBRANCH   1  13
BRANCH  10  20
HETATM   20  C17 UNL     1     -14.387   6.936  22.738  1.00  0.00     0.181 A 
HETATM   21  N4  UNL     1     -13.955   5.838  23.298  1.00  0.00    -0.322 N 
HETATM   22  C18 UNL     1     -14.844   5.281  24.174  1.00  0.00     0.147 A 
ATOM     23  H4  UNL     1     -13.039   5.434  23.100  1.00  0.00     0.169 HD
HETATM   24  C19 UNL     1     -16.098   5.772  24.473  1.00  0.00     0.101 A 
HETATM   25  N6  UNL     1     -14.698   4.117  24.933  1.00  0.00    -0.239 N 
HETATM   26  C20 UNL     1     -16.671   4.872  25.378  1.00  0.00     0.042 A 
HETATM   27  C28 UNL     1     -16.551   6.989  23.862  1.00  0.00     0.263 A 
HETATM   28  C21 UNL     1     -18.016   4.935  26.005  1.00  0.00     0.071 C 
HETATM   29  N5  UNL     1     -15.842   3.861  25.646  1.00  0.00    -0.295 N 
ATOM     30  H5  UNL     1     -16.021   3.062  26.254  1.00  0.00     0.187 HD
HETATM   31  O3  UNL     1     -17.631   7.517  24.085  1.00  0.00    -0.267 OA
HETATM   32  N7  UNL     1     -15.628   7.510  22.986  1.00  0.00    -0.304 N 
HETATM   33  H20 UNL     1     -15.856   8.395  22.546  1.00  0.00     0.171 HD
BRANCH  25  34
HETATM   34  C22 UNL     1     -13.588   3.224  25.041  1.00  0.00     0.058 A 
HETATM   35  C23 UNL     1     -12.815   2.958  23.898  1.00  0.00     0.031 A 
HETATM   36  C24 UNL     1     -11.710   2.104  23.968  1.00  0.00     0.002 A 
HETATM   37  C25 UNL     1     -11.367   1.506  25.178  1.00  0.00     0.000 A 
HETATM   38  C26 UNL     1     -12.134   1.754  26.314  1.00  0.00     0.002 A 
HETATM   39  C27 UNL     1     -13.243   2.603  26.248  1.00  0.00     0.031 A 
ENDBRANCH  25  34
ENDBRANCH  10  20
BRANCH   5  40
HETATM   40  C9  UNL     1      -9.162  12.419  23.040  1.00  0.00    -0.034 A 
HETATM   41  C10 UNL     1      -8.130  13.053  23.749  1.00  0.00     0.013 A 
HETATM   42  C11 UNL     1      -7.236  13.907  23.094  1.00  0.00     0.024 A 
HETATM   43  C12 UNL     1      -7.362  14.120  21.724  1.00  0.00     0.034 A 
HETATM   44 CL1  UNL     1      -6.263  15.169  20.917  1.00  0.00    -0.084 Cl
HETATM   45  C13 UNL     1      -8.370  13.486  21.002  1.00  0.00     0.024 A 
HETATM   46  C14 UNL     1      -9.262  12.633  21.658  1.00  0.00     0.013 A 
ENDBRANCH   5  40
TORSDOF 4
ENDMDL
