MODEL 1
REMARK minimizedAffinity -8.42607212
REMARK  6 active torsions:
REMARK  status: ('A' for Active; 'I' for Inactive)
REMARK    1  A    between atoms: O1_1  and  C1_2 
REMARK    2  A    between atoms: C1_2  and  C2_3 
REMARK    3  A    between atoms: C6_12  and  N4_13 
REMARK    4  A    between atoms: N4_13  and  C7_14 
REMARK    5  A    between atoms: N6_22  and  C13_23 
REMARK    6  A    between atoms: C13_23  and  C14_24 
ROOT
HETATM    1  C7  UNL     1      12.320  35.031  18.101  1.00  0.00     0.034 A 
HETATM    2  C8  UNL     1      12.670  35.841  17.006  1.00  0.00     0.032 A 
HETATM    3  C9  UNL     1      13.984  35.938  16.526  1.00  0.00     0.034 A 
HETATM    4  C10 UNL     1      14.962  35.183  17.181  1.00  0.00     0.062 A 
HETATM    5  C11 UNL     1      14.658  34.362  18.261  1.00  0.00     0.011 A 
HETATM    6  C12 UNL     1      15.891  33.780  18.626  1.00  0.00     0.121 A 
HETATM    7  N5  UNL     1      16.904  34.191  17.862  1.00  0.00    -0.308 N 
ATOM      8  H5  UNL     1      17.888  33.931  17.925  1.00  0.00     0.186 HD
HETATM    9  N6  UNL     1      16.316  35.035  16.983  1.00  0.00    -0.288 N 
HETATM   10  C20 UNL     1      13.329  34.284  18.724  1.00  0.00     0.044 A 
ENDROOT
BRANCH   1  11
HETATM   11  N4  UNL     1      10.970  35.013  18.506  1.00  0.00    -0.341 N 
HETATM   12  H7  UNL     1      10.331  35.408  17.816  1.00  0.00     0.167 HD
BRANCH  11  13
HETATM   13  C6  UNL     1      10.409  34.747  19.739  1.00  0.00     0.136 A 
HETATM   14  N3  UNL     1      11.027  34.080  20.668  1.00  0.00    -0.336 N 
HETATM   15  C5  UNL     1      10.438  33.884  21.889  1.00  0.00     0.199 A 
ATOM     16  H3  UNL     1      11.957  33.700  20.487  1.00  0.00     0.168 HD
HETATM   17  N2  UNL     1       9.275  34.305  22.270  1.00  0.00    -0.289 N 
HETATM   18  N1  UNL     1       8.618  34.983  21.323  1.00  0.00    -0.262 N 
ATOM     19  H2  UNL     1       8.897  34.136  23.202  1.00  0.00     0.188 HD
HETATM   20  C4  UNL     1       7.371  35.527  21.461  1.00  0.00     0.117 A 
HETATM   21  C21 UNL     1       9.088  35.230  20.066  1.00  0.00     0.108 A 
HETATM   22  C3  UNL     1       7.023  36.113  20.265  1.00  0.00     0.031 A 
HETATM   23  C2  UNL     1       8.108  35.920  19.359  1.00  0.00    -0.001 A 
BRANCH  23  24
HETATM   24  C1  UNL     1       8.139  36.369  17.939  1.00  0.00     0.205 C 
BRANCH  24  25
HETATM   25  O1  UNL     1       8.551  35.307  17.081  1.00  0.00    -0.396 OA
HETATM   26  H1  UNL     1       9.470  35.104  17.342  1.00  0.00     0.209 HD
ENDBRANCH  24  25
ENDBRANCH  23  24
ENDBRANCH  11  13
ENDBRANCH   1  11
BRANCH   9  27
HETATM   27  C13 UNL     1      17.139  35.717  15.992  1.00  0.00     0.187 C 
BRANCH  27  28
HETATM   28  C14 UNL     1      17.193  34.970  14.682  1.00  0.00    -0.035 A 
HETATM   29  C15 UNL     1      18.280  34.134  14.378  1.00  0.00     0.009 A 
HETATM   30  C16 UNL     1      18.324  33.433  13.169  1.00  0.00     0.004 A 
HETATM   31  C17 UNL     1      17.280  33.554  12.255  1.00  0.00     0.042 A 
HETATM   32  C18 UNL     1      16.199  34.375  12.555  1.00  0.00     0.117 A 
HETATM   33  F1  UNL     1      15.192  34.484  11.679  1.00  0.00    -0.206 F 
HETATM   34  C19 UNL     1      16.145  35.079  13.754  1.00  0.00     0.051 A 
ENDBRANCH  27  28
ENDBRANCH   9  27
TORSDOF 6
ENDMDL
