MODEL 1
REMARK minimizedAffinity -9.01030922
REMARK  8 active torsions:
REMARK  status: ('A' for Active; 'I' for Inactive)
REMARK    1  A    between atoms: C2_2  and  C3_3 
REMARK       I    between atoms: C3_3  and  N1_5 
REMARK    2  A    between atoms: N1_5  and  C4_6 
REMARK    3  A    between atoms: C8_10  and  C9_11 
REMARK    4  A    between atoms: C12_21  and  N5_22 
REMARK    5  A    between atoms: N5_22  and  C13_23 
REMARK    6  A    between atoms: C13_23  and  C14_24 
REMARK    7  A    between atoms: C13_23  and  C15_26 
REMARK    8  A    between atoms: C14_24  and  O3_25 
ROOT
HETATM    1  C9  UNL     1      -0.573   6.381  14.328  1.00  0.00     0.083 A 
HETATM    2  N2  UNL     1      -1.109   6.718  15.510  1.00  0.00    -0.257 N 
ATOM      3  H2  UNL     1      -2.059   6.533  15.831  1.00  0.00     0.195 HD
HETATM    4  O2  UNL     1      -0.103   7.369  16.204  1.00  0.00    -0.218 OA
HETATM    5  C10 UNL     1       1.024   7.422  15.442  1.00  0.00     0.187 A 
HETATM    6  N3  UNL     1       2.165   7.995  15.848  1.00  0.00    -0.330 N 
ATOM      7  H3  UNL     1       2.296   8.443  16.755  1.00  0.00     0.168 HD
HETATM    8  C11 UNL     1       3.109   7.903  14.907  1.00  0.00     0.183 A 
HETATM    9  N4  UNL     1       3.010   7.326  13.689  1.00  0.00    -0.342 N 
ATOM     10  H4  UNL     1       3.815   7.309  13.062  1.00  0.00     0.167 HD
HETATM   11  C12 UNL     1       1.834   6.770  13.306  1.00  0.00     0.098 A 
HETATM   12  C21 UNL     1       0.781   6.800  14.232  1.00  0.00     0.085 A 
ENDROOT
BRANCH   1  13
HETATM   13  C8  UNL     1      -1.358   5.682  13.327  1.00  0.00    -0.004 A 
HETATM   14  C7  UNL     1      -0.763   5.280  12.129  1.00  0.00     0.014 A 
HETATM   15  C6  UNL     1      -1.504   4.553  11.201  1.00  0.00     0.003 A 
HETATM   16  C5  UNL     1      -2.838   4.227  11.466  1.00  0.00     0.029 A 
HETATM   17  C4  UNL     1      -3.450   4.633  12.654  1.00  0.00     0.035 A 
HETATM   18  C22 UNL     1      -2.702   5.368  13.582  1.00  0.00     0.043 A 
BRANCH  17  19
HETATM   19  N1  UNL     1      -4.795   4.356  12.986  1.00  0.00    -0.324 N 
HETATM   20  C3  UNL     1      -5.686   3.582  12.272  1.00  0.00     0.244 C 
HETATM   21  O1  UNL     1      -5.461   2.945  11.251  1.00  0.00    -0.268 OA
HETATM   22  H4  UNL     1      -5.128   4.768  13.847  1.00  0.00     0.169 HD
BRANCH  20  23
HETATM   23  C2  UNL     1      -7.040   3.572  12.903  1.00  0.00     0.064 C 
HETATM   24  C1  UNL     1      -7.824   4.658  12.852  1.00  0.00     0.017 C 
ENDBRANCH  20  23
ENDBRANCH  17  19
ENDBRANCH   1  13
BRANCH  11  25
HETATM   25  N5  UNL     1       1.744   6.150  12.058  1.00  0.00    -0.267 NA
HETATM   26  H9  UNL     1       0.874   6.406  11.601  1.00  0.00     0.130 HD
BRANCH  25  27
HETATM   27  C13 UNL     1       2.852   6.314  11.089  1.00  0.00     0.118 C 
BRANCH  27  28
HETATM   28  C14 UNL     1       4.103   7.033  11.663  1.00  0.00     0.188 C 
BRANCH  28  29
HETATM   29  O3  UNL     1       5.243   6.213  11.896  1.00  0.00    -0.399 OA
HETATM   30  H13 UNL     1       5.291   5.614  11.121  1.00  0.00     0.209 HD
ENDBRANCH  28  29
ENDBRANCH  27  28
BRANCH  27  31
HETATM   31  C15 UNL     1       2.335   6.730   9.719  1.00  0.00    -0.038 A 
HETATM   32  C16 UNL     1       2.797   6.156   8.528  1.00  0.00     0.009 A 
HETATM   33  C17 UNL     1       2.315   6.592   7.290  1.00  0.00     0.001 A 
HETATM   34  C18 UNL     1       1.366   7.607   7.225  1.00  0.00     0.000 A 
HETATM   35  C19 UNL     1       0.898   8.195   8.397  1.00  0.00     0.001 A 
HETATM   36  C20 UNL     1       1.379   7.761   9.633  1.00  0.00     0.009 A 
ENDBRANCH  27  31
ENDBRANCH  25  27
ENDBRANCH  11  25
TORSDOF 8
ENDMDL
