MODEL 1
REMARK minimizedAffinity -8.30284691
REMARK  6 active torsions:
REMARK  status: ('A' for Active; 'I' for Inactive)
REMARK    1  A    between atoms: O1_2  and  C2_3 
REMARK    2  A    between atoms: C4_5  and  N1_6 
REMARK    3  A    between atoms: N1_6  and  C5_7 
REMARK    4  A    between atoms: C9_15  and  O2_16 
REMARK    5  A    between atoms: C11_18  and  O3_19 
REMARK    6  A    between atoms: C16_24  and  O4_25 
ROOT
HETATM    1  C5  UNL     1       9.303  -5.403  29.259  1.00  0.00     0.073 A 
HETATM    2  N2  UNL     1       9.926  -5.255  28.092  1.00  0.00    -0.350 N 
ATOM      3  H2  UNL     1       9.641  -5.867  27.328  1.00  0.00     0.166 HD
HETATM    4  C6  UNL     1      10.898  -4.368  27.838  1.00  0.00     0.181 A 
HETATM    5  N3  UNL     1      11.285  -3.549  28.847  1.00  0.00    -0.352 N 
ATOM      6  H3  UNL     1      12.023  -2.865  28.679  1.00  0.00     0.166 HD
HETATM    7  C7  UNL     1      10.717  -3.619  30.063  1.00  0.00     0.048 A 
HETATM    8  C8  UNL     1      11.152  -2.762  31.041  1.00  0.00     0.070 A 
HETATM    9  C9  UNL     1      10.598  -2.795  32.305  1.00  0.00     0.103 A 
HETATM   10  C11 UNL     1       9.600  -3.715  32.548  1.00  0.00     0.102 A 
HETATM   11  C13 UNL     1       9.171  -4.578  31.541  1.00  0.00     0.055 A 
HETATM   12  C14 UNL     1       9.704  -4.561  30.287  1.00  0.00     0.022 A 
ENDROOT
BRANCH   1  13
HETATM   13  N1  UNL     1       8.287  -6.345  29.489  1.00  0.00     0.000 N 
HETATM   14  H5  UNL     1       8.529  -7.314  29.794  1.00  0.00     0.000 HD
HETATM   15  H20 UNL     1       7.892  -5.971  29.497  1.00  0.00     0.145 HD
HETATM   16 CL1  UNL     1       9.262  -6.051  29.581  1.00  0.00    -0.145 Cl
BRANCH  13  17
HETATM   17  C4  UNL     1       6.891  -6.100  29.338  1.00  0.00    -0.021 A 
HETATM   18  C3  UNL     1       6.039  -6.892  28.614  1.00  0.00     0.049 A 
HETATM   19  C2  UNL     1       4.682  -6.595  28.521  1.00  0.00     0.071 A 
HETATM   20  C18 UNL     1       4.132  -5.498  29.147  1.00  0.00     0.073 A 
HETATM   21  C16 UNL     1       4.980  -4.695  29.877  1.00  0.00     0.071 A 
HETATM   22  C15 UNL     1       6.310  -4.990  29.965  1.00  0.00     0.049 A 
BRANCH  19  23
HETATM   23  O1  UNL     1       3.861  -7.422  27.780  1.00  0.00    -0.356 OA
HETATM   24  C1  UNL     1       4.266  -8.701  27.336  1.00  0.00     0.210 C 
ENDBRANCH  19  23
BRANCH  21  25
HETATM   25  O4  UNL     1       4.522  -3.564  30.547  1.00  0.00    -0.356 OA
HETATM   26  C17 UNL     1       5.478  -2.721  31.157  1.00  0.00     0.210 C 
ENDBRANCH  21  25
ENDBRANCH  13  17
ENDBRANCH   1  13
BRANCH  10  27
HETATM   27  O3  UNL     1       9.040  -3.756  33.807  1.00  0.00    -0.353 OA
HETATM   28  C12 UNL     1       8.976  -4.907  34.611  1.00  0.00     0.210 C 
ENDBRANCH  10  27
BRANCH   9  29
HETATM   29  O2  UNL     1      10.998  -1.953  33.333  1.00  0.00    -0.353 OA
HETATM   30  C10 UNL     1      12.063  -2.284  34.203  1.00  0.00     0.210 C 
ENDBRANCH   9  29
TORSDOF 6
ENDMDL
