MODEL 1
REMARK minimizedAffinity -10.1450195
REMARK  4 active torsions:
REMARK  status: ('A' for Active; 'I' for Inactive)
REMARK    1  A    between atoms: O1_2  and  C2_3 
REMARK    2  A    between atoms: C7_8  and  N1_9 
REMARK    3  A    between atoms: N1_9  and  C8_10 
REMARK    4  A    between atoms: C12_16  and  C13_17 
ROOT
HETATM    1  C8  UNL     1       4.981  -5.192  29.105  1.00  0.00     0.684 A 
HETATM    2  N2  UNL     1       4.634  -4.113  29.824  1.00  0.00    -0.201 N 
ATOM      3  H2  UNL     1       3.725  -3.666  29.703  1.00  0.00     0.183 HD
HETATM    4  C9  UNL     1       5.531  -3.643  30.710  1.00  0.00     0.121 A 
HETATM    5  C10 UNL     1       6.769  -4.205  30.912  1.00  0.00     0.026 A 
HETATM    6  C11 UNL     1       7.733  -3.692  31.870  1.00  0.00     0.034 A 
HETATM    7  C12 UNL     1       8.921  -4.303  32.004  1.00  0.00     0.047 A 
HETATM    8  C19 UNL     1       9.262  -5.509  31.175  1.00  0.00     0.260 A 
HETATM    9  O2  UNL     1      10.359  -6.048  31.320  1.00  0.00    -0.267 OA
HETATM   10  N3  UNL     1       8.301  -5.950  30.278  1.00  0.00    -0.303 N 
HETATM   11  C20 UNL     1       8.565  -7.110  29.446  1.00  0.00     0.161 C 
HETATM   12  C21 UNL     1       7.044  -5.310  30.132  1.00  0.00     0.137 A 
HETATM   13  N4  UNL     1       6.166  -5.805  29.235  1.00  0.00    -0.175 N 
ATOM     14  H4  UNL     1       6.397  -6.623  28.672  1.00  0.00     0.186 HD
ENDROOT
BRANCH   1  15
HETATM   15  N1  UNL     1       4.021  -5.635  28.209  1.00  0.00    -0.189 N 
HETATM   16  H8  UNL     1       3.752  -4.896  27.570  1.00  0.00     0.184 HD
BRANCH  15  17
HETATM   17  C7  UNL     1       3.349  -6.848  27.986  1.00  0.00     0.082 A 
HETATM   18  C2  UNL     1       4.091  -7.938  27.468  1.00  0.00     0.095 A 
HETATM   19  C3  UNL     1       3.468  -9.169  27.228  1.00  0.00     0.039 A 
HETATM   20  C4  UNL     1       2.108  -9.329  27.498  1.00  0.00     0.003 A 
HETATM   21  C5  UNL     1       1.370  -8.265  28.006  1.00  0.00     0.002 A 
HETATM   22  C6  UNL     1       1.987  -7.035  28.247  1.00  0.00     0.033 A 
BRANCH  18  23
HETATM   23  O1  UNL     1       5.424  -7.676  27.238  1.00  0.00    -0.354 OA
HETATM   24  C1  UNL     1       5.960  -8.096  25.990  1.00  0.00     0.210 C 
ENDBRANCH  18  23
ENDBRANCH  15  17
ENDBRANCH   1  15
BRANCH   7  25
HETATM   25  C13 UNL     1       9.905  -3.788  32.976  1.00  0.00     0.023 A 
HETATM   26  C14 UNL     1       9.854  -4.170  34.329  1.00  0.00     0.046 A 
HETATM   27 CL1  UNL     1       8.624  -5.229  34.935  1.00  0.00    -0.083 Cl
HETATM   28  C15 UNL     1      10.798  -3.692  35.245  1.00  0.00     0.025 A 
HETATM   29  C16 UNL     1      11.808  -2.830  34.826  1.00  0.00     0.003 A 
HETATM   30  C17 UNL     1      11.875  -2.440  33.490  1.00  0.00     0.025 A 
HETATM   31  C18 UNL     1      10.933  -2.916  32.570  1.00  0.00     0.046 A 
HETATM   32 CL2  UNL     1      11.080  -2.374  30.932  1.00  0.00    -0.083 Cl
ENDBRANCH   7  25
TORSDOF 4
ENDMDL
