MODEL 1
REMARK minimizedAffinity -7.81650162
REMARK  3 active torsions:
REMARK  status: ('A' for Active; 'I' for Inactive)
REMARK    1  A    between atoms: N1_1  and  C1_2 
REMARK    2  A    between atoms: C6_11  and  N4_12 
REMARK    3  A    between atoms: N4_12  and  C7_13 
ROOT
HETATM    1  C1  UNL     1      10.349  34.859  21.640  1.00  0.00     0.006 A 
HETATM    2  C2  UNL     1       9.105  35.452  21.818  1.00  0.00     0.025 A 
HETATM    3  C3  UNL     1       8.363  35.893  20.717  1.00  0.00     0.032 A 
HETATM    4  C4  UNL     1       8.847  35.795  19.421  1.00  0.00     0.046 A 
HETATM    5  N2  UNL     1       8.089  36.247  18.419  1.00  0.00    -0.352 N 
ATOM      6  H2  UNL     1       7.162  36.638  18.583  1.00  0.00     0.166 HD
HETATM    7  C5  UNL     1       8.607  36.159  17.188  1.00  0.00     0.182 A 
HETATM    8  N3  UNL     1       9.798  35.648  16.870  1.00  0.00    -0.342 N 
ATOM      9  H3  UNL     1      10.122  35.611  15.903  1.00  0.00     0.167 HD
HETATM   10  C6  UNL     1      10.550  35.183  17.884  1.00  0.00     0.098 A 
HETATM   11  C17 UNL     1      10.118  35.241  19.223  1.00  0.00     0.031 A 
HETATM   12  C18 UNL     1      10.871  34.805  20.348  1.00  0.00     0.040 A 
ENDROOT
BRANCH  10  13
HETATM   13  N4  UNL     1      11.826  34.615  17.593  1.00  0.00    -0.244 NA
HETATM   14  H6  UNL     1      11.704  34.005  16.791  1.00  0.00     0.135 HD
BRANCH  13  15
HETATM   15  C7  UNL     1      13.020  35.381  17.449  1.00  0.00     0.025 A 
HETATM   16  C8  UNL     1      13.040  36.405  16.486  1.00  0.00     0.025 A 
HETATM   17  C9  UNL     1      14.161  37.215  16.331  1.00  0.00     0.003 A 
HETATM   18  C10 UNL     1      15.276  37.017  17.139  1.00  0.00     0.012 A 
HETATM   19  C11 UNL     1      15.291  36.007  18.112  1.00  0.00    -0.024 A 
HETATM   20  C12 UNL     1      16.429  35.817  18.916  1.00  0.00     0.012 A 
HETATM   21  C16 UNL     1      14.157  35.172  18.281  1.00  0.00    -0.004 A 
HETATM   22  C13 UNL     1      16.469  34.812  19.881  1.00  0.00     0.001 A 
HETATM   23  C14 UNL     1      15.371  33.978  20.052  1.00  0.00     0.001 A 
HETATM   24  C15 UNL     1      14.233  34.155  19.261  1.00  0.00     0.014 A 
ENDBRANCH  13  15
ENDBRANCH  10  13
BRANCH   1  25
HETATM   25  N1  UNL     1      11.146  34.540  22.741  1.00  0.00    -0.303 NA
HETATM   26  H1  UNL     1      11.879  33.864  22.555  1.00  0.00     0.124 HD
HETATM   27  H2  UNL     1      10.627  34.325  23.587  1.00  0.00     0.124 HD
ENDBRANCH   1  25
TORSDOF 3
ENDMDL
