MODEL 1
REMARK minimizedAffinity -7.31972647
REMARK CNNscore 0.776909649
REMARK CNNaffinity 5.87151194
REMARK  3 active torsions:
REMARK  status: ('A' for Active; 'I' for Inactive)
REMARK    1  A    between atoms: C4_5  and  C5_6 
REMARK    2  A    between atoms: N2_9  and  C6_10 
REMARK    3  A    between atoms: C12_16  and  C13_17 
ROOT
HETATM    1  C5  UNL     1      17.138  52.099   5.148  1.00  0.00     0.038 C 
HETATM    2  N1  UNL     1      16.606  50.916   5.105  1.00  0.00    -0.301 N 
ATOM      3  H1  UNL     1      15.617  50.701   4.968  1.00  0.00     0.187 HD
HETATM    4  N2  UNL     1      17.615  50.011   5.279  1.00  0.00    -0.283 N 
HETATM    5  C12 UNL     1      18.917  50.637   5.531  1.00  0.00     0.148 C 
HETATM    6  C23 UNL     1      18.633  52.124   5.295  1.00  0.00     0.091 C 
ENDROOT
BRANCH   5   7
HETATM    7  C13 UNL     1      19.460  50.414   6.943  1.00  0.00    -0.022 A 
HETATM    8  C14 UNL     1      19.852  49.121   7.344  1.00  0.00     0.010 A 
HETATM    9  C15 UNL     1      20.338  48.879   8.623  1.00  0.00     0.002 A 
HETATM   10  C16 UNL     1      20.431  49.922   9.535  1.00  0.00     0.012 A 
HETATM   11  C17 UNL     1      20.035  51.220   9.186  1.00  0.00    -0.025 A 
HETATM   12  C18 UNL     1      20.131  52.251  10.135  1.00  0.00     0.012 A 
HETATM   13  C22 UNL     1      19.537  51.488   7.884  1.00  0.00    -0.018 A 
HETATM   14  C19 UNL     1      19.737  53.551   9.828  1.00  0.00     0.001 A 
HETATM   15  C20 UNL     1      19.241  53.835   8.564  1.00  0.00     0.001 A 
HETATM   16  C21 UNL     1      19.141  52.820   7.608  1.00  0.00     0.013 A 
ENDBRANCH   5   7
BRANCH   4  17
HETATM   17  C6  UNL     1      17.415  48.659   4.992  1.00  0.00     0.051 A 
HETATM   18  C7  UNL     1      17.874  48.103   3.784  1.00  0.00     0.031 A 
HETATM   19  C8  UNL     1      17.685  46.754   3.470  1.00  0.00     0.002 A 
HETATM   20  C9  UNL     1      17.021  45.919   4.361  1.00  0.00     0.000 A 
HETATM   21  C10 UNL     1      16.548  46.440   5.561  1.00  0.00     0.002 A 
HETATM   22  C11 UNL     1      16.743  47.792   5.869  1.00  0.00     0.031 A 
ENDBRANCH   4  17
BRANCH   1  23
HETATM   23  C4  UNL     1      16.344  53.344   5.024  1.00  0.00    -0.012 A 
HETATM   24  C3  UNL     1      16.944  54.565   4.685  1.00  0.00     0.016 A 
HETATM   25  C2  UNL     1      16.163  55.720   4.578  1.00  0.00     0.043 A 
HETATM   26  C1  UNL     1      14.794  55.651   4.807  1.00  0.00     0.116 A 
HETATM   27  F1  UNL     1      14.051  56.760   4.702  1.00  0.00    -0.206 F 
HETATM   28  C25 UNL     1      14.184  54.447   5.142  1.00  0.00     0.043 A 
HETATM   29  C24 UNL     1      14.961  53.292   5.251  1.00  0.00     0.016 A 
ENDBRANCH   1  23
TORSDOF 3
ENDMDL
