MODEL 1
REMARK minimizedAffinity -7.35997152
REMARK CNNscore 0.798076093
REMARK CNNaffinity 5.82698011
REMARK  3 active torsions:
REMARK  status: ('A' for Active; 'I' for Inactive)
REMARK    1  A    between atoms: C4_5  and  C5_6 
REMARK    2  A    between atoms: N2_9  and  C6_10 
REMARK    3  A    between atoms: C12_16  and  C13_17 
ROOT
HETATM    1  C5  UNL     1      17.321  52.181   5.583  1.00  0.00     0.038 C 
HETATM    2  N1  UNL     1      16.884  50.968   5.734  1.00  0.00    -0.301 N 
ATOM      3  H1  UNL     1      15.930  50.645   5.574  1.00  0.00     0.187 HD
HETATM    4  N2  UNL     1      17.938  50.204   6.146  1.00  0.00    -0.283 N 
HETATM    5  C12 UNL     1      19.167  50.980   6.360  1.00  0.00     0.148 C 
HETATM    6  C23 UNL     1      18.794  52.364   5.824  1.00  0.00     0.091 C 
ENDROOT
BRANCH   5   7
HETATM    7  C13 UNL     1      19.606  51.072   7.822  1.00  0.00    -0.022 A 
HETATM    8  C14 UNL     1      20.014  49.908   8.504  1.00  0.00     0.010 A 
HETATM    9  C15 UNL     1      20.406  49.952   9.836  1.00  0.00     0.002 A 
HETATM   10  C16 UNL     1      20.387  51.162  10.522  1.00  0.00     0.012 A 
HETATM   11  C17 UNL     1      19.971  52.340   9.889  1.00  0.00    -0.025 A 
HETATM   12  C18 UNL     1      19.952  53.545  10.613  1.00  0.00     0.012 A 
HETATM   13  C22 UNL     1      19.567  52.315   8.528  1.00  0.00    -0.018 A 
HETATM   14  C19 UNL     1      19.534  54.733  10.020  1.00  0.00     0.001 A 
HETATM   15  C20 UNL     1      19.128  54.732   8.694  1.00  0.00     0.001 A 
HETATM   16  C21 UNL     1      19.143  53.542   7.960  1.00  0.00     0.013 A 
ENDBRANCH   5   7
BRANCH   4  17
HETATM   17  C6  UNL     1      17.865  48.810   6.112  1.00  0.00     0.051 A 
HETATM   18  C7  UNL     1      16.627  48.152   6.229  1.00  0.00     0.031 A 
HETATM   19  C8  UNL     1      16.524  46.757   6.203  1.00  0.00     0.002 A 
HETATM   20  C9  UNL     1      17.667  45.979   6.063  1.00  0.00     0.000 A 
HETATM   21  C10 UNL     1      18.907  46.599   5.954  1.00  0.00     0.002 A 
HETATM   22  C11 UNL     1      19.001  47.996   5.980  1.00  0.00     0.031 A 
ENDBRANCH   4  17
BRANCH   1  23
HETATM   23  C4  UNL     1      16.451  53.306   5.168  1.00  0.00    -0.012 A 
HETATM   24  C3  UNL     1      15.062  53.255   5.328  1.00  0.00     0.015 A 
HETATM   25  C2  UNL     1      14.269  54.335   4.924  1.00  0.00     0.020 A 
HETATM   26  C1  UNL     1      14.866  55.463   4.362  1.00  0.00     0.011 A 
HETATM   27 BR1  UNL     1      13.791  56.920   3.819  1.00  0.00    -0.051 Br
HETATM   28  C25 UNL     1      16.248  55.524   4.199  1.00  0.00     0.020 A 
HETATM   29  C24 UNL     1      17.040  54.446   4.602  1.00  0.00     0.015 A 
ENDBRANCH   1  23
TORSDOF 3
ENDMDL
