MODEL 1
REMARK minimizedAffinity -9.19280148
REMARK CNNscore 0.848051786
REMARK CNNaffinity 8.12738132
REMARK  8 active torsions:
REMARK  status: ('A' for Active; 'I' for Inactive)
REMARK    1  A    between atoms: N1_5  and  C4_6 
REMARK    2  A    between atoms: C4_6  and  C5_7 
REMARK    3  A    between atoms: C6_8  and  C7_9 
REMARK       I    between atoms: C7_9  and  N2_11 
REMARK    4  A    between atoms: N2_11  and  C8_12 
REMARK    5  A    between atoms: C11_15  and  N3_16 
REMARK    6  A    between atoms: N3_16  and  C12_17 
REMARK    7  A    between atoms: C21_32  and  O3_33 
REMARK    8  A    between atoms: O3_33  and  C22_34 
ROOT
HETATM    1  C8  UNL     1      -4.197   5.665  13.332  1.00  0.00     0.069 A 
HETATM    2  C9  UNL     1      -5.396   4.941  13.403  1.00  0.00     0.050 A 
HETATM    3  C10 UNL     1      -5.590   3.743  12.669  1.00  0.00     0.037 A 
HETATM    4  C11 UNL     1      -6.755   2.947  12.700  1.00  0.00     0.119 A 
HETATM    5  N4  UNL     1      -6.852   1.799  12.005  1.00  0.00    -0.338 N 
ATOM      6  H4  UNL     1      -7.691   1.219  12.046  1.00  0.00     0.168 HD
HETATM    7  C18 UNL     1      -5.799   1.456  11.261  1.00  0.00     0.182 A 
HETATM    8  N5  UNL     1      -4.661   2.145  11.142  1.00  0.00    -0.351 N 
ATOM      9  H5  UNL     1      -3.903   1.824  10.539  1.00  0.00     0.166 HD
HETATM   10  C19 UNL     1      -4.561   3.274  11.849  1.00  0.00     0.049 A 
HETATM   11  C20 UNL     1      -3.395   4.021  11.745  1.00  0.00     0.069 A 
HETATM   12  C21 UNL     1      -3.194   5.210  12.463  1.00  0.00     0.098 A 
ENDROOT
BRANCH   1  13
HETATM   13  N2  UNL     1      -4.133   6.823  14.143  1.00  0.00    -0.321 N 
HETATM   14  C7  UNL     1      -4.595   8.087  13.849  1.00  0.00     0.245 C 
HETATM   15  O2  UNL     1      -5.079   8.501  12.806  1.00  0.00    -0.268 OA
HETATM   16  H9  UNL     1      -3.586   6.737  14.987  1.00  0.00     0.169 HD
BRANCH  14  17
HETATM   17  C6  UNL     1      -4.449   9.056  14.972  1.00  0.00     0.072 C 
HETATM   18  C5  UNL     1      -3.581  10.081  14.996  1.00  0.00     0.008 C 
BRANCH  18  19
HETATM   19  C4  UNL     1      -3.512  11.077  16.117  1.00  0.00     0.300 C 
BRANCH  19  20
HETATM   20  N1  UNL     1      -3.306  10.413  17.409  1.00  0.00     0.092 N 
HETATM   21  C3  UNL     1      -1.970   9.812  17.568  1.00  0.00     0.280 C 
HETATM   22  C2  UNL     1      -0.836  10.819  17.718  1.00  0.00     0.108 C 
HETATM   23  C1  UNL     1      -1.181  11.820  18.790  1.00  0.00     0.130 C 
HETATM   24  O1  UNL     1      -0.331  12.233  19.580  1.00  0.00    -0.298 OA
HETATM   25  C27 UNL     1      -2.568  12.409  18.753  1.00  0.00     0.108 C 
HETATM   26  C26 UNL     1      -3.594  11.304  18.545  1.00  0.00     0.280 C 
ENDBRANCH  19  20
ENDBRANCH  18  19
ENDBRANCH  14  17
ENDBRANCH   1  13
BRANCH  12  27
HETATM   27  O3  UNL     1      -2.116   6.020  12.231  1.00  0.00    -0.341 OA
BRANCH  27  28
HETATM   28  C22 UNL     1      -0.816   5.459  12.361  1.00  0.00     0.154 C 
HETATM   29  C23 UNL     1      -0.060   5.602  11.055  1.00  0.00     0.061 C 
HETATM   30  C24 UNL     1       1.377   5.443  11.498  1.00  0.00     0.170 C 
HETATM   31  O4  UNL     1       1.460   5.903  12.855  1.00  0.00    -0.389 OA
HETATM   32  C25 UNL     1       0.125   6.201  13.300  1.00  0.00     0.200 C 
ENDBRANCH  27  28
ENDBRANCH  12  27
BRANCH   4  33
HETATM   33  N3  UNL     1      -7.868   3.392  13.466  1.00  0.00    -0.342 N 
HETATM   34  H11 UNL     1      -7.970   2.776  14.266  1.00  0.00     0.167 HD
BRANCH  33  35
HETATM   35  C12 UNL     1      -8.230   4.721  13.788  1.00  0.00     0.035 A 
HETATM   36  C13 UNL     1      -9.060   5.499  12.967  1.00  0.00     0.032 A 
HETATM   37  C14 UNL     1      -9.458   6.783  13.351  1.00  0.00     0.046 A 
HETATM   38  C15 UNL     1      -9.050   7.292  14.576  1.00  0.00     0.138 A 
HETATM   39  F1  UNL     1      -9.445   8.523  14.930  1.00  0.00    -0.204 F 
HETATM   40  C16 UNL     1      -8.258   6.526  15.425  1.00  0.00     0.074 A 
HETATM   41 CL1  UNL     1      -7.766   7.136  16.958  1.00  0.00    -0.081 Cl
HETATM   42  C17 UNL     1      -7.861   5.242  15.039  1.00  0.00     0.056 A 
ENDBRANCH  33  35
ENDBRANCH   4  33
TORSDOF 8
ENDMDL
