MODEL 1
REMARK minimizedAffinity -10.093852
REMARK  4 active torsions:
REMARK  status: ('A' for Active; 'I' for Inactive)
REMARK    1  A    between atoms: O1_2  and  C2_3 
REMARK    2  A    between atoms: C5_6  and  N1_7 
REMARK    3  A    between atoms: N1_7  and  C6_8 
REMARK    4  A    between atoms: C10_14  and  C11_15 
ROOT
HETATM    1  C6  UNL     1       6.476  -7.014  28.478  1.00  0.00     0.684 A 
HETATM    2  N2  UNL     1       7.629  -7.676  28.640  1.00  0.00    -0.201 N 
ATOM      3  H2  UNL     1       7.829  -8.528  28.115  1.00  0.00     0.183 HD
HETATM    4  C7  UNL     1       8.515  -7.174  29.520  1.00  0.00     0.121 A 
HETATM    5  C8  UNL     1       8.297  -6.031  30.251  1.00  0.00     0.026 A 
HETATM    6  C9  UNL     1       9.258  -5.494  31.200  1.00  0.00     0.034 A 
HETATM    7  C10 UNL     1       8.964  -4.371  31.874  1.00  0.00     0.047 A 
HETATM    8  C17 UNL     1       7.655  -3.666  31.657  1.00  0.00     0.260 A 
HETATM    9  O2  UNL     1       7.414  -2.638  32.289  1.00  0.00    -0.267 OA
HETATM   10  N3  UNL     1       6.780  -4.226  30.740  1.00  0.00    -0.303 N 
HETATM   11  C18 UNL     1       5.499  -3.594  30.483  1.00  0.00     0.161 C 
HETATM   12  C19 UNL     1       7.084  -5.413  30.024  1.00  0.00     0.137 A 
HETATM   13  N4  UNL     1       6.175  -5.892  29.147  1.00  0.00    -0.175 N 
ATOM     14  H4  UNL     1       5.286  -5.414  28.998  1.00  0.00     0.186 HD
ENDROOT
BRANCH   1  15
HETATM   15  N1  UNL     1       5.494  -7.449  27.593  1.00  0.00    -0.190 N 
HETATM   16  H6  UNL     1       5.925  -7.649  26.701  1.00  0.00     0.184 HD
BRANCH  15  17
HETATM   17  C5  UNL     1       4.116  -7.648  27.697  1.00  0.00     0.064 A 
HETATM   18  C4  UNL     1       3.456  -8.821  27.336  1.00  0.00     0.036 A 
HETATM   19  C3  UNL     1       2.071  -8.928  27.475  1.00  0.00     0.058 A 
HETATM   20  C2  UNL     1       1.369  -7.848  27.979  1.00  0.00     0.141 A 
HETATM   21  N5  UNL     1       1.953  -6.690  28.344  1.00  0.00    -0.345 N 
HETATM   22  C20 UNL     1       3.299  -6.626  28.194  1.00  0.00     0.120 A 
ATOM     23  H5  UNL     1       1.413  -5.907  28.711  1.00  0.00     0.167 HD
BRANCH  20  24
HETATM   24  O1  UNL     1       0.003  -8.005  28.097  1.00  0.00    -0.341 OA
HETATM   25  C1  UNL     1      -0.438  -9.314  27.755  1.00  0.00     0.211 C 
ENDBRANCH  20  24
ENDBRANCH  15  17
ENDBRANCH   1  15
BRANCH   7  26
HETATM   26  C11 UNL     1       9.935  -3.820  32.839  1.00  0.00     0.023 A 
HETATM   27  C12 UNL     1       9.887  -4.180  34.198  1.00  0.00     0.046 A 
HETATM   28 CL1  UNL     1       8.677  -5.254  34.817  1.00  0.00    -0.083 Cl
HETATM   29  C13 UNL     1      10.819  -3.669  35.109  1.00  0.00     0.025 A 
HETATM   30  C14 UNL     1      11.813  -2.794  34.678  1.00  0.00     0.003 A 
HETATM   31  C15 UNL     1      11.877  -2.426  33.336  1.00  0.00     0.025 A 
HETATM   32  C16 UNL     1      10.946  -2.934  32.423  1.00  0.00     0.046 A 
HETATM   33 CL2  UNL     1      11.088  -2.418  30.775  1.00  0.00    -0.083 Cl
ENDBRANCH   7  26
TORSDOF 4
ENDMDL
