MODEL 1
REMARK minimizedAffinity -8.0783577
REMARK  8 active torsions:
REMARK  status: ('A' for Active; 'I' for Inactive)
REMARK    1  A    between atoms: O1_2  and  C2_3 
REMARK    2  A    between atoms: C6_11  and  N3_12 
REMARK    3  A    between atoms: N3_12  and  C7_13 
REMARK    4  A    between atoms: C15_23  and  O2_24 
REMARK    5  A    between atoms: O2_24  and  C16_25 
REMARK    6  A    between atoms: C16_25  and  C17_26 
REMARK    7  A    between atoms: C17_26  and  C18_27 
REMARK    8  A    between atoms: C18_27  and  N4_28 
ROOT
HETATM    1  C2  UNL     1       4.588  -7.667  28.126  1.00  0.00     0.103 A 
HETATM    2  C3  UNL     1       4.138  -6.419  28.572  1.00  0.00     0.070 A 
HETATM    3  C4  UNL     1       4.929  -5.587  29.358  1.00  0.00     0.050 A 
HETATM    4  N1  UNL     1       4.421  -4.417  29.754  1.00  0.00    -0.351 N 
ATOM      5  H1  UNL     1       3.479  -4.128  29.490  1.00  0.00     0.166 HD
HETATM    6  C5  UNL     1       5.204  -3.644  30.512  1.00  0.00     0.182 A 
HETATM    7  N2  UNL     1       6.449  -3.925  30.901  1.00  0.00    -0.338 N 
ATOM      8  H2  UNL     1       6.986  -3.280  31.482  1.00  0.00     0.168 HD
HETATM    9  C6  UNL     1       6.964  -5.097  30.490  1.00  0.00     0.119 A 
HETATM   10  C13 UNL     1       6.221  -6.001  29.704  1.00  0.00     0.038 A 
HETATM   11  C14 UNL     1       6.682  -7.268  29.266  1.00  0.00     0.057 A 
HETATM   12  C15 UNL     1       5.862  -8.099  28.503  1.00  0.00     0.103 A 
ENDROOT
BRANCH   9  13
HETATM   13  N3  UNL     1       8.297  -5.436  30.850  1.00  0.00    -0.342 N 
HETATM   14  H6  UNL     1       8.843  -5.555  30.002  1.00  0.00     0.167 HD
BRANCH  13  15
HETATM   15  C7  UNL     1       9.077  -4.921  31.910  1.00  0.00     0.035 A 
HETATM   16  C8  UNL     1      10.418  -4.584  31.666  1.00  0.00     0.031 A 
HETATM   17  C9  UNL     1      11.247  -4.131  32.697  1.00  0.00     0.028 A 
HETATM   18  C10 UNL     1      10.756  -4.032  33.999  1.00  0.00     0.055 A 
HETATM   19 CL1  UNL     1      11.834  -3.471  35.225  1.00  0.00    -0.083 Cl
HETATM   20  C11 UNL     1       9.433  -4.398  34.266  1.00  0.00     0.058 A 
HETATM   21 CL2  UNL     1       8.761  -4.336  35.858  1.00  0.00    -0.082 Cl
HETATM   22  C12 UNL     1       8.609  -4.848  33.227  1.00  0.00     0.055 A 
ENDBRANCH  13  15
ENDBRANCH   9  13
BRANCH  12  23
HETATM   23  O2  UNL     1       6.309  -9.307  28.037  1.00  0.00    -0.348 OA
BRANCH  23  24
HETATM   24  C16 UNL     1       7.688  -9.577  28.324  1.00  0.00     0.177 C 
BRANCH  24  25
HETATM   25  C17 UNL     1       8.356 -10.137  27.071  1.00  0.00     0.057 C 
BRANCH  25  26
HETATM   26  C18 UNL     1       9.725  -9.491  26.839  1.00  0.00     0.274 C 
BRANCH  26  27
HETATM   27  N4  UNL     1       9.678  -8.494  25.762  1.00  0.00     0.092 N 
HETATM   28  C19 UNL     1       8.609  -8.750  24.769  1.00  0.00     0.298 C 
HETATM   29  C20 UNL     1       9.128  -9.297  23.428  1.00  0.00     0.198 C 
HETATM   30  O3  UNL     1      10.064  -8.418  22.793  1.00  0.00    -0.388 OA
HETATM   31  C21 UNL     1      10.870  -7.687  23.726  1.00  0.00     0.198 C 
HETATM   32  C22 UNL     1      10.992  -8.381  25.092  1.00  0.00     0.298 C 
ENDBRANCH  26  27
ENDBRANCH  25  26
ENDBRANCH  24  25
ENDBRANCH  23  24
ENDBRANCH  12  23
BRANCH   1  33
HETATM   33  O1  UNL     1       3.856  -8.534  27.358  1.00  0.00    -0.353 OA
HETATM   34  C1  UNL     1       2.439  -8.424  27.420  1.00  0.00     0.210 C 
ENDBRANCH   1  33
TORSDOF 8
ENDMDL
