MODEL 1
REMARK minimizedAffinity -9.28383732
REMARK  7 active torsions:
REMARK  status: ('A' for Active; 'I' for Inactive)
REMARK    1  A    between atoms: C3_3  and  C4_4 
REMARK       I    between atoms: C4_4  and  N1_6 
REMARK    2  A    between atoms: N1_6  and  C5_7 
REMARK    3  A    between atoms: C8_10  and  N2_11 
REMARK    4  A    between atoms: C9_14  and  C10_15 
REMARK    5  A    between atoms: C13_18  and  O2_19 
REMARK    6  A    between atoms: O2_19  and  C14_20 
REMARK    7  A    between atoms: C23_29  and  N4_30 
ROOT
HETATM    1  C1  UNL     1      12.613  -2.729  35.644  1.00  0.00     0.112 C 
HETATM    2  C2  UNL     1      11.702  -3.347  34.682  1.00  0.00    -0.101 C 
HETATM    3  C3  UNL     1      10.962  -3.855  33.884  1.00  0.00    -0.006 C 
ENDROOT
BRANCH   3   4
HETATM    4  C4  UNL     1      10.068  -4.469  32.926  1.00  0.00     0.296 C 
HETATM    5  O1  UNL     1      10.115  -5.675  32.734  1.00  0.00    -0.258 OA
HETATM    6  N1  UNL     1       9.219  -3.597  32.288  1.00  0.00    -0.346 N 
HETATM    7  H4  UNL     1       9.384  -2.609  32.432  1.00  0.00     0.163 HD
BRANCH   6   8
HETATM    8  C5  UNL     1       8.366  -4.023  31.193  1.00  0.00     0.085 C 
HETATM    9  C6  UNL     1       9.209  -4.612  30.051  1.00  0.00     0.027 C 
HETATM   10  C7  UNL     1       8.480  -5.682  29.236  1.00  0.00     0.029 C 
HETATM   11  C8  UNL     1       6.971  -5.417  29.162  1.00  0.00     0.110 C 
HETATM   12  C26 UNL     1       6.327  -5.393  30.559  1.00  0.00     0.029 C 
HETATM   13  C27 UNL     1       7.306  -5.016  31.677  1.00  0.00     0.027 C 
BRANCH  11  14
HETATM   14  N2  UNL     1       6.290  -6.357  28.278  1.00  0.00    -0.270 N 
HETATM   15  N3  UNL     1       5.006  -6.704  28.517  1.00  0.00    -0.295 N 
HETATM   16  C9  UNL     1       4.723  -7.590  27.548  1.00  0.00     0.076 A 
ATOM     17  H3  UNL     1       4.393  -6.371  29.261  1.00  0.00     0.187 HD
HETATM   18  C22 UNL     1       5.823  -7.776  26.665  1.00  0.00     0.082 A 
HETATM   19  C23 UNL     1       6.130  -8.505  25.510  1.00  0.00     0.116 A 
HETATM   20  C25 UNL     1       6.823  -6.966  27.175  1.00  0.00     0.140 A 
HETATM   21  N5  UNL     1       7.369  -8.392  24.988  1.00  0.00    -0.338 N 
HETATM   22  C24 UNL     1       8.250  -7.566  25.586  1.00  0.00     0.183 A 
ATOM     23  H5  UNL     1       7.633  -8.922  24.157  1.00  0.00     0.168 HD
HETATM   24  N6  UNL     1       8.065  -6.815  26.684  1.00  0.00    -0.337 N 
ATOM     25  H6  UNL     1       8.776  -6.209  27.093  1.00  0.00     0.168 HD
BRANCH  16  26
HETATM   26  C10 UNL     1       3.423  -8.239  27.500  1.00  0.00    -0.007 A 
HETATM   27  C11 UNL     1       3.313  -9.563  27.061  1.00  0.00     0.016 A 
HETATM   28  C12 UNL     1       2.064 -10.187  27.032  1.00  0.00     0.038 A 
HETATM   29  C13 UNL     1       0.925  -9.493  27.447  1.00  0.00     0.076 A 
HETATM   30  C20 UNL     1       1.026  -8.160  27.855  1.00  0.00     0.038 A 
HETATM   31  C21 UNL     1       2.275  -7.536  27.888  1.00  0.00     0.016 A 
BRANCH  29  32
HETATM   32  O2  UNL     1      -0.274 -10.165  27.353  1.00  0.00    -0.311 OA
BRANCH  32  33
HETATM   33  C14 UNL     1      -0.286 -11.487  27.734  1.00  0.00     0.076 A 
HETATM   34  C15 UNL     1      -1.438 -12.108  28.225  1.00  0.00     0.037 A 
HETATM   35  C16 UNL     1      -1.383 -13.442  28.632  1.00  0.00     0.003 A 
HETATM   36  C17 UNL     1      -0.179 -14.146  28.560  1.00  0.00     0.000 A 
HETATM   37  C18 UNL     1       0.974 -13.516  28.090  1.00  0.00     0.003 A 
HETATM   38  C19 UNL     1       0.923 -12.181  27.684  1.00  0.00     0.037 A 
ENDBRANCH  32  33
ENDBRANCH  29  32
ENDBRANCH  16  26
BRANCH  19  39
HETATM   39  N4  UNL     1       5.250  -9.343  24.849  1.00  0.00    -0.385 N 
HETATM   40  H20 UNL     1       5.722  -9.975  24.215  1.00  0.00     0.157 HD
HETATM   41  H21 UNL     1       4.460  -9.701  25.366  1.00  0.00     0.157 HD
ENDBRANCH  19  39
ENDBRANCH  11  14
ENDBRANCH   6   8
ENDBRANCH   3   4
TORSDOF 7
ENDMDL
