MODEL 1
REMARK minimizedAffinity -6.79031801
REMARK CNNscore 0.757903993
REMARK CNNaffinity 5.03216743
REMARK  6 active torsions:
REMARK  status: ('A' for Active; 'I' for Inactive)
REMARK    1  A    between atoms: C2_2  and  C3_3 
REMARK       I    between atoms: C3_3  and  N1_5 
REMARK    2  A    between atoms: N1_5  and  C4_6 
REMARK    3  A    between atoms: C9_15  and  N4_16 
REMARK    4  A    between atoms: N4_16  and  C10_17 
REMARK    5  A    between atoms: C13_20  and  O2_21 
REMARK    6  A    between atoms: O2_21  and  C14_22 
ROOT
HETATM    1  C4  UNL     1      19.700  51.211   8.183  1.00  0.00     0.036 A 
HETATM    2  C5  UNL     1      20.576  50.195   7.811  1.00  0.00     0.032 A 
HETATM    3  C6  UNL     1      20.297  49.391   6.701  1.00  0.00     0.033 A 
HETATM    4  C7  UNL     1      19.154  49.567   5.936  1.00  0.00     0.047 A 
HETATM    5  N2  UNL     1      18.959  48.759   4.892  1.00  0.00    -0.352 N 
ATOM      6  H2  UNL     1      19.620  48.020   4.655  1.00  0.00     0.166 HD
HETATM    7  C8  UNL     1      17.851  48.967   4.174  1.00  0.00     0.182 A 
HETATM    8  N3  UNL     1      16.923  49.898   4.408  1.00  0.00    -0.338 N 
ATOM      9  H3  UNL     1      16.103  49.995   3.808  1.00  0.00     0.168 HD
HETATM   10  C9  UNL     1      17.118  50.704   5.469  1.00  0.00     0.119 A 
HETATM   11  C22 UNL     1      18.259  50.585   6.291  1.00  0.00     0.037 A 
HETATM   12  C23 UNL     1      18.551  51.407   7.416  1.00  0.00     0.047 A 
ENDROOT
BRANCH  10  13
HETATM   13  N4  UNL     1      16.158  51.707   5.770  1.00  0.00    -0.342 N 
HETATM   14  H8  UNL     1      15.262  51.271   5.961  1.00  0.00     0.167 HD
BRANCH  13  15
HETATM   15  C10 UNL     1      16.001  52.994   5.209  1.00  0.00     0.033 A 
HETATM   16  C11 UNL     1      14.720  53.567   5.184  1.00  0.00     0.032 A 
HETATM   17  C12 UNL     1      14.516  54.861   4.692  1.00  0.00     0.039 A 
HETATM   18  C13 UNL     1      15.595  55.604   4.227  1.00  0.00     0.076 A 
HETATM   19  C20 UNL     1      16.884  55.077   4.300  1.00  0.00     0.039 A 
HETATM   20  C21 UNL     1      17.081  53.782   4.793  1.00  0.00     0.032 A 
BRANCH  18  21
HETATM   21  O2  UNL     1      15.335  56.882   3.787  1.00  0.00    -0.311 OA
BRANCH  21  22
HETATM   22  C14 UNL     1      14.615  57.016   2.620  1.00  0.00     0.076 A 
HETATM   23  C15 UNL     1      15.106  56.351   1.497  1.00  0.00     0.037 A 
HETATM   24  C16 UNL     1      14.446  56.471   0.273  1.00  0.00     0.003 A 
HETATM   25  C17 UNL     1      13.306  57.270   0.173  1.00  0.00     0.000 A 
HETATM   26  C18 UNL     1      12.829  57.953   1.292  1.00  0.00     0.003 A 
HETATM   27  C19 UNL     1      13.487  57.834   2.517  1.00  0.00     0.037 A 
ENDBRANCH  21  22
ENDBRANCH  18  21
ENDBRANCH  13  15
ENDBRANCH  10  13
BRANCH   1  28
HETATM   28  N1  UNL     1      20.034  51.977   9.317  1.00  0.00    -0.324 N 
HETATM   29  C3  UNL     1      19.663  53.273   9.590  1.00  0.00     0.244 C 
HETATM   30  O1  UNL     1      18.999  54.023   8.886  1.00  0.00    -0.268 OA
HETATM   31  H4  UNL     1      20.633  51.523   9.994  1.00  0.00     0.169 HD
BRANCH  29  32
HETATM   32  C2  UNL     1      20.190  53.801  10.881  1.00  0.00     0.064 C 
HETATM   33  C1  UNL     1      20.337  53.087  12.006  1.00  0.00     0.017 C 
ENDBRANCH  29  32
ENDBRANCH   1  28
TORSDOF 6
ENDMDL
