MODEL 1
REMARK minimizedAffinity -7.74692774
REMARK  3 active torsions:
REMARK  status: ('A' for Active; 'I' for Inactive)
REMARK    1  A    between atoms: N1_1  and  C1_2 
REMARK    2  A    between atoms: C2_5  and  N3_6 
REMARK    3  A    between atoms: N3_6  and  C3_7 
ROOT
HETATM    1  C1  UNL     1      12.488  36.055  16.103  1.00  0.00     0.156 A 
HETATM    2  N2  UNL     1      13.481  35.419  16.753  1.00  0.00    -0.318 N 
ATOM      3  H2  UNL     1      14.417  35.372  16.350  1.00  0.00     0.170 HD
HETATM    4  C2  UNL     1      13.220  34.847  17.944  1.00  0.00     0.117 A 
HETATM    5  C9  UNL     1      11.959  34.927  18.461  1.00  0.00     0.018 A 
HETATM    6  C10 UNL     1      11.007  35.592  17.705  1.00  0.00     0.055 A 
HETATM    7  N4  UNL     1      11.225  36.157  16.519  1.00  0.00    -0.332 N 
ATOM      8  H4  UNL     1      10.496  36.623  15.980  1.00  0.00     0.168 HD
HETATM    9  C11 UNL     1       9.744  35.576  18.403  1.00  0.00    -0.002 A 
HETATM   10  C12 UNL     1       8.511  36.097  18.055  1.00  0.00     0.014 A 
HETATM   11  C13 UNL     1       7.448  35.925  18.947  1.00  0.00     0.001 A 
HETATM   12  C14 UNL     1       7.629  35.241  20.163  1.00  0.00     0.001 A 
HETATM   13  C15 UNL     1       8.877  34.716  20.514  1.00  0.00     0.008 A 
HETATM   14  C16 UNL     1       9.922  34.890  19.625  1.00  0.00    -0.041 A 
HETATM   15  C17 UNL     1      11.363  34.432  19.751  1.00  0.00     0.084 A 
ENDROOT
BRANCH   4  16
HETATM   16  N3  UNL     1      14.224  34.177  18.680  1.00  0.00    -0.342 N 
HETATM   17  H3  UNL     1      14.453  33.300  18.225  1.00  0.00     0.167 HD
BRANCH  16  18
HETATM   18  C3  UNL     1      15.342  34.728  19.346  1.00  0.00     0.034 A 
HETATM   19  C4  UNL     1      16.491  35.160  18.671  1.00  0.00     0.029 A 
HETATM   20  C5  UNL     1      17.553  35.760  19.356  1.00  0.00     0.004 A 
HETATM   21  C6  UNL     1      17.472  35.962  20.731  1.00  0.00     0.019 A 
HETATM   22  C7  UNL     1      16.321  35.571  21.409  1.00  0.00     0.013 A 
HETATM   23 BR1  UNL     1      16.188  35.864  23.273  1.00  0.00    -0.051 Br
HETATM   24  C8  UNL     1      15.260  34.972  20.726  1.00  0.00     0.048 A 
ENDBRANCH  16  18
ENDBRANCH   4  16
BRANCH   1  25
HETATM   25  N1  UNL     1      12.797  36.607  14.876  1.00  0.00    -0.274 NA
HETATM   26  H1  UNL     1      13.594  36.129  14.481  1.00  0.00     0.127 HD
HETATM   27  H2  UNL     1      11.961  36.668  14.312  1.00  0.00     0.127 HD
ENDBRANCH   1  25
TORSDOF 3
ENDMDL
