MODEL 1
REMARK minimizedAffinity -6.00904369
REMARK  6 active torsions:
REMARK  status: ('A' for Active; 'I' for Inactive)
REMARK    1  A    between atoms: C1_2  and  O2_3 
REMARK    2  A    between atoms: C1_2  and  C2_4 
REMARK    3  A    between atoms: C2_4  and  C10_13 
REMARK    4  A    between atoms: C3_5  and  C4_6 
REMARK    5  A    between atoms: C7_9  and  O3_10 
REMARK    6  A    between atoms: C10_13  and  O5_15 
ROOT
HETATM    1  C2  UNL     1      11.516  35.860  19.458  1.00  0.00     0.111 C 
HETATM    2  C3  UNL     1      10.403  36.411  19.983  1.00  0.00     0.036 C 
ENDROOT
BRANCH   1   3
HETATM    3  C1  UNL     1      12.764  36.632  19.541  1.00  0.00     0.183 C 
HETATM    4  O1  UNL     1      13.311  37.017  20.562  1.00  0.00    -0.646 OA
BRANCH   3   5
HETATM    5  O2  UNL     1      13.312  36.874  18.339  1.00  0.00    -0.772 OA
HETATM    6  H1  UNL     1      14.119  37.394  18.538  1.00  0.00     0.167 HD
ENDBRANCH   3   5
ENDBRANCH   1   3
BRANCH   1   7
HETATM    7  C10 UNL     1      11.483  34.556  18.788  1.00  0.00     0.183 C 
HETATM    8  O4  UNL     1      11.555  33.468  19.331  1.00  0.00    -0.646 OA
BRANCH   7   9
HETATM    9  O5  UNL     1      11.364  34.677  17.453  1.00  0.00    -0.772 OA
HETATM   10  H8  UNL     1      11.379  33.753  17.128  1.00  0.00     0.167 HD
ENDBRANCH   7   9
ENDBRANCH   1   7
BRANCH   2  11
HETATM   11  C4  UNL     1       9.056  35.829  19.948  1.00  0.00    -0.035 A 
HETATM   12  C5  UNL     1       8.109  36.244  19.004  1.00  0.00     0.014 A 
HETATM   13  C6  UNL     1       6.830  35.686  18.998  1.00  0.00     0.037 A 
HETATM   14  C7  UNL     1       6.496  34.719  19.940  1.00  0.00     0.065 A 
HETATM   15  C8  UNL     1       7.421  34.303  20.892  1.00  0.00     0.037 A 
HETATM   16  C9  UNL     1       8.701  34.862  20.898  1.00  0.00     0.014 A 
BRANCH  14  17
HETATM   17  O3  UNL     1       5.237  34.200  19.898  1.00  0.00    -0.361 OA
HETATM   18  H5  UNL     1       5.145  33.548  20.612  1.00  0.00     0.217 HD
ENDBRANCH  14  17
ENDBRANCH   2  11
TORSDOF 6
ENDMDL
