MODEL 1
REMARK minimizedAffinity -9.23558712
REMARK  8 active torsions:
REMARK  status: ('A' for Active; 'I' for Inactive)
REMARK    1  A    between atoms: C2_2  and  C3_3 
REMARK       I    between atoms: C3_3  and  N1_5 
REMARK    2  A    between atoms: N1_5  and  C4_6 
REMARK    3  A    between atoms: C8_10  and  C9_11 
REMARK    4  A    between atoms: C14_21  and  N4_22 
REMARK    5  A    between atoms: N4_22  and  C15_23 
REMARK    6  A    between atoms: C15_23  and  C16_24 
REMARK    7  A    between atoms: C15_23  and  C17_26 
REMARK    8  A    between atoms: C16_24  and  O3_25 
ROOT
HETATM    1  C9  UNL     1      -5.893   3.959  12.703  1.00  0.00     0.021 A 
HETATM    2  C10 UNL     1      -6.743   2.907  12.411  1.00  0.00     0.063 A 
HETATM    3  C11 UNL     1      -8.193   2.673  12.586  1.00  0.00     0.077 C 
HETATM    4  O2  UNL     1      -6.041   1.879  11.853  1.00  0.00    -0.297 OA
HETATM    5  C12 UNL     1      -4.733   2.255  11.799  1.00  0.00     0.163 A 
HETATM    6  N2  UNL     1      -3.768   1.455  11.326  1.00  0.00    -0.332 N 
ATOM      7  H2  UNL     1      -3.926   0.518  10.956  1.00  0.00     0.168 HD
HETATM    8  C13 UNL     1      -2.570   2.045  11.402  1.00  0.00     0.183 A 
HETATM    9  N3  UNL     1      -2.280   3.279  11.860  1.00  0.00    -0.342 N 
ATOM     10  H3  UNL     1      -1.316   3.613  11.872  1.00  0.00     0.167 HD
HETATM   11  C14 UNL     1      -3.285   4.068  12.303  1.00  0.00     0.097 A 
HETATM   12  C23 UNL     1      -4.586   3.538  12.301  1.00  0.00     0.067 A 
ENDROOT
BRANCH   1  13
HETATM   13  C8  UNL     1      -6.308   5.201  13.330  1.00  0.00    -0.020 A 
HETATM   14  C7  UNL     1      -5.370   6.168  13.696  1.00  0.00     0.012 A 
HETATM   15  C6  UNL     1      -5.783   7.311  14.379  1.00  0.00     0.003 A 
HETATM   16  C5  UNL     1      -7.129   7.488  14.715  1.00  0.00     0.029 A 
HETATM   17  C4  UNL     1      -8.079   6.531  14.358  1.00  0.00     0.035 A 
HETATM   18  C24 UNL     1      -7.661   5.402  13.642  1.00  0.00     0.042 A 
BRANCH  17  19
HETATM   19  N1  UNL     1      -9.444   6.601  14.700  1.00  0.00    -0.324 N 
HETATM   20  C3  UNL     1     -10.504   6.871  13.865  1.00  0.00     0.244 C 
HETATM   21  O1  UNL     1     -10.480   7.006  12.648  1.00  0.00    -0.268 OA
HETATM   22  H4  UNL     1      -9.666   6.437  15.673  1.00  0.00     0.169 HD
BRANCH  20  23
HETATM   23  C2  UNL     1     -11.820   6.947  14.558  1.00  0.00     0.064 C 
HETATM   24  C1  UNL     1     -12.917   6.252  14.223  1.00  0.00     0.017 C 
ENDBRANCH  20  23
ENDBRANCH  17  19
ENDBRANCH   1  13
BRANCH  11  25
HETATM   25  N4  UNL     1      -3.018   5.347  12.782  1.00  0.00    -0.267 NA
HETATM   26  H12 UNL     1      -3.413   6.057  12.167  1.00  0.00     0.130 HD
BRANCH  25  27
HETATM   27  C15 UNL     1      -1.649   5.667  13.211  1.00  0.00     0.118 C 
BRANCH  27  28
HETATM   28  C16 UNL     1      -1.681   6.284  14.634  1.00  0.00     0.188 C 
BRANCH  28  29
HETATM   29  O3  UNL     1      -0.584   5.809  15.432  1.00  0.00    -0.399 OA
HETATM   30  H16 UNL     1       0.160   5.805  14.797  1.00  0.00     0.209 HD
ENDBRANCH  28  29
ENDBRANCH  27  28
BRANCH  27  31
HETATM   31  C17 UNL     1      -1.054   6.621  12.178  1.00  0.00    -0.038 A 
HETATM   32  C18 UNL     1      -1.329   7.995  12.255  1.00  0.00     0.009 A 
HETATM   33  C19 UNL     1      -0.760   8.889  11.345  1.00  0.00     0.001 A 
HETATM   34  C20 UNL     1       0.097   8.424  10.351  1.00  0.00     0.000 A 
HETATM   35  C21 UNL     1       0.387   7.065  10.264  1.00  0.00     0.001 A 
HETATM   36  C22 UNL     1      -0.185   6.170  11.168  1.00  0.00     0.009 A 
ENDBRANCH  27  31
ENDBRANCH  25  27
ENDBRANCH  11  25
TORSDOF 8
ENDMDL
