MODEL 1
REMARK minimizedAffinity -7.8866291
REMARK  5 active torsions:
REMARK  status: ('A' for Active; 'I' for Inactive)
REMARK    1  A    between atoms: C3_4  and  N1_5 
REMARK    2  A    between atoms: N1_5  and  C4_6 
REMARK    3  A    between atoms: C15_24  and  O1_25 
REMARK    4  A    between atoms: O1_25  and  C16_26 
REMARK    5  A    between atoms: C16_26  and  C17_27 
ROOT
HETATM    1  N1  UNL     1      12.366  35.820  17.941  1.00  0.00    -0.342 N 
HETATM    2  H2  UNL     1      11.716  36.582  17.821  1.00  0.00     0.167 HD
ENDROOT
BRANCH   1   3
HETATM    3  C3  UNL     1      13.593  35.999  17.279  1.00  0.00     0.035 A 
HETATM    4  C2  UNL     1      14.666  35.111  17.386  1.00  0.00     0.056 A 
HETATM    5  C1  UNL     1      15.860  35.334  16.687  1.00  0.00     0.069 A 
HETATM    6 CL1  UNL     1      17.137  34.180  16.884  1.00  0.00    -0.081 Cl
HETATM    7  C15 UNL     1      16.012  36.450  15.853  1.00  0.00     0.091 A 
HETATM    8  C14 UNL     1      14.940  37.333  15.729  1.00  0.00     0.041 A 
HETATM    9  C13 UNL     1      13.747  37.104  16.429  1.00  0.00     0.032 A 
BRANCH   7  10
HETATM   10  O1  UNL     1      17.214  36.586  15.212  1.00  0.00    -0.345 OA
BRANCH  10  11
HETATM   11  C16 UNL     1      17.214  36.612  13.788  1.00  0.00     0.214 C 
BRANCH  11  12
HETATM   12  C17 UNL     1      17.335  35.193  13.291  1.00  0.00    -0.034 A 
HETATM   13  C18 UNL     1      18.478  34.434  13.580  1.00  0.00     0.009 A 
HETATM   14  C19 UNL     1      18.595  33.124  13.108  1.00  0.00     0.001 A 
HETATM   15  C20 UNL     1      17.578  32.567  12.336  1.00  0.00     0.000 A 
HETATM   16  C21 UNL     1      16.444  33.318  12.030  1.00  0.00     0.001 A 
HETATM   17  C22 UNL     1      16.325  34.627  12.500  1.00  0.00     0.009 A 
ENDBRANCH  11  12
ENDBRANCH  10  11
ENDBRANCH   7  10
ENDBRANCH   1   3
BRANCH   1  18
HETATM   18  C4  UNL     1      11.999  34.968  18.990  1.00  0.00     0.123 A 
HETATM   19  N2  UNL     1      12.896  34.141  19.606  1.00  0.00    -0.338 N 
HETATM   20  C5  UNL     1      12.518  33.383  20.680  1.00  0.00     0.183 A 
ATOM     21  H2  UNL     1      13.856  34.088  19.262  1.00  0.00     0.168 HD
HETATM   22  N3  UNL     1      11.320  33.294  21.300  1.00  0.00    -0.337 N 
HETATM   23  C6  UNL     1      10.406  34.090  20.700  1.00  0.00     0.137 A 
ATOM     24  H3  UNL     1      11.132  32.707  22.113  1.00  0.00     0.168 HD
HETATM   25  N4  UNL     1       9.136  34.224  21.071  1.00  0.00    -0.278 N 
HETATM   26  C12 UNL     1      10.725  34.897  19.576  1.00  0.00     0.082 A 
HETATM   27  N5  UNL     1       8.605  35.093  20.179  1.00  0.00    -0.265 N 
ATOM     28  H4  UNL     1       8.665  33.772  21.855  1.00  0.00     0.189 HD
HETATM   29  C7  UNL     1       7.286  35.553  20.171  1.00  0.00     0.116 A 
HETATM   30  C11 UNL     1       9.546  35.509  19.217  1.00  0.00     0.073 A 
HETATM   31  C8  UNL     1       6.866  36.399  19.218  1.00  0.00     0.019 A 
HETATM   32  C9  UNL     1       7.802  36.802  18.186  1.00  0.00     0.004 A 
HETATM   33  C10 UNL     1       9.078  36.375  18.181  1.00  0.00     0.032 A 
ENDBRANCH   1  18
TORSDOF 5
ENDMDL
