MODEL 1
REMARK minimizedAffinity -6.49379683
REMARK CNNscore 0.3287386
REMARK CNNaffinity 5.92366934
REMARK  1 active torsions:
REMARK  status: ('A' for Active; 'I' for Inactive)
REMARK    1  A    between atoms: C2_2  and  C3_3 
REMARK       I    between atoms: C3_3  and  N1_5 
ROOT
HETATM    1  C3  UNL     1      -8.572  17.145   4.982  1.00  0.00     0.247 C 
HETATM    2  O1  UNL     1      -9.208  17.522   3.999  1.00  0.00    -0.268 OA
HETATM    3  N1  UNL     1      -7.349  17.695   5.389  1.00  0.00    -0.315 N 
HETATM    4  C4  UNL     1      -6.684  18.592   4.430  1.00  0.00     0.132 C 
HETATM    5  C5  UNL     1      -6.243  17.873   3.145  1.00  0.00     0.020 C 
HETATM    6  C6  UNL     1      -5.539  18.833   2.182  1.00  0.00     0.002 C 
HETATM    7  C7  UNL     1      -5.548  18.372   0.721  1.00  0.00     0.000 C 
HETATM    8  C8  UNL     1      -4.964  16.989   0.409  1.00  0.00     0.000 C 
HETATM    9  C9  UNL     1      -3.449  16.954   0.180  1.00  0.00     0.002 C 
HETATM   10  C10 UNL     1      -2.576  16.999   1.432  1.00  0.00     0.020 C 
HETATM   11  C11 UNL     1      -2.744  15.767   2.320  1.00  0.00     0.128 C 
HETATM   12  N2  UNL     1      -1.929  15.850   3.522  1.00  0.00    -0.355 N 
HETATM   13  C12 UNL     1      -2.293  16.577   4.623  1.00  0.00     0.106 A 
HETATM   14  C13 UNL     1      -1.328  16.417   5.598  1.00  0.00     0.019 A 
HETATM   15  C14 UNL     1      -0.343  15.522   5.060  1.00  0.00     0.005 A 
HETATM   16  C15 UNL     1       0.840  14.931   5.562  1.00  0.00     0.014 A 
HETATM   17  C16 UNL     1       1.605  14.089   4.748  1.00  0.00     0.001 A 
HETATM   18  C17 UNL     1       1.211  13.822   3.441  1.00  0.00     0.002 A 
HETATM   19  C18 UNL     1       0.038  14.372   2.922  1.00  0.00     0.030 A 
HETATM   20  C19 UNL     1      -0.731  15.210   3.749  1.00  0.00     0.045 A 
HETATM   21  C20 UNL     1      -1.428  17.091   6.888  1.00  0.00     0.063 A 
HETATM   22  C21 UNL     1      -0.306  17.481   7.583  1.00  0.00     0.048 A 
HETATM   23  C22 UNL     1      -0.543  18.111   8.776  1.00  0.00     0.108 A 
HETATM   24  N3  UNL     1      -1.774  18.353   9.256  1.00  0.00    -0.202 N 
ATOM     25  H3  UNL     1      -1.912  18.815  10.154  1.00  0.00     0.183 HD
HETATM   26  C23 UNL     1      -2.817  17.962   8.503  1.00  0.00     0.683 A 
HETATM   27  N4  UNL     1      -2.682  17.338   7.328  1.00  0.00    -0.191 N 
ATOM     28  H4  UNL     1      -3.497  17.058   6.784  1.00  0.00     0.184 HD
HETATM   29  N5  UNL     1      -4.065  18.237   9.051  1.00  0.00    -0.192 N 
HETATM   30  C24 UNL     1      -5.374  18.214   8.553  1.00  0.00     0.051 A 
HETATM   31  C25 UNL     1      -6.424  18.378   9.468  1.00  0.00     0.030 A 
HETATM   32  C26 UNL     1      -7.755  18.332   9.058  1.00  0.00     0.004 A 
HETATM   33  C27 UNL     1      -8.060  18.104   7.720  1.00  0.00     0.030 A 
HETATM   34  C28 UNL     1      -7.040  17.907   6.778  1.00  0.00     0.039 A 
HETATM   35  C29 UNL     1      -5.704  17.957   7.214  1.00  0.00     0.059 A 
HETATM   36  H27 UNL     1      -3.927  18.706   9.933  1.00  0.00     0.184 HD
ENDROOT
BRANCH   1  37
HETATM   37  C2  UNL     1      -9.026  15.951   5.763  1.00  0.00     0.064 C 
HETATM   38  C1  UNL     1      -9.382  14.819   5.144  1.00  0.00     0.017 C 
ENDBRANCH   1  37
TORSDOF 1
ENDMDL
