MODEL 1
REMARK minimizedAffinity -5.20893908
REMARK CNNscore 0.700628281
REMARK CNNaffinity 5.36324835
REMARK  2 active torsions:
REMARK  status: ('A' for Active; 'I' for Inactive)
REMARK    1  A    between atoms: C5_6  and  N1_7 
REMARK    2  A    between atoms: N1_7  and  C6_8 
ROOT
HETATM    1  C6  UNL     1       0.241  67.742   0.148  1.00  0.00     0.120 A 
HETATM    2  N2  UNL     1       0.567  68.601  -0.850  1.00  0.00    -0.338 N 
ATOM      3  H2  UNL     1       0.602  68.273  -1.815  1.00  0.00     0.168 HD
HETATM    4  C7  UNL     1       0.842  69.880  -0.565  1.00  0.00     0.182 A 
HETATM    5  N3  UNL     1       0.843  70.456   0.633  1.00  0.00    -0.346 N 
ATOM      6  H3  UNL     1       1.073  71.436   0.791  1.00  0.00     0.167 HD
HETATM    7  C8  UNL     1       0.507  69.600   1.611  1.00  0.00     0.090 A 
HETATM    8  S1  UNL     1       0.459  70.145   3.223  1.00  0.00    -0.075 SA
HETATM    9  C9  UNL     1      -0.017  68.617   3.785  1.00  0.00    -0.008 A 
HETATM   10  C10 UNL     1      -0.160  67.689   2.766  1.00  0.00    -0.028 A 
HETATM   11  C11 UNL     1       0.184  68.254   1.471  1.00  0.00     0.049 A 
HETATM   12  C12 UNL     1      -0.606  66.284   3.063  1.00  0.00     0.041 C 
HETATM   13  C13 UNL     1      -1.205  66.140   4.471  1.00  0.00     0.005 C 
HETATM   14  C14 UNL     1      -0.360  66.866   5.524  1.00  0.00     0.005 C 
HETATM   15  C15 UNL     1      -0.286  68.371   5.238  1.00  0.00     0.047 C 
ENDROOT
BRANCH   1  16
HETATM   16  N1  UNL     1       0.015  66.385  -0.135  1.00  0.00    -0.342 N 
HETATM   17  H4  UNL     1      -0.514  65.914   0.581  1.00  0.00     0.167 HD
BRANCH  16  18
HETATM   18  C5  UNL     1       0.527  65.528  -1.126  1.00  0.00     0.034 A 
HETATM   19  C4  UNL     1      -0.254  64.431  -1.532  1.00  0.00     0.029 A 
HETATM   20  C3  UNL     1       0.193  63.538  -2.510  1.00  0.00     0.004 A 
HETATM   21  C2  UNL     1       1.437  63.727  -3.105  1.00  0.00     0.019 A 
HETATM   22  C1  UNL     1       2.219  64.810  -2.717  1.00  0.00     0.013 A 
HETATM   23 BR1  UNL     1       3.907  65.079  -3.529  1.00  0.00    -0.051 Br
HETATM   24  C16 UNL     1       1.771  65.703  -1.740  1.00  0.00     0.048 A 
ENDBRANCH  16  18
ENDBRANCH   1  16
TORSDOF 2
ENDMDL
