MODEL 1
REMARK minimizedAffinity -8.22182465
REMARK  8 active torsions:
REMARK  status: ('A' for Active; 'I' for Inactive)
REMARK    1  A    between atoms: O1_2  and  C2_3 
REMARK    2  A    between atoms: C6_11  and  N3_12 
REMARK    3  A    between atoms: N3_12  and  C7_13 
REMARK    4  A    between atoms: C15_23  and  O2_24 
REMARK    5  A    between atoms: O2_24  and  C16_25 
REMARK    6  A    between atoms: C16_25  and  C17_26 
REMARK    7  A    between atoms: C17_26  and  C18_27 
REMARK    8  A    between atoms: C18_27  and  N4_28 
ROOT
HETATM    1  C2  UNL     1       5.008  -6.354  28.945  1.00  0.00     0.103 A 
HETATM    2  C3  UNL     1       4.675  -5.069  29.387  1.00  0.00     0.070 A 
HETATM    3  C4  UNL     1       5.515  -4.323  30.209  1.00  0.00     0.050 A 
HETATM    4  N1  UNL     1       5.120  -3.101  30.576  1.00  0.00    -0.351 N 
ATOM      5  H1  UNL     1       4.226  -2.715  30.272  1.00  0.00     0.166 HD
HETATM    6  C5  UNL     1       5.953  -2.409  31.359  1.00  0.00     0.182 A 
HETATM    7  N2  UNL     1       7.134  -2.829  31.822  1.00  0.00    -0.338 N 
ATOM      8  H2  UNL     1       7.713  -2.240  32.420  1.00  0.00     0.168 HD
HETATM    9  C6  UNL     1       7.522  -4.067  31.464  1.00  0.00     0.119 A 
HETATM   10  C13 UNL     1       6.735  -4.877  30.621  1.00  0.00     0.038 A 
HETATM   11  C14 UNL     1       7.091  -6.169  30.169  1.00  0.00     0.057 A 
HETATM   12  C15 UNL     1       6.246  -6.886  29.322  1.00  0.00     0.103 A 
ENDROOT
BRANCH   9  13
HETATM   13  N3  UNL     1       8.762  -4.567  31.940  1.00  0.00    -0.339 N 
HETATM   14  H6  UNL     1       8.648  -5.526  32.264  1.00  0.00     0.167 HD
BRANCH  13  15
HETATM   15  C7  UNL     1       9.748  -3.902  32.709  1.00  0.00     0.074 A 
HETATM   16  C8  UNL     1      10.617  -2.945  32.175  1.00  0.00     0.056 A 
HETATM   17  C9  UNL     1      11.615  -2.370  32.971  1.00  0.00     0.036 A 
HETATM   18 CL1  UNL     1      12.665  -1.180  32.301  1.00  0.00    -0.084 Cl
HETATM   19  C10 UNL     1      11.781  -2.756  34.302  1.00  0.00     0.027 A 
HETATM   20  C11 UNL     1      10.946  -3.731  34.842  1.00  0.00     0.046 A 
HETATM   21  C12 UNL     1       9.950  -4.295  34.045  1.00  0.00     0.143 A 
HETATM   22  F1  UNL     1       9.157  -5.240  34.575  1.00  0.00    -0.204 F 
ENDBRANCH  13  15
ENDBRANCH   9  13
BRANCH  12  23
HETATM   23  O2  UNL     1       6.686  -8.132  28.959  1.00  0.00    -0.348 OA
BRANCH  23  24
HETATM   24  C16 UNL     1       7.576  -8.101  27.832  1.00  0.00     0.177 C 
BRANCH  24  25
HETATM   25  C17 UNL     1       8.890  -8.736  28.277  1.00  0.00     0.057 C 
BRANCH  25  26
HETATM   26  C18 UNL     1       9.941  -7.673  28.621  1.00  0.00     0.274 C 
BRANCH  26  27
HETATM   27  N4  UNL     1       9.887  -6.525  27.701  1.00  0.00     0.092 N 
HETATM   28  C19 UNL     1      10.660  -6.734  26.453  1.00  0.00     0.298 C 
HETATM   29  C20 UNL     1      12.037  -6.038  26.459  1.00  0.00     0.198 C 
HETATM   30  O3  UNL     1      11.955  -4.616  26.631  1.00  0.00    -0.388 OA
HETATM   31  C21 UNL     1      10.795  -4.213  27.380  1.00  0.00     0.198 C 
HETATM   32  C22 UNL     1      10.335  -5.288  28.383  1.00  0.00     0.298 C 
ENDBRANCH  26  27
ENDBRANCH  25  26
ENDBRANCH  24  25
ENDBRANCH  23  24
ENDBRANCH  12  23
BRANCH   1  33
HETATM   33  O1  UNL     1       4.206  -7.130  28.156  1.00  0.00    -0.353 OA
HETATM   34  C1  UNL     1       2.802  -6.905  28.251  1.00  0.00     0.210 C 
ENDBRANCH   1  33
TORSDOF 8
ENDMDL
