MODEL 1
REMARK minimizedAffinity -6.34965467
REMARK  2 active torsions:
REMARK  status: ('A' for Active; 'I' for Inactive)
REMARK    1  A    between atoms: N1_1  and  C1_2 
REMARK    2  A    between atoms: N5_13  and  C6_14 
ROOT
HETATM    1  C1  UNL     1      15.023  34.029  19.019  1.00  0.00     0.094 A 
HETATM    2  N2  UNL     1      15.128  33.927  20.357  1.00  0.00    -0.342 N 
ATOM      3  H2  UNL     1      16.016  33.680  20.794  1.00  0.00     0.167 HD
HETATM    4  C2  UNL     1      14.033  34.160  21.103  1.00  0.00     0.183 A 
HETATM    5  N3  UNL     1      12.806  34.503  20.685  1.00  0.00    -0.336 N 
ATOM      6  H3  UNL     1      12.019  34.673  21.311  1.00  0.00     0.168 HD
HETATM    7  C3  UNL     1      12.731  34.598  19.340  1.00  0.00     0.143 A 
HETATM    8  C4  UNL     1      13.787  34.376  18.469  1.00  0.00     0.065 A 
HETATM    9  C5  UNL     1      13.248  34.577  17.192  1.00  0.00     0.126 A 
HETATM   10  N4  UNL     1      11.960  34.916  17.216  1.00  0.00    -0.302 N 
ATOM     11  H4  UNL     1      11.355  35.124  16.422  1.00  0.00     0.186 HD
HETATM   12  N5  UNL     1      11.628  34.925  18.547  1.00  0.00    -0.239 N 
ENDROOT
BRANCH  12  13
HETATM   13  C6  UNL     1      10.291  35.247  18.936  1.00  0.00     0.058 A 
HETATM   14  C7  UNL     1       9.571  36.197  18.190  1.00  0.00     0.031 A 
HETATM   15  C8  UNL     1       8.262  36.535  18.543  1.00  0.00     0.002 A 
HETATM   16  C9  UNL     1       7.658  35.932  19.642  1.00  0.00     0.000 A 
HETATM   17  C10 UNL     1       8.362  34.989  20.388  1.00  0.00     0.002 A 
HETATM   18  C11 UNL     1       9.673  34.646  20.040  1.00  0.00     0.031 A 
ENDBRANCH  12  13
BRANCH   1  19
HETATM   19  N1  UNL     1      16.167  33.792  18.274  1.00  0.00    -0.288 NA
HETATM   20  H1  UNL     1      16.243  34.300  17.405  1.00  0.00     0.125 HD
HETATM   21  H2  UNL     1      16.989  33.799  18.868  1.00  0.00     0.125 HD
ENDBRANCH   1  19
TORSDOF 2
ENDMDL
