MODEL 1
REMARK minimizedAffinity -7.96871805
REMARK  3 active torsions:
REMARK  status: ('A' for Active; 'I' for Inactive)
REMARK    1  A    between atoms: C4_5  and  C5_6 
REMARK    2  A    between atoms: N2_9  and  C6_10 
REMARK    3  A    between atoms: C12_16  and  C13_17 
ROOT
HETATM    1  C5  UNL     1      14.700  57.334   4.365  1.00  0.00     0.038 C 
HETATM    2  N1  UNL     1      13.703  57.886   4.987  1.00  0.00    -0.301 N 
ATOM      3  H1  UNL     1      13.120  57.451   5.702  1.00  0.00     0.187 HD
HETATM    4  N2  UNL     1      13.581  59.159   4.507  1.00  0.00    -0.283 N 
HETATM    5  C12 UNL     1      14.522  59.462   3.423  1.00  0.00     0.148 C 
HETATM    6  C23 UNL     1      15.430  58.229   3.404  1.00  0.00     0.091 C 
ENDROOT
BRANCH   5   7
HETATM    7  C13 UNL     1      13.867  59.665   2.057  1.00  0.00    -0.022 A 
HETATM    8  C14 UNL     1      13.559  60.968   1.616  1.00  0.00     0.010 A 
HETATM    9  C15 UNL     1      12.951  61.189   0.387  1.00  0.00     0.002 A 
HETATM   10  C16 UNL     1      12.625  60.111  -0.425  1.00  0.00     0.012 A 
HETATM   11  C17 UNL     1      12.894  58.796  -0.020  1.00  0.00    -0.025 A 
HETATM   12  C18 UNL     1      12.541  57.727  -0.859  1.00  0.00     0.012 A 
HETATM   13  C22 UNL     1      13.516  58.550   1.233  1.00  0.00    -0.018 A 
HETATM   14  C19 UNL     1      12.785  56.408  -0.485  1.00  0.00     0.001 A 
HETATM   15  C20 UNL     1      13.385  56.143   0.737  1.00  0.00     0.001 A 
HETATM   16  C21 UNL     1      13.743  57.196   1.583  1.00  0.00     0.013 A 
ENDBRANCH   5   7
BRANCH   4  17
HETATM   17  C6  UNL     1      12.797  60.101   5.177  1.00  0.00     0.051 A 
HETATM   18  C7  UNL     1      12.594  61.384   4.638  1.00  0.00     0.031 A 
HETATM   19  C8  UNL     1      11.817  62.347   5.289  1.00  0.00     0.002 A 
HETATM   20  C9  UNL     1      11.223  62.051   6.510  1.00  0.00     0.000 A 
HETATM   21  C10 UNL     1      11.410  60.793   7.074  1.00  0.00     0.002 A 
HETATM   22  C11 UNL     1      12.188  59.834   6.414  1.00  0.00     0.031 A 
ENDBRANCH   4  17
BRANCH   1  23
HETATM   23  C4  UNL     1      15.121  55.933   4.603  1.00  0.00    -0.012 A 
HETATM   24  C3  UNL     1      14.195  54.938   4.947  1.00  0.00     0.016 A 
HETATM   25  C2  UNL     1      14.629  53.626   5.163  1.00  0.00     0.043 A 
HETATM   26  C1  UNL     1      15.978  53.316   5.034  1.00  0.00     0.116 A 
HETATM   27  F1  UNL     1      16.388  52.058   5.243  1.00  0.00    -0.206 F 
HETATM   28  C25 UNL     1      16.908  54.291   4.692  1.00  0.00     0.043 A 
HETATM   29  C24 UNL     1      16.478  55.602   4.476  1.00  0.00     0.016 A 
ENDBRANCH   1  23
TORSDOF 3
ENDMDL
