MODEL 1
REMARK minimizedAffinity -7.6322484
REMARK  6 active torsions:
REMARK  status: ('A' for Active; 'I' for Inactive)
REMARK    1  A    between atoms: C2_2  and  C3_3 
REMARK       I    between atoms: C3_3  and  N1_5 
REMARK    2  A    between atoms: N1_5  and  C4_6 
REMARK    3  A    between atoms: C9_15  and  N4_16 
REMARK    4  A    between atoms: N4_16  and  C10_17 
REMARK    5  A    between atoms: C13_20  and  O2_21 
REMARK    6  A    between atoms: O2_21  and  C14_22 
ROOT
HETATM    1  C4  UNL     1       8.206  34.463  20.860  1.00  0.00     0.036 A 
HETATM    2  C5  UNL     1       8.102  35.053  22.118  1.00  0.00     0.032 A 
HETATM    3  C6  UNL     1       9.161  35.806  22.636  1.00  0.00     0.033 A 
HETATM    4  C7  UNL     1      10.341  35.994  21.932  1.00  0.00     0.047 A 
HETATM    5  N2  UNL     1      11.304  36.726  22.495  1.00  0.00    -0.352 N 
ATOM      6  H2  UNL     1      11.194  37.137  23.422  1.00  0.00     0.166 HD
HETATM    7  C8  UNL     1      12.422  36.892  21.781  1.00  0.00     0.182 A 
HETATM    8  N3  UNL     1      12.665  36.391  20.568  1.00  0.00    -0.338 N 
ATOM      9  H3  UNL     1      13.547  36.567  20.086  1.00  0.00     0.168 HD
HETATM   10  C9  UNL     1      11.695  35.643  20.009  1.00  0.00     0.119 A 
HETATM   11  C22 UNL     1      10.466  35.410  20.665  1.00  0.00     0.037 A 
HETATM   12  C23 UNL     1       9.384  34.652  20.137  1.00  0.00     0.047 A 
ENDROOT
BRANCH  10  13
HETATM   13  N4  UNL     1      11.903  35.076  18.723  1.00  0.00    -0.342 N 
HETATM   14  H8  UNL     1      11.624  34.101  18.733  1.00  0.00     0.167 HD
BRANCH  13  15
HETATM   15  C10 UNL     1      12.946  35.309  17.800  1.00  0.00     0.033 A 
HETATM   16  C11 UNL     1      12.731  36.220  16.753  1.00  0.00     0.032 A 
HETATM   17  C12 UNL     1      13.748  36.531  15.844  1.00  0.00     0.039 A 
HETATM   18  C13 UNL     1      15.000  35.940  15.976  1.00  0.00     0.076 A 
HETATM   19  C20 UNL     1      15.254  35.080  17.043  1.00  0.00     0.039 A 
HETATM   20  C21 UNL     1      14.232  34.774  17.949  1.00  0.00     0.032 A 
BRANCH  18  21
HETATM   21  O2  UNL     1      15.968  36.311  15.070  1.00  0.00    -0.311 OA
BRANCH  21  22
HETATM   22  C14 UNL     1      16.509  35.322  14.280  1.00  0.00     0.076 A 
HETATM   23  C15 UNL     1      15.817  34.997  13.114  1.00  0.00     0.037 A 
HETATM   24  C16 UNL     1      16.291  33.979  12.284  1.00  0.00     0.003 A 
HETATM   25  C17 UNL     1      17.447  33.280  12.631  1.00  0.00     0.000 A 
HETATM   26  C18 UNL     1      18.127  33.592  13.809  1.00  0.00     0.003 A 
HETATM   27  C19 UNL     1      17.655  34.608  14.640  1.00  0.00     0.037 A 
ENDBRANCH  21  22
ENDBRANCH  18  21
ENDBRANCH  13  15
ENDBRANCH  10  13
BRANCH   1  28
HETATM   28  N1  UNL     1       7.108  33.708  20.403  1.00  0.00    -0.324 N 
HETATM   29  C3  UNL     1       6.099  34.123  19.564  1.00  0.00     0.244 C 
HETATM   30  O1  UNL     1       5.942  35.237  19.082  1.00  0.00    -0.268 OA
HETATM   31  H4  UNL     1       7.050  32.760  20.751  1.00  0.00     0.169 HD
BRANCH  29  32
HETATM   32  C2  UNL     1       5.077  33.077  19.274  1.00  0.00     0.064 C 
HETATM   33  C1  UNL     1       4.577  32.800  18.062  1.00  0.00     0.017 C 
ENDBRANCH  29  32
ENDBRANCH   1  28
TORSDOF 6
ENDMDL
