MODEL 1
REMARK minimizedAffinity -9.4191637
REMARK  7 active torsions:
REMARK  status: ('A' for Active; 'I' for Inactive)
REMARK    1  A    between atoms: N2_5  and  C4_6 
REMARK    2  A    between atoms: C7_9  and  N3_10 
REMARK    3  A    between atoms: N3_10  and  C8_11 
REMARK    4  A    between atoms: C12_17  and  C13_18 
REMARK    5  A    between atoms: C13_18  and  N5_19 
REMARK    6  A    between atoms: N5_19  and  C14_20 
REMARK    7  A    between atoms: N6_26  and  C20_27 
ROOT
HETATM    1  C8  UNL     1       3.600  -5.866  28.996  1.00  0.00     0.684 A 
HETATM    2  N4  UNL     1       2.296  -6.160  28.822  1.00  0.00    -0.201 N 
ATOM      3  H4  UNL     1       1.577  -5.547  29.206  1.00  0.00     0.183 HD
HETATM    4  C9  UNL     1       1.949  -7.270  28.136  1.00  0.00     0.121 A 
HETATM    5  C10 UNL     1       2.937  -8.090  27.612  1.00  0.00     0.027 A 
HETATM    6  C11 UNL     1       2.989  -9.284  26.860  1.00  0.00     0.043 A 
HETATM    7  C12 UNL     1       4.320  -9.598  26.635  1.00  0.00     0.028 A 
HETATM    8  N6  UNL     1       5.082  -8.605  27.235  1.00  0.00    -0.330 N 
HETATM    9  C25 UNL     1       4.240  -7.697  27.846  1.00  0.00     0.135 A 
HETATM   10  N7  UNL     1       4.622  -6.610  28.538  1.00  0.00    -0.175 N 
ATOM     11  H7  UNL     1       5.600  -6.371  28.701  1.00  0.00     0.186 HD
ENDROOT
BRANCH   1  12
HETATM   12  N3  UNL     1       3.996  -4.730  29.701  1.00  0.00    -0.192 N 
HETATM   13  H10 UNL     1       3.173  -4.191  29.927  1.00  0.00     0.184 HD
BRANCH  12  14
HETATM   14  C7  UNL     1       5.183  -4.350  30.333  1.00  0.00     0.049 A 
HETATM   15  C6  UNL     1       5.431  -3.075  30.833  1.00  0.00     0.032 A 
HETATM   16  C5  UNL     1       6.641  -2.764  31.475  1.00  0.00     0.031 A 
HETATM   17  C4  UNL     1       7.657  -3.711  31.661  1.00  0.00     0.030 A 
HETATM   18  C27 UNL     1       7.382  -4.999  31.184  1.00  0.00     0.031 A 
HETATM   19  C26 UNL     1       6.174  -5.314  30.539  1.00  0.00     0.032 A 
BRANCH  17  20
HETATM   20  N2  UNL     1       8.850  -3.404  32.291  1.00  0.00    -0.378 N 
HETATM   21  C3  UNL     1       9.432  -4.307  33.301  1.00  0.00     0.153 C 
HETATM   22  C2  UNL     1      10.979  -4.270  33.271  1.00  0.00     0.291 C 
HETATM   23  N1  UNL     1      11.598  -2.935  33.410  1.00  0.00     0.087 N 
HETATM   24  C1  UNL     1      12.013  -2.671  34.785  1.00  0.00     0.310 C 
HETATM   25  C29 UNL     1      10.690  -1.870  32.932  1.00  0.00     0.291 C 
HETATM   26  C28 UNL     1       9.719  -2.316  31.814  1.00  0.00     0.153 C 
ENDBRANCH  17  20
ENDBRANCH  12  14
ENDBRANCH   1  12
BRANCH   8  27
HETATM   27  C20 UNL     1       6.534  -8.508  27.231  1.00  0.00     0.091 C 
HETATM   28  C21 UNL     1       7.107  -7.290  26.478  1.00  0.00     0.026 C 
HETATM   29  C22 UNL     1       7.967  -6.544  27.493  1.00  0.00     0.002 C 
HETATM   30  C23 UNL     1       8.402  -7.620  28.473  1.00  0.00     0.002 C 
HETATM   31  C24 UNL     1       7.151  -8.468  28.638  1.00  0.00     0.026 C 
ENDBRANCH   8  27
BRANCH   7  32
HETATM   32  C13 UNL     1       4.878 -10.759  25.873  1.00  0.00     0.149 C 
BRANCH  32  33
HETATM   33  N5  UNL     1       4.675 -10.666  24.430  1.00  0.00    -0.287 NA
HETATM   34  H15 UNL     1       5.243  -9.925  24.031  1.00  0.00     0.128 HD
BRANCH  33  35
HETATM   35  C14 UNL     1       3.374 -10.614  23.909  1.00  0.00     0.008 A 
HETATM   36  C15 UNL     1       2.499 -11.706  23.889  1.00  0.00     0.023 A 
HETATM   37  C16 UNL     1       1.233 -11.612  23.299  1.00  0.00     0.002 A 
HETATM   38  C17 UNL     1       0.831 -10.428  22.690  1.00  0.00     0.000 A 
HETATM   39  C18 UNL     1       1.701  -9.345  22.656  1.00  0.00     0.002 A 
HETATM   40  C19 UNL     1       2.965  -9.446  23.246  1.00  0.00     0.023 A 
ENDBRANCH  33  35
ENDBRANCH  32  33
ENDBRANCH   7  32
TORSDOF 7
ENDMDL
