MODEL 1
REMARK minimizedAffinity -7.69461155
REMARK CNNscore 0.827365816
REMARK CNNaffinity 5.83576155
REMARK  3 active torsions:
REMARK  status: ('A' for Active; 'I' for Inactive)
REMARK    1  A    between atoms: C4_5  and  C5_6 
REMARK    2  A    between atoms: N2_9  and  C6_10 
REMARK    3  A    between atoms: C12_16  and  C13_17 
ROOT
HETATM    1  C5  UNL     1      17.188  52.229   5.423  1.00  0.00     0.038 C 
HETATM    2  N1  UNL     1      16.698  51.048   5.654  1.00  0.00    -0.301 N 
ATOM      3  H1  UNL     1      15.717  50.776   5.587  1.00  0.00     0.187 HD
HETATM    4  N2  UNL     1      17.744  50.240   6.004  1.00  0.00    -0.283 N 
HETATM    5  C12 UNL     1      19.006  50.968   6.155  1.00  0.00     0.147 C 
HETATM    6  C23 UNL     1      18.686  52.329   5.530  1.00  0.00     0.091 C 
ENDROOT
BRANCH   5   7
HETATM    7  C13 UNL     1      19.450  51.131   7.602  1.00  0.00    -0.032 A 
HETATM    8  C14 UNL     1      20.133  50.082   8.235  1.00  0.00     0.010 A 
HETATM    9  C15 UNL     1      20.576  50.213   9.553  1.00  0.00     0.013 A 
HETATM   10  C16 UNL     1      20.355  51.396  10.272  1.00  0.00    -0.026 A 
HETATM   11  C17 UNL     1      20.791  51.541  11.599  1.00  0.00     0.012 A 
HETATM   12  C21 UNL     1      19.676  52.465   9.647  1.00  0.00    -0.025 A 
HETATM   13  C18 UNL     1      20.560  52.726  12.301  1.00  0.00     0.001 A 
HETATM   14  C19 UNL     1      19.891  53.779  11.684  1.00  0.00     0.001 A 
HETATM   15  C20 UNL     1      19.452  53.651  10.365  1.00  0.00     0.012 A 
HETATM   16  C22 UNL     1      19.237  52.320   8.320  1.00  0.00     0.021 A 
ENDBRANCH   5   7
BRANCH   4  17
HETATM   17  C6  UNL     1      17.569  48.865   6.151  1.00  0.00     0.051 A 
HETATM   18  C7  UNL     1      16.291  48.288   6.055  1.00  0.00     0.031 A 
HETATM   19  C8  UNL     1      16.086  46.911   6.202  1.00  0.00     0.002 A 
HETATM   20  C9  UNL     1      17.166  46.072   6.452  1.00  0.00     0.000 A 
HETATM   21  C10 UNL     1      18.443  46.611   6.552  1.00  0.00     0.002 A 
HETATM   22  C11 UNL     1      18.639  47.991   6.402  1.00  0.00     0.031 A 
ENDBRANCH   4  17
BRANCH   1  23
HETATM   23  C4  UNL     1      16.351  53.393   5.051  1.00  0.00    -0.012 A 
HETATM   24  C3  UNL     1      16.905  54.534   4.460  1.00  0.00     0.015 A 
HETATM   25  C2  UNL     1      16.086  55.617   4.126  1.00  0.00     0.024 A 
HETATM   26  C1  UNL     1      14.716  55.559   4.380  1.00  0.00     0.034 A 
HETATM   27 CL1  UNL     1      13.712  56.894   3.969  1.00  0.00    -0.084 Cl
HETATM   28  C25 UNL     1      14.156  54.426   4.967  1.00  0.00     0.024 A 
HETATM   29  C24 UNL     1      14.972  53.342   5.298  1.00  0.00     0.015 A 
ENDBRANCH   1  23
TORSDOF 3
ENDMDL
