MODEL 1
REMARK minimizedAffinity -8.22914696
REMARK  6 active torsions:
REMARK  status: ('A' for Active; 'I' for Inactive)
REMARK    1  A    between atoms: C5_6  and  N1_7 
REMARK    2  A    between atoms: N1_7  and  C6_8 
REMARK    3  A    between atoms: C11_17  and  N4_18 
REMARK    4  A    between atoms: N4_18  and  N5_19 
REMARK    5  A    between atoms: N6_21  and  C12_23 
REMARK    6  A    between atoms: C12_23  and  C13_24 
ROOT
HETATM    1  C6  UNL     1      12.300  34.706  18.946  1.00  0.00     0.119 A 
HETATM    2  N2  UNL     1      12.191  34.263  20.211  1.00  0.00    -0.338 N 
ATOM      3  H2  UNL     1      11.285  34.172  20.669  1.00  0.00     0.168 HD
HETATM    4  C7  UNL     1      13.327  33.948  20.840  1.00  0.00     0.182 A 
HETATM    5  N3  UNL     1      14.560  34.033  20.331  1.00  0.00    -0.352 N 
ATOM      6  H3  UNL     1      15.382  33.763  20.871  1.00  0.00     0.166 HD
HETATM    7  C8  UNL     1      14.662  34.489  19.081  1.00  0.00     0.047 A 
HETATM    8  C9  UNL     1      15.924  34.613  18.520  1.00  0.00     0.033 A 
HETATM    9  C10 UNL     1      16.114  35.090  17.219  1.00  0.00     0.033 A 
HETATM   10  C11 UNL     1      15.025  35.445  16.424  1.00  0.00     0.050 A 
HETATM   11  C19 UNL     1      13.750  35.351  16.993  1.00  0.00     0.048 A 
HETATM   12  C20 UNL     1      13.551  34.856  18.313  1.00  0.00     0.037 A 
ENDROOT
BRANCH  10  13
HETATM   13  N4  UNL     1      15.169  35.995  15.139  1.00  0.00    -0.287 N 
HETATM   14  H8  UNL     1      14.922  36.975  15.044  1.00  0.00     0.188 HD
BRANCH  13  15
HETATM   15  N5  UNL     1      14.867  35.239  14.067  1.00  0.00    -0.246 N 
HETATM   16  N6  UNL     1      15.926  35.133  13.423  1.00  0.00    -0.318 N 
ATOM     17  H6  UNL     1      16.809  35.556  13.709  1.00  0.00     0.182 HD
ATOM     18  H5  UNL     1      13.960  34.839  13.832  1.00  0.00     0.208 HD
BRANCH  16  19
HETATM   19  C12 UNL     1      15.762  34.328  12.202  1.00  0.00     0.179 C 
BRANCH  19  20
HETATM   20  C13 UNL     1      17.036  33.607  11.839  1.00  0.00    -0.039 A 
HETATM   21  C14 UNL     1      17.192  32.249  12.153  1.00  0.00     0.009 A 
HETATM   22  C15 UNL     1      18.364  31.573  11.807  1.00  0.00     0.001 A 
HETATM   23  C16 UNL     1      19.385  32.245  11.137  1.00  0.00     0.000 A 
HETATM   24  C17 UNL     1      19.236  33.591  10.809  1.00  0.00     0.001 A 
HETATM   25  C18 UNL     1      18.065  34.269  11.154  1.00  0.00     0.009 A 
ENDBRANCH  19  20
ENDBRANCH  16  19
ENDBRANCH  13  15
ENDBRANCH  10  13
BRANCH   1  26
HETATM   26  N1  UNL     1      11.120  35.012  18.212  1.00  0.00    -0.342 N 
HETATM   27  H4  UNL     1      11.021  34.333  17.463  1.00  0.00     0.167 HD
BRANCH  26  28
HETATM   28  C5  UNL     1       9.858  35.417  18.707  1.00  0.00     0.034 A 
HETATM   29  C4  UNL     1       9.020  36.184  17.881  1.00  0.00     0.029 A 
HETATM   30  C3  UNL     1       7.789  36.663  18.341  1.00  0.00     0.004 A 
HETATM   31  C2  UNL     1       7.389  36.403  19.648  1.00  0.00     0.019 A 
HETATM   32  C1  UNL     1       8.228  35.677  20.490  1.00  0.00     0.013 A 
HETATM   33 BR1  UNL     1       7.702  35.346  22.277  1.00  0.00    -0.051 Br
HETATM   34  C21 UNL     1       9.458  35.200  20.031  1.00  0.00     0.048 A 
ENDBRANCH  26  28
ENDBRANCH   1  26
TORSDOF 6
ENDMDL
