MODEL 1
REMARK minimizedAffinity -8.94587326
REMARK  9 active torsions:
REMARK  status: ('A' for Active; 'I' for Inactive)
REMARK    1  A    between atoms: C1_2  and  O2_3 
REMARK    2  A    between atoms: C1_2  and  C2_4 
REMARK    3  A    between atoms: C2_4  and  O3_5 
REMARK    4  A    between atoms: O3_5  and  C3_6 
REMARK    5  A    between atoms: C3_6  and  C4_7 
REMARK    6  A    between atoms: C8_16  and  N4_17 
REMARK    7  A    between atoms: N4_17  and  C9_18 
REMARK    8  A    between atoms: N6_26  and  C15_27 
REMARK    9  A    between atoms: C15_27  and  C16_28 
ROOT
HETATM    1  N4  UNL     1      10.309  34.786  19.021  1.00  0.00    -0.243 NA
HETATM    2  H9  UNL     1       9.933  33.891  18.716  1.00  0.00     0.135 HD
ENDROOT
BRANCH   1   3
HETATM    3  C8  UNL     1      10.065  34.943  20.368  1.00  0.00     0.115 A 
HETATM    4  N3  UNL     1      11.053  34.674  21.175  1.00  0.00    -0.340 N 
HETATM    5  C7  UNL     1      10.885  34.857  22.524  1.00  0.00     0.199 A 
ATOM      6  H3  UNL     1      11.941  34.332  20.808  1.00  0.00     0.167 HD
HETATM    7  N2  UNL     1       9.819  35.280  23.127  1.00  0.00    -0.289 N 
HETATM    8  N1  UNL     1       8.789  35.517  22.303  1.00  0.00    -0.263 N 
ATOM      9  H2  UNL     1       9.769  35.420  24.136  1.00  0.00     0.188 HD
HETATM   10  C6  UNL     1       7.553  35.949  22.689  1.00  0.00     0.117 A 
HETATM   11  C23 UNL     1       8.813  35.342  20.950  1.00  0.00     0.102 A 
HETATM   12  C5  UNL     1       6.752  35.998  21.572  1.00  0.00     0.031 A 
HETATM   13  C4  UNL     1       7.535  35.574  20.454  1.00  0.00    -0.001 A 
BRANCH  13  14
HETATM   14  C3  UNL     1       7.032  35.423  19.052  1.00  0.00     0.209 C 
BRANCH  14  15
HETATM   15  O3  UNL     1       5.691  34.922  19.000  1.00  0.00    -0.376 OA
BRANCH  15  16
HETATM   16  C2  UNL     1       5.571  33.631  19.588  1.00  0.00     0.277 C 
BRANCH  16  17
HETATM   17  C1  UNL     1       4.951  32.626  18.632  1.00  0.00     0.164 C 
HETATM   18  O1  UNL     1       5.455  31.619  18.161  1.00  0.00    -0.648 OA
BRANCH  17  19
HETATM   19  O2  UNL     1       3.680  32.956  18.306  1.00  0.00    -0.775 OA
HETATM   20  H1  UNL     1       3.412  32.242  17.691  1.00  0.00     0.167 HD
ENDBRANCH  17  19
ENDBRANCH  16  17
ENDBRANCH  15  16
ENDBRANCH  14  15
ENDBRANCH  13  14
ENDBRANCH   1   3
BRANCH   1  21
HETATM   21  C9  UNL     1      11.595  34.930  18.430  1.00  0.00     0.015 A 
HETATM   22  C10 UNL     1      11.727  35.841  17.371  1.00  0.00     0.026 A 
HETATM   23  C11 UNL     1      12.952  36.060  16.726  1.00  0.00     0.034 A 
HETATM   24  C12 UNL     1      14.054  35.325  17.176  1.00  0.00     0.062 A 
HETATM   25  C13 UNL     1      13.960  34.409  18.219  1.00  0.00     0.011 A 
HETATM   26  N6  UNL     1      15.372  35.284  16.779  1.00  0.00    -0.288 N 
HETATM   27  C14 UNL     1      15.264  33.889  18.361  1.00  0.00     0.121 A 
HETATM   28  C22 UNL     1      12.719  34.204  18.854  1.00  0.00     0.039 A 
HETATM   29  N5  UNL     1      16.129  34.419  17.494  1.00  0.00    -0.308 N 
ATOM     30  H5  UNL     1      17.125  34.220  17.394  1.00  0.00     0.186 HD
BRANCH  26  31
HETATM   31  C15 UNL     1      16.001  36.083  15.732  1.00  0.00     0.187 C 
BRANCH  31  32
HETATM   32  C16 UNL     1      16.426  35.242  14.552  1.00  0.00    -0.035 A 
HETATM   33  C17 UNL     1      15.581  35.087  13.439  1.00  0.00     0.009 A 
HETATM   34  C18 UNL     1      15.970  34.301  12.350  1.00  0.00     0.004 A 
HETATM   35  C19 UNL     1      17.205  33.657  12.365  1.00  0.00     0.042 A 
HETATM   36  C20 UNL     1      18.037  33.801  13.466  1.00  0.00     0.117 A 
HETATM   37  F1  UNL     1      19.224  33.178  13.484  1.00  0.00    -0.206 F 
HETATM   38  C21 UNL     1      17.661  34.580  14.557  1.00  0.00     0.051 A 
ENDBRANCH  31  32
ENDBRANCH  26  31
ENDBRANCH   1  21
TORSDOF 9
ENDMDL
