MODEL 1
REMARK minimizedAffinity -8.7312746
REMARK  5 active torsions:
REMARK  status: ('A' for Active; 'I' for Inactive)
REMARK    1  A    between atoms: C2_2  and  C3_3 
REMARK    2  A    between atoms: C3_3  and  C4_4 
REMARK    3  A    between atoms: C4_4  and  N1_5 
REMARK    4  A    between atoms: N1_5  and  C5_6 
REMARK    5  A    between atoms: C9_12  and  C10_13 
ROOT
HETATM    1  C5  UNL     1       4.925  -4.989  29.155  1.00  0.00     0.158 A 
HETATM    2  N2  UNL     1       4.606  -3.903  29.871  1.00  0.00    -0.342 N 
ATOM      3  H2  UNL     1       3.707  -3.434  29.756  1.00  0.00     0.167 HD
HETATM    4  C6  UNL     1       5.524  -3.459  30.749  1.00  0.00     0.106 A 
HETATM    5  C7  UNL     1       6.744  -4.063  30.945  1.00  0.00     0.025 A 
HETATM    6  C8  UNL     1       7.731  -3.579  31.898  1.00  0.00     0.034 A 
HETATM    7  C9  UNL     1       8.896  -4.231  32.031  1.00  0.00     0.047 A 
HETATM    8  C16 UNL     1       9.191  -5.453  31.207  1.00  0.00     0.260 A 
HETATM    9  O1  UNL     1      10.268  -6.030  31.354  1.00  0.00    -0.267 OA
HETATM   10  N3  UNL     1       8.213  -5.864  30.316  1.00  0.00    -0.303 N 
HETATM   11  C17 UNL     1       8.436  -7.034  29.484  1.00  0.00     0.161 C 
HETATM   12  C18 UNL     1       6.978  -5.182  30.170  1.00  0.00     0.124 A 
HETATM   13  N4  UNL     1       6.079  -5.652  29.280  1.00  0.00    -0.318 N 
ATOM     14  H4  UNL     1       6.273  -6.484  28.723  1.00  0.00     0.170 HD
ENDROOT
BRANCH   7  15
HETATM   15  C10 UNL     1       9.901  -3.745  32.996  1.00  0.00     0.023 A 
HETATM   16  C11 UNL     1       9.858  -4.142  34.346  1.00  0.00     0.046 A 
HETATM   17 CL1  UNL     1       8.618  -5.186  34.953  1.00  0.00    -0.083 Cl
HETATM   18  C12 UNL     1      10.822  -3.693  35.256  1.00  0.00     0.025 A 
HETATM   19  C13 UNL     1      11.843  -2.843  34.835  1.00  0.00     0.003 A 
HETATM   20  C14 UNL     1      11.900  -2.439  33.503  1.00  0.00     0.025 A 
HETATM   21  C15 UNL     1      10.939  -2.886  32.590  1.00  0.00     0.046 A 
HETATM   22 CL2  UNL     1      11.077  -2.328  30.956  1.00  0.00    -0.083 Cl
ENDBRANCH   7  15
BRANCH   1  23
HETATM   23  N1  UNL     1       4.040  -5.503  28.219  1.00  0.00    -0.264 NA
HETATM   24  H10 UNL     1       4.506  -5.434  27.323  1.00  0.00     0.130 HD
BRANCH  23  25
HETATM   25  C4  UNL     1       3.468  -6.794  28.559  1.00  0.00     0.095 C 
BRANCH  25  26
HETATM   26  C3  UNL     1       1.997  -6.858  28.135  1.00  0.00     0.014 C 
BRANCH  26  27
HETATM   27  C2  UNL     1       1.472  -8.273  27.863  1.00  0.00    -0.003 C 
HETATM   28  C1  UNL     1       2.506  -9.235  27.306  1.00  0.00     0.005 C 
ENDBRANCH  26  27
ENDBRANCH  25  26
ENDBRANCH  23  25
ENDBRANCH   1  23
TORSDOF 5
ENDMDL
