MODEL 1
REMARK minimizedAffinity -7.31149006
REMARK  5 active torsions:
REMARK  status: ('A' for Active; 'I' for Inactive)
REMARK    1  A    between atoms: C2_2  and  C3_3 
REMARK    2  A    between atoms: C3_3  and  N1_4 
REMARK    3  A    between atoms: C8_9  and  N2_10 
REMARK    4  A    between atoms: N2_10  and  C9_11 
REMARK    5  A    between atoms: C14_20  and  N5_21 
ROOT
HETATM    1  C9  UNL     1      10.606  35.068  18.572  1.00  0.00     0.119 A 
HETATM    2  N3  UNL     1      10.067  35.547  17.435  1.00  0.00    -0.338 N 
ATOM      3  H3  UNL     1      10.573  35.516  16.551  1.00  0.00     0.168 HD
HETATM    4  C10 UNL     1       8.839  36.064  17.520  1.00  0.00     0.182 A 
HETATM    5  N4  UNL     1       8.094  36.153  18.625  1.00  0.00    -0.352 N 
ATOM      6  H4  UNL     1       7.156  36.554  18.608  1.00  0.00     0.166 HD
HETATM    7  C11 UNL     1       8.639  35.690  19.752  1.00  0.00     0.047 A 
HETATM    8  C12 UNL     1       7.912  35.788  20.930  1.00  0.00     0.032 A 
HETATM    9  C13 UNL     1       8.418  35.332  22.152  1.00  0.00     0.025 A 
HETATM   10  C14 UNL     1       9.667  34.726  22.216  1.00  0.00     0.006 A 
HETATM   11  C15 UNL     1      10.431  34.673  21.050  1.00  0.00     0.040 A 
HETATM   12  C16 UNL     1       9.919  35.124  19.803  1.00  0.00     0.036 A 
ENDROOT
BRANCH   1  13
HETATM   13  N2  UNL     1      11.893  34.465  18.536  1.00  0.00    -0.342 N 
HETATM   14  H9  UNL     1      11.779  33.457  18.531  1.00  0.00     0.167 HD
BRANCH  13  15
HETATM   15  C8  UNL     1      13.031  34.853  17.788  1.00  0.00     0.034 A 
HETATM   16  C7  UNL     1      14.282  34.305  18.127  1.00  0.00     0.043 A 
HETATM   17  C6  UNL     1      15.453  34.707  17.452  1.00  0.00    -0.006 A 
HETATM   18  C5  UNL     1      16.822  34.337  17.553  1.00  0.00     0.031 A 
HETATM   19  C19 UNL     1      15.358  35.682  16.458  1.00  0.00     0.044 A 
HETATM   20  C4  UNL     1      17.525  35.073  16.628  1.00  0.00     0.092 A 
HETATM   21  N1  UNL     1      16.634  35.887  15.969  1.00  0.00    -0.353 N 
HETATM   22  C18 UNL     1      14.133  36.277  16.127  1.00  0.00     0.033 A 
HETATM   23  C17 UNL     1      12.987  35.855  16.815  1.00  0.00     0.032 A 
BRANCH  21  24
HETATM   24  C3  UNL     1      16.996  36.789  14.879  1.00  0.00     0.155 C 
BRANCH  24  25
HETATM   25  C2  UNL     1      17.170  36.142  13.531  1.00  0.00    -0.017 C 
HETATM   26  C1  UNL     1      16.584  35.031  13.064  1.00  0.00     0.008 C 
ENDBRANCH  24  25
ENDBRANCH  21  24
ENDBRANCH  13  15
ENDBRANCH   1  13
BRANCH  10  27
HETATM   27  N5  UNL     1      10.230  34.391  23.449  1.00  0.00    -0.303 NA
HETATM   28  H13 UNL     1       9.553  34.176  24.175  1.00  0.00     0.124 HD
HETATM   29  H14 UNL     1      10.979  33.707  23.403  1.00  0.00     0.124 HD
ENDBRANCH  10  27
TORSDOF 5
ENDMDL
