MODEL 1
REMARK minimizedAffinity -7.79129219
REMARK  4 active torsions:
REMARK  status: ('A' for Active; 'I' for Inactive)
REMARK    1  A    between atoms: N1_1  and  C1_2 
REMARK    2  A    between atoms: C1_2  and  N2_4 
REMARK    3  A    between atoms: C2_7  and  C3_8 
REMARK    4  A    between atoms: C10_16  and  C11_17 
ROOT
HETATM    1  N2  UNL     1      10.464  35.458  18.365  1.00  0.00    -0.258 N 
HETATM    2  N3  UNL     1      11.611  35.638  17.611  1.00  0.00    -0.299 N 
ATOM      3  H3  UNL     1      11.704  36.207  16.769  1.00  0.00     0.187 HD
HETATM    4  C2  UNL     1      12.547  34.940  18.184  1.00  0.00     0.038 C 
HETATM    5  C9  UNL     1      12.105  34.118  19.366  1.00  0.00     0.091 C 
HETATM    6  C10 UNL     1      10.717  34.703  19.605  1.00  0.00     0.150 C 
ENDROOT
BRANCH   6   7
HETATM    7  C11 UNL     1      10.703  35.543  20.883  1.00  0.00    -0.022 A 
HETATM    8  C12 UNL     1      11.569  36.649  21.003  1.00  0.00     0.010 A 
HETATM    9  C13 UNL     1      11.599  37.417  22.162  1.00  0.00     0.002 A 
HETATM   10  C14 UNL     1      10.774  37.088  23.231  1.00  0.00     0.012 A 
HETATM   11  C15 UNL     1       9.911  35.988  23.161  1.00  0.00    -0.025 A 
HETATM   12  C16 UNL     1       9.098  35.673  24.263  1.00  0.00     0.012 A 
HETATM   13  C20 UNL     1       9.863  35.192  21.985  1.00  0.00    -0.018 A 
HETATM   14  C17 UNL     1       8.234  34.582  24.232  1.00  0.00     0.001 A 
HETATM   15  C18 UNL     1       8.173  33.789  23.096  1.00  0.00     0.001 A 
HETATM   16  C19 UNL     1       8.976  34.089  21.991  1.00  0.00     0.013 A 
ENDBRANCH   6   7
BRANCH   1  17
HETATM   17  C1  UNL     1       9.247  35.927  17.901  1.00  0.00     0.187 C 
HETATM   18  S1  UNL     1       8.027  36.620  18.799  1.00  0.00    -0.040 SA
BRANCH  17  19
HETATM   19  N1  UNL     1       9.080  35.777  16.555  1.00  0.00    -0.375 N 
HETATM   20  H1  UNL     1       9.780  35.224  16.077  1.00  0.00     0.158 HD
HETATM   21  H2  UNL     1       8.194  35.982  16.119  1.00  0.00     0.158 HD
ENDBRANCH  17  19
ENDBRANCH   1  17
BRANCH   4  22
HETATM   22  C3  UNL     1      13.944  34.907  17.689  1.00  0.00    -0.012 A 
HETATM   23  C4  UNL     1      14.910  34.209  18.428  1.00  0.00     0.015 A 
HETATM   24  C5  UNL     1      16.235  34.158  17.988  1.00  0.00     0.024 A 
HETATM   25  C6  UNL     1      16.597  34.807  16.810  1.00  0.00     0.034 A 
HETATM   26 CL1  UNL     1      18.228  34.746  16.267  1.00  0.00    -0.084 Cl
HETATM   27  C7  UNL     1      15.646  35.505  16.069  1.00  0.00     0.024 A 
HETATM   28  C8  UNL     1      14.318  35.556  16.507  1.00  0.00     0.015 A 
ENDBRANCH   4  22
TORSDOF 4
ENDMDL
