MODEL 1
REMARK minimizedAffinity -7.35121965
REMARK CNNscore 0.80416435
REMARK CNNaffinity 6.66328764
REMARK  8 active torsions:
REMARK  status: ('A' for Active; 'I' for Inactive)
REMARK    1  A    between atoms: C4_4  and  N1_5 
REMARK    2  A    between atoms: N1_5  and  C5_6 
REMARK    3  A    between atoms: C5_6  and  C6_7 
REMARK    4  A    between atoms: C6_7  and  N2_8 
REMARK    5  A    between atoms: N2_8  and  C7_9 
REMARK    6  A    between atoms: N2_8  and  N7_30 
REMARK    7  A    between atoms: C11_17  and  N5_18 
REMARK    8  A    between atoms: N5_18  and  C12_19 
ROOT
HETATM    1  C7  UNL     1      14.182  57.587   4.251  1.00  0.00     0.095 A 
HETATM    2  C8  UNL     1      13.675  58.877   4.266  1.00  0.00     0.069 A 
HETATM    3  C9  UNL     1      13.464  59.440   2.975  1.00  0.00     0.056 A 
HETATM    4  N3  UNL     1      12.955  60.672   2.736  1.00  0.00    -0.351 N 
ATOM      5  H3  UNL     1      12.689  61.319   3.479  1.00  0.00     0.166 HD
HETATM    6  C10 UNL     1      12.834  60.961   1.439  1.00  0.00     0.182 A 
HETATM    7  N4  UNL     1      13.156  60.184   0.396  1.00  0.00    -0.337 N 
ATOM      8  H4  UNL     1      13.013  60.516  -0.557  1.00  0.00     0.168 HD
HETATM    9  C11 UNL     1      13.673  58.954   0.620  1.00  0.00     0.126 A 
HETATM   10  C20 UNL     1      13.835  58.571   1.962  1.00  0.00     0.077 A 
HETATM   11  S1  UNL     1      14.452  57.110   2.616  1.00  0.00    -0.065 SA
ENDROOT
BRANCH   1  12
HETATM   12  N2  UNL     1      14.457  56.800   5.347  1.00  0.00    -0.279 N 
BRANCH  12  13
HETATM   13  C6  UNL     1      14.577  57.342   6.718  1.00  0.00     0.165 C 
BRANCH  13  14
HETATM   14  C5  UNL     1      15.183  58.764   6.736  1.00  0.00     0.114 C 
BRANCH  14  15
HETATM   15  N1  UNL     1      14.578  59.561   7.805  1.00  0.00    -0.291 NA
HETATM   16  H4  UNL     1      14.995  60.491   7.852  1.00  0.00     0.127 HD
BRANCH  15  17
HETATM   17  C4  UNL     1      13.182  59.620   7.896  1.00  0.00     0.008 A 
HETATM   18  C3  UNL     1      12.436  58.921   8.852  1.00  0.00     0.023 A 
HETATM   19  C2  UNL     1      11.047  59.074   8.945  1.00  0.00     0.002 A 
HETATM   20  C1  UNL     1      10.384  59.958   8.100  1.00  0.00     0.000 A 
HETATM   21  C26 UNL     1      11.111  60.697   7.173  1.00  0.00     0.002 A 
HETATM   22  C25 UNL     1      12.499  60.537   7.084  1.00  0.00     0.023 A 
ENDBRANCH  15  17
ENDBRANCH  14  15
ENDBRANCH  13  14
ENDBRANCH  12  13
BRANCH  12  23
HETATM   23  N7  UNL     1      15.084  55.565   5.196  1.00  0.00    -0.276 N 
HETATM   24  C21 UNL     1      14.463  54.341   5.213  1.00  0.00     0.116 A 
HETATM   25  C22 UNL     1      15.418  53.367   5.027  1.00  0.00     0.021 A 
HETATM   26  C23 UNL     1      16.665  54.022   4.903  1.00  0.00     0.021 A 
HETATM   27  C24 UNL     1      16.430  55.375   5.018  1.00  0.00     0.116 A 
ENDBRANCH  12  23
ENDBRANCH   1  12
BRANCH   9  28
HETATM   28  N5  UNL     1      14.032  58.083  -0.419  1.00  0.00    -0.341 N 
HETATM   29  H11 UNL     1      14.833  58.414  -0.943  1.00  0.00     0.167 HD
BRANCH  28  30
HETATM   30  C12 UNL     1      13.497  56.868  -0.888  1.00  0.00     0.034 A 
HETATM   31  C13 UNL     1      12.104  56.768  -1.024  1.00  0.00     0.032 A 
HETATM   32  C14 UNL     1      11.470  55.606  -1.484  1.00  0.00     0.033 A 
HETATM   33  C15 UNL     1      12.283  54.522  -1.815  1.00  0.00     0.042 A 
HETATM   34  N6  UNL     1      11.954  53.271  -2.281  1.00  0.00    -0.365 N 
HETATM   35  C18 UNL     1      13.670  54.572  -1.708  1.00  0.00    -0.006 A 
HETATM   36  C16 UNL     1      13.087  52.531  -2.484  1.00  0.00     0.089 A 
HETATM   37  H14 UNL     1      11.010  52.955  -2.454  1.00  0.00     0.165 HD
HETATM   38  C17 UNL     1      14.167  53.308  -2.136  1.00  0.00     0.030 A 
HETATM   39  C19 UNL     1      14.277  55.759  -1.243  1.00  0.00     0.043 A 
ENDBRANCH  28  30
ENDBRANCH   9  28
TORSDOF 8
ENDMDL
