MODEL 1
REMARK minimizedAffinity -10.1534147
REMARK  6 active torsions:
REMARK  status: ('A' for Active; 'I' for Inactive)
REMARK    1  A    between atoms: C3_5  and  C4_6 
REMARK    2  A    between atoms: C13_19  and  N3_20 
REMARK    3  A    between atoms: N3_20  and  C14_21 
REMARK    4  A    between atoms: C17_24  and  C18_25 
REMARK    5  A    between atoms: C18_25  and  C19_26 
REMARK    6  A    between atoms: C19_26  and  O3_28 
ROOT
HETATM    1  C1  UNL     1       8.309  -7.036  29.480  1.00  0.00     0.161 C 
HETATM    2  N1  UNL     1       8.122  -5.861  30.313  1.00  0.00    -0.303 N 
HETATM    3  C2  UNL     1       9.136  -5.447  31.162  1.00  0.00     0.260 A 
HETATM    4  O1  UNL     1      10.219  -6.023  31.262  1.00  0.00    -0.267 OA
HETATM    5  C3  UNL     1       8.875  -4.224  31.995  1.00  0.00     0.047 A 
HETATM    6  C10 UNL     1       7.704  -3.572  31.908  1.00  0.00     0.034 A 
HETATM    7  C11 UNL     1       6.681  -4.058  30.997  1.00  0.00     0.026 A 
HETATM    8  C12 UNL     1       5.458  -3.453  30.844  1.00  0.00     0.121 A 
HETATM    9  N2  UNL     1       4.506  -3.898  30.002  1.00  0.00    -0.201 N 
ATOM     10  H2  UNL     1       3.610  -3.418  29.917  1.00  0.00     0.183 HD
HETATM   11  C13 UNL     1       4.780  -4.992  29.281  1.00  0.00     0.684 A 
HETATM   12  N4  UNL     1       5.948  -5.648  29.362  1.00  0.00    -0.175 N 
ATOM     13  H4  UNL     1       6.125  -6.478  28.796  1.00  0.00     0.186 HD
HETATM   14  C22 UNL     1       6.883  -5.178  30.215  1.00  0.00     0.137 A 
ENDROOT
BRANCH  11  15
HETATM   15  N3  UNL     1       3.869  -5.532  28.380  1.00  0.00    -0.192 N 
HETATM   16  H9  UNL     1       3.434  -4.783  27.861  1.00  0.00     0.184 HD
BRANCH  15  17
HETATM   17  C14 UNL     1       3.502  -6.835  28.025  1.00  0.00     0.049 A 
HETATM   18  C15 UNL     1       4.412  -7.833  27.668  1.00  0.00     0.030 A 
HETATM   19  C16 UNL     1       3.983  -9.125  27.334  1.00  0.00     0.010 A 
HETATM   20  C17 UNL     1       2.624  -9.454  27.359  1.00  0.00    -0.048 A 
HETATM   21  C20 UNL     1       1.704  -8.464  27.713  1.00  0.00     0.010 A 
HETATM   22  C21 UNL     1       2.141  -7.177  28.043  1.00  0.00     0.030 A 
BRANCH  20  23
HETATM   23  C18 UNL     1       2.161 -10.843  26.993  1.00  0.00     0.148 C 
BRANCH  23  24
HETATM   24  C19 UNL     1       3.239 -11.714  26.397  1.00  0.00     0.143 C 
HETATM   25  O2  UNL     1       3.116 -12.698  25.688  1.00  0.00    -0.650 OA
BRANCH  24  26
HETATM   26  O3  UNL     1       4.473 -11.300  26.761  1.00  0.00    -0.776 OA
HETATM   27  H14 UNL     1       5.069 -11.942  26.320  1.00  0.00     0.167 HD
ENDBRANCH  24  26
ENDBRANCH  23  24
ENDBRANCH  20  23
ENDBRANCH  15  17
ENDBRANCH  11  15
BRANCH   5  28
HETATM   28  C4  UNL     1       9.919  -3.736  32.918  1.00  0.00     0.023 A 
HETATM   29  C5  UNL     1       9.927  -4.127  34.270  1.00  0.00     0.046 A 
HETATM   30 CL1  UNL     1       8.708  -5.164  34.930  1.00  0.00    -0.083 Cl
HETATM   31  C6  UNL     1      10.927  -3.676  35.140  1.00  0.00     0.025 A 
HETATM   32  C7  UNL     1      11.933  -2.831  34.675  1.00  0.00     0.003 A 
HETATM   33  C8  UNL     1      11.940  -2.436  33.340  1.00  0.00     0.025 A 
HETATM   34  C9  UNL     1      10.942  -2.884  32.466  1.00  0.00     0.046 A 
HETATM   35 CL2  UNL     1      11.018  -2.335  30.825  1.00  0.00    -0.083 Cl
ENDBRANCH   5  28
TORSDOF 6
ENDMDL
