MODEL 1
REMARK minimizedAffinity -7.41455078
REMARK  3 active torsions:
REMARK  status: ('A' for Active; 'I' for Inactive)
REMARK    1  A    between atoms: C5_5  and  N1_6 
REMARK    2  A    between atoms: N1_6  and  C6_7 
REMARK    3  A    between atoms: C15_21  and  O1_22 
ROOT
HETATM    1  C6  UNL     1      10.959  35.115  17.837  1.00  0.00     0.136 A 
HETATM    2  N2  UNL     1      10.171  35.687  16.974  1.00  0.00    -0.336 N 
ATOM      3  H2  UNL     1      10.498  35.855  16.022  1.00  0.00     0.168 HD
HETATM    4  C7  UNL     1       8.907  36.066  17.335  1.00  0.00     0.199 A 
HETATM    5  N3  UNL     1       8.350  35.914  18.493  1.00  0.00    -0.289 N 
ATOM      6  H3  UNL     1       7.396  36.210  18.697  1.00  0.00     0.188 HD
HETATM    7  N4  UNL     1       9.148  35.330  19.395  1.00  0.00    -0.262 N 
HETATM    8  C8  UNL     1       8.799  35.060  20.686  1.00  0.00     0.124 A 
HETATM    9  C9  UNL     1       9.879  34.488  21.328  1.00  0.00    -0.036 A 
HETATM   10  C10 UNL     1       9.918  34.055  22.751  1.00  0.00     0.050 C 
HETATM   11  C11 UNL     1      10.939  34.408  20.362  1.00  0.00    -0.022 A 
HETATM   12  C12 UNL     1      12.305  33.880  20.629  1.00  0.00     0.051 C 
HETATM   13  C13 UNL     1      10.432  34.921  19.170  1.00  0.00     0.106 A 
ENDROOT
BRANCH   1  14
HETATM   14  N1  UNL     1      12.226  34.681  17.499  1.00  0.00    -0.340 N 
HETATM   15  H6  UNL     1      12.377  33.686  17.533  1.00  0.00     0.167 HD
BRANCH  14  16
HETATM   16  C5  UNL     1      13.358  35.411  17.086  1.00  0.00     0.036 A 
HETATM   17  C4  UNL     1      14.673  35.050  17.390  1.00  0.00     0.030 A 
HETATM   18  C3  UNL     1      15.759  35.829  16.969  1.00  0.00     0.012 A 
HETATM   19  C2  UNL     1      15.554  37.000  16.233  1.00  0.00    -0.029 A 
HETATM   20  C1  UNL     1      16.718  37.834  15.787  1.00  0.00     0.051 C 
HETATM   21  C15 UNL     1      14.243  37.371  15.936  1.00  0.00     0.073 A 
HETATM   22  C14 UNL     1      13.160  36.594  16.354  1.00  0.00     0.066 A 
BRANCH  21  23
HETATM   23  O1  UNL     1      14.037  38.521  15.225  1.00  0.00    -0.360 OA
HETATM   24  H16 UNL     1      13.083  38.669  15.129  1.00  0.00     0.217 HD
ENDBRANCH  21  23
ENDBRANCH  14  16
ENDBRANCH   1  14
TORSDOF 3
ENDMDL
