MODEL 1
REMARK minimizedAffinity -7.27010965
REMARK  4 active torsions:
REMARK  status: ('A' for Active; 'I' for Inactive)
REMARK    1  A    between atoms: N2_4  and  N3_6 
REMARK    2  A    between atoms: N3_6  and  C2_7 
REMARK    3  A    between atoms: C7_16  and  N6_17 
REMARK    4  A    between atoms: N6_17  and  C8_18 
ROOT
HETATM    1  C2  UNL     1       9.745  35.746  17.813  1.00  0.00     0.050 A 
HETATM    2  C3  UNL     1       8.530  36.430  17.781  1.00  0.00     0.033 A 
HETATM    3  C4  UNL     1       7.693  36.456  18.903  1.00  0.00     0.033 A 
HETATM    4  C5  UNL     1       8.041  35.836  20.093  1.00  0.00     0.047 A 
HETATM    5  N4  UNL     1       7.188  35.894  21.119  1.00  0.00    -0.352 N 
ATOM      6  H4  UNL     1       6.293  36.378  21.045  1.00  0.00     0.166 HD
HETATM    7  C6  UNL     1       7.565  35.284  22.246  1.00  0.00     0.182 A 
HETATM    8  N5  UNL     1       8.717  34.642  22.449  1.00  0.00    -0.338 N 
ATOM      9  H5  UNL     1       8.934  34.202  23.343  1.00  0.00     0.168 HD
HETATM   10  C7  UNL     1       9.581  34.602  21.418  1.00  0.00     0.119 A 
HETATM   11  C15 UNL     1       9.279  35.186  20.170  1.00  0.00     0.037 A 
HETATM   12  C16 UNL     1      10.120  35.151  19.023  1.00  0.00     0.048 A 
ENDROOT
BRANCH  10  13
HETATM   13  N6  UNL     1      10.847  33.975  21.588  1.00  0.00    -0.342 N 
HETATM   14  H8  UNL     1      10.851  33.111  21.055  1.00  0.00     0.167 HD
BRANCH  13  15
HETATM   15  C8  UNL     1      12.128  34.573  21.599  1.00  0.00     0.034 A 
HETATM   16  C9  UNL     1      12.302  35.794  22.266  1.00  0.00     0.029 A 
HETATM   17  C10 UNL     1      13.529  36.461  22.241  1.00  0.00     0.003 A 
HETATM   18  C11 UNL     1      14.600  35.927  21.529  1.00  0.00     0.007 A 
HETATM   19  C12 UNL     1      14.449  34.723  20.835  1.00  0.00    -0.060 A 
HETATM   20  C13 UNL     1      15.577  34.165  20.020  1.00  0.00     0.048 C 
HETATM   21  C14 UNL     1      13.204  34.071  20.857  1.00  0.00     0.036 A 
ENDBRANCH  13  15
ENDBRANCH  10  13
BRANCH   1  22
HETATM   22  N3  UNL     1      10.641  35.734  16.731  1.00  0.00    -0.287 N 
HETATM   23  H4  UNL     1      10.528  36.485  16.058  1.00  0.00     0.188 HD
BRANCH  22  24
HETATM   24  N2  UNL     1      11.917  35.364  16.943  1.00  0.00    -0.247 N 
HETATM   25  N1  UNL     1      12.612  36.173  16.302  1.00  0.00    -0.327 N 
HETATM   26  C1  UNL     1      14.039  35.881  16.438  1.00  0.00     0.169 C 
ATOM     27  H1  UNL     1      12.234  36.944  15.751  1.00  0.00     0.181 HD
ATOM     28  H2  UNL     1      12.247  34.584  17.511  1.00  0.00     0.208 HD
ENDBRANCH  22  24
ENDBRANCH   1  22
TORSDOF 4
ENDMDL
