MODEL 1
REMARK minimizedAffinity -8.47818279
REMARK CNNscore 0.744151115
REMARK CNNaffinity 7.63535738
REMARK  7 active torsions:
REMARK  status: ('A' for Active; 'I' for Inactive)
REMARK    1  A    between atoms: O1_2  and  C2_3 
REMARK    2  A    between atoms: C5_6  and  N1_7 
REMARK    3  A    between atoms: N1_7  and  C6_8 
REMARK    4  A    between atoms: O2_24  and  C16_25 
REMARK    5  A    between atoms: C16_25  and  C17_26 
REMARK    6  A    between atoms: C17_26  and  C18_27 
REMARK    7  A    between atoms: C18_27  and  N4_28 
ROOT
HETATM    1  C2  UNL     1       6.110  -7.509  28.768  1.00  0.00     0.168 A 
HETATM    2  C3  UNL     1       6.930  -6.678  29.506  1.00  0.00     0.049 A 
HETATM    3  C4  UNL     1       6.465  -5.494  30.016  1.00  0.00     0.035 A 
HETATM    4  C5  UNL     1       7.281  -4.635  30.756  1.00  0.00     0.119 A 
HETATM    5  N2  UNL     1       6.785  -3.479  31.232  1.00  0.00    -0.338 N 
ATOM      6  H2  UNL     1       7.399  -2.867  31.770  1.00  0.00     0.168 HD
HETATM    7  C12 UNL     1       5.511  -3.098  31.027  1.00  0.00     0.182 A 
HETATM    8  N3  UNL     1       4.708  -3.926  30.307  1.00  0.00    -0.352 N 
ATOM      9  H3  UNL     1       3.738  -3.662  30.136  1.00  0.00     0.166 HD
HETATM   10  C13 UNL     1       5.168  -5.070  29.826  1.00  0.00     0.047 A 
HETATM   11  C14 UNL     1       4.340  -5.903  29.087  1.00  0.00     0.043 A 
HETATM   12  C15 UNL     1       4.806  -7.119  28.558  1.00  0.00     0.007 A 
HETATM   13  O2  UNL     1       3.884  -7.868  27.835  1.00  0.00     0.000 OA
HETATM   14 CL1  UNL     1       5.479  -7.103  28.032  1.00  0.00    -0.190 Cl
HETATM   15  H28 UNL     1       4.292  -7.756  27.801  1.00  0.00     0.131 HD
ENDROOT
BRANCH   4  16
HETATM   16  N1  UNL     1       8.600  -5.053  30.988  1.00  0.00    -0.339 N 
HETATM   17  H5  UNL     1       8.972  -5.816  30.345  1.00  0.00     0.167 HD
BRANCH  16  18
HETATM   18  C6  UNL     1       9.462  -4.560  31.992  1.00  0.00     0.072 A 
HETATM   19  C7  UNL     1       9.338  -4.969  33.335  1.00  0.00     0.034 A 
HETATM   20  C8  UNL     1      10.230  -4.416  34.260  1.00  0.00     0.021 A 
HETATM   21  C9  UNL     1      11.196  -3.516  33.931  1.00  0.00     0.014 A 
HETATM   22 BR1  UNL     1      12.370  -2.806  35.247  1.00  0.00    -0.051 Br
HETATM   23  C10 UNL     1      11.299  -3.132  32.615  1.00  0.00     0.063 A 
HETATM   24  C11 UNL     1      10.458  -3.631  31.647  1.00  0.00     0.144 A 
HETATM   25  F1  UNL     1      10.567  -3.241  30.334  1.00  0.00    -0.204 F 
ENDBRANCH  16  18
ENDBRANCH   4  16
BRANCH   1  26
HETATM   26  O1  UNL     1       6.545  -8.714  28.231  1.00  0.00    -0.363 OA
HETATM   27  C1  UNL     1       7.506  -9.538  28.821  1.00  0.00     0.204 C 
ENDBRANCH   1  26
BRANCH  13  28
HETATM   28  C16 UNL     1       2.556  -7.439  27.622  1.00  0.00     0.002 C 
BRANCH  28  29
HETATM   29  C17 UNL     1       1.699  -8.694  27.449  1.00  0.00     0.019 C 
BRANCH  29  30
HETATM   30  C18 UNL     1       2.171  -9.395  26.221  1.00  0.00     0.117 C 
BRANCH  30  31
HETATM   31  N4  UNL     1       1.934  -8.664  25.004  1.00  0.00    -0.409 N 
HETATM   32  C19 UNL     1       2.790  -9.021  23.944  1.00  0.00     0.136 C 
HETATM   33  C20 UNL     1       2.200  -8.805  22.591  1.00  0.00     0.135 C 
HETATM   34  N5  UNL     1       0.958  -9.493  22.513  1.00  0.00    -0.414 N 
HETATM   35  C21 UNL     1       1.024 -10.856  22.103  1.00  0.00     0.143 C 
HETATM   36  C22 UNL     1       0.019  -9.174  23.529  1.00  0.00     0.135 C 
HETATM   37  C23 UNL     1       0.567  -8.433  24.700  1.00  0.00     0.136 C 
ENDBRANCH  30  31
ENDBRANCH  29  30
ENDBRANCH  28  29
ENDBRANCH  13  28
TORSDOF 7
ENDMDL
