MODEL 1
REMARK minimizedAffinity -6.13047218
REMARK  4 active torsions:
REMARK  status: ('A' for Active; 'I' for Inactive)
REMARK    1  A    between atoms: C2_3  and  C10_12 
REMARK    2  A    between atoms: C3_4  and  C4_5 
REMARK    3  A    between atoms: C7_8  and  O1_9 
REMARK    4  A    between atoms: C10_12  and  O3_14 
ROOT
HETATM    1  N1  UNL     1       9.628  32.162  -3.564  1.00  0.00    -0.191 NA
HETATM    2  C1  UNL     1       8.966  31.291  -3.954  1.00  0.00     0.106 C 
HETATM    3  C2  UNL     1       8.160  30.212  -4.410  1.00  0.00     0.118 C 
HETATM    4  C3  UNL     1       8.270  28.951  -3.946  1.00  0.00     0.041 C 
ENDROOT
BRANCH   3   5
HETATM    5  C10 UNL     1       7.152  30.445  -5.466  1.00  0.00     0.187 C 
HETATM    6  O2  UNL     1       7.369  30.562  -6.660  1.00  0.00    -0.645 OA
BRANCH   5   7
HETATM    7  O3  UNL     1       5.897  30.522  -4.991  1.00  0.00    -0.772 OA
HETATM    8  H7  UNL     1       5.337  30.674  -5.782  1.00  0.00     0.167 HD
ENDBRANCH   5   7
ENDBRANCH   3   5
BRANCH   4   9
HETATM    9  C4  UNL     1       9.208  28.493  -2.913  1.00  0.00    -0.034 A 
HETATM   10  C5  UNL     1      10.261  27.645  -3.279  1.00  0.00     0.014 A 
HETATM   11  C6  UNL     1      11.158  27.173  -2.315  1.00  0.00     0.037 A 
HETATM   12  C7  UNL     1      10.992  27.547  -0.987  1.00  0.00     0.065 A 
HETATM   13  C8  UNL     1       9.944  28.378  -0.606  1.00  0.00     0.037 A 
HETATM   14  C9  UNL     1       9.049  28.848  -1.569  1.00  0.00     0.014 A 
BRANCH  12  15
HETATM   15  O1  UNL     1      11.841  27.111  -0.014  1.00  0.00    -0.361 OA
HETATM   16  H4  UNL     1      12.534  26.570  -0.424  1.00  0.00     0.217 HD
ENDBRANCH  12  15
ENDBRANCH   4   9
TORSDOF 4
ENDMDL
