MODEL 1
REMARK minimizedAffinity -10.006362
REMARK CNNscore 0.79817313
REMARK CNNaffinity 7.50385666
REMARK  5 active torsions:
REMARK  status: ('A' for Active; 'I' for Inactive)
REMARK    1  A    between atoms: O1_2  and  C2_3 
REMARK    2  A    between atoms: C4_5  and  N1_6 
REMARK    3  A    between atoms: N1_6  and  C5_7 
REMARK    4  A    between atoms: C9_13  and  C10_14 
REMARK    5  A    between atoms: C20_30  and  O3_31 
ROOT
HETATM    1  C5  UNL     1       4.934  -5.009  29.139  1.00  0.00     0.684 A 
HETATM    2  N2  UNL     1       4.613  -3.941  29.881  1.00  0.00    -0.201 N 
ATOM      3  H2  UNL     1       3.712  -3.475  29.774  1.00  0.00     0.183 HD
HETATM    4  C6  UNL     1       5.522  -3.506  30.772  1.00  0.00     0.121 A 
HETATM    5  C7  UNL     1       6.750  -4.096  30.957  1.00  0.00     0.026 A 
HETATM    6  C8  UNL     1       7.727  -3.620  31.921  1.00  0.00     0.034 A 
HETATM    7  C9  UNL     1       8.903  -4.257  32.037  1.00  0.00     0.047 A 
HETATM    8  C16 UNL     1       9.217  -5.451  31.182  1.00  0.00     0.260 A 
HETATM    9  O2  UNL     1      10.304  -6.014  31.309  1.00  0.00    -0.267 OA
HETATM   10  N3  UNL     1       8.245  -5.856  30.280  1.00  0.00    -0.303 N 
HETATM   11  C17 UNL     1       8.486  -7.003  29.423  1.00  0.00     0.161 C 
HETATM   12  C18 UNL     1       6.999  -5.189  30.151  1.00  0.00     0.137 A 
HETATM   13  N4  UNL     1       6.108  -5.650  29.248  1.00  0.00    -0.175 N 
ATOM     14  H4  UNL     1       6.320  -6.460  28.666  1.00  0.00     0.186 HD
ENDROOT
BRANCH   1  15
HETATM   15  N1  UNL     1       4.066  -5.539  28.189  1.00  0.00    -0.191 N 
HETATM   16  H5  UNL     1       3.828  -4.816  27.527  1.00  0.00     0.184 HD
BRANCH  15  17
HETATM   17  C4  UNL     1       3.494  -6.802  27.984  1.00  0.00     0.054 A 
HETATM   18  C3  UNL     1       2.112  -6.953  28.203  1.00  0.00     0.066 A 
HETATM   19  C2  UNL     1       1.477  -8.183  28.018  1.00  0.00     0.073 A 
HETATM   20  C22 UNL     1       2.224  -9.290  27.611  1.00  0.00     0.073 A 
HETATM   21  C20 UNL     1       3.594  -9.169  27.388  1.00  0.00     0.073 A 
HETATM   22  C19 UNL     1       4.214  -7.929  27.577  1.00  0.00     0.066 A 
BRANCH  19  23
HETATM   23  O1  UNL     1       0.144  -8.436  28.203  1.00  0.00    -0.356 OA
HETATM   24  C1  UNL     1      -0.341  -9.702  27.776  1.00  0.00     0.210 C 
ENDBRANCH  19  23
BRANCH  21  25
HETATM   25  O3  UNL     1       4.432 -10.174  26.987  1.00  0.00    -0.356 OA
HETATM   26  C21 UNL     1       5.816  -9.863  26.901  1.00  0.00     0.210 C 
ENDBRANCH  21  25
ENDBRANCH  15  17
ENDBRANCH   1  15
BRANCH   7  27
HETATM   27  C10 UNL     1       9.901  -3.779  33.014  1.00  0.00     0.023 A 
HETATM   28  C11 UNL     1       9.846  -4.186  34.360  1.00  0.00     0.046 A 
HETATM   29 CL1  UNL     1       8.599  -5.233  34.949  1.00  0.00    -0.083 Cl
HETATM   30  C12 UNL     1      10.802  -3.744  35.282  1.00  0.00     0.025 A 
HETATM   31  C13 UNL     1      11.826  -2.893  34.876  1.00  0.00     0.003 A 
HETATM   32  C14 UNL     1      11.897  -2.481  33.547  1.00  0.00     0.025 A 
HETATM   33  C15 UNL     1      10.943  -2.920  32.622  1.00  0.00     0.046 A 
HETATM   34 CL2  UNL     1      11.097  -2.351  30.993  1.00  0.00    -0.083 Cl
ENDBRANCH   7  27
TORSDOF 5
ENDMDL
