MODEL 1
REMARK minimizedAffinity -7.45407677
REMARK  4 active torsions:
REMARK  status: ('A' for Active; 'I' for Inactive)
REMARK    1  A    between atoms: C2_2  and  C3_3 
REMARK       I    between atoms: C3_3  and  N1_5 
REMARK    2  A    between atoms: N1_5  and  C4_6 
REMARK    3  A    between atoms: C9_15  and  N4_16 
REMARK    4  A    between atoms: N4_16  and  C10_17 
ROOT
HETATM    1  C4  UNL     1      16.462  35.713  14.080  1.00  0.00     0.036 A 
HETATM    2  C5  UNL     1      17.382  36.745  14.216  1.00  0.00     0.032 A 
HETATM    3  C6  UNL     1      17.214  37.713  15.216  1.00  0.00     0.033 A 
HETATM    4  C7  UNL     1      16.147  37.682  16.103  1.00  0.00     0.047 A 
HETATM    5  N2  UNL     1      16.047  38.647  17.020  1.00  0.00    -0.352 N 
ATOM      6  H2  UNL     1      16.737  39.396  17.087  1.00  0.00     0.166 HD
HETATM    7  C8  UNL     1      14.999  38.582  17.846  1.00  0.00     0.182 A 
HETATM    8  N3  UNL     1      14.056  37.636  17.851  1.00  0.00    -0.338 N 
ATOM      9  H3  UNL     1      13.286  37.653  18.520  1.00  0.00     0.168 HD
HETATM   10  C9  UNL     1      14.171  36.660  16.934  1.00  0.00     0.119 A 
HETATM   11  C18 UNL     1      15.222  36.638  15.994  1.00  0.00     0.037 A 
HETATM   12  C19 UNL     1      15.385  35.664  14.971  1.00  0.00     0.047 A 
ENDROOT
BRANCH  10  13
HETATM   13  N4  UNL     1      13.227  35.595  16.928  1.00  0.00    -0.342 N 
HETATM   14  H8  UNL     1      13.671  34.782  16.513  1.00  0.00     0.167 HD
BRANCH  13  15
HETATM   15  C10 UNL     1      12.335  35.217  17.961  1.00  0.00     0.034 A 
HETATM   16  C11 UNL     1      12.724  34.211  18.858  1.00  0.00     0.032 A 
HETATM   17  C12 UNL     1      11.872  33.737  19.864  1.00  0.00     0.033 A 
HETATM   18  C13 UNL     1      10.589  34.287  19.935  1.00  0.00     0.043 A 
HETATM   19  N5  UNL     1       9.554  34.017  20.806  1.00  0.00    -0.364 N 
HETATM   20  C16 UNL     1      10.141  35.263  19.044  1.00  0.00     0.011 A 
HETATM   21  C14 UNL     1       8.462  34.783  20.495  1.00  0.00     0.108 A 
HETATM   22  H11 UNL     1       9.601  33.347  21.561  1.00  0.00     0.165 HD
HETATM   23  C15 UNL     1       8.804  35.554  19.413  1.00  0.00     0.038 A 
HETATM   24 BR1  UNL     1       7.695  36.799  18.552  1.00  0.00    -0.049 Br
HETATM   25  C17 UNL     1      11.025  35.716  18.040  1.00  0.00     0.044 A 
ENDBRANCH  13  15
ENDBRANCH  10  13
BRANCH   1  26
HETATM   26  N1  UNL     1      16.535  34.709  13.091  1.00  0.00    -0.324 N 
HETATM   27  C3  UNL     1      17.436  33.664  13.031  1.00  0.00     0.244 C 
HETATM   28  O1  UNL     1      18.323  33.403  13.832  1.00  0.00    -0.268 OA
HETATM   29  H4  UNL     1      15.853  34.773  12.349  1.00  0.00     0.169 HD
BRANCH  27  30
HETATM   30  C2  UNL     1      17.218  32.814  11.823  1.00  0.00     0.064 C 
HETATM   31  C1  UNL     1      17.878  31.658  11.674  1.00  0.00     0.017 C 
ENDBRANCH  27  30
ENDBRANCH   1  26
TORSDOF 4
ENDMDL
