MODEL 1
REMARK minimizedAffinity -8.75796604
REMARK  7 active torsions:
REMARK  status: ('A' for Active; 'I' for Inactive)
REMARK    1  A    between atoms: O1_2  and  C2_3 
REMARK    2  A    between atoms: C2_3  and  C3_5 
REMARK    3  A    between atoms: C3_5  and  N1_6 
REMARK    4  A    between atoms: C6_9  and  N2_10 
REMARK    5  A    between atoms: C8_12  and  C9_13 
REMARK    6  A    between atoms: C13_17  and  O3_18 
REMARK    7  A    between atoms: C16_21  and  N3_22 
ROOT
HETATM    1  N2  UNL     1       7.947  -6.330  29.966  1.00  0.00    -0.337 N 
HETATM    2  C7  UNL     1       7.576  -7.418  29.219  1.00  0.00     0.106 A 
HETATM    3  C8  UNL     1       6.258  -7.253  28.836  1.00  0.00     0.007 A 
HETATM    4  C15 UNL     1       5.800  -6.020  29.380  1.00  0.00     0.064 A 
HETATM    5  C16 UNL     1       4.608  -5.278  29.376  1.00  0.00     0.114 A 
HETATM    6  N4  UNL     1       4.560  -4.118  30.060  1.00  0.00    -0.338 N 
ATOM      7  H4  UNL     1       3.705  -3.562  30.089  1.00  0.00     0.168 HD
HETATM    8  C17 UNL     1       5.669  -3.710  30.705  1.00  0.00     0.183 A 
HETATM    9  N5  UNL     1       6.860  -4.325  30.775  1.00  0.00    -0.338 N 
ATOM     10  H5  UNL     1       7.663  -3.959  31.286  1.00  0.00     0.168 HD
HETATM   11  C18 UNL     1       6.865  -5.482  30.090  1.00  0.00     0.123 A 
ENDROOT
BRANCH   1  12
HETATM   12  C6  UNL     1       9.256  -6.045  30.563  1.00  0.00     0.094 C 
HETATM   13  C5  UNL     1      10.334  -5.523  29.595  1.00  0.00     0.056 C 
HETATM   14  C4  UNL     1      10.331  -4.002  29.410  1.00  0.00     0.275 C 
HETATM   15  N1  UNL     1      10.260  -3.237  30.658  1.00  0.00     0.098 N 
HETATM   16  C20 UNL     1       9.107  -3.671  31.460  1.00  0.00     0.275 C 
HETATM   17  C19 UNL     1       9.129  -5.157  31.809  1.00  0.00     0.056 C 
BRANCH  15  18
HETATM   18  C3  UNL     1      11.545  -3.259  31.390  1.00  0.00     0.382 C 
BRANCH  18  19
HETATM   19  C2  UNL     1      11.737  -2.018  32.254  1.00  0.00     0.286 C 
HETATM   20  O2  UNL     1      12.350  -1.019  31.897  1.00  0.00    -0.263 OA
BRANCH  19  21
HETATM   21  O1  UNL     1      11.147  -2.181  33.476  1.00  0.00    -0.325 OA
HETATM   22  C1  UNL     1      12.053  -2.553  34.514  1.00  0.00     0.213 C 
ENDBRANCH  19  21
ENDBRANCH  18  19
ENDBRANCH  15  18
ENDBRANCH   1  12
BRANCH   3  23
HETATM   23  C9  UNL     1       5.560  -8.226  28.022  1.00  0.00    -0.021 A 
HETATM   24  C10 UNL     1       4.181  -8.100  27.813  1.00  0.00     0.012 A 
HETATM   25  C11 UNL     1       3.501  -9.047  27.043  1.00  0.00     0.004 A 
HETATM   26  C12 UNL     1       4.197 -10.122  26.491  1.00  0.00     0.036 A 
HETATM   27  C13 UNL     1       5.567 -10.247  26.709  1.00  0.00     0.066 A 
HETATM   28  C14 UNL     1       6.261  -9.306  27.468  1.00  0.00     0.049 A 
BRANCH  27  29
HETATM   29  O3  UNL     1       6.202 -11.320  26.159  1.00  0.00    -0.361 OA
HETATM   30  H15 UNL     1       7.146 -11.270  26.376  1.00  0.00     0.217 HD
ENDBRANCH  27  29
ENDBRANCH   3  23
BRANCH   5  31
HETATM   31  N3  UNL     1       3.453  -5.663  28.716  1.00  0.00    -0.385 N 
HETATM   32  H17 UNL     1       3.356  -6.657  28.534  1.00  0.00     0.157 HD
HETATM   33  H18 UNL     1       2.640  -5.176  29.071  1.00  0.00     0.157 HD
ENDBRANCH   5  31
TORSDOF 7
ENDMDL
