MODEL 1
REMARK minimizedAffinity -7.50103807
REMARK CNNscore 0.765250206
REMARK CNNaffinity 5.43419266
REMARK  3 active torsions:
REMARK  status: ('A' for Active; 'I' for Inactive)
REMARK    1  A    between atoms: C4_4  and  C5_5 
REMARK    2  A    between atoms: N2_8  and  C6_9 
REMARK    3  A    between atoms: C12_15  and  C13_16 
ROOT
HETATM    1  C5  UNL     1      17.409  49.531   4.824  1.00  0.00     0.038 C 
HETATM    2  N1  UNL     1      16.549  50.501   4.757  1.00  0.00    -0.301 N 
ATOM      3  H1  UNL     1      15.624  50.456   4.327  1.00  0.00     0.187 HD
HETATM    4  N2  UNL     1      17.106  51.599   5.368  1.00  0.00    -0.283 N 
HETATM    5  C12 UNL     1      18.518  51.377   5.698  1.00  0.00     0.148 C 
HETATM    6  C23 UNL     1      18.698  49.868   5.514  1.00  0.00     0.091 C 
ENDROOT
BRANCH   5   7
HETATM    7  C13 UNL     1      18.970  51.823   7.086  1.00  0.00    -0.022 A 
HETATM    8  C14 UNL     1      18.876  53.208   7.350  1.00  0.00     0.010 A 
HETATM    9  C15 UNL     1      19.279  53.742   8.568  1.00  0.00     0.002 A 
HETATM   10  C16 UNL     1      19.800  52.906   9.547  1.00  0.00     0.012 A 
HETATM   11  C17 UNL     1      19.927  51.529   9.325  1.00  0.00    -0.025 A 
HETATM   12  C18 UNL     1      20.469  50.720  10.338  1.00  0.00     0.012 A 
HETATM   13  C22 UNL     1      19.515  50.959   8.089  1.00  0.00    -0.018 A 
HETATM   14  C19 UNL     1      20.619  49.347  10.161  1.00  0.00     0.001 A 
HETATM   15  C20 UNL     1      20.228  48.767   8.965  1.00  0.00     0.001 A 
HETATM   16  C21 UNL     1      19.687  49.560   7.948  1.00  0.00     0.013 A 
ENDBRANCH   5   7
BRANCH   4  17
HETATM   17  C6  UNL     1      16.541  52.856   5.109  1.00  0.00     0.051 A 
HETATM   18  C7  UNL     1      15.178  53.089   5.367  1.00  0.00     0.031 A 
HETATM   19  C8  UNL     1      14.577  54.332   5.134  1.00  0.00     0.002 A 
HETATM   20  C9  UNL     1      15.336  55.385   4.640  1.00  0.00     0.000 A 
HETATM   21  C10 UNL     1      16.687  55.192   4.385  1.00  0.00     0.002 A 
HETATM   22  C11 UNL     1      17.280  53.944   4.619  1.00  0.00     0.031 A 
ENDBRANCH   4  17
BRANCH   1  23
HETATM   23  C4  UNL     1      17.150  48.179   4.277  1.00  0.00    -0.012 A 
HETATM   24  C3  UNL     1      15.827  47.783   4.046  1.00  0.00     0.013 A 
HETATM   25  C2  UNL     1      15.551  46.516   3.530  1.00  0.00     0.001 A 
HETATM   26  C1  UNL     1      16.595  45.638   3.244  1.00  0.00     0.000 A 
HETATM   27  C25 UNL     1      17.915  46.025   3.475  1.00  0.00     0.001 A 
HETATM   28  C24 UNL     1      18.195  47.293   3.991  1.00  0.00     0.013 A 
ENDBRANCH   1  23
TORSDOF 3
ENDMDL
