MODEL 1
REMARK minimizedAffinity -7.73970747
REMARK  3 active torsions:
REMARK  status: ('A' for Active; 'I' for Inactive)
REMARK    1  A    between atoms: N1_1  and  C1_2 
REMARK    2  A    between atoms: C2_5  and  N3_6 
REMARK    3  A    between atoms: N3_6  and  C3_7 
ROOT
HETATM    1  C1  UNL     1      12.486  36.053  16.160  1.00  0.00     0.156 A 
HETATM    2  N2  UNL     1      13.476  35.458  16.853  1.00  0.00    -0.318 N 
ATOM      3  H2  UNL     1      14.420  35.413  16.470  1.00  0.00     0.170 HD
HETATM    4  C2  UNL     1      13.199  34.923  18.058  1.00  0.00     0.117 A 
HETATM    5  C9  UNL     1      11.926  34.997  18.546  1.00  0.00     0.018 A 
HETATM    6  C10 UNL     1      10.979  35.617  17.746  1.00  0.00     0.055 A 
HETATM    7  N4  UNL     1      11.213  36.146  16.547  1.00  0.00    -0.332 N 
ATOM      8  H4  UNL     1      10.487  36.580  15.977  1.00  0.00     0.168 HD
HETATM    9  C11 UNL     1       9.701  35.602  18.418  1.00  0.00    -0.002 A 
HETATM   10  C12 UNL     1       8.467  36.089  18.028  1.00  0.00     0.014 A 
HETATM   11  C13 UNL     1       7.388  35.928  18.903  1.00  0.00     0.001 A 
HETATM   12  C14 UNL     1       7.556  35.291  20.145  1.00  0.00     0.001 A 
HETATM   13  C15 UNL     1       8.804  34.801  20.540  1.00  0.00     0.008 A 
HETATM   14  C16 UNL     1       9.866  34.964  19.667  1.00  0.00    -0.041 A 
HETATM   15  C17 UNL     1      11.312  34.536  19.839  1.00  0.00     0.084 A 
ENDROOT
BRANCH   4  16
HETATM   16  N3  UNL     1      14.199  34.299  18.837  1.00  0.00    -0.342 N 
HETATM   17  H3  UNL     1      14.695  33.616  18.274  1.00  0.00     0.167 HD
BRANCH  16  18
HETATM   18  C3  UNL     1      15.037  34.875  19.819  1.00  0.00     0.035 A 
HETATM   19  C4  UNL     1      14.768  34.791  21.191  1.00  0.00     0.029 A 
HETATM   20  C5  UNL     1      15.653  35.318  22.138  1.00  0.00     0.004 A 
HETATM   21  C6  UNL     1      16.838  35.920  21.725  1.00  0.00     0.024 A 
HETATM   22  C7  UNL     1      17.135  35.981  20.368  1.00  0.00     0.036 A 
HETATM   23 CL1  UNL     1      18.609  36.703  19.849  1.00  0.00    -0.084 Cl
HETATM   24  C8  UNL     1      16.252  35.454  19.422  1.00  0.00     0.053 A 
ENDBRANCH  16  18
ENDBRANCH   4  16
BRANCH   1  25
HETATM   25  N1  UNL     1      12.810  36.567  14.922  1.00  0.00    -0.274 NA
HETATM   26  H1  UNL     1      13.623  36.089  14.559  1.00  0.00     0.127 HD
HETATM   27  H2  UNL     1      11.985  36.594  14.339  1.00  0.00     0.127 HD
ENDBRANCH   1  25
TORSDOF 3
ENDMDL
