MODEL 1
REMARK minimizedAffinity -8.36865234
REMARK  8 active torsions:
REMARK  status: ('A' for Active; 'I' for Inactive)
REMARK       I    between atoms: N1_1  and  C1_2 
REMARK    1  A    between atoms: C1_2  and  C2_4 
REMARK    2  A    between atoms: C2_4  and  O2_5 
REMARK    3  A    between atoms: O2_5  and  C3_6 
REMARK    4  A    between atoms: C3_6  and  C4_7 
REMARK    5  A    between atoms: C8_16  and  N5_17 
REMARK    6  A    between atoms: N5_17  and  C9_18 
REMARK    7  A    between atoms: N7_26  and  C15_27 
REMARK    8  A    between atoms: C15_27  and  C16_28 
ROOT
HETATM    1  N5  UNL     1      10.649  34.596  19.617  1.00  0.00    -0.341 N 
HETATM    2  H10 UNL     1      10.161  33.724  19.419  1.00  0.00     0.167 HD
ENDROOT
BRANCH   1   3
HETATM    3  C8  UNL     1      10.481  35.073  20.902  1.00  0.00     0.136 A 
HETATM    4  N4  UNL     1      11.467  35.206  21.741  1.00  0.00    -0.336 N 
HETATM    5  C7  UNL     1      11.230  35.612  23.028  1.00  0.00     0.199 A 
ATOM      6  H4  UNL     1      12.421  35.006  21.439  1.00  0.00     0.168 HD
HETATM    7  N3  UNL     1      10.084  35.898  23.558  1.00  0.00    -0.289 N 
HETATM    8  N2  UNL     1       9.061  35.793  22.701  1.00  0.00    -0.262 N 
ATOM      9  H3  UNL     1       9.972  36.177  24.533  1.00  0.00     0.188 HD
HETATM   10  C6  UNL     1       7.751  36.048  23.000  1.00  0.00     0.117 A 
HETATM   11  C23 UNL     1       9.168  35.428  21.392  1.00  0.00     0.108 A 
HETATM   12  C5  UNL     1       7.012  35.908  21.847  1.00  0.00     0.031 A 
HETATM   13  C4  UNL     1       7.909  35.520  20.805  1.00  0.00    -0.001 A 
BRANCH  13  14
HETATM   14  C3  UNL     1       7.535  35.300  19.374  1.00  0.00     0.209 C 
BRANCH  14  15
HETATM   15  O2  UNL     1       6.171  34.898  19.201  1.00  0.00    -0.377 OA
BRANCH  15  16
HETATM   16  C2  UNL     1       5.900  33.590  19.708  1.00  0.00     0.270 C 
BRANCH  16  17
HETATM   17  C1  UNL     1       4.975  32.818  18.771  1.00  0.00     0.239 C 
HETATM   18  N1  UNL     1       4.793  31.494  19.061  1.00  0.00    -0.368 N 
HETATM   19  H1  UNL     1       5.533  30.975  19.521  1.00  0.00     0.159 HD
HETATM   20  H2  UNL     1       4.299  30.983  18.338  1.00  0.00     0.159 HD
HETATM   21  O1  UNL     1       4.437  33.322  17.787  1.00  0.00    -0.271 OA
ENDBRANCH  16  17
ENDBRANCH  15  16
ENDBRANCH  14  15
ENDBRANCH  13  14
ENDBRANCH   1   3
BRANCH   1  22
HETATM   22  C9  UNL     1      11.705  34.852  18.721  1.00  0.00     0.034 A 
HETATM   23  C10 UNL     1      12.889  34.107  18.856  1.00  0.00     0.032 A 
HETATM   24  C11 UNL     1      13.992  34.289  18.008  1.00  0.00     0.034 A 
HETATM   25  C12 UNL     1      13.875  35.253  17.001  1.00  0.00     0.062 A 
HETATM   26  C13 UNL     1      12.720  36.009  16.833  1.00  0.00     0.011 A 
HETATM   27  N7  UNL     1      14.735  35.685  16.016  1.00  0.00    -0.288 N 
HETATM   28  C14 UNL     1      12.998  36.848  15.730  1.00  0.00     0.121 A 
HETATM   29  C22 UNL     1      11.627  35.809  17.699  1.00  0.00     0.044 A 
HETATM   30  N6  UNL     1      14.220  36.657  15.228  1.00  0.00    -0.308 N 
ATOM     31  H6  UNL     1      14.660  37.130  14.439  1.00  0.00     0.186 HD
BRANCH  27  32
HETATM   32  C15 UNL     1      16.107  35.242  15.795  1.00  0.00     0.187 C 
BRANCH  32  33
HETATM   33  C16 UNL     1      16.606  35.578  14.408  1.00  0.00    -0.035 A 
HETATM   34  C17 UNL     1      16.355  34.724  13.320  1.00  0.00     0.009 A 
HETATM   35  C18 UNL     1      16.800  35.051  12.035  1.00  0.00     0.004 A 
HETATM   36  C19 UNL     1      17.496  36.240  11.823  1.00  0.00     0.042 A 
HETATM   37  C20 UNL     1      17.735  37.092  12.894  1.00  0.00     0.117 A 
HETATM   38  F1  UNL     1      18.407  38.230  12.691  1.00  0.00    -0.206 F 
HETATM   39  C21 UNL     1      17.295  36.778  14.176  1.00  0.00     0.051 A 
ENDBRANCH  32  33
ENDBRANCH  27  32
ENDBRANCH   1  22
TORSDOF 8
ENDMDL
