MODEL 1
REMARK minimizedAffinity -8.82161999
REMARK  4 active torsions:
REMARK  status: ('A' for Active; 'I' for Inactive)
REMARK    1  A    between atoms: N1_1  and  C1_2 
REMARK    2  A    between atoms: C5_10  and  C6_11 
REMARK    3  A    between atoms: N4_18  and  C13_19 
REMARK    4  A    between atoms: C15_21  and  O1_22 
ROOT
HETATM    1  C1  UNL     1      11.359  -4.314  29.893  1.00  0.00     0.093 A 
HETATM    2  N2  UNL     1      11.508  -4.469  28.562  1.00  0.00    -0.343 N 
ATOM      3  H2  UNL     1      12.400  -4.269  28.110  1.00  0.00     0.167 HD
HETATM    4  C2  UNL     1      10.453  -4.894  27.844  1.00  0.00     0.183 A 
HETATM    5  N3  UNL     1       9.225  -5.206  28.284  1.00  0.00    -0.338 N 
ATOM      6  H3  UNL     1       8.468  -5.535  27.684  1.00  0.00     0.168 HD
HETATM    7  C3  UNL     1       9.114  -5.033  29.613  1.00  0.00     0.123 A 
HETATM    8  C4  UNL     1      10.115  -4.601  30.477  1.00  0.00     0.059 A 
HETATM    9  C5  UNL     1       9.551  -4.598  31.796  1.00  0.00     0.007 A 
HETATM   10  C12 UNL     1       8.245  -5.046  31.689  1.00  0.00     0.106 A 
HETATM   11  N4  UNL     1       7.986  -5.255  30.362  1.00  0.00    -0.337 N 
ENDROOT
BRANCH   9  12
HETATM   12  C6  UNL     1      10.143  -4.227  33.068  1.00  0.00    -0.024 A 
HETATM   13  C7  UNL     1       9.453  -4.469  34.261  1.00  0.00     0.012 A 
HETATM   14  C8  UNL     1      10.016  -4.106  35.487  1.00  0.00     0.001 A 
HETATM   15  C9  UNL     1      11.272  -3.504  35.527  1.00  0.00     0.000 A 
HETATM   16  C10 UNL     1      11.968  -3.263  34.342  1.00  0.00     0.001 A 
HETATM   17  C11 UNL     1      11.407  -3.624  33.115  1.00  0.00     0.012 A 
ENDBRANCH   9  12
BRANCH   1  18
HETATM   18  N1  UNL     1      12.480  -3.902  30.600  1.00  0.00    -0.288 NA
HETATM   19  H1  UNL     1      13.321  -4.044  30.054  1.00  0.00     0.125 HD
HETATM   20  H2  UNL     1      12.511  -4.212  31.563  1.00  0.00     0.125 HD
ENDBRANCH   1  18
BRANCH  11  21
HETATM   21  C13 UNL     1       6.723  -5.788  29.815  1.00  0.00     0.096 C 
HETATM   22  C14 UNL     1       5.543  -5.843  30.819  1.00  0.00     0.057 C 
HETATM   23  C15 UNL     1       4.628  -5.382  29.661  1.00  0.00     0.122 C 
HETATM   24  C16 UNL     1       5.887  -4.738  29.037  1.00  0.00     0.057 C 
BRANCH  23  25
HETATM   25  O1  UNL     1       3.568  -4.483  30.023  1.00  0.00    -0.395 OA
HETATM   26  H14 UNL     1       3.219  -4.150  29.178  1.00  0.00     0.210 HD
ENDBRANCH  23  25
ENDBRANCH  11  21
TORSDOF 4
ENDMDL
