MODEL 1
REMARK minimizedAffinity -7.73310804
REMARK  3 active torsions:
REMARK  status: ('A' for Active; 'I' for Inactive)
REMARK    1  A    between atoms: C4_5  and  C5_6 
REMARK    2  A    between atoms: N2_9  and  C6_10 
REMARK    3  A    between atoms: C12_16  and  C13_17 
ROOT
HETATM    1  C5  UNL     1      13.984  58.870   3.287  1.00  0.00     0.038 C 
HETATM    2  N1  UNL     1      13.402  58.287   2.283  1.00  0.00    -0.301 N 
ATOM      3  H1  UNL     1      12.533  58.578   1.835  1.00  0.00     0.187 HD
HETATM    4  N2  UNL     1      14.169  57.211   1.939  1.00  0.00    -0.283 N 
HETATM    5  C12 UNL     1      15.321  57.012   2.828  1.00  0.00     0.148 C 
HETATM    6  C23 UNL     1      15.295  58.266   3.705  1.00  0.00     0.091 C 
ENDROOT
BRANCH   5   7
HETATM    7  C13 UNL     1      15.239  55.752   3.691  1.00  0.00    -0.022 A 
HETATM    8  C14 UNL     1      13.988  55.312   4.169  1.00  0.00     0.010 A 
HETATM    9  C15 UNL     1      13.879  54.180   4.967  1.00  0.00     0.002 A 
HETATM   10  C16 UNL     1      15.021  53.468   5.316  1.00  0.00     0.012 A 
HETATM   11  C17 UNL     1      16.287  53.880   4.880  1.00  0.00    -0.025 A 
HETATM   12  C18 UNL     1      17.424  53.147   5.261  1.00  0.00     0.012 A 
HETATM   13  C22 UNL     1      16.419  55.035   4.063  1.00  0.00    -0.018 A 
HETATM   14  C19 UNL     1      18.698  53.533   4.855  1.00  0.00     0.001 A 
HETATM   15  C20 UNL     1      18.852  54.661   4.063  1.00  0.00     0.001 A 
HETATM   16  C21 UNL     1      17.732  55.401   3.674  1.00  0.00     0.013 A 
ENDBRANCH   5   7
BRANCH   4  17
HETATM   17  C6  UNL     1      13.973  56.556   0.721  1.00  0.00     0.051 A 
HETATM   18  C7  UNL     1      12.681  56.405   0.186  1.00  0.00     0.031 A 
HETATM   19  C8  UNL     1      12.454  55.750  -1.029  1.00  0.00     0.002 A 
HETATM   20  C9  UNL     1      13.522  55.220  -1.743  1.00  0.00     0.000 A 
HETATM   21  C10 UNL     1      14.811  55.346  -1.236  1.00  0.00     0.002 A 
HETATM   22  C11 UNL     1      15.030  56.004  -0.020  1.00  0.00     0.031 A 
ENDBRANCH   4  17
BRANCH   1  23
HETATM   23  C4  UNL     1      13.426  60.068   3.956  1.00  0.00    -0.012 A 
HETATM   24  C3  UNL     1      13.530  61.342   3.385  1.00  0.00     0.015 A 
HETATM   25  C2  UNL     1      12.992  62.453   4.045  1.00  0.00     0.020 A 
HETATM   26  C1  UNL     1      12.351  62.289   5.273  1.00  0.00     0.011 A 
HETATM   27 BR1  UNL     1      11.626  63.791   6.160  1.00  0.00    -0.051 Br
HETATM   28  C25 UNL     1      12.242  61.025   5.849  1.00  0.00     0.020 A 
HETATM   29  C24 UNL     1      12.778  59.916   5.191  1.00  0.00     0.015 A 
ENDBRANCH   1  23
TORSDOF 3
ENDMDL
