MODEL 1
REMARK minimizedAffinity -9.64118385
REMARK  7 active torsions:
REMARK  status: ('A' for Active; 'I' for Inactive)
REMARK    1  A    between atoms: C8_10  and  N2_11 
REMARK    2  A    between atoms: N2_11  and  C9_12 
REMARK    3  A    between atoms: C10_15  and  O1_16 
REMARK    4  A    between atoms: C12_18  and  C13_19 
REMARK    5  A    between atoms: C13_19  and  S1_20 
REMARK    6  A    between atoms: S1_20  and  C14_21 
REMARK    7  A    between atoms: N7_26  and  C15_27 
ROOT
HETATM    1  C9  UNL     1      12.783  35.664  17.346  1.00  0.00     0.699 A 
HETATM    2  N3  UNL     1      13.113  36.745  18.059  1.00  0.00    -0.170 N 
ATOM      3  H3  UNL     1      12.523  37.092  18.815  1.00  0.00     0.186 HD
HETATM    4  C10 UNL     1      14.255  37.346  17.730  1.00  0.00     0.157 A 
HETATM    5  C11 UNL     1      15.099  36.959  16.731  1.00  0.00     0.082 A 
HETATM    6  C12 UNL     1      14.695  35.841  16.040  1.00  0.00     0.040 A 
HETATM    7  N8  UNL     1      13.539  35.196  16.332  1.00  0.00    -0.194 N 
ATOM      8  H8  UNL     1      13.248  34.377  15.799  1.00  0.00     0.184 HD
ENDROOT
BRANCH   1   9
HETATM    9  N2  UNL     1      11.626  34.958  17.591  1.00  0.00    -0.022 N 
HETATM   10  H9  UNL     1      11.584  34.070  17.129  1.00  0.00     0.203 HD
BRANCH   9  11
HETATM   11  C8  UNL     1      10.526  35.224  18.379  1.00  0.00     0.697 A 
HETATM   12  N1  UNL     1       9.521  35.998  17.952  1.00  0.00    -0.194 N 
HETATM   13  C6  UNL     1       8.476  36.209  18.780  1.00  0.00     0.035 A 
ATOM     14  H1  UNL     1       9.545  36.420  17.024  1.00  0.00     0.184 HD
HETATM   15  C5  UNL     1       8.403  35.644  20.056  1.00  0.00     0.014 A 
HETATM   16  C7  UNL     1       7.391  37.091  18.235  1.00  0.00     0.070 C 
HETATM   17  C4  UNL     1       7.339  35.822  20.973  1.00  0.00     0.016 A 
HETATM   18  C21 UNL     1       9.496  34.848  20.406  1.00  0.00     0.061 A 
HETATM   19  C3  UNL     1       7.366  35.206  22.223  1.00  0.00     0.008 A 
HETATM   20  C2  UNL     1       8.446  34.399  22.573  1.00  0.00    -0.060 A 
HETATM   21  C1  UNL     1       8.515  33.744  23.921  1.00  0.00     0.048 C 
HETATM   22  C22 UNL     1       9.500  34.243  21.659  1.00  0.00     0.037 A 
HETATM   23  N9  UNL     1      10.536  34.642  19.588  1.00  0.00    -0.190 N 
ATOM     24  H9  UNL     1      11.319  34.055  19.877  1.00  0.00     0.184 HD
ENDBRANCH   9  11
ENDBRANCH   1   9
BRANCH   4  25
HETATM   25  O1  UNL     1      14.538  38.435  18.487  1.00  0.00    -0.346 OA
HETATM   26  H10 UNL     1      13.772  38.415  19.092  1.00  0.00     0.219 HD
ENDBRANCH   4  25
BRANCH   6  27
HETATM   27  C13 UNL     1      15.509  35.296  14.895  1.00  0.00     0.140 C 
BRANCH  27  28
HETATM   28  S1  UNL     1      17.218  35.911  14.825  1.00  0.00    -0.085 SA
BRANCH  28  29
HETATM   29  C14 UNL     1      17.247  36.568  13.225  1.00  0.00     0.177 A 
HETATM   30  N4  UNL     1      17.052  37.844  12.977  1.00  0.00    -0.264 N 
HETATM   31  N5  UNL     1      17.281  38.013  11.643  1.00  0.00    -0.006 NA
ATOM     32  H4  UNL     1      16.783  38.564  13.648  1.00  0.00     0.186 HD
HETATM   33  N6  UNL     1      17.610  36.867  11.069  1.00  0.00     0.001 NA
HETATM   34  N7  UNL     1      17.547  35.909  12.038  1.00  0.00    -0.219 N 
BRANCH  34  35
HETATM   35  C15 UNL     1      17.777  34.544  11.698  1.00  0.00     0.056 A 
HETATM   36  C16 UNL     1      18.832  34.129  10.877  1.00  0.00     0.031 A 
HETATM   37  C17 UNL     1      19.005  32.773  10.579  1.00  0.00     0.002 A 
HETATM   38  C18 UNL     1      18.139  31.818  11.102  1.00  0.00     0.000 A 
HETATM   39  C19 UNL     1      17.097  32.213  11.934  1.00  0.00     0.002 A 
HETATM   40  C20 UNL     1      16.918  33.565  12.235  1.00  0.00     0.031 A 
ENDBRANCH  34  35
ENDBRANCH  28  29
ENDBRANCH  27  28
ENDBRANCH   6  27
TORSDOF 7
ENDMDL
