MODEL 1
REMARK minimizedAffinity -8.62568092
REMARK  8 active torsions:
REMARK  status: ('A' for Active; 'I' for Inactive)
REMARK    1  A    between atoms: O1_2  and  C2_3 
REMARK    2  A    between atoms: C6_7  and  C7_8 
REMARK    3  A    between atoms: N1_10  and  C9_11 
REMARK    4  A    between atoms: C11_13  and  C12_14 
REMARK       I    between atoms: C12_14  and  N2_16 
REMARK    5  A    between atoms: N2_16  and  C13_17 
REMARK    6  A    between atoms: C13_17  and  C14_18 
REMARK    7  A    between atoms: C14_18  and  O3_19 
REMARK    8  A    between atoms: C18_27  and  N5_28 
ROOT
HETATM    1  C7  UNL     1       8.464  -4.295  30.975  1.00  0.00     0.007 A 
HETATM    2  C8  UNL     1       8.867  -5.445  30.319  1.00  0.00     0.106 A 
HETATM    3  N1  UNL     1       7.750  -6.022  29.777  1.00  0.00    -0.337 N 
HETATM    4  C16 UNL     1       6.640  -5.265  30.060  1.00  0.00     0.123 A 
HETATM    5  N3  UNL     1       5.380  -5.548  29.682  1.00  0.00    -0.338 N 
ATOM      6  H3  UNL     1       5.116  -6.369  29.137  1.00  0.00     0.168 HD
HETATM    7  C17 UNL     1       4.514  -4.617  30.110  1.00  0.00     0.183 A 
HETATM    8  N4  UNL     1       4.774  -3.508  30.828  1.00  0.00    -0.338 N 
ATOM      9  H4  UNL     1       4.022  -2.877  31.104  1.00  0.00     0.168 HD
HETATM   10  C18 UNL     1       6.051  -3.253  31.176  1.00  0.00     0.114 A 
HETATM   11  C19 UNL     1       7.052  -4.165  30.803  1.00  0.00     0.064 A 
ENDROOT
BRANCH   3  12
HETATM   12  C9  UNL     1       7.678  -7.270  28.972  1.00  0.00     0.092 C 
HETATM   13  C10 UNL     1       6.514  -8.239  29.273  1.00  0.00     0.039 C 
HETATM   14  C11 UNL     1       5.680  -7.528  28.174  1.00  0.00     0.081 C 
HETATM   15  C15 UNL     1       7.027  -7.028  27.588  1.00  0.00     0.039 C 
BRANCH  14  16
HETATM   16  C12 UNL     1       4.799  -8.421  27.254  1.00  0.00     0.222 C 
HETATM   17  O2  UNL     1       5.234  -9.138  26.350  1.00  0.00    -0.273 OA
HETATM   18  N2  UNL     1       3.448  -8.336  27.522  1.00  0.00    -0.359 N 
HETATM   19  H12 UNL     1       3.120  -7.577  28.107  1.00  0.00     0.162 HD
BRANCH  18  20
HETATM   20  C13 UNL     1       2.462  -8.945  26.646  1.00  0.00     0.148 C 
BRANCH  20  21
HETATM   21  C14 UNL     1       1.404  -7.935  26.201  1.00  0.00     0.183 C 
BRANCH  21  22
HETATM   22  O3  UNL     1       1.398  -6.824  27.099  1.00  0.00    -0.399 OA
HETATM   23  H17 UNL     1       0.752  -6.188  26.747  1.00  0.00     0.209 HD
ENDBRANCH  21  22
ENDBRANCH  20  21
ENDBRANCH  18  20
ENDBRANCH  14  16
ENDBRANCH   3  12
BRANCH   1  24
HETATM   24  C6  UNL     1       9.395  -3.455  31.697  1.00  0.00    -0.021 A 
HETATM   25  C5  UNL     1       9.718  -2.187  31.205  1.00  0.00     0.012 A 
HETATM   26  C4  UNL     1      10.620  -1.381  31.900  1.00  0.00     0.004 A 
HETATM   27  C3  UNL     1      11.200  -1.837  33.087  1.00  0.00     0.037 A 
HETATM   28  C2  UNL     1      10.881  -3.102  33.586  1.00  0.00     0.069 A 
HETATM   29  C20 UNL     1       9.976  -3.907  32.887  1.00  0.00     0.049 A 
BRANCH  28  30
HETATM   30  O1  UNL     1      11.377  -3.663  34.730  1.00  0.00    -0.356 OA
HETATM   31  C1  UNL     1      12.428  -2.967  35.388  1.00  0.00     0.210 C 
ENDBRANCH  28  30
ENDBRANCH   1  24
BRANCH  10  32
HETATM   32  N5  UNL     1       6.284  -2.089  31.885  1.00  0.00    -0.385 N 
HETATM   33  H21 UNL     1       7.144  -2.030  32.410  1.00  0.00     0.157 HD
HETATM   34  H22 UNL     1       5.443  -1.706  32.296  1.00  0.00     0.157 HD
ENDBRANCH  10  32
TORSDOF 8
ENDMDL
