MODEL 1
REMARK minimizedAffinity -8.87169075
REMARK CNNscore 0.487320334
REMARK CNNaffinity 6.12929773
REMARK  7 active torsions:
REMARK  status: ('A' for Active; 'I' for Inactive)
REMARK       I    between atoms: C1_2  and  N1_3 
REMARK    1  A    between atoms: C1_2  and  C8_12 
REMARK    2  A    between atoms: N1_3  and  C2_4 
REMARK    3  A    between atoms: C5_7  and  O2_8 
REMARK    4  A    between atoms: N2_15  and  C11_16 
REMARK    5  A    between atoms: C11_16  and  C12_17 
REMARK       I    between atoms: C12_17  and  N3_19 
REMARK    6  A    between atoms: N4_22  and  C15_23 
REMARK    7  A    between atoms: C18_26  and  C19_27 
ROOT
HETATM    1  C12 UNL     1      -7.896  47.600 -32.255  1.00  0.00     0.248 C 
HETATM    2  O3  UNL     1      -7.381  47.751 -33.369  1.00  0.00    -0.271 OA
HETATM    3  N3  UNL     1      -7.138  47.616 -31.093  1.00  0.00    -0.348 N 
HETATM    4  C13 UNL     1      -7.692  47.514 -29.737  1.00  0.00     0.145 C 
HETATM    5  C14 UNL     1      -6.663  47.046 -28.689  1.00  0.00     0.143 C 
HETATM    6  N4  UNL     1      -5.440  47.871 -28.701  1.00  0.00    -0.378 N 
HETATM    7  C25 UNL     1      -5.141  48.605 -29.944  1.00  0.00     0.143 C 
HETATM    8  C26 UNL     1      -5.701  47.878 -31.181  1.00  0.00     0.145 C 
ENDROOT
BRANCH   1   9
HETATM    9  C11 UNL     1      -9.413  47.371 -32.144  1.00  0.00     0.374 C 
BRANCH   9  10
HETATM   10  N2  UNL     1      -9.872  46.290 -33.049  1.00  0.00     0.098 N 
HETATM   11  C10 UNL     1      -8.974  45.126 -33.018  1.00  0.00     0.274 C 
HETATM   12  C9  UNL     1      -9.426  44.296 -31.831  1.00  0.00     0.046 C 
HETATM   13  C8  UNL     1     -10.938  44.497 -31.801  1.00  0.00     0.108 C 
HETATM   14  C27 UNL     1     -11.184  45.776 -32.605  1.00  0.00     0.287 C 
BRANCH  13  15
HETATM   15  C1  UNL     1     -11.475  44.555 -30.375  1.00  0.00     0.228 C 
HETATM   16  O1  UNL     1     -11.321  43.635 -29.582  1.00  0.00    -0.273 OA
HETATM   17  N1  UNL     1     -12.118  45.759 -30.118  1.00  0.00    -0.327 N 
HETATM   18  H1  UNL     1     -12.114  46.441 -30.867  1.00  0.00     0.169 HD
BRANCH  17  19
HETATM   19  C2  UNL     1     -12.729  46.171 -28.915  1.00  0.00     0.036 A 
HETATM   20  C3  UNL     1     -12.159  47.085 -28.023  1.00  0.00     0.032 A 
HETATM   21  C4  UNL     1     -12.833  47.452 -26.851  1.00  0.00     0.040 A 
HETATM   22  C5  UNL     1     -14.074  46.899 -26.566  1.00  0.00     0.087 A 
HETATM   23  C6  UNL     1     -14.649  45.981 -27.444  1.00  0.00     0.069 A 
HETATM   24 CL1  UNL     1     -16.184  45.277 -27.091  1.00  0.00    -0.081 Cl
HETATM   25  C7  UNL     1     -13.979  45.614 -28.611  1.00  0.00     0.056 A 
BRANCH  22  26
HETATM   26  O2  UNL     1     -14.693  47.294 -25.413  1.00  0.00    -0.359 OA
HETATM   27  H4  UNL     1     -15.541  46.813 -25.358  1.00  0.00     0.217 HD
ENDBRANCH  22  26
ENDBRANCH  17  19
ENDBRANCH  13  15
ENDBRANCH   9  10
ENDBRANCH   1   9
BRANCH   6  28
HETATM   28  C15 UNL     1      -4.764  48.143 -27.520  1.00  0.00     0.030 A 
HETATM   29  C16 UNL     1      -5.428  48.207 -26.287  1.00  0.00     0.030 A 
HETATM   30  C17 UNL     1      -4.755  48.493 -25.088  1.00  0.00     0.017 A 
HETATM   31  C18 UNL     1      -3.372  48.722 -25.056  1.00  0.00     0.008 A 
HETATM   32  C23 UNL     1      -2.700  48.639 -26.284  1.00  0.00     0.017 A 
HETATM   33  C24 UNL     1      -3.380  48.355 -27.481  1.00  0.00     0.030 A 
BRANCH  31  34
HETATM   34  C19 UNL     1      -2.662  49.030 -23.799  1.00  0.00     0.115 A 
HETATM   35  N5  UNL     1      -1.966  50.189 -23.733  1.00  0.00    -0.349 N 
HETATM   36  C20 UNL     1      -1.319  50.441 -22.572  1.00  0.00     0.133 A 
ATOM     37  H5  UNL     1      -1.932  50.840 -24.518  1.00  0.00     0.167 HD
HETATM   38  C21 UNL     1      -1.343  49.591 -21.497  1.00  0.00     0.147 A 
HETATM   39  F1  UNL     1      -0.694  49.868 -20.361  1.00  0.00    -0.203 F 
HETATM   40  C22 UNL     1      -2.074  48.442 -21.654  1.00  0.00     0.133 A 
HETATM   41  N6  UNL     1      -2.741  48.135 -22.788  1.00  0.00    -0.349 N 
ATOM     42  H6  UNL     1      -3.277  47.272 -22.877  1.00  0.00     0.167 HD
ENDBRANCH  31  34
ENDBRANCH   6  28
TORSDOF 7
ENDMDL
