MODEL 1
REMARK minimizedAffinity -8.07399464
REMARK  7 active torsions:
REMARK  status: ('A' for Active; 'I' for Inactive)
REMARK    1  A    between atoms: O1_2  and  C2_3 
REMARK    2  A    between atoms: C2_3  and  C3_4 
REMARK    3  A    between atoms: C3_4  and  O2_5 
REMARK    4  A    between atoms: O2_5  and  C4_6 
REMARK    5  A    between atoms: C7_12  and  N3_13 
REMARK       I    between atoms: N3_13  and  C8_14 
REMARK       I    between atoms: C8_14  and  N4_16 
REMARK    6  A    between atoms: N4_16  and  C9_17 
REMARK    7  A    between atoms: C9_17  and  C10_18 
ROOT
HETATM    1  C4  UNL     1      -0.001  53.731 -25.494  1.00  0.00     0.171 A 
HETATM    2  N1  UNL     1       0.414  54.958 -25.812  1.00  0.00    -0.279 N 
ATOM      3  H1  UNL     1       0.320  55.448 -26.702  1.00  0.00     0.189 HD
HETATM    4  N2  UNL     1       0.989  55.392 -24.675  1.00  0.00    -0.298 N 
HETATM    5  C5  UNL     1       0.941  54.490 -23.645  1.00  0.00     0.067 A 
HETATM    6  C6  UNL     1       1.403  54.544 -22.330  1.00  0.00     0.080 A 
HETATM    7  C7  UNL     1       1.166  53.402 -21.574  1.00  0.00     0.111 A 
HETATM    8  N5  UNL     1       0.528  52.305 -22.047  1.00  0.00    -0.351 N 
ATOM      9  H5  UNL     1       0.377  51.500 -21.439  1.00  0.00     0.166 HD
HETATM   10  C16 UNL     1       0.089  52.276 -23.334  1.00  0.00     0.108 A 
HETATM   11  C17 UNL     1       0.289  53.378 -24.162  1.00  0.00     0.060 A 
HETATM   12  H8  UNL     1       1.397  56.321 -24.665  1.00  0.00     0.187 HD
ENDROOT
BRANCH   7  13
HETATM   13  N3  UNL     1       1.548  53.271 -20.238  1.00  0.00    -0.295 N 
HETATM   14  C8  UNL     1       0.785  52.895 -19.168  1.00  0.00     0.322 C 
HETATM   15  O3  UNL     1      -0.411  52.635 -19.179  1.00  0.00    -0.247 OA
HETATM   16  N4  UNL     1       1.536  52.850 -18.013  1.00  0.00    -0.339 N 
HETATM   17  H11 UNL     1       2.512  52.624 -18.134  1.00  0.00     0.164 HD
HETATM   18  H10 UNL     1       2.479  53.618 -20.068  1.00  0.00     0.172 HD
BRANCH  16  19
HETATM   19  C9  UNL     1       0.925  52.394 -16.786  1.00  0.00     0.162 C 
BRANCH  19  20
HETATM   20  C10 UNL     1       1.956  51.787 -15.872  1.00  0.00    -0.040 A 
HETATM   21  C11 UNL     1       1.599  50.789 -14.952  1.00  0.00     0.012 A 
HETATM   22  C12 UNL     1       2.565  50.216 -14.123  1.00  0.00     0.043 A 
HETATM   23  C13 UNL     1       3.888  50.635 -14.219  1.00  0.00     0.116 A 
HETATM   24  F1  UNL     1       4.814  50.082 -13.425  1.00  0.00    -0.206 F 
HETATM   25  C14 UNL     1       4.264  51.615 -15.129  1.00  0.00     0.043 A 
HETATM   26  C15 UNL     1       3.300  52.189 -15.959  1.00  0.00     0.012 A 
ENDBRANCH  19  20
ENDBRANCH  16  19
ENDBRANCH   7  13
BRANCH   1  27
HETATM   27  O2  UNL     1      -0.648  52.951 -26.389  1.00  0.00    -0.332 OA
BRANCH  27  28
HETATM   28  C3  UNL     1      -0.214  53.074 -27.745  1.00  0.00     0.203 C 
BRANCH  28  29
HETATM   29  C2  UNL     1       0.951  52.129 -28.054  1.00  0.00     0.193 C 
BRANCH  29  30
HETATM   30  O1  UNL     1       1.188  51.198 -26.995  1.00  0.00    -0.394 OA
HETATM   31  C1  UNL     1       2.510  51.268 -26.479  1.00  0.00     0.201 C 
ENDBRANCH  29  30
ENDBRANCH  28  29
ENDBRANCH  27  28
ENDBRANCH   1  27
TORSDOF 7
ENDMDL
