MODEL 1
REMARK minimizedAffinity -8.10012913
REMARK  6 active torsions:
REMARK  status: ('A' for Active; 'I' for Inactive)
REMARK    1  A    between atoms: C2_2  and  C3_3 
REMARK       I    between atoms: C3_3  and  N1_5 
REMARK    2  A    between atoms: N1_5  and  C4_6 
REMARK    3  A    between atoms: C9_11  and  N2_12 
REMARK    4  A    between atoms: N2_12  and  C10_13 
REMARK    5  A    between atoms: C11_16  and  N4_17 
REMARK    6  A    between atoms: N4_17  and  C12_18 
ROOT
HETATM    1  C10 UNL     1      -2.474  50.726 -22.133  1.00  0.00     0.110 A 
HETATM    2  N3  UNL     1      -2.652  50.590 -23.464  1.00  0.00    -0.322 N 
ATOM      3  H3  UNL     1      -1.864  50.369 -24.074  1.00  0.00     0.169 HD
HETATM    4  C11 UNL     1      -3.882  50.750 -23.967  1.00  0.00     0.158 A 
HETATM    5  N5  UNL     1      -4.959  51.028 -23.225  1.00  0.00    -0.341 N 
ATOM      6  H5  UNL     1      -5.886  51.115 -23.641  1.00  0.00     0.167 HD
HETATM    7  C17 UNL     1      -4.761  51.188 -21.903  1.00  0.00     0.117 A 
HETATM    8  C18 UNL     1      -3.534  51.060 -21.299  1.00  0.00     0.088 A 
HETATM    9 CL1  UNL     1      -3.361  51.281 -19.603  1.00  0.00    -0.079 Cl
ENDROOT
BRANCH   1  10
HETATM   10  N2  UNL     1      -1.162  50.639 -21.585  1.00  0.00    -0.242 NA
HETATM   11  H9  UNL     1      -0.584  50.096 -22.228  1.00  0.00     0.135 HD
BRANCH  10  12
HETATM   12  C9  UNL     1      -0.362  51.732 -21.130  1.00  0.00     0.041 A 
HETATM   13  C4  UNL     1       0.410  52.445 -22.078  1.00  0.00     0.056 A 
HETATM   14  C5  UNL     1       1.086  53.604 -21.692  1.00  0.00     0.031 A 
HETATM   15  C6  UNL     1       0.998  54.065 -20.376  1.00  0.00     0.002 A 
HETATM   16  C7  UNL     1       0.227  53.378 -19.443  1.00  0.00     0.002 A 
HETATM   17  C8  UNL     1      -0.462  52.225 -19.821  1.00  0.00     0.026 A 
BRANCH  13  18
HETATM   18  N1  UNL     1       0.460  51.908 -23.385  1.00  0.00    -0.322 N 
HETATM   19  C3  UNL     1       0.622  52.576 -24.571  1.00  0.00     0.244 C 
HETATM   20  O1  UNL     1       0.757  53.783 -24.737  1.00  0.00    -0.268 OA
HETATM   21  H4  UNL     1       0.457  50.895 -23.403  1.00  0.00     0.169 HD
BRANCH  19  22
HETATM   22  C2  UNL     1       0.683  51.691 -25.769  1.00  0.00     0.064 C 
HETATM   23  C1  UNL     1       1.799  51.281 -26.385  1.00  0.00     0.017 C 
ENDBRANCH  19  22
ENDBRANCH  13  18
ENDBRANCH  10  12
ENDBRANCH   1  10
BRANCH   4  24
HETATM   24  N4  UNL     1      -3.980  50.606 -25.342  1.00  0.00    -0.259 NA
HETATM   25  H10 UNL     1      -4.071  51.554 -25.697  1.00  0.00     0.131 HD
BRANCH  24  26
HETATM   26  C12 UNL     1      -2.970  49.769 -25.990  1.00  0.00     0.067 C 
HETATM   27  C13 UNL     1      -3.553  48.404 -26.376  1.00  0.00     0.046 C 
HETATM   28  C14 UNL     1      -4.501  48.515 -27.561  1.00  0.00     0.169 C 
HETATM   29  O2  UNL     1      -3.844  49.124 -28.671  1.00  0.00    -0.391 OA
HETATM   30  C15 UNL     1      -3.449  50.462 -28.377  1.00  0.00     0.169 C 
HETATM   31  C16 UNL     1      -2.437  50.482 -27.240  1.00  0.00     0.046 C 
ENDBRANCH  24  26
ENDBRANCH   4  24
TORSDOF 6
ENDMDL
