MODEL 1
REMARK minimizedAffinity -9.52208328
REMARK  3 active torsions:
REMARK  status: ('A' for Active; 'I' for Inactive)
REMARK    1  A    between atoms: C4_4  and  C5_5 
REMARK    2  A    between atoms: C8_11  and  N3_12 
REMARK       I    between atoms: N3_12  and  C9_13 
REMARK       I    between atoms: C9_13  and  N4_15 
REMARK    3  A    between atoms: N4_15  and  C11_17 
ROOT
HETATM    1  C5  UNL     1       0.647  53.723 -24.122  1.00  0.00     0.072 A 
HETATM    2  N1  UNL     1       1.387  54.844 -24.087  1.00  0.00    -0.299 N 
ATOM      3  H1  UNL     1       1.654  55.442 -24.870  1.00  0.00     0.187 HD
HETATM    4  N2  UNL     1       1.698  55.000 -22.791  1.00  0.00    -0.299 N 
HETATM    5  C6  UNL     1       1.223  54.011 -21.980  1.00  0.00     0.065 A 
HETATM    6  C7  UNL     1       1.340  53.799 -20.605  1.00  0.00     0.080 A 
HETATM    7  C8  UNL     1       0.718  52.653 -20.129  1.00  0.00     0.111 A 
HETATM    8  N5  UNL     1       0.051  51.780 -20.920  1.00  0.00    -0.351 N 
ATOM      9  H5  UNL     1      -0.379  50.949 -20.514  1.00  0.00     0.166 HD
HETATM   10  C17 UNL     1      -0.045  52.009 -22.256  1.00  0.00     0.105 A 
HETATM   11  C18 UNL     1       0.533  53.148 -22.819  1.00  0.00     0.036 A 
HETATM   12  H5  UNL     1       2.251  55.807 -22.522  1.00  0.00     0.187 HD
ENDROOT
BRANCH   7  13
HETATM   13  N3  UNL     1       0.727  52.262 -18.788  1.00  0.00    -0.294 N 
HETATM   14  C9  UNL     1      -0.268  51.676 -18.058  1.00  0.00     0.324 C 
HETATM   15  O1  UNL     1      -1.355  51.351 -18.534  1.00  0.00    -0.247 OA
HETATM   16  N4  UNL     1       0.023  51.460 -16.708  1.00  0.00    -0.334 N 
HETATM   17  C10 UNL     1      -1.002  50.803 -15.904  1.00  0.00     0.155 C 
HETATM   18  H7  UNL     1       1.637  52.375 -18.385  1.00  0.00     0.172 HD
BRANCH  16  19
HETATM   19  C11 UNL     1       1.214  51.913 -15.958  1.00  0.00     0.088 C 
HETATM   20  C12 UNL     1       1.509  51.051 -14.714  1.00  0.00     0.025 C 
HETATM   21  C13 UNL     1       3.003  50.905 -14.431  1.00  0.00     0.002 C 
HETATM   22  C14 UNL     1       3.737  52.225 -14.638  1.00  0.00     0.000 C 
HETATM   23  C15 UNL     1       3.604  52.759 -16.065  1.00  0.00     0.002 C 
HETATM   24  C16 UNL     1       2.440  52.153 -16.851  1.00  0.00     0.025 C 
ENDBRANCH  16  19
ENDBRANCH   7  13
BRANCH   1  25
HETATM   25  C4  UNL     1       0.092  53.237 -25.384  1.00  0.00    -0.004 A 
HETATM   26  C3  UNL     1      -0.513  51.978 -25.443  1.00  0.00     0.038 A 
HETATM   27  C2  UNL     1      -1.040  51.537 -26.651  1.00  0.00     0.005 A 
HETATM   28  C1  UNL     1      -1.695  50.192 -26.739  1.00  0.00     0.068 C 
HETATM   29  N6  UNL     1      -0.987  52.279 -27.782  1.00  0.00    -0.369 N 
HETATM   30  C20 UNL     1      -0.382  53.482 -27.708  1.00  0.00     0.089 A 
ATOM     31  H6  UNL     1      -1.390  51.941 -28.656  1.00  0.00     0.165 HD
HETATM   32  C19 UNL     1       0.167  54.000 -26.549  1.00  0.00     0.031 A 
ENDBRANCH   1  25
TORSDOF 3
ENDMDL
