MODEL 1
REMARK minimizedAffinity -8.66557503
REMARK CNNscore 0.280264407
REMARK CNNaffinity 6.89345789
REMARK  6 active torsions:
REMARK  status: ('A' for Active; 'I' for Inactive)
REMARK       I    between atoms: C1_2  and  N1_3 
REMARK    1  A    between atoms: C1_2  and  C13_19 
REMARK    2  A    between atoms: N1_3  and  C2_4 
REMARK    3  A    between atoms: C2_4  and  C3_5 
REMARK    4  A    between atoms: C2_4  and  C9_13 
REMARK    5  A    between atoms: C18_26  and  N4_27 
REMARK    6  A    between atoms: N4_27  and  C19_28 
ROOT
HETATM    1  C13 UNL     1       0.488  51.695 -17.805  1.00  0.00     0.034 A 
HETATM    2  C14 UNL     1      -0.304  50.546 -17.907  1.00  0.00     0.018 A 
HETATM    3  C15 UNL     1      -0.781  50.141 -19.152  1.00  0.00     0.016 A 
HETATM    4  C16 UNL     1      -0.466  50.897 -20.296  1.00  0.00     0.006 A 
HETATM    5  C17 UNL     1      -0.894  50.583 -21.576  1.00  0.00     0.104 A 
HETATM    6  N3  UNL     1      -0.597  51.315 -22.665  1.00  0.00    -0.342 N 
ATOM      7  H3  UNL     1      -0.939  51.059 -23.590  1.00  0.00     0.167 HD
HETATM    8  C18 UNL     1       0.167  52.396 -22.475  1.00  0.00     0.157 A 
HETATM    9  N5  UNL     1       0.622  52.793 -21.278  1.00  0.00    -0.332 N 
ATOM     10  H5  UNL     1       1.188  53.636 -21.186  1.00  0.00     0.168 HD
HETATM   11  C24 UNL     1       0.314  52.052 -20.209  1.00  0.00     0.047 A 
HETATM   12  C25 UNL     1       0.777  52.440 -18.959  1.00  0.00     0.047 A 
ENDROOT
BRANCH   1  13
HETATM   13  C1  UNL     1       0.969  52.107 -16.458  1.00  0.00     0.252 C 
HETATM   14  O1  UNL     1       1.877  52.925 -16.353  1.00  0.00    -0.268 OA
HETATM   15  N1  UNL     1       0.344  51.533 -15.374  1.00  0.00    -0.345 N 
HETATM   16  H1  UNL     1      -0.515  51.012 -15.499  1.00  0.00     0.163 HD
BRANCH  15  17
HETATM   17  C2  UNL     1       0.659  51.925 -13.998  1.00  0.00     0.159 C 
BRANCH  17  18
HETATM   18  C3  UNL     1      -0.661  52.117 -13.259  1.00  0.00    -0.030 A 
HETATM   19  C4  UNL     1      -1.823  51.497 -13.753  1.00  0.00     0.012 A 
HETATM   20  C5  UNL     1      -3.042  51.627 -13.085  1.00  0.00     0.044 A 
HETATM   21  C6  UNL     1      -3.109  52.369 -11.910  1.00  0.00     0.138 A 
HETATM   22  F1  UNL     1      -4.290  52.478 -11.283  1.00  0.00    -0.204 F 
HETATM   23  C7  UNL     1      -1.970  52.979 -11.397  1.00  0.00     0.073 A 
HETATM   24 CL1  UNL     1      -2.044  53.888  -9.936  1.00  0.00    -0.081 Cl
HETATM   25  C8  UNL     1      -0.748  52.851 -12.064  1.00  0.00     0.036 A 
ENDBRANCH  17  18
BRANCH  17  26
HETATM   26  C9  UNL     1       1.643  50.909 -13.353  1.00  0.00     0.155 C 
HETATM   27  F2  UNL     1       2.846  51.518 -13.147  1.00  0.00    -0.238 F 
HETATM   28  C10 UNL     1       1.861  49.627 -14.149  1.00  0.00     0.078 C 
HETATM   29  C11 UNL     1       0.746  48.725 -13.661  1.00  0.00     0.273 C 
HETATM   30  N2  UNL     1       0.706  48.970 -12.221  1.00  0.00     0.086 N 
HETATM   31  C12 UNL     1       1.098  50.377 -12.013  1.00  0.00     0.315 C 
HETATM   32  H10 UNL     1      -0.224  48.786 -11.841  1.00  0.00     0.316 HD
ENDBRANCH  17  26
ENDBRANCH  15  17
ENDBRANCH   1  13
BRANCH   8  33
HETATM   33  N4  UNL     1       0.540  53.200 -23.540  1.00  0.00    -0.259 NA
HETATM   34  H16 UNL     1       0.196  54.127 -23.312  1.00  0.00     0.131 HD
BRANCH  33  35
HETATM   35  C19 UNL     1       0.221  52.709 -24.877  1.00  0.00     0.067 C 
HETATM   36  C20 UNL     1       1.381  51.878 -25.435  1.00  0.00     0.046 C 
HETATM   37  C21 UNL     1       1.112  51.514 -26.889  1.00  0.00     0.169 C 
HETATM   38  O2  UNL     1       0.898  52.687 -27.674  1.00  0.00    -0.391 OA
HETATM   39  C22 UNL     1      -0.233  53.435 -27.232  1.00  0.00     0.169 C 
HETATM   40  C23 UNL     1      -0.040  53.905 -25.799  1.00  0.00     0.046 C 
ENDBRANCH  33  35
ENDBRANCH   8  33
TORSDOF 6
ENDMDL
