MODEL 1
REMARK minimizedAffinity -10.1733761
REMARK  6 active torsions:
REMARK  status: ('A' for Active; 'I' for Inactive)
REMARK    1  A    between atoms: O1_2  and  C2_3 
REMARK    2  A    between atoms: C7_9  and  C8_10 
REMARK    3  A    between atoms: C8_10  and  N1_11 
REMARK    4  A    between atoms: C12_15  and  N2_16 
REMARK       I    between atoms: N2_16  and  C13_17 
REMARK       I    between atoms: C13_17  and  N3_19 
REMARK    5  A    between atoms: N3_19  and  C14_20 
REMARK    6  A    between atoms: C17_26  and  C18_27 
ROOT
HETATM    1  N2  UNL     1       0.373  51.816 -16.763  1.00  0.00    -0.337 N 
HETATM    2  C13 UNL     1       0.859  52.272 -17.978  1.00  0.00     0.322 C 
HETATM    3  O2  UNL     1       1.894  52.916 -18.069  1.00  0.00    -0.247 OA
HETATM    4  N3  UNL     1       0.036  51.855 -19.000  1.00  0.00    -0.295 N 
HETATM    5  H16 UNL     1      -0.631  51.763 -16.701  1.00  0.00     0.164 HD
HETATM    6  H17 UNL     1      -0.579  51.091 -18.778  1.00  0.00     0.172 HD
ENDROOT
BRANCH   4   7
HETATM    7  C14 UNL     1       0.189  52.190 -20.353  1.00  0.00     0.111 A 
HETATM    8  C15 UNL     1       0.866  53.375 -20.635  1.00  0.00     0.080 A 
HETATM    9  C16 UNL     1       0.992  53.690 -21.990  1.00  0.00     0.065 A 
HETATM   10  N4  UNL     1       1.550  54.756 -22.639  1.00  0.00    -0.299 N 
HETATM   11  C23 UNL     1       0.498  52.872 -22.997  1.00  0.00     0.036 A 
HETATM   12  N5  UNL     1       1.451  54.701 -23.976  1.00  0.00    -0.299 N 
HETATM   13  H19 UNL     1       2.013  55.559 -22.231  1.00  0.00     0.187 HD
HETATM   14  C17 UNL     1       0.820  53.541 -24.218  1.00  0.00     0.072 A 
ATOM     15  H5  UNL     1       1.782  55.387 -24.656  1.00  0.00     0.187 HD
HETATM   16  C24 UNL     1      -0.159  51.699 -22.625  1.00  0.00     0.105 A 
HETATM   17  N7  UNL     1      -0.287  51.375 -21.311  1.00  0.00    -0.351 N 
ATOM     18  H7  UNL     1      -0.750  50.505 -21.049  1.00  0.00     0.166 HD
BRANCH  14  19
HETATM   19  C18 UNL     1       0.542  53.122 -25.589  1.00  0.00    -0.001 A 
HETATM   20  C19 UNL     1       1.031  51.914 -26.093  1.00  0.00     0.031 A 
HETATM   21  C20 UNL     1       0.738  51.583 -27.405  1.00  0.00     0.091 A 
HETATM   22  N6  UNL     1       0.006  52.357 -28.231  1.00  0.00    -0.343 N 
HETATM   23  C21 UNL     1      -0.447  53.523 -27.721  1.00  0.00     0.189 A 
ATOM     24  H6  UNL     1      -0.196  52.077 -29.190  1.00  0.00     0.167 HD
HETATM   25  F2  UNL     1      -1.175  54.306 -28.525  1.00  0.00    -0.186 F 
HETATM   26  C22 UNL     1      -0.208  53.946 -26.429  1.00  0.00     0.075 A 
ENDBRANCH  14  19
ENDBRANCH   4   7
BRANCH   1  27
HETATM   27  C12 UNL     1       1.066  52.156 -15.518  1.00  0.00     0.114 C 
HETATM   28  C11 UNL     1       2.411  51.425 -15.472  1.00  0.00     0.029 C 
HETATM   29  C10 UNL     1       3.110  51.661 -14.138  1.00  0.00     0.032 C 
HETATM   30  C9  UNL     1       2.206  51.282 -12.963  1.00  0.00     0.273 C 
HETATM   31  N1  UNL     1       0.950  52.028 -13.018  1.00  0.00     0.094 N 
HETATM   32  C25 UNL     1       0.215  51.815 -14.269  1.00  0.00     0.297 C 
BRANCH  31  33
HETATM   33  C8  UNL     1       0.112  51.864 -11.818  1.00  0.00     0.317 C 
BRANCH  33  34
HETATM   34  C7  UNL     1      -0.435  53.120 -11.168  1.00  0.00     0.042 A 
HETATM   35  C2  UNL     1      -1.815  53.330 -10.974  1.00  0.00     0.079 A 
HETATM   36  C3  UNL     1      -2.261  54.511 -10.366  1.00  0.00     0.037 A 
HETATM   37  C4  UNL     1      -1.353  55.493  -9.961  1.00  0.00     0.006 A 
HETATM   38  C5  UNL     1       0.007  55.300 -10.163  1.00  0.00     0.043 A 
HETATM   39  C6  UNL     1       0.453  54.127 -10.763  1.00  0.00     0.127 A 
HETATM   40  F1  UNL     1       1.773  53.977 -10.951  1.00  0.00    -0.205 F 
BRANCH  35  41
HETATM   41  O1  UNL     1      -2.642  52.329 -11.411  1.00  0.00    -0.355 OA
HETATM   42  C1  UNL     1      -3.747  52.686 -12.231  1.00  0.00     0.210 C 
ENDBRANCH  35  41
ENDBRANCH  33  34
ENDBRANCH  31  33
ENDBRANCH   1  27
TORSDOF 6
ENDMDL
