MODEL 1
REMARK minimizedAffinity -7.94876051
REMARK CNNscore 0.562872946
REMARK CNNaffinity 6.18600464
REMARK  7 active torsions:
REMARK  status: ('A' for Active; 'I' for Inactive)
REMARK       I    between atoms: C1_2  and  N1_3 
REMARK    1  A    between atoms: C1_2  and  C8_12 
REMARK    2  A    between atoms: N1_3  and  C2_4 
REMARK    3  A    between atoms: C5_7  and  O2_8 
REMARK    4  A    between atoms: N2_15  and  C11_16 
REMARK    5  A    between atoms: C11_16  and  C12_17 
REMARK       I    between atoms: C12_17  and  N3_19 
REMARK    6  A    between atoms: N4_22  and  C15_23 
REMARK    7  A    between atoms: C18_26  and  C19_27 
ROOT
HETATM    1  C11 UNL     1      -6.941  47.063 -27.828  1.00  0.00     0.374 C 
ENDROOT
BRANCH   1   2
HETATM    2  N2  UNL     1      -5.966  48.110 -27.476  1.00  0.00     0.098 N 
HETATM    3  C10 UNL     1      -4.745  48.027 -28.269  1.00  0.00     0.274 C 
HETATM    4  C9  UNL     1      -3.779  48.877 -27.466  1.00  0.00     0.046 C 
HETATM    5  C8  UNL     1      -4.079  48.453 -26.032  1.00  0.00     0.108 C 
HETATM    6  C27 UNL     1      -5.575  48.113 -26.054  1.00  0.00     0.287 C 
BRANCH   5   7
HETATM    7  C1  UNL     1      -3.682  49.493 -24.990  1.00  0.00     0.228 C 
HETATM    8  O1  UNL     1      -3.226  50.586 -25.299  1.00  0.00    -0.273 OA
HETATM    9  N1  UNL     1      -3.962  49.066 -23.697  1.00  0.00    -0.327 N 
HETATM   10  H1  UNL     1      -4.369  48.142 -23.605  1.00  0.00     0.169 HD
BRANCH   9  11
HETATM   11  C2  UNL     1      -3.746  49.768 -22.493  1.00  0.00     0.036 A 
HETATM   12  C3  UNL     1      -4.744  50.458 -21.800  1.00  0.00     0.032 A 
HETATM   13  C4  UNL     1      -4.451  51.137 -20.611  1.00  0.00     0.040 A 
HETATM   14  C5  UNL     1      -3.157  51.124 -20.111  1.00  0.00     0.087 A 
HETATM   15  C6  UNL     1      -2.152  50.439 -20.791  1.00  0.00     0.069 A 
HETATM   16 CL1  UNL     1      -0.536  50.422 -20.180  1.00  0.00    -0.081 Cl
HETATM   17  C7  UNL     1      -2.442  49.766 -21.979  1.00  0.00     0.056 A 
BRANCH  14  18
HETATM   18  O2  UNL     1      -2.920  51.799 -18.947  1.00  0.00    -0.359 OA
HETATM   19  H4  UNL     1      -1.979  51.672 -18.725  1.00  0.00     0.217 HD
ENDBRANCH  14  18
ENDBRANCH   9  11
ENDBRANCH   5   7
ENDBRANCH   1   2
BRANCH   1  20
HETATM   20  C12 UNL     1      -8.116  47.579 -28.688  1.00  0.00     0.248 C 
HETATM   21  O3  UNL     1      -7.959  48.295 -29.679  1.00  0.00    -0.271 OA
HETATM   22  N3  UNL     1      -9.390  47.190 -28.283  1.00  0.00    -0.348 N 
HETATM   23  C13 UNL     1      -9.673  46.275 -27.174  1.00  0.00     0.145 C 
HETATM   24  C26 UNL     1     -10.552  47.697 -29.013  1.00  0.00     0.145 C 
HETATM   25  C14 UNL     1     -11.058  45.604 -27.267  1.00  0.00     0.143 C 
HETATM   26  N4  UNL     1     -12.131  46.598 -27.408  1.00  0.00    -0.378 N 
HETATM   27  C25 UNL     1     -11.806  47.843 -28.132  1.00  0.00     0.143 C 
BRANCH  26  28
HETATM   28  C15 UNL     1     -13.429  46.339 -26.989  1.00  0.00     0.030 A 
HETATM   29  C16 UNL     1     -14.361  45.686 -27.808  1.00  0.00     0.030 A 
HETATM   30  C17 UNL     1     -15.670  45.411 -27.381  1.00  0.00     0.014 A 
HETATM   31  C18 UNL     1     -16.095  45.784 -26.106  1.00  0.00    -0.025 A 
HETATM   32  C23 UNL     1     -15.189  46.443 -25.276  1.00  0.00     0.014 A 
HETATM   33  C24 UNL     1     -13.883  46.709 -25.713  1.00  0.00     0.030 A 
BRANCH  31  34
HETATM   34  C19 UNL     1     -17.458  45.495 -25.670  1.00  0.00    -0.019 A 
HETATM   35  C20 UNL     1     -18.167  44.258 -25.807  1.00  0.00     0.020 A 
HETATM   36  C21 UNL     1     -19.437  44.310 -25.276  1.00  0.00     0.050 A 
HETATM   37  S1  UNL     1     -19.782  45.838 -24.598  1.00  0.00    -0.113 SA
HETATM   38  C22 UNL     1     -18.234  46.434 -25.017  1.00  0.00     0.061 A 
ENDBRANCH  31  34
ENDBRANCH  26  28
ENDBRANCH   1  20
TORSDOF 7
ENDMDL
