MODEL 1
REMARK minimizedAffinity -7.36957455
REMARK  3 active torsions:
REMARK  status: ('A' for Active; 'I' for Inactive)
REMARK    1  A    between atoms: C3_4  and  C4_5 
REMARK    2  A    between atoms: C9_12  and  N3_13 
REMARK       I    between atoms: N3_13  and  C10_14 
REMARK       I    between atoms: C10_14  and  N4_16 
REMARK    3  A    between atoms: N4_16  and  C11_17 
ROOT
HETATM    1  C4  UNL     1      10.577  36.032  18.930  1.00  0.00    -0.005 A 
HETATM    2  C5  UNL     1      11.410  36.230  20.023  1.00  0.00     0.101 A 
HETATM    3  N2  UNL     1      12.759  36.311  19.948  1.00  0.00    -0.363 N 
ATOM      4  H2  UNL     1      13.330  36.454  20.781  1.00  0.00     0.165 HD
HETATM    5  C6  UNL     1      13.318  36.195  18.727  1.00  0.00     0.059 A 
HETATM    6  C7  UNL     1      14.691  36.269  18.583  1.00  0.00     0.035 A 
HETATM    7  C8  UNL     1      15.289  36.151  17.328  1.00  0.00     0.051 A 
HETATM    8  C9  UNL     1      14.477  35.962  16.223  1.00  0.00     0.109 A 
HETATM    9  N5  UNL     1      13.134  35.879  16.323  1.00  0.00    -0.341 N 
ATOM     10  H5  UNL     1      12.556  35.731  15.496  1.00  0.00     0.167 HD
HETATM   11  C15 UNL     1      12.576  35.996  17.546  1.00  0.00     0.061 A 
HETATM   12  C16 UNL     1      11.196  35.919  17.681  1.00  0.00     0.045 A 
ENDROOT
BRANCH   8  13
HETATM   13  N3  UNL     1      14.947  35.821  14.919  1.00  0.00    -0.295 N 
HETATM   14  C10 UNL     1      16.123  35.257  14.496  1.00  0.00     0.322 C 
HETATM   15  O1  UNL     1      17.007  34.816  15.215  1.00  0.00    -0.247 OA
HETATM   16  N4  UNL     1      16.193  35.260  13.114  1.00  0.00    -0.335 N 
HETATM   17  H9  UNL     1      15.290  35.210  12.666  1.00  0.00     0.165 HD
HETATM   18  H8  UNL     1      14.399  36.336  14.249  1.00  0.00     0.172 HD
BRANCH  16  19
HETATM   19  C11 UNL     1      17.311  34.690  12.344  1.00  0.00     0.023 C 
HETATM   20  C12 UNL     1      17.549  35.485  11.051  1.00  0.00     0.037 C 
HETATM   21  C13 UNL     1      18.577  34.785  13.218  1.00  0.00     0.037 C 
HETATM   22  C14 UNL     1      17.070  33.206  12.018  1.00  0.00     0.037 C 
ENDBRANCH  16  19
ENDBRANCH   8  13
BRANCH   1  23
HETATM   23  C3  UNL     1       9.134  35.953  19.059  1.00  0.00     0.009 A 
HETATM   24  C2  UNL     1       8.445  35.009  19.793  1.00  0.00     0.123 A 
HETATM   25  N1  UNL     1       7.118  35.288  19.633  1.00  0.00    -0.307 N 
HETATM   26  C1  UNL     1       6.002  34.574  20.207  1.00  0.00     0.177 C 
HETATM   27  N6  UNL     1       6.887  36.349  18.842  1.00  0.00    -0.310 N 
HETATM   28  C17 UNL     1       8.111  36.751  18.493  1.00  0.00     0.121 A 
ATOM     29  H6  UNL     1       5.989  36.751  18.573  1.00  0.00     0.186 HD
ENDBRANCH   1  23
TORSDOF 3
ENDMDL
