MODEL 1
REMARK minimizedAffinity -8.34398842
REMARK  6 active torsions:
REMARK  status: ('A' for Active; 'I' for Inactive)
REMARK    1  A    between atoms: O1_2  and  C2_3 
REMARK    2  A    between atoms: C2_3  and  C3_4 
REMARK    3  A    between atoms: C3_4  and  N1_5 
REMARK    4  A    between atoms: C3_4  and  C15_25 
REMARK       I    between atoms: N1_5  and  C4_6 
REMARK       I    between atoms: C4_6  and  N2_8 
REMARK    5  A    between atoms: N2_8  and  C5_9 
REMARK    6  A    between atoms: N5_16  and  C9_17 
ROOT
HETATM    1  C5  UNL     1      -2.530  51.426 -27.298  1.00  0.00     0.111 A 
HETATM    2  C6  UNL     1      -1.847  52.573 -27.676  1.00  0.00     0.080 A 
HETATM    3  C7  UNL     1      -0.965  53.080 -26.722  1.00  0.00     0.067 A 
HETATM    4  N3  UNL     1      -0.141  54.169 -26.737  1.00  0.00    -0.298 N 
HETATM    5  N4  UNL     1       0.567  54.336 -25.611  1.00  0.00    -0.284 N 
ATOM      6  H4  UNL     1       1.246  55.067 -25.401  1.00  0.00     0.188 HD
HETATM    7  C8  UNL     1       0.182  53.327 -24.826  1.00  0.00     0.130 A 
HETATM    8  N5  UNL     1       0.693  53.199 -23.583  1.00  0.00    -0.370 N 
HETATM    9  C13 UNL     1      -0.776  52.495 -25.475  1.00  0.00     0.052 A 
HETATM   10  C14 UNL     1      -1.502  51.338 -25.188  1.00  0.00     0.107 A 
HETATM   11  N6  UNL     1      -2.365  50.817 -26.102  1.00  0.00    -0.351 N 
ATOM     12  H6  UNL     1      -2.886  49.967 -25.886  1.00  0.00     0.166 HD
HETATM   13  H10 UNL     1      -0.016  54.839 -27.487  1.00  0.00     0.187 HD
HETATM   14  H11 UNL     1       1.439  53.853 -23.364  1.00  0.00     0.161 HD
ENDROOT
BRANCH   1  15
HETATM   15  N2  UNL     1      -3.452  50.772 -28.117  1.00  0.00    -0.295 N 
HETATM   16  C4  UNL     1      -3.762  49.438 -28.151  1.00  0.00     0.322 C 
HETATM   17  N1  UNL     1      -4.751  49.185 -29.077  1.00  0.00    -0.332 N 
HETATM   18  O2  UNL     1      -3.239  48.555 -27.484  1.00  0.00    -0.247 OA
HETATM   19  H7  UNL     1      -5.386  49.949 -29.256  1.00  0.00     0.165 HD
HETATM   20  H8  UNL     1      -3.806  51.368 -28.847  1.00  0.00     0.172 HD
BRANCH  17  21
HETATM   21  C3  UNL     1      -5.321  47.847 -29.240  1.00  0.00     0.143 C 
BRANCH  21  22
HETATM   22  C2  UNL     1      -5.329  47.474 -30.745  1.00  0.00     0.197 C 
BRANCH  22  23
HETATM   23  O1  UNL     1      -4.666  48.409 -31.603  1.00  0.00    -0.394 OA
HETATM   24  C1  UNL     1      -4.629  48.000 -32.963  1.00  0.00     0.201 C 
ENDBRANCH  22  23
ENDBRANCH  21  22
BRANCH  21  25
HETATM   25  C15 UNL     1      -6.671  47.808 -28.531  1.00  0.00    -0.033 A 
HETATM   26  C16 UNL     1      -7.870  48.206 -29.139  1.00  0.00     0.009 A 
HETATM   27  C17 UNL     1      -9.074  48.177 -28.429  1.00  0.00     0.001 A 
HETATM   28  C18 UNL     1      -9.097  47.760 -27.101  1.00  0.00     0.000 A 
HETATM   29  C19 UNL     1      -7.914  47.368 -26.477  1.00  0.00     0.001 A 
HETATM   30  C20 UNL     1      -6.712  47.394 -27.186  1.00  0.00     0.009 A 
ENDBRANCH  21  25
ENDBRANCH  17  21
ENDBRANCH   1  15
BRANCH   8  31
HETATM   31  C9  UNL     1       0.485  52.146 -22.640  1.00  0.00     0.083 C 
HETATM   32  C10 UNL     1      -0.742  52.400 -21.730  1.00  0.00     0.025 C 
HETATM   33  C11 UNL     1       0.209  53.058 -20.710  1.00  0.00     0.004 C 
HETATM   34  C12 UNL     1       1.364  52.281 -21.374  1.00  0.00     0.025 C 
ENDBRANCH   8  31
TORSDOF 6
ENDMDL
