MODEL 1
REMARK minimizedAffinity -9.46951389
REMARK CNNscore 0.776915967
REMARK CNNaffinity 7.33833075
REMARK  5 active torsions:
REMARK  status: ('A' for Active; 'I' for Inactive)
REMARK    1  A    between atoms: C4_4  and  C5_5 
REMARK    2  A    between atoms: C8_11  and  N3_12 
REMARK       I    between atoms: N3_12  and  C9_13 
REMARK       I    between atoms: C9_13  and  N4_15 
REMARK    3  A    between atoms: N4_15  and  C10_16 
REMARK    4  A    between atoms: C14_20  and  O2_21 
REMARK    5  A    between atoms: O2_21  and  C15_22 
ROOT
HETATM    1  N3  UNL     1       1.085  53.057 -18.162  1.00  0.00    -0.295 N 
HETATM    2  C9  UNL     1       0.938  52.005 -17.287  1.00  0.00     0.322 C 
HETATM    3  O1  UNL     1       0.761  50.826 -17.556  1.00  0.00    -0.247 OA
HETATM    4  N4  UNL     1       1.047  52.455 -15.977  1.00  0.00    -0.338 N 
HETATM    5  H7  UNL     1       1.482  53.898 -17.782  1.00  0.00     0.172 HD
HETATM    6  H8  UNL     1       0.697  53.390 -15.830  1.00  0.00     0.164 HD
ENDROOT
BRANCH   1   7
HETATM    7  C8  UNL     1       0.944  52.981 -19.554  1.00  0.00     0.111 A 
HETATM    8  C7  UNL     1       1.400  54.073 -20.291  1.00  0.00     0.080 A 
HETATM    9  C6  UNL     1       1.236  53.978 -21.673  1.00  0.00     0.065 A 
HETATM   10  N2  UNL     1       1.563  54.823 -22.694  1.00  0.00    -0.299 N 
HETATM   11  C23 UNL     1       0.651  52.876 -22.286  1.00  0.00     0.036 A 
HETATM   12  N1  UNL     1       1.253  54.359 -23.913  1.00  0.00    -0.299 N 
HETATM   13  H5  UNL     1       2.005  55.731 -22.630  1.00  0.00     0.187 HD
HETATM   14  C5  UNL     1       0.671  53.167 -23.685  1.00  0.00     0.072 A 
ATOM     15  H1  UNL     1       1.421  54.810 -24.813  1.00  0.00     0.187 HD
HETATM   16  C22 UNL     1       0.231  51.824 -21.471  1.00  0.00     0.105 A 
HETATM   17  N5  UNL     1       0.370  51.904 -20.123  1.00  0.00    -0.351 N 
ATOM     18  H5  UNL     1       0.036  51.141 -19.535  1.00  0.00     0.166 HD
BRANCH  14  19
HETATM   19  C4  UNL     1       0.179  52.353 -24.799  1.00  0.00    -0.004 A 
HETATM   20  C3  UNL     1       0.794  52.386 -26.055  1.00  0.00     0.038 A 
HETATM   21  C2  UNL     1       0.273  51.602 -27.080  1.00  0.00     0.005 A 
HETATM   22  C1  UNL     1       0.907  51.625 -28.439  1.00  0.00     0.068 C 
HETATM   23  N6  UNL     1      -0.802  50.799 -26.912  1.00  0.00    -0.369 N 
HETATM   24  C25 UNL     1      -1.369  50.767 -25.686  1.00  0.00     0.089 A 
ATOM     25  H6  UNL     1      -1.172  50.240 -27.682  1.00  0.00     0.165 HD
HETATM   26  C24 UNL     1      -0.921  51.513 -24.613  1.00  0.00     0.031 A 
ENDBRANCH  14  19
ENDBRANCH   1   7
BRANCH   4  27
HETATM   27  C10 UNL     1       0.867  51.522 -14.869  1.00  0.00     0.088 C 
HETATM   28  C11 UNL     1      -0.616  51.219 -14.630  1.00  0.00     0.025 C 
HETATM   29  C12 UNL     1      -0.808  50.154 -13.550  1.00  0.00     0.004 C 
HETATM   30  C13 UNL     1       0.330  50.113 -12.532  1.00  0.00     0.032 C 
HETATM   31  C14 UNL     1       0.937  51.497 -12.296  1.00  0.00     0.131 C 
HETATM   32  C21 UNL     1       1.530  52.069 -13.597  1.00  0.00     0.057 C 
BRANCH  31  33
HETATM   33  O2  UNL     1       1.962  51.343 -11.307  1.00  0.00    -0.346 OA
BRANCH  33  34
HETATM   34  C15 UNL     1       2.532  52.448 -10.741  1.00  0.00     0.072 A 
HETATM   35  C16 UNL     1       1.664  53.539 -10.606  1.00  0.00     0.038 A 
HETATM   36  C17 UNL     1       2.100  54.741 -10.039  1.00  0.00     0.030 A 
HETATM   37  C18 UNL     1       3.417  54.854  -9.601  1.00  0.00     0.072 A 
HETATM   38 CL1  UNL     1       3.954  56.328  -8.895  1.00  0.00    -0.081 Cl
HETATM   39  C19 UNL     1       4.282  53.769  -9.738  1.00  0.00     0.140 A 
HETATM   40  F1  UNL     1       5.555  53.854  -9.322  1.00  0.00    -0.204 F 
HETATM   41  C20 UNL     1       3.849  52.569 -10.306  1.00  0.00     0.080 A 
ENDBRANCH  33  34
ENDBRANCH  31  33
ENDBRANCH   4  27
TORSDOF 5
ENDMDL
