MODEL 1
REMARK minimizedAffinity -7.86572123
REMARK  7 active torsions:
REMARK  status: ('A' for Active; 'I' for Inactive)
REMARK    1  A    between atoms: O1_2  and  C2_3 
REMARK    2  A    between atoms: C2_3  and  C3_4 
REMARK    3  A    between atoms: C3_4  and  O2_5 
REMARK    4  A    between atoms: O2_5  and  C4_6 
REMARK    5  A    between atoms: C7_12  and  N3_13 
REMARK       I    between atoms: N3_13  and  C8_14 
REMARK       I    between atoms: C8_14  and  N4_16 
REMARK    6  A    between atoms: N4_16  and  C9_17 
REMARK    7  A    between atoms: C9_17  and  C10_18 
ROOT
HETATM    1  C4  UNL     1       0.027  53.899 -25.523  1.00  0.00     0.171 A 
HETATM    2  N1  UNL     1       0.500  55.124 -25.762  1.00  0.00    -0.279 N 
ATOM      3  H1  UNL     1       0.451  55.667 -26.625  1.00  0.00     0.189 HD
HETATM    4  N2  UNL     1       1.059  55.471 -24.587  1.00  0.00    -0.298 N 
HETATM    5  C5  UNL     1       0.951  54.514 -23.612  1.00  0.00     0.067 A 
HETATM    6  C6  UNL     1       1.376  54.470 -22.284  1.00  0.00     0.080 A 
HETATM    7  C7  UNL     1       1.065  53.298 -21.593  1.00  0.00     0.111 A 
HETATM    8  N5  UNL     1       0.414  52.262 -22.156  1.00  0.00    -0.351 N 
ATOM      9  H5  UNL     1       0.226  51.423 -21.606  1.00  0.00     0.166 HD
HETATM   10  C16 UNL     1       0.007  52.323 -23.450  1.00  0.00     0.108 A 
HETATM   11  C17 UNL     1       0.270  53.460 -24.208  1.00  0.00     0.060 A 
HETATM   12  H8  UNL     1       1.499  56.382 -24.517  1.00  0.00     0.187 HD
ENDROOT
BRANCH   7  13
HETATM   13  N3  UNL     1       1.492  53.224 -20.260  1.00  0.00    -0.295 N 
HETATM   14  C8  UNL     1       0.688  52.961 -19.174  1.00  0.00     0.322 C 
HETATM   15  O3  UNL     1      -0.531  52.870 -19.155  1.00  0.00    -0.247 OA
HETATM   16  N4  UNL     1       1.457  52.837 -18.028  1.00  0.00    -0.339 N 
HETATM   17  H11 UNL     1       2.381  52.460 -18.169  1.00  0.00     0.164 HD
HETATM   18  H10 UNL     1       2.425  53.535 -20.053  1.00  0.00     0.172 HD
BRANCH  16  19
HETATM   19  C9  UNL     1       0.835  52.487 -16.768  1.00  0.00     0.162 C 
BRANCH  19  20
HETATM   20  C10 UNL     1       1.818  51.808 -15.847  1.00  0.00    -0.040 A 
HETATM   21  C11 UNL     1       3.174  52.167 -15.874  1.00  0.00     0.010 A 
HETATM   22  C12 UNL     1       4.087  51.560 -15.010  1.00  0.00     0.024 A 
HETATM   23  C13 UNL     1       3.648  50.592 -14.110  1.00  0.00     0.034 A 
HETATM   24 CL1  UNL     1       4.771  49.844 -13.041  1.00  0.00    -0.084 Cl
HETATM   25  C14 UNL     1       2.303  50.229 -14.066  1.00  0.00     0.024 A 
HETATM   26  C15 UNL     1       1.390  50.837 -14.930  1.00  0.00     0.010 A 
ENDBRANCH  19  20
ENDBRANCH  16  19
ENDBRANCH   7  13
BRANCH   1  27
HETATM   27  O2  UNL     1      -0.618  53.196 -26.481  1.00  0.00    -0.332 OA
BRANCH  27  28
HETATM   28  C3  UNL     1      -0.048  51.916 -26.763  1.00  0.00     0.203 C 
BRANCH  28  29
HETATM   29  C2  UNL     1       0.713  52.013 -28.085  1.00  0.00     0.193 C 
BRANCH  29  30
HETATM   30  O1  UNL     1       2.125  51.887 -27.923  1.00  0.00    -0.394 OA
HETATM   31  C1  UNL     1       2.500  51.414 -26.636  1.00  0.00     0.201 C 
ENDBRANCH  29  30
ENDBRANCH  28  29
ENDBRANCH  27  28
ENDBRANCH   1  27
TORSDOF 7
ENDMDL
