MODEL 1
REMARK minimizedAffinity -7.41382027
REMARK  3 active torsions:
REMARK  status: ('A' for Active; 'I' for Inactive)
REMARK    1  A    between atoms: C3_4  and  C4_5 
REMARK    2  A    between atoms: C7_10  and  N3_11 
REMARK       I    between atoms: N3_11  and  C8_12 
REMARK       I    between atoms: C8_12  and  N4_14 
REMARK    3  A    between atoms: N4_14  and  C9_15 
ROOT
HETATM    1  C4  UNL     1      15.377  54.951   4.748  1.00  0.00    -0.005 A 
HETATM    2  C5  UNL     1      14.858  53.755   5.224  1.00  0.00     0.101 A 
HETATM    3  N2  UNL     1      15.593  52.640   5.451  1.00  0.00    -0.361 N 
ATOM      4  H2  UNL     1      15.163  51.784   5.800  1.00  0.00     0.165 HD
HETATM    5  C6  UNL     1      16.926  52.708   5.195  1.00  0.00     0.086 A 
HETATM    6  C7  UNL     1      17.749  51.595   5.411  1.00  0.00     0.066 A 
HETATM    7  C13 UNL     1      19.114  51.662   5.140  1.00  0.00     0.049 A 
HETATM    8  C14 UNL     1      19.623  52.854   4.665  1.00  0.00     0.090 A 
HETATM    9  N5  UNL     1      18.873  53.954   4.446  1.00  0.00    -0.364 N 
ATOM     10  H5  UNL     1      19.289  54.816   4.094  1.00  0.00     0.165 HD
HETATM   11  C15 UNL     1      17.555  53.871   4.708  1.00  0.00     0.062 A 
HETATM   12  C16 UNL     1      16.751  54.981   4.492  1.00  0.00     0.045 A 
ENDROOT
BRANCH   6  13
HETATM   13  N3  UNL     1      17.111  50.428   5.897  1.00  0.00    -0.307 N 
HETATM   14  C8  UNL     1      17.034  49.189   5.307  1.00  0.00     0.321 C 
HETATM   15  O1  UNL     1      17.565  48.862   4.255  1.00  0.00    -0.247 OA
HETATM   16  N4  UNL     1      16.268  48.336   6.076  1.00  0.00    -0.335 N 
HETATM   17  H7  UNL     1      15.562  48.811   6.619  1.00  0.00     0.165 HD
HETATM   18  H6  UNL     1      16.804  50.507   6.861  1.00  0.00     0.170 HD
BRANCH  16  19
HETATM   19  C9  UNL     1      15.950  46.948   5.704  1.00  0.00     0.023 C 
HETATM   20  C10 UNL     1      14.793  46.474   6.604  1.00  0.00     0.037 C 
HETATM   21  C11 UNL     1      15.498  46.864   4.238  1.00  0.00     0.037 C 
HETATM   22  C12 UNL     1      17.149  46.014   5.943  1.00  0.00     0.037 C 
ENDBRANCH  16  19
ENDBRANCH   6  13
BRANCH   1  23
HETATM   23  C3  UNL     1      14.523  56.104   4.524  1.00  0.00     0.009 A 
HETATM   24  C2  UNL     1      14.578  57.289   5.231  1.00  0.00     0.123 A 
HETATM   25  N1  UNL     1      13.604  58.093   4.714  1.00  0.00    -0.307 N 
HETATM   26  C1  UNL     1      13.272  59.435   5.128  1.00  0.00     0.177 C 
HETATM   27  N6  UNL     1      12.908  57.516   3.719  1.00  0.00    -0.310 N 
HETATM   28  C17 UNL     1      13.468  56.310   3.603  1.00  0.00     0.121 A 
ATOM     29  H6  UNL     1      12.135  57.908   3.180  1.00  0.00     0.186 HD
ENDBRANCH   1  23
TORSDOF 3
ENDMDL
