MODEL 1
REMARK minimizedAffinity -9.337677
REMARK  5 active torsions:
REMARK  status: ('A' for Active; 'I' for Inactive)
REMARK    1  A    between atoms: C2_2  and  N1_3 
REMARK    2  A    between atoms: C2_2  and  C16_25 
REMARK       I    between atoms: N1_3  and  C3_4 
REMARK       I    between atoms: C3_4  and  N2_6 
REMARK    3  A    between atoms: N2_6  and  C4_7 
REMARK    4  A    between atoms: C7_13  and  N5_14 
REMARK    5  A    between atoms: N5_14  and  C8_15 
ROOT
HETATM    1  C4  UNL     1       0.857  52.917 -19.131  1.00  0.00     0.111 A 
HETATM    2  C5  UNL     1       0.088  51.897 -19.676  1.00  0.00     0.080 A 
HETATM    3  C6  UNL     1      -0.036  51.927 -21.066  1.00  0.00     0.066 A 
HETATM    4  N3  UNL     1      -0.676  51.099 -21.944  1.00  0.00    -0.298 N 
HETATM    5  N4  UNL     1      -0.541  51.454 -23.232  1.00  0.00    -0.289 N 
ATOM      6  H4  UNL     1      -0.911  50.980 -24.055  1.00  0.00     0.188 HD
HETATM    7  C7  UNL     1       0.187  52.569 -23.185  1.00  0.00     0.109 A 
HETATM    8  C14 UNL     1       0.559  52.903 -21.855  1.00  0.00     0.047 A 
HETATM    9  C15 UNL     1       1.332  53.875 -21.221  1.00  0.00     0.106 A 
HETATM   10  N6  UNL     1       1.464  53.875 -19.868  1.00  0.00    -0.351 N 
ATOM     11  H6  UNL     1       2.020  54.596 -19.409  1.00  0.00     0.166 HD
HETATM   12  H8  UNL     1      -1.211  50.265 -21.729  1.00  0.00     0.187 HD
ENDROOT
BRANCH   1  13
HETATM   13  N2  UNL     1       1.104  53.048 -17.764  1.00  0.00    -0.295 N 
HETATM   14  C3  UNL     1       0.997  52.100 -16.782  1.00  0.00     0.322 C 
HETATM   15  N1  UNL     1       1.393  52.609 -15.563  1.00  0.00    -0.335 N 
HETATM   16  O1  UNL     1       0.606  50.950 -16.923  1.00  0.00    -0.247 OA
HETATM   17  H5  UNL     1       2.109  53.320 -15.617  1.00  0.00     0.165 HD
HETATM   18  H6  UNL     1       1.287  54.000 -17.494  1.00  0.00     0.172 HD
BRANCH  15  19
HETATM   19  C2  UNL     1       1.451  51.759 -14.382  1.00  0.00     0.115 C 
HETATM   20  C1  UNL     1       1.641  50.283 -14.749  1.00  0.00     0.037 C 
BRANCH  19  21
HETATM   21  C16 UNL     1       0.202  51.975 -13.544  1.00  0.00    -0.036 A 
HETATM   22  C17 UNL     1      -1.044  51.449 -13.928  1.00  0.00     0.009 A 
HETATM   23  C18 UNL     1      -2.183  51.682 -13.156  1.00  0.00     0.001 A 
HETATM   24  C19 UNL     1      -2.096  52.449 -11.995  1.00  0.00     0.000 A 
HETATM   25  C20 UNL     1      -0.870  52.985 -11.606  1.00  0.00     0.001 A 
HETATM   26  C21 UNL     1       0.272  52.752 -12.376  1.00  0.00     0.009 A 
ENDBRANCH  19  21
ENDBRANCH  15  19
ENDBRANCH   1  13
BRANCH   7  27
HETATM   27  N5  UNL     1       0.539  53.226 -24.316  1.00  0.00    -0.273 NA
HETATM   28  H9  UNL     1       1.443  53.682 -24.200  1.00  0.00     0.129 HD
BRANCH  27  29
HETATM   29  C8  UNL     1       0.466  52.553 -25.614  1.00  0.00     0.061 C 
HETATM   30  C9  UNL     1       0.136  53.592 -26.689  1.00  0.00     0.020 C 
HETATM   31  C10 UNL     1      -0.023  52.954 -28.071  1.00  0.00     0.002 C 
HETATM   32  C11 UNL     1       0.817  51.691 -28.260  1.00  0.00     0.000 C 
HETATM   33  C12 UNL     1       2.090  51.731 -27.428  1.00  0.00     0.002 C 
HETATM   34  C13 UNL     1       1.791  51.835 -25.930  1.00  0.00     0.020 C 
ENDBRANCH  27  29
ENDBRANCH   7  27
TORSDOF 5
ENDMDL
