MODEL 1
REMARK minimizedAffinity -8.2486515
REMARK  7 active torsions:
REMARK  status: ('A' for Active; 'I' for Inactive)
REMARK    1  A    between atoms: O1_2  and  C2_3 
REMARK    2  A    between atoms: C2_3  and  C3_4 
REMARK    3  A    between atoms: C3_4  and  N1_5 
REMARK    4  A    between atoms: C3_4  and  C15_26 
REMARK       I    between atoms: N1_5  and  C4_6 
REMARK       I    between atoms: C4_6  and  N2_8 
REMARK    5  A    between atoms: N2_8  and  C5_9 
REMARK    6  A    between atoms: C8_15  and  O3_16 
REMARK    7  A    between atoms: O3_16  and  C9_17 
ROOT
HETATM    1  C5  UNL     1      -0.649  50.888 -21.064  1.00  0.00     0.111 A 
HETATM    2  C6  UNL     1       0.128  52.018 -20.779  1.00  0.00     0.080 A 
HETATM    3  C7  UNL     1       0.410  52.221 -19.424  1.00  0.00     0.067 A 
HETATM    4  N3  UNL     1       1.122  53.193 -18.757  1.00  0.00    -0.298 N 
HETATM    5  N4  UNL     1       1.214  53.004 -17.420  1.00  0.00    -0.279 N 
ATOM      6  H4  UNL     1       1.684  53.581 -16.723  1.00  0.00     0.189 HD
HETATM    7  C8  UNL     1       0.534  51.872 -17.247  1.00  0.00     0.171 A 
HETATM    8  C13 UNL     1      -0.033  51.354 -18.437  1.00  0.00     0.060 A 
HETATM    9  C14 UNL     1      -0.825  50.257 -18.805  1.00  0.00     0.108 A 
HETATM   10  N5  UNL     1      -1.127  50.038 -20.116  1.00  0.00    -0.351 N 
ATOM     11  H5  UNL     1      -1.707  49.242 -20.384  1.00  0.00     0.166 HD
HETATM   12  H10 UNL     1       1.565  54.004 -19.151  1.00  0.00     0.187 HD
ENDROOT
BRANCH   1  13
HETATM   13  N2  UNL     1      -0.991  50.490 -22.357  1.00  0.00    -0.295 N 
HETATM   14  C4  UNL     1      -1.237  51.258 -23.465  1.00  0.00     0.322 C 
HETATM   15  N1  UNL     1      -1.412  50.473 -24.575  1.00  0.00    -0.332 N 
HETATM   16  O2  UNL     1      -1.288  52.478 -23.502  1.00  0.00    -0.247 OA
HETATM   17  H7  UNL     1      -1.000  49.562 -24.537  1.00  0.00     0.165 HD
HETATM   18  H8  UNL     1      -1.069  49.492 -22.442  1.00  0.00     0.172 HD
BRANCH  15  19
HETATM   19  C3  UNL     1      -1.561  51.041 -25.911  1.00  0.00     0.143 C 
BRANCH  19  20
HETATM   20  C2  UNL     1      -2.418  50.117 -26.809  1.00  0.00     0.197 C 
BRANCH  20  21
HETATM   21  O1  UNL     1      -3.714  49.818 -26.275  1.00  0.00    -0.394 OA
HETATM   22  C1  UNL     1      -4.050  48.434 -26.319  1.00  0.00     0.201 C 
ENDBRANCH  20  21
ENDBRANCH  19  20
BRANCH  19  23
HETATM   23  C15 UNL     1      -0.200  51.288 -26.551  1.00  0.00    -0.033 A 
HETATM   24  C16 UNL     1       1.007  51.158 -25.824  1.00  0.00     0.009 A 
HETATM   25  C17 UNL     1       2.244  51.398 -26.437  1.00  0.00     0.001 A 
HETATM   26  C18 UNL     1       2.303  51.764 -27.778  1.00  0.00     0.000 A 
HETATM   27  C19 UNL     1       1.120  51.886 -28.512  1.00  0.00     0.001 A 
HETATM   28  C20 UNL     1      -0.130  51.646 -27.910  1.00  0.00     0.009 A 
ENDBRANCH  19  23
ENDBRANCH  15  19
ENDBRANCH   1  13
BRANCH   7  29
HETATM   29  O3  UNL     1       0.411  51.325 -16.020  1.00  0.00    -0.326 OA
BRANCH  29  30
HETATM   30  C9  UNL     1       1.167  51.957 -14.976  1.00  0.00     0.156 C 
HETATM   31  C10 UNL     1       2.352  51.196 -14.398  1.00  0.00     0.061 C 
HETATM   32  C11 UNL     1       2.434  51.791 -12.995  1.00  0.00     0.170 C 
HETATM   33  O4  UNL     1       1.091  52.144 -12.585  1.00  0.00    -0.389 OA
HETATM   34  C12 UNL     1       0.255  52.057 -13.733  1.00  0.00     0.200 C 
ENDBRANCH  29  30
ENDBRANCH   7  29
TORSDOF 7
ENDMDL
