MODEL 1
REMARK minimizedAffinity -10.1769896
REMARK CNNscore 0.711660743
REMARK CNNaffinity 8.13423061
REMARK  8 active torsions:
REMARK  status: ('A' for Active; 'I' for Inactive)
REMARK    1  A    between atoms: C1_2  and  C2_3 
REMARK       I    between atoms: C1_2  and  N5_31 
REMARK    2  A    between atoms: C2_3  and  N1_4 
REMARK    3  A    between atoms: C5_7  and  C6_8 
REMARK    4  A    between atoms: C5_7  and  C7_10 
REMARK       I    between atoms: C7_10  and  N2_12 
REMARK    5  A    between atoms: N2_12  and  C8_13 
REMARK    6  A    between atoms: C12_20  and  C13_21 
REMARK    7  A    between atoms: N6_34  and  C24_35 
REMARK    8  A    between atoms: C27_38  and  C28_39 
ROOT
HETATM    1  N1  UNL     1      -3.266  48.393 -18.373  1.00  0.00     0.098 N 
HETATM    2  C3  UNL     1      -1.846  48.398 -18.745  1.00  0.00     0.274 C 
HETATM    3  C4  UNL     1      -1.898  48.027 -20.217  1.00  0.00     0.053 C 
HETATM    4  C5  UNL     1      -3.043  48.907 -20.730  1.00  0.00     0.095 C 
HETATM    5  C21 UNL     1      -4.009  48.946 -19.530  1.00  0.00     0.294 C 
ENDROOT
BRANCH   4   6
HETATM    6  C6  UNL     1      -3.671  48.314 -21.983  1.00  0.00     0.243 C 
HETATM    7  F1  UNL     1      -2.699  48.115 -22.921  1.00  0.00    -0.254 F 
ENDBRANCH   4   6
BRANCH   4   8
HETATM    8  C7  UNL     1      -2.542  50.333 -21.030  1.00  0.00     0.235 C 
HETATM    9  O2  UNL     1      -3.191  51.099 -21.741  1.00  0.00    -0.272 OA
HETATM   10  N2  UNL     1      -1.324  50.649 -20.455  1.00  0.00    -0.326 N 
HETATM   11  H9  UNL     1      -1.047  50.108 -19.636  1.00  0.00     0.169 HD
BRANCH  10  12
HETATM   12  C8  UNL     1      -0.499  51.740 -20.801  1.00  0.00     0.035 A 
HETATM   13  C9  UNL     1       0.056  52.604 -19.849  1.00  0.00     0.032 A 
HETATM   14  C10 UNL     1       0.821  53.718 -20.220  1.00  0.00     0.034 A 
HETATM   15  C11 UNL     1       1.021  53.923 -21.586  1.00  0.00     0.060 A 
HETATM   16  N3  UNL     1       1.721  54.883 -22.259  1.00  0.00    -0.299 N 
HETATM   17  C19 UNL     1       0.496  53.091 -22.570  1.00  0.00     0.023 A 
HETATM   18  N4  UNL     1       1.740  54.718 -23.592  1.00  0.00    -0.299 N 
HETATM   19  H12 UNL     1       2.233  55.664 -21.863  1.00  0.00     0.187 HD
HETATM   20  C12 UNL     1       0.972  53.636 -23.808  1.00  0.00     0.070 A 
ATOM     21  H4  UNL     1       2.228  55.286 -24.285  1.00  0.00     0.187 HD
HETATM   22  C20 UNL     1      -0.286  51.983 -22.169  1.00  0.00     0.045 A 
BRANCH  20  23
HETATM   23  C13 UNL     1       0.761  53.141 -25.168  1.00  0.00    -0.007 A 
HETATM   24  C14 UNL     1       0.021  53.875 -26.109  1.00  0.00     0.017 A 
HETATM   25  C15 UNL     1      -0.202  53.358 -27.389  1.00  0.00     0.043 A 
HETATM   26  C16 UNL     1       0.327  52.116 -27.732  1.00  0.00     0.116 A 
HETATM   27  F2  UNL     1       0.081  51.602 -28.947  1.00  0.00    -0.206 F 
HETATM   28  C17 UNL     1       1.088  51.385 -26.826  1.00  0.00     0.043 A 
HETATM   29  C18 UNL     1       1.308  51.901 -25.548  1.00  0.00     0.017 A 
ENDBRANCH  20  23
ENDBRANCH  10  12
ENDBRANCH   4   8
BRANCH   1  30
HETATM   30  C2  UNL     1      -3.531  49.173 -17.141  1.00  0.00     0.374 C 
BRANCH  30  31
HETATM   31  C1  UNL     1      -2.532  50.319 -16.927  1.00  0.00     0.248 C 
HETATM   32  O1  UNL     1      -2.651  51.360 -17.582  1.00  0.00    -0.271 OA
HETATM   33  N5  UNL     1      -1.519  50.162 -15.996  1.00  0.00    -0.348 N 
HETATM   34  C22 UNL     1      -0.502  51.209 -15.874  1.00  0.00     0.145 C 
HETATM   35  C35 UNL     1      -1.321  48.971 -15.156  1.00  0.00     0.145 C 
HETATM   36  C23 UNL     1       0.893  50.651 -15.542  1.00  0.00     0.143 C 
HETATM   37  N6  UNL     1       0.875  49.808 -14.326  1.00  0.00    -0.378 N 
HETATM   38  C34 UNL     1      -0.436  49.261 -13.925  1.00  0.00     0.143 C 
BRANCH  37  39
HETATM   39  C24 UNL     1       1.879  50.010 -13.383  1.00  0.00     0.030 A 
HETATM   40  C25 UNL     1       3.195  49.597 -13.634  1.00  0.00     0.030 A 
HETATM   41  C26 UNL     1       4.235  49.820 -12.717  1.00  0.00     0.017 A 
HETATM   42  C27 UNL     1       4.009  50.476 -11.497  1.00  0.00     0.008 A 
HETATM   43  C32 UNL     1       2.687  50.857 -11.228  1.00  0.00     0.017 A 
HETATM   44  C33 UNL     1       1.648  50.617 -12.143  1.00  0.00     0.030 A 
BRANCH  42  45
HETATM   45  C28 UNL     1       5.105  50.764 -10.553  1.00  0.00     0.115 A 
HETATM   46  N7  UNL     1       4.940  51.785  -9.684  1.00  0.00    -0.352 N 
HETATM   47  C29 UNL     1       5.940  51.998  -8.809  1.00  0.00     0.091 A 
ATOM     48  H7  UNL     1       4.101  52.365  -9.691  1.00  0.00     0.166 HD
HETATM   49  C30 UNL     1       7.079  51.234  -8.756  1.00  0.00     0.034 A 
HETATM   50  C31 UNL     1       7.155  50.222  -9.684  1.00  0.00     0.091 A 
HETATM   51  N8  UNL     1       6.192  49.964 -10.589  1.00  0.00    -0.352 N 
ATOM     52  H8  UNL     1       6.280  49.205 -11.265  1.00  0.00     0.166 HD
ENDBRANCH  42  45
ENDBRANCH  37  39
ENDBRANCH  30  31
ENDBRANCH   1  30
TORSDOF 8
ENDMDL
