MODEL 1
REMARK minimizedAffinity -8.35529709
REMARK  9 active torsions:
REMARK  status: ('A' for Active; 'I' for Inactive)
REMARK    1  A    between atoms: O1_2  and  C2_3 
REMARK    2  A    between atoms: C2_3  and  C3_4 
REMARK    3  A    between atoms: C3_4  and  O2_5 
REMARK    4  A    between atoms: O2_5  and  C4_6 
REMARK    5  A    between atoms: C7_12  and  N3_13 
REMARK       I    between atoms: N3_13  and  C8_14 
REMARK       I    between atoms: C8_14  and  N4_16 
REMARK    6  A    between atoms: N4_16  and  C9_17 
REMARK    7  A    between atoms: C9_17  and  C10_18 
REMARK    8  A    between atoms: C9_17  and  C16_25 
REMARK    9  A    between atoms: C16_25  and  O4_28 
ROOT
HETATM    1  N3  UNL     1      -0.880  52.224 -20.217  1.00  0.00    -0.295 N 
HETATM    2  C8  UNL     1      -1.151  51.343 -21.237  1.00  0.00     0.322 C 
HETATM    3  O3  UNL     1      -0.976  50.134 -21.246  1.00  0.00    -0.247 OA
HETATM    4  N4  UNL     1      -1.710  52.009 -22.312  1.00  0.00    -0.331 N 
HETATM    5  H10 UNL     1      -1.296  53.135 -20.289  1.00  0.00     0.172 HD
HETATM    6  H11 UNL     1      -1.486  52.987 -22.407  1.00  0.00     0.165 HD
ENDROOT
BRANCH   1   7
HETATM    7  C7  UNL     1      -0.225  51.909 -19.018  1.00  0.00     0.111 A 
HETATM    8  C6  UNL     1       0.639  52.878 -18.505  1.00  0.00     0.080 A 
HETATM    9  C5  UNL     1       1.289  52.536 -17.319  1.00  0.00     0.067 A 
HETATM   10  N2  UNL     1       2.185  53.205 -16.528  1.00  0.00    -0.298 N 
HETATM   11  C20 UNL     1       1.093  51.312 -16.693  1.00  0.00     0.060 A 
HETATM   12  N1  UNL     1       2.588  52.515 -15.444  1.00  0.00    -0.279 N 
HETATM   13  H8  UNL     1       2.563  54.135 -16.670  1.00  0.00     0.187 HD
HETATM   14  C4  UNL     1       1.914  51.367 -15.550  1.00  0.00     0.171 A 
ATOM     15  H1  UNL     1       3.248  52.799 -14.720  1.00  0.00     0.189 HD
HETATM   16  C19 UNL     1       0.220  50.397 -17.273  1.00  0.00     0.108 A 
HETATM   17  N5  UNL     1      -0.420  50.714 -18.430  1.00  0.00    -0.351 N 
ATOM     18  H5  UNL     1      -1.054  50.039 -18.857  1.00  0.00     0.166 HD
BRANCH  14  19
HETATM   19  O2  UNL     1       2.043  50.383 -14.631  1.00  0.00    -0.332 OA
BRANCH  19  20
HETATM   20  C3  UNL     1       3.015  50.615 -13.607  1.00  0.00     0.203 C 
BRANCH  20  21
HETATM   21  C2  UNL     1       4.329  49.883 -13.890  1.00  0.00     0.193 C 
BRANCH  21  22
HETATM   22  O1  UNL     1       5.023  49.660 -12.656  1.00  0.00    -0.394 OA
HETATM   23  C1  UNL     1       4.239  50.048 -11.536  1.00  0.00     0.201 C 
ENDBRANCH  21  22
ENDBRANCH  20  21
ENDBRANCH  19  20
ENDBRANCH  14  19
ENDBRANCH   1   7
BRANCH   4  24
HETATM   24  C9  UNL     1      -2.041  51.309 -23.562  1.00  0.00     0.153 C 
BRANCH  24  25
HETATM   25  C10 UNL     1      -0.848  51.475 -24.515  1.00  0.00    -0.032 A 
HETATM   26  C11 UNL     1       0.193  52.396 -24.337  1.00  0.00     0.011 A 
HETATM   27  C12 UNL     1       1.252  52.473 -25.249  1.00  0.00     0.024 A 
HETATM   28  C13 UNL     1       1.283  51.630 -26.356  1.00  0.00     0.034 A 
HETATM   29 CL1  UNL     1       2.590  51.726 -27.470  1.00  0.00    -0.084 Cl
HETATM   30  C14 UNL     1       0.259  50.715 -26.566  1.00  0.00     0.024 A 
HETATM   31  C15 UNL     1      -0.799  50.643 -25.655  1.00  0.00     0.011 A 
ENDBRANCH  24  25
BRANCH  24  32
HETATM   32  C16 UNL     1      -3.492  51.695 -24.051  1.00  0.00     0.075 C 
HETATM   33  C17 UNL     1      -4.213  50.449 -24.604  1.00  0.00     0.048 C 
HETATM   34  C18 UNL     1      -4.365  52.305 -22.943  1.00  0.00     0.048 C 
BRANCH  32  35
HETATM   35  O4  UNL     1      -3.422  52.635 -25.136  1.00  0.00    -0.388 OA
HETATM   36  H23 UNL     1      -4.312  52.723 -25.521  1.00  0.00     0.210 HD
ENDBRANCH  32  35
ENDBRANCH  24  32
ENDBRANCH   4  24
TORSDOF 9
ENDMDL
