MODEL 1
REMARK minimizedAffinity -10.2654142
REMARK  5 active torsions:
REMARK  status: ('A' for Active; 'I' for Inactive)
REMARK    1  A    between atoms: C4_4  and  C5_5 
REMARK    2  A    between atoms: C8_11  and  N3_12 
REMARK       I    between atoms: N3_12  and  C9_13 
REMARK       I    between atoms: C9_13  and  N4_15 
REMARK    3  A    between atoms: N4_15  and  C10_16 
REMARK    4  A    between atoms: C10_16  and  C11_17 
REMARK    5  A    between atoms: C11_17  and  C12_18 
ROOT
HETATM    1  C5  UNL     1       0.778  53.427 -23.829  1.00  0.00     0.072 A 
HETATM    2  N1  UNL     1       1.380  54.621 -23.974  1.00  0.00    -0.299 N 
ATOM      3  H1  UNL     1       1.546  55.136 -24.839  1.00  0.00     0.187 HD
HETATM    4  N2  UNL     1       1.713  54.982 -22.727  1.00  0.00    -0.299 N 
HETATM    5  C6  UNL     1       1.329  54.093 -21.764  1.00  0.00     0.065 A 
HETATM    6  C7  UNL     1       1.471  54.098 -20.378  1.00  0.00     0.080 A 
HETATM    7  C8  UNL     1       0.934  52.997 -19.713  1.00  0.00     0.111 A 
HETATM    8  N7  UNL     1       0.298  51.998 -20.352  1.00  0.00    -0.351 N 
ATOM      9  H7  UNL     1      -0.090  51.221 -19.816  1.00  0.00     0.166 HD
HETATM   10  C20 UNL     1       0.167  52.011 -21.703  1.00  0.00     0.105 A 
HETATM   11  C21 UNL     1       0.698  53.063 -22.450  1.00  0.00     0.036 A 
HETATM   12  H5  UNL     1       2.202  55.860 -22.600  1.00  0.00     0.187 HD
ENDROOT
BRANCH   7  13
HETATM   13  N3  UNL     1       1.069  52.981 -18.320  1.00  0.00    -0.295 N 
HETATM   14  C9  UNL     1       0.738  51.942 -17.484  1.00  0.00     0.321 C 
HETATM   15  O1  UNL     1       0.328  50.830 -17.790  1.00  0.00    -0.247 OA
HETATM   16  N4  UNL     1       0.950  52.308 -16.165  1.00  0.00    -0.342 N 
HETATM   17  H8  UNL     1       0.741  53.281 -15.957  1.00  0.00     0.164 HD
HETATM   18  H7  UNL     1       1.527  53.762 -17.882  1.00  0.00     0.172 HD
BRANCH  16  19
HETATM   19  C10 UNL     1       0.523  51.426 -15.090  1.00  0.00     0.132 C 
BRANCH  19  20
HETATM   20  C11 UNL     1       0.936  51.944 -13.707  1.00  0.00     0.096 C 
BRANCH  20  21
HETATM   21  C12 UNL     1      -0.245  52.347 -12.868  1.00  0.00     0.085 A 
HETATM   22  N5  UNL     1      -0.277  53.339 -11.995  1.00  0.00    -0.344 N 
HETATM   23  C13 UNL     1      -1.547  53.341 -11.479  1.00  0.00     0.060 A 
ATOM     24  H5  UNL     1       0.486  53.972 -11.754  1.00  0.00     0.167 HD
HETATM   25  C14 UNL     1      -2.111  54.183 -10.509  1.00  0.00     0.032 A 
HETATM   26  C18 UNL     1      -2.322  52.336 -12.051  1.00  0.00     0.062 A 
HETATM   27  C15 UNL     1      -3.446  53.989 -10.140  1.00  0.00     0.002 A 
HETATM   28  C16 UNL     1      -4.206  52.973 -10.724  1.00  0.00     0.002 A 
HETATM   29  C17 UNL     1      -3.659  52.123 -11.693  1.00  0.00     0.032 A 
HETATM   30  N6  UNL     1      -1.473  51.724 -12.943  1.00  0.00    -0.339 N 
HETATM   31  C19 UNL     1      -1.806  50.626 -13.819  1.00  0.00     0.158 C 
ENDBRANCH  20  21
ENDBRANCH  19  20
ENDBRANCH  16  19
ENDBRANCH   7  13
BRANCH   1  32
HETATM   32  C4  UNL     1       0.295  52.691 -24.999  1.00  0.00    -0.004 A 
HETATM   33  C3  UNL     1      -1.077  52.597 -25.248  1.00  0.00     0.038 A 
HETATM   34  C2  UNL     1      -1.516  51.897 -26.365  1.00  0.00     0.005 A 
HETATM   35  C1  UNL     1      -2.984  51.777 -26.648  1.00  0.00     0.068 C 
HETATM   36  N8  UNL     1      -0.664  51.295 -27.227  1.00  0.00    -0.369 N 
HETATM   37  C23 UNL     1       0.658  51.411 -26.978  1.00  0.00     0.089 A 
ATOM     38  H8  UNL     1      -1.007  50.774 -28.034  1.00  0.00     0.165 HD
HETATM   39  C22 UNL     1       1.182  52.090 -25.893  1.00  0.00     0.031 A 
ENDBRANCH   1  32
TORSDOF 5
ENDMDL
