MODEL 1
REMARK minimizedAffinity -10.5408592
REMARK  4 active torsions:
REMARK  status: ('A' for Active; 'I' for Inactive)
REMARK    1  A    between atoms: C5_6  and  C6_7 
REMARK    2  A    between atoms: C9_13  and  N4_14 
REMARK       I    between atoms: N4_14  and  C10_15 
REMARK       I    between atoms: C10_15  and  N5_17 
REMARK    3  A    between atoms: N5_17  and  C11_18 
REMARK    4  A    between atoms: C11_18  and  C12_19 
ROOT
HETATM    1  C6  UNL     1       0.296  52.843 -23.973  1.00  0.00     0.072 A 
HETATM    2  N2  UNL     1       1.121  53.526 -24.785  1.00  0.00    -0.299 N 
ATOM      3  H2  UNL     1       1.911  54.113 -24.522  1.00  0.00     0.187 HD
HETATM    4  N3  UNL     1       0.671  53.260 -26.021  1.00  0.00    -0.299 N 
HETATM    5  C7  UNL     1      -0.433  52.455 -26.054  1.00  0.00     0.065 A 
HETATM    6  C8  UNL     1      -1.197  51.967 -27.112  1.00  0.00     0.080 A 
HETATM    7  C9  UNL     1      -2.271  51.165 -26.746  1.00  0.00     0.111 A 
HETATM    8  N6  UNL     1      -2.584  50.873 -25.462  1.00  0.00    -0.351 N 
ATOM      9  H6  UNL     1      -3.390  50.284 -25.255  1.00  0.00     0.166 HD
HETATM   10  C18 UNL     1      -1.824  51.367 -24.448  1.00  0.00     0.105 A 
HETATM   11  C19 UNL     1      -0.713  52.165 -24.725  1.00  0.00     0.036 A 
HETATM   12  H6  UNL     1       1.161  53.669 -26.809  1.00  0.00     0.187 HD
ENDROOT
BRANCH   7  13
HETATM   13  N4  UNL     1      -3.151  50.589 -27.662  1.00  0.00    -0.295 N 
HETATM   14  C10 UNL     1      -3.795  49.384 -27.582  1.00  0.00     0.322 C 
HETATM   15  O1  UNL     1      -3.743  48.594 -26.648  1.00  0.00    -0.247 OA
HETATM   16  N5  UNL     1      -4.556  49.150 -28.707  1.00  0.00    -0.339 N 
HETATM   17  H9  UNL     1      -4.270  49.628 -29.549  1.00  0.00     0.164 HD
HETATM   18  H8  UNL     1      -3.390  51.218 -28.410  1.00  0.00     0.172 HD
BRANCH  16  19
HETATM   19  C11 UNL     1      -5.268  47.905 -28.882  1.00  0.00     0.162 C 
BRANCH  19  20
HETATM   20  C12 UNL     1      -6.156  47.954 -30.102  1.00  0.00    -0.039 A 
HETATM   21  C13 UNL     1      -7.550  48.035 -29.959  1.00  0.00     0.012 A 
HETATM   22  C14 UNL     1      -8.378  48.054 -31.083  1.00  0.00     0.044 A 
HETATM   23  C15 UNL     1      -7.817  47.986 -32.354  1.00  0.00     0.138 A 
HETATM   24  F1  UNL     1      -8.630  48.004 -33.420  1.00  0.00    -0.204 F 
HETATM   25  C16 UNL     1      -6.436  47.897 -32.513  1.00  0.00     0.073 A 
HETATM   26 CL1  UNL     1      -5.735  47.805 -34.083  1.00  0.00    -0.081 Cl
HETATM   27  C17 UNL     1      -5.604  47.877 -31.390  1.00  0.00     0.035 A 
ENDBRANCH  19  20
ENDBRANCH  16  19
ENDBRANCH   7  13
BRANCH   1  28
HETATM   28  C5  UNL     1       0.484  52.866 -22.520  1.00  0.00    -0.006 A 
HETATM   29  C4  UNL     1      -0.062  51.818 -21.737  1.00  0.00     0.029 A 
HETATM   30  C3  UNL     1       0.201  52.001 -20.384  1.00  0.00     0.010 A 
HETATM   31  C2  UNL     1      -0.190  51.163 -19.377  1.00  0.00     0.123 A 
HETATM   32  C22 UNL     1       0.932  53.083 -19.775  1.00  0.00     0.059 A 
HETATM   33  N1  UNL     1       0.293  51.746 -18.240  1.00  0.00    -0.306 N 
HETATM   34  C1  UNL     1       0.152  51.249 -16.893  1.00  0.00     0.177 C 
HETATM   35  N7  UNL     1       0.965  52.898 -18.446  1.00  0.00    -0.299 N 
ATOM     36  H7  UNL     1       1.402  53.497 -17.745  1.00  0.00     0.187 HD
HETATM   37  C21 UNL     1       1.477  54.110 -20.560  1.00  0.00     0.033 A 
HETATM   38  C20 UNL     1       1.229  53.957 -21.945  1.00  0.00     0.016 A 
ENDBRANCH   1  28
TORSDOF 4
ENDMDL
