MODEL 1
REMARK minimizedAffinity -9.30042744
REMARK  4 active torsions:
REMARK  status: ('A' for Active; 'I' for Inactive)
REMARK    1  A    between atoms: C4_4  and  C5_5 
REMARK    2  A    between atoms: C8_11  and  N3_12 
REMARK       I    between atoms: N3_12  and  C9_13 
REMARK       I    between atoms: C9_13  and  N4_15 
REMARK    3  A    between atoms: N4_15  and  C10_16 
REMARK    4  A    between atoms: C10_16  and  C11_17 
ROOT
HETATM    1  C5  UNL     1       0.491  53.481 -24.449  1.00  0.00     0.072 A 
HETATM    2  N1  UNL     1       0.957  54.716 -24.706  1.00  0.00    -0.299 N 
ATOM      3  H1  UNL     1       0.959  55.209 -25.598  1.00  0.00     0.187 HD
HETATM    4  N2  UNL     1       1.418  55.153 -23.525  1.00  0.00    -0.299 N 
HETATM    5  C6  UNL     1       1.249  54.272 -22.496  1.00  0.00     0.065 A 
HETATM    6  C7  UNL     1       1.570  54.341 -21.141  1.00  0.00     0.080 A 
HETATM    7  C8  UNL     1       1.231  53.221 -20.383  1.00  0.00     0.111 A 
HETATM    8  N5  UNL     1       0.609  52.147 -20.905  1.00  0.00    -0.351 N 
ATOM      9  H5  UNL     1       0.366  51.362 -20.300  1.00  0.00     0.166 HD
HETATM   10  C17 UNL     1       0.303  52.098 -22.226  1.00  0.00     0.105 A 
HETATM   11  C18 UNL     1       0.631  53.164 -23.063  1.00  0.00     0.036 A 
HETATM   12  H5  UNL     1       1.838  56.075 -23.491  1.00  0.00     0.187 HD
ENDROOT
BRANCH   7  13
HETATM   13  N3  UNL     1       1.535  53.269 -19.016  1.00  0.00    -0.295 N 
HETATM   14  C9  UNL     1       1.021  52.431 -18.053  1.00  0.00     0.322 C 
HETATM   15  O1  UNL     1       0.326  51.439 -18.224  1.00  0.00    -0.247 OA
HETATM   16  N4  UNL     1       1.431  52.840 -16.795  1.00  0.00    -0.339 N 
HETATM   17  H8  UNL     1       1.567  53.833 -16.688  1.00  0.00     0.164 HD
HETATM   18  H7  UNL     1       2.301  53.853 -18.730  1.00  0.00     0.172 HD
BRANCH  16  19
HETATM   19  C10 UNL     1       0.954  52.151 -15.614  1.00  0.00     0.162 C 
BRANCH  19  20
HETATM   20  C11 UNL     1       2.068  51.380 -14.951  1.00  0.00    -0.039 A 
HETATM   21  C12 UNL     1       3.404  51.768 -15.132  1.00  0.00     0.009 A 
HETATM   22  C13 UNL     1       4.442  51.045 -14.541  1.00  0.00     0.002 A 
HETATM   23  C14 UNL     1       4.156  49.921 -13.766  1.00  0.00     0.024 A 
HETATM   24  C15 UNL     1       2.832  49.525 -13.588  1.00  0.00     0.034 A 
HETATM   25 CL1  UNL     1       2.478  48.132 -12.641  1.00  0.00    -0.084 Cl
HETATM   26  C16 UNL     1       1.790  50.243 -14.177  1.00  0.00     0.032 A 
ENDBRANCH  19  20
ENDBRANCH  16  19
ENDBRANCH   7  13
BRANCH   1  27
HETATM   27  C4  UNL     1      -0.077  52.663 -25.521  1.00  0.00    -0.004 A 
HETATM   28  C3  UNL     1      -0.910  51.584 -25.211  1.00  0.00     0.038 A 
HETATM   29  C2  UNL     1      -1.437  50.818 -26.244  1.00  0.00     0.005 A 
HETATM   30  C1  UNL     1      -2.330  49.653 -25.936  1.00  0.00     0.068 C 
HETATM   31  N6  UNL     1      -1.180  51.077 -27.546  1.00  0.00    -0.369 N 
HETATM   32  C20 UNL     1      -0.388  52.134 -27.825  1.00  0.00     0.089 A 
ATOM     33  H6  UNL     1      -1.568  50.496 -28.289  1.00  0.00     0.165 HD
HETATM   34  C19 UNL     1       0.180  52.948 -26.862  1.00  0.00     0.031 A 
ENDBRANCH   1  27
TORSDOF 4
ENDMDL
