MODEL 1
REMARK minimizedAffinity -8.6438055
REMARK  8 active torsions:
REMARK  status: ('A' for Active; 'I' for Inactive)
REMARK    1  A    between atoms: O1_2  and  C2_3 
REMARK    2  A    between atoms: C2_3  and  C3_4 
REMARK    3  A    between atoms: C3_4  and  N1_5 
REMARK    4  A    between atoms: C3_4  and  C17_29 
REMARK       I    between atoms: N1_5  and  C4_6 
REMARK       I    between atoms: C4_6  and  N2_8 
REMARK    5  A    between atoms: N2_8  and  C5_9 
REMARK    6  A    between atoms: C8_15  and  O3_16 
REMARK    7  A    between atoms: O3_16  and  C9_17 
REMARK    8  A    between atoms: C9_17  and  C10_18 
ROOT
HETATM    1  C5  UNL     1      -0.021  52.418 -22.613  1.00  0.00     0.111 A 
HETATM    2  C6  UNL     1       0.552  53.322 -23.503  1.00  0.00     0.080 A 
HETATM    3  C7  UNL     1       0.314  53.056 -24.851  1.00  0.00     0.067 A 
HETATM    4  N3  UNL     1       0.693  53.706 -25.997  1.00  0.00    -0.298 N 
HETATM    5  N4  UNL     1       0.255  53.118 -27.127  1.00  0.00    -0.279 N 
ATOM      6  H4  UNL     1       0.419  53.402 -28.093  1.00  0.00     0.189 HD
HETATM    7  C8  UNL     1      -0.443  52.075 -26.678  1.00  0.00     0.171 A 
HETATM    8  C15 UNL     1      -0.436  51.967 -25.275  1.00  0.00     0.060 A 
HETATM    9  C16 UNL     1      -0.975  51.113 -24.317  1.00  0.00     0.108 A 
HETATM   10  N6  UNL     1      -0.765  51.353 -22.995  1.00  0.00    -0.351 N 
ATOM     11  H6  UNL     1      -1.168  50.732 -22.292  1.00  0.00     0.166 HD
HETATM   12  H10 UNL     1       1.257  54.547 -26.077  1.00  0.00     0.187 HD
ENDROOT
BRANCH   1  13
HETATM   13  N2  UNL     1       0.112  52.513 -21.227  1.00  0.00    -0.295 N 
HETATM   14  C4  UNL     1       0.120  51.509 -20.299  1.00  0.00     0.322 C 
HETATM   15  N1  UNL     1       0.215  52.014 -19.021  1.00  0.00    -0.332 N 
HETATM   16  O2  UNL     1       0.049  50.306 -20.523  1.00  0.00    -0.247 OA
HETATM   17  H7  UNL     1      -0.209  52.924 -18.882  1.00  0.00     0.165 HD
HETATM   18  H8  UNL     1       0.261  53.459 -20.915  1.00  0.00     0.172 HD
BRANCH  15  19
HETATM   19  C3  UNL     1       0.058  51.132 -17.869  1.00  0.00     0.143 C 
BRANCH  19  20
HETATM   20  C2  UNL     1      -1.397  51.165 -17.327  1.00  0.00     0.197 C 
BRANCH  20  21
HETATM   21  O1  UNL     1      -2.283  51.825 -18.245  1.00  0.00    -0.394 OA
HETATM   22  C1  UNL     1      -3.238  50.942 -18.820  1.00  0.00     0.201 C 
ENDBRANCH  20  21
ENDBRANCH  19  20
BRANCH  19  23
HETATM   23  C17 UNL     1       1.145  51.457 -16.855  1.00  0.00    -0.033 A 
HETATM   24  C18 UNL     1       2.149  52.413 -17.087  1.00  0.00     0.009 A 
HETATM   25  C19 UNL     1       3.144  52.652 -16.133  1.00  0.00     0.001 A 
HETATM   26  C20 UNL     1       3.155  51.935 -14.938  1.00  0.00     0.000 A 
HETATM   27  C21 UNL     1       2.176  50.976 -14.695  1.00  0.00     0.001 A 
HETATM   28  C22 UNL     1       1.182  50.735 -15.649  1.00  0.00     0.009 A 
ENDBRANCH  19  23
ENDBRANCH  15  19
ENDBRANCH   1  13
BRANCH   7  29
HETATM   29  O3  UNL     1      -1.049  51.218 -27.530  1.00  0.00    -0.328 OA
BRANCH  29  30
HETATM   30  C9  UNL     1      -2.467  51.389 -27.652  1.00  0.00     0.234 C 
BRANCH  30  31
HETATM   31  C10 UNL     1      -3.275  50.342 -26.908  1.00  0.00     0.033 A 
HETATM   32  C11 UNL     1      -3.464  49.066 -27.441  1.00  0.00     0.027 A 
HETATM   33  C12 UNL     1      -4.229  48.143 -26.733  1.00  0.00     0.003 A 
HETATM   34  C13 UNL     1      -4.794  48.515 -25.520  1.00  0.00     0.017 A 
HETATM   35  C14 UNL     1      -4.580  49.807 -25.069  1.00  0.00     0.088 A 
HETATM   36  N5  UNL     1      -3.847  50.725 -25.736  1.00  0.00    -0.367 N 
ATOM     37  H5  UNL     1      -3.727  51.670 -25.373  1.00  0.00     0.165 HD
ENDBRANCH  30  31
ENDBRANCH  29  30
ENDBRANCH   7  29
TORSDOF 8
ENDMDL
