MODEL 1
REMARK minimizedAffinity -10.5071278
REMARK  5 active torsions:
REMARK  status: ('A' for Active; 'I' for Inactive)
REMARK    1  A    between atoms: N1_1  and  C1_2 
REMARK    2  A    between atoms: C9_15  and  C10_16 
REMARK    3  A    between atoms: C13_19  and  O1_20 
REMARK    4  A    between atoms: O1_20  and  C14_21 
REMARK    5  A    between atoms: C14_21  and  C15_22 
ROOT
HETATM    1  C1  UNL     1      -0.098  53.750 -25.069  1.00  0.00     0.146 C 
HETATM    2  N2  UNL     1       0.695  53.209 -24.204  1.00  0.00    -0.171 N 
ATOM      3  H2  UNL     1       1.696  53.404 -24.204  1.00  0.00     0.186 HD
HETATM    4  C2  UNL     1       0.132  52.370 -23.297  1.00  0.00     0.689 A 
HETATM    5  N3  UNL     1       0.694  51.796 -22.251  1.00  0.00    -0.189 N 
ATOM      6  H3  UNL     1       1.666  51.881 -21.955  1.00  0.00     0.184 HD
HETATM    7  C3  UNL     1      -0.293  51.061 -21.640  1.00  0.00     0.079 A 
HETATM    8  C4  UNL     1      -0.224  50.263 -20.490  1.00  0.00     0.072 A 
HETATM    9  C5  UNL     1      -1.390  49.634 -20.039  1.00  0.00     0.104 A 
HETATM   10  C6  UNL     1      -2.596  49.774 -20.736  1.00  0.00     0.104 A 
HETATM   11  C7  UNL     1      -2.671  50.533 -21.910  1.00  0.00     0.072 A 
HETATM   12  C8  UNL     1      -1.500  51.175 -22.324  1.00  0.00     0.084 A 
HETATM   13  N4  UNL     1      -1.186  51.982 -23.383  1.00  0.00    -0.159 N 
HETATM   14  C9  UNL     1      -2.041  52.477 -24.448  1.00  0.00     0.221 C 
HETATM   15  N7  UNL     1      -1.441  53.581 -25.186  1.00  0.00    -0.242 NA
HETATM   16  O2  UNL     1      -3.741  49.112 -20.376  1.00  0.00    -0.348 OA
HETATM   17  C24 UNL     1      -4.208  49.510 -19.087  1.00  0.00     0.178 C 
HETATM   18  C25 UNL     1      -3.488  48.776 -17.967  1.00  0.00     0.053 C 
HETATM   19  C26 UNL     1      -2.046  49.243 -17.847  1.00  0.00     0.178 C 
HETATM   20  O3  UNL     1      -1.253  48.810 -18.953  1.00  0.00    -0.348 OA
HETATM   21  H17 UNL     1      -1.768  53.648 -26.143  1.00  0.00     0.132 HD
ENDROOT
BRANCH  14  22
HETATM   22  C10 UNL     1      -2.437  51.377 -25.422  1.00  0.00    -0.020 A 
HETATM   23  C11 UNL     1      -2.628  50.064 -24.959  1.00  0.00     0.013 A 
HETATM   24  C12 UNL     1      -3.031  49.044 -25.829  1.00  0.00     0.037 A 
HETATM   25  C13 UNL     1      -3.255  49.317 -27.177  1.00  0.00     0.069 A 
HETATM   26  C22 UNL     1      -3.077  50.620 -27.643  1.00  0.00     0.037 A 
HETATM   27  C23 UNL     1      -2.678  51.643 -26.779  1.00  0.00     0.013 A 
BRANCH  25  28
HETATM   28  O1  UNL     1      -3.660  48.425 -28.131  1.00  0.00    -0.345 OA
BRANCH  28  29
HETATM   29  C14 UNL     1      -5.011  47.945 -28.083  1.00  0.00     0.234 C 
BRANCH  29  30
HETATM   30  C15 UNL     1      -5.658  47.860 -29.427  1.00  0.00     0.051 A 
HETATM   31  C16 UNL     1      -5.161  47.314 -30.595  1.00  0.00     0.125 A 
HETATM   32  N5  UNL     1      -6.136  47.496 -31.538  1.00  0.00    -0.317 N 
HETATM   33  C17 UNL     1      -6.149  47.136 -32.884  1.00  0.00     0.098 A 
HETATM   34  C21 UNL     1      -7.193  48.140 -30.903  1.00  0.00     0.111 A 
HETATM   35  C18 UNL     1      -7.235  47.417 -33.625  1.00  0.00     0.018 A 
HETATM   36  C19 UNL     1      -8.364  48.086 -32.995  1.00  0.00     0.005 A 
HETATM   37  C20 UNL     1      -8.342  48.431 -31.692  1.00  0.00     0.049 A 
HETATM   38  N6  UNL     1      -6.925  48.369 -29.635  1.00  0.00    -0.343 N 
ATOM     39  H6  UNL     1      -7.526  48.828 -28.950  1.00  0.00     0.167 HD
ENDBRANCH  29  30
ENDBRANCH  28  29
ENDBRANCH  25  28
ENDBRANCH  14  22
BRANCH   1  40
HETATM   40  N1  UNL     1       0.368  54.606 -26.008  1.00  0.00    -0.278 NA
HETATM   41  H1  UNL     1       1.345  54.820 -25.822  1.00  0.00     0.126 HD
HETATM   42  H2  UNL     1      -0.171  55.462 -26.061  1.00  0.00     0.126 HD
ENDBRANCH   1  40
TORSDOF 5
ENDMDL
