MODEL 1
REMARK minimizedAffinity -10.4281025
REMARK  4 active torsions:
REMARK  status: ('A' for Active; 'I' for Inactive)
REMARK    1  A    between atoms: C4_4  and  C5_5 
REMARK    2  A    between atoms: C8_11  and  N3_12 
REMARK       I    between atoms: N3_12  and  C9_13 
REMARK       I    between atoms: C9_13  and  N4_15 
REMARK    3  A    between atoms: N4_15  and  C10_16 
REMARK    4  A    between atoms: C10_16  and  C11_17 
ROOT
HETATM    1  C5  UNL     1       0.659  53.125 -23.565  1.00  0.00     0.072 A 
HETATM    2  N1  UNL     1       1.277  54.291 -23.828  1.00  0.00    -0.299 N 
ATOM      3  H1  UNL     1       1.462  54.708 -24.740  1.00  0.00     0.187 HD
HETATM    4  N2  UNL     1       1.596  54.783 -22.622  1.00  0.00    -0.299 N 
HETATM    5  C6  UNL     1       1.246  53.975 -21.579  1.00  0.00     0.065 A 
HETATM    6  C7  UNL     1       1.420  54.109 -20.202  1.00  0.00     0.080 A 
HETATM    7  C8  UNL     1       0.946  53.050 -19.440  1.00  0.00     0.111 A 
HETATM    8  N7  UNL     1       0.346  51.958 -19.970  1.00  0.00    -0.351 N 
ATOM      9  H7  UNL     1       0.008  51.215 -19.358  1.00  0.00     0.166 HD
HETATM   10  C19 UNL     1       0.194  51.852 -21.316  1.00  0.00     0.105 A 
HETATM   11  C20 UNL     1       0.635  52.872 -22.158  1.00  0.00     0.036 A 
HETATM   12  H5  UNL     1       2.067  55.679 -22.576  1.00  0.00     0.187 HD
ENDROOT
BRANCH   7  13
HETATM   13  N3  UNL     1       1.043  52.998 -18.049  1.00  0.00    -0.295 N 
HETATM   14  C9  UNL     1       0.802  51.938 -17.219  1.00  0.00     0.322 C 
HETATM   15  O1  UNL     1       0.445  50.815 -17.553  1.00  0.00    -0.247 OA
HETATM   16  N4  UNL     1       0.981  52.288 -15.902  1.00  0.00    -0.337 N 
HETATM   17  H8  UNL     1       1.692  52.982 -15.709  1.00  0.00     0.164 HD
HETATM   18  H7  UNL     1       1.187  53.904 -17.633  1.00  0.00     0.172 HD
BRANCH  16  19
HETATM   19  C10 UNL     1       0.838  51.289 -14.868  1.00  0.00     0.182 C 
BRANCH  19  20
HETATM   20  C11 UNL     1       0.169  51.936 -13.706  1.00  0.00     0.044 A 
HETATM   21  C12 UNL     1      -1.123  51.775 -13.248  1.00  0.00     0.124 A 
HETATM   22  N5  UNL     1      -1.248  52.630 -12.182  1.00  0.00    -0.317 N 
HETATM   23  C13 UNL     1      -2.350  52.870 -11.372  1.00  0.00     0.098 A 
HETATM   24  C18 UNL     1      -0.023  53.272 -12.029  1.00  0.00     0.117 A 
HETATM   25  C14 UNL     1      -2.243  53.763 -10.376  1.00  0.00     0.018 A 
HETATM   26  C15 UNL     1      -0.972  54.439 -10.171  1.00  0.00     0.012 A 
HETATM   27  C16 UNL     1       0.112  54.219 -10.954  1.00  0.00    -0.017 A 
HETATM   28  C17 UNL     1       1.400  54.946 -10.681  1.00  0.00     0.052 C 
HETATM   29  N6  UNL     1       0.841  52.882 -12.947  1.00  0.00    -0.343 N 
ATOM     30  H6  UNL     1       1.799  53.207 -13.071  1.00  0.00     0.167 HD
ENDBRANCH  19  20
ENDBRANCH  16  19
ENDBRANCH   7  13
BRANCH   1  31
HETATM   31  C4  UNL     1       0.146  52.296 -24.655  1.00  0.00    -0.004 A 
HETATM   32  C3  UNL     1       0.715  52.339 -25.931  1.00  0.00     0.038 A 
HETATM   33  C2  UNL     1       0.173  51.545 -26.938  1.00  0.00     0.005 A 
HETATM   34  C1  UNL     1       0.736  51.597 -28.328  1.00  0.00     0.068 C 
HETATM   35  N8  UNL     1      -0.876  50.718 -26.728  1.00  0.00    -0.369 N 
HETATM   36  C22 UNL     1      -1.397  50.674 -25.483  1.00  0.00     0.089 A 
ATOM     37  H8  UNL     1      -1.260  50.148 -27.482  1.00  0.00     0.165 HD
HETATM   38  C21 UNL     1      -0.928  51.434 -24.429  1.00  0.00     0.031 A 
ENDBRANCH   1  31
TORSDOF 4
ENDMDL
