MODEL 1
REMARK minimizedAffinity -9.38983536
REMARK  5 active torsions:
REMARK  status: ('A' for Active; 'I' for Inactive)
REMARK    1  A    between atoms: C2_2  and  N1_3 
REMARK    2  A    between atoms: C2_2  and  C17_27 
REMARK       I    between atoms: N1_3  and  C3_4 
REMARK       I    between atoms: C3_4  and  N2_6 
REMARK    3  A    between atoms: N2_6  and  C4_7 
REMARK    4  A    between atoms: C7_13  and  N5_14 
REMARK       I    between atoms: N5_14  and  C8_15 
REMARK    5  A    between atoms: C8_15  and  C9_17 
ROOT
HETATM    1  C4  UNL     1       0.777  52.825 -19.109  1.00  0.00     0.111 A 
HETATM    2  C5  UNL     1       1.195  53.704 -20.095  1.00  0.00     0.080 A 
HETATM    3  C6  UNL     1       0.864  53.338 -21.400  1.00  0.00     0.067 A 
HETATM    4  N3  UNL     1       1.123  53.949 -22.593  1.00  0.00    -0.298 N 
HETATM    5  N4  UNL     1       0.656  53.286 -23.658  1.00  0.00    -0.284 N 
ATOM      6  H4  UNL     1       0.745  53.541 -24.642  1.00  0.00     0.188 HD
HETATM    7  C7  UNL     1       0.048  52.211 -23.140  1.00  0.00     0.136 A 
HETATM    8  C15 UNL     1       0.155  52.181 -21.716  1.00  0.00     0.053 A 
HETATM    9  C16 UNL     1      -0.222  51.356 -20.653  1.00  0.00     0.107 A 
HETATM   10  N6  UNL     1       0.099  51.687 -19.369  1.00  0.00    -0.351 N 
ATOM     11  H6  UNL     1      -0.173  51.071 -18.603  1.00  0.00     0.166 HD
HETATM   12  H8  UNL     1       1.621  54.818 -22.744  1.00  0.00     0.187 HD
ENDROOT
BRANCH   1  13
HETATM   13  N2  UNL     1       1.035  53.010 -17.749  1.00  0.00    -0.295 N 
HETATM   14  C3  UNL     1       1.089  52.070 -16.758  1.00  0.00     0.322 C 
HETATM   15  N1  UNL     1       1.324  52.645 -15.533  1.00  0.00    -0.335 N 
HETATM   16  O1  UNL     1       0.978  50.859 -16.904  1.00  0.00    -0.247 OA
HETATM   17  H5  UNL     1       1.157  53.635 -15.433  1.00  0.00     0.165 HD
HETATM   18  H6  UNL     1       1.297  53.958 -17.535  1.00  0.00     0.172 HD
BRANCH  15  19
HETATM   19  C2  UNL     1       1.376  51.865 -14.308  1.00  0.00     0.115 C 
HETATM   20  C1  UNL     1       1.736  50.406 -14.605  1.00  0.00     0.037 C 
BRANCH  19  21
HETATM   21  C17 UNL     1       0.064  52.042 -13.560  1.00  0.00    -0.036 A 
HETATM   22  C18 UNL     1      -1.091  51.403 -14.057  1.00  0.00     0.009 A 
HETATM   23  C19 UNL     1      -2.316  51.520 -13.395  1.00  0.00     0.001 A 
HETATM   24  C20 UNL     1      -2.400  52.267 -12.217  1.00  0.00     0.000 A 
HETATM   25  C21 UNL     1      -1.260  52.892 -11.699  1.00  0.00     0.001 A 
HETATM   26  C22 UNL     1      -0.037  52.777 -12.362  1.00  0.00     0.009 A 
ENDBRANCH  19  21
ENDBRANCH  15  19
ENDBRANCH   1  13
BRANCH   7  27
HETATM   27  N5  UNL     1      -0.535  51.376 -24.063  1.00  0.00    -0.311 N 
HETATM   28  C8  UNL     1      -1.146  51.708 -25.245  1.00  0.00     0.227 C 
HETATM   29  O2  UNL     1      -1.329  52.840 -25.671  1.00  0.00    -0.273 OA
HETATM   30  H9  UNL     1      -0.398  50.405 -23.823  1.00  0.00     0.170 HD
BRANCH  28  31
HETATM   31  C9  UNL     1      -1.684  50.480 -25.986  1.00  0.00     0.078 C 
HETATM   32  C10 UNL     1      -2.688  49.762 -25.076  1.00  0.00     0.014 C 
HETATM   33  C11 UNL     1      -3.246  48.488 -25.710  1.00  0.00     0.001 C 
HETATM   34  C12 UNL     1      -3.298  48.540 -27.240  1.00  0.00     0.000 C 
HETATM   35  C13 UNL     1      -3.483  49.963 -27.749  1.00  0.00     0.001 C 
HETATM   36  C14 UNL     1      -2.307  50.860 -27.346  1.00  0.00     0.014 C 
ENDBRANCH  28  31
ENDBRANCH   7  27
TORSDOF 5
ENDMDL
