MODEL 1
REMARK minimizedAffinity -9.88256073
REMARK  3 active torsions:
REMARK  status: ('A' for Active; 'I' for Inactive)
REMARK    1  A    between atoms: C4_4  and  C5_5 
REMARK    2  A    between atoms: C8_11  and  N3_12 
REMARK       I    between atoms: N3_12  and  C9_13 
REMARK       I    between atoms: C9_13  and  N4_15 
REMARK    3  A    between atoms: N4_15  and  C10_16 
ROOT
HETATM    1  C5  UNL     1      -0.341  52.906 -24.784  1.00  0.00     0.072 A 
HETATM    2  N1  UNL     1       0.321  53.925 -25.358  1.00  0.00    -0.299 N 
ATOM      3  H1  UNL     1       0.271  54.234 -26.329  1.00  0.00     0.187 HD
HETATM    4  N2  UNL     1       1.062  54.443 -24.367  1.00  0.00    -0.299 N 
HETATM    5  C6  UNL     1       0.894  53.825 -23.162  1.00  0.00     0.065 A 
HETATM    6  C7  UNL     1       1.458  54.062 -21.909  1.00  0.00     0.080 A 
HETATM    7  C8  UNL     1       1.021  53.221 -20.894  1.00  0.00     0.111 A 
HETATM    8  N6  UNL     1       0.117  52.232 -21.080  1.00  0.00    -0.351 N 
ATOM      9  H6  UNL     1      -0.162  51.641 -20.295  1.00  0.00     0.166 HD
HETATM   10  C19 UNL     1      -0.421  52.024 -22.311  1.00  0.00     0.105 A 
HETATM   11  C20 UNL     1      -0.030  52.815 -23.393  1.00  0.00     0.036 A 
HETATM   12  H5  UNL     1       1.663  55.232 -24.579  1.00  0.00     0.187 HD
ENDROOT
BRANCH   7  13
HETATM   13  N3  UNL     1       1.474  53.300 -19.576  1.00  0.00    -0.295 N 
HETATM   14  C9  UNL     1       1.054  52.585 -18.488  1.00  0.00     0.322 C 
HETATM   15  O1  UNL     1       0.209  51.700 -18.481  1.00  0.00    -0.247 OA
HETATM   16  N4  UNL     1       1.724  52.973 -17.348  1.00  0.00    -0.334 N 
HETATM   17  H8  UNL     1       2.095  53.912 -17.342  1.00  0.00     0.165 HD
HETATM   18  H7  UNL     1       2.283  53.893 -19.485  1.00  0.00     0.172 HD
BRANCH  16  19
HETATM   19  C10 UNL     1       1.389  52.405 -16.049  1.00  0.00     0.121 C 
HETATM   20  C11 UNL     1       2.672  52.229 -15.215  1.00  0.00     0.030 C 
HETATM   21  C12 UNL     1       2.418  51.363 -13.988  1.00  0.00     0.007 C 
HETATM   22  C13 UNL     1       1.997  49.959 -14.413  1.00  0.00     0.039 C 
HETATM   23  C14 UNL     1       0.888  49.974 -15.433  1.00  0.00    -0.047 A 
HETATM   24  C15 UNL     1       0.128  48.818 -15.635  1.00  0.00     0.024 A 
HETATM   25  C18 UNL     1       0.621  51.111 -16.213  1.00  0.00    -0.014 A 
HETATM   26  C16 UNL     1      -0.889  48.843 -16.575  1.00  0.00     0.088 A 
HETATM   27  N5  UNL     1      -1.197  49.926 -17.314  1.00  0.00    -0.375 N 
HETATM   28  C17 UNL     1      -0.446  51.031 -17.109  1.00  0.00     0.097 A 
ATOM     29  H5  UNL     1      -1.958  49.913 -17.993  1.00  0.00     0.164 HD
ENDBRANCH  16  19
ENDBRANCH   7  13
BRANCH   1  30
HETATM   30  C4  UNL     1      -1.249  52.072 -25.570  1.00  0.00    -0.004 A 
HETATM   31  C3  UNL     1      -1.605  50.789 -25.145  1.00  0.00     0.038 A 
HETATM   32  C2  UNL     1      -2.476  50.038 -25.928  1.00  0.00     0.005 A 
HETATM   33  C1  UNL     1      -2.870  48.656 -25.500  1.00  0.00     0.068 C 
HETATM   34  N7  UNL     1      -2.994  50.497 -27.090  1.00  0.00    -0.369 N 
HETATM   35  C22 UNL     1      -2.622  51.732 -27.491  1.00  0.00     0.089 A 
ATOM     36  H7  UNL     1      -3.641  49.933 -27.642  1.00  0.00     0.165 HD
HETATM   37  C21 UNL     1      -1.763  52.546 -26.777  1.00  0.00     0.031 A 
ENDBRANCH   1  30
TORSDOF 3
ENDMDL
