MODEL 1
REMARK minimizedAffinity -8.82996559
REMARK  8 active torsions:
REMARK  status: ('A' for Active; 'I' for Inactive)
REMARK    1  A    between atoms: O1_2  and  C2_3 
REMARK    2  A    between atoms: C2_3  and  C3_4 
REMARK    3  A    between atoms: C3_4  and  N1_5 
REMARK    4  A    between atoms: C3_4  and  C18_28 
REMARK       I    between atoms: N1_5  and  C4_6 
REMARK       I    between atoms: C4_6  and  N2_8 
REMARK    5  A    between atoms: N2_8  and  C5_9 
REMARK    6  A    between atoms: C8_15  and  O3_16 
REMARK    7  A    between atoms: O3_16  and  C9_17 
REMARK    8  A    between atoms: C9_17  and  C10_18 
ROOT
HETATM    1  C5  UNL     1      -1.262  49.577 -21.202  1.00  0.00     0.111 A 
HETATM    2  C6  UNL     1      -1.879  48.523 -20.538  1.00  0.00     0.080 A 
HETATM    3  C7  UNL     1      -1.635  48.462 -19.166  1.00  0.00     0.067 A 
HETATM    4  N3  UNL     1      -2.055  47.592 -18.195  1.00  0.00    -0.298 N 
HETATM    5  N4  UNL     1      -1.593  47.880 -16.963  1.00  0.00    -0.279 N 
ATOM      6  H4  UNL     1      -1.766  47.384 -16.088  1.00  0.00     0.189 HD
HETATM    7  C8  UNL     1      -0.851  48.972 -17.166  1.00  0.00     0.171 A 
HETATM    8  C16 UNL     1      -0.835  49.389 -18.511  1.00  0.00     0.060 A 
HETATM    9  C17 UNL     1      -0.257  50.416 -19.250  1.00  0.00     0.108 A 
HETATM   10  N5  UNL     1      -0.481  50.498 -20.590  1.00  0.00    -0.351 N 
ATOM     11  H5  UNL     1      -0.061  51.254 -21.132  1.00  0.00     0.166 HD
HETATM   12  H10 UNL     1      -2.657  46.784 -18.308  1.00  0.00     0.187 HD
ENDROOT
BRANCH   1  13
HETATM   13  N2  UNL     1      -1.394  49.805 -22.572  1.00  0.00    -0.295 N 
HETATM   14  C4  UNL     1      -1.375  50.998 -23.242  1.00  0.00     0.322 C 
HETATM   15  N1  UNL     1      -1.496  50.801 -24.602  1.00  0.00    -0.332 N 
HETATM   16  O2  UNL     1      -1.282  52.111 -22.741  1.00  0.00    -0.247 OA
HETATM   17  H7  UNL     1      -1.053  49.955 -24.928  1.00  0.00     0.165 HD
HETATM   18  H8  UNL     1      -1.652  48.973 -23.079  1.00  0.00     0.172 HD
BRANCH  15  19
HETATM   19  C3  UNL     1      -1.406  51.931 -25.529  1.00  0.00     0.143 C 
BRANCH  19  20
HETATM   20  C2  UNL     1      -2.622  52.032 -26.483  1.00  0.00     0.197 C 
BRANCH  20  21
HETATM   21  O1  UNL     1      -3.381  50.814 -26.442  1.00  0.00    -0.394 OA
HETATM   22  C1  UNL     1      -3.308  50.113 -27.675  1.00  0.00     0.201 C 
ENDBRANCH  20  21
ENDBRANCH  19  20
BRANCH  19  23
HETATM   23  C18 UNL     1      -0.099  51.827 -26.309  1.00  0.00    -0.033 A 
HETATM   24  C19 UNL     1       1.135  51.681 -25.654  1.00  0.00     0.009 A 
HETATM   25  C20 UNL     1       2.323  51.597 -26.383  1.00  0.00     0.001 A 
HETATM   26  C21 UNL     1       2.292  51.656 -27.774  1.00  0.00     0.000 A 
HETATM   27  C22 UNL     1       1.075  51.795 -28.439  1.00  0.00     0.001 A 
HETATM   28  C23 UNL     1      -0.113  51.880 -27.711  1.00  0.00     0.009 A 
ENDBRANCH  19  23
ENDBRANCH  15  19
ENDBRANCH   1  13
BRANCH   7  29
HETATM   29  O3  UNL     1      -0.202  49.581 -16.149  1.00  0.00    -0.330 OA
BRANCH  29  30
HETATM   30  C9  UNL     1      -0.221  51.005 -16.209  1.00  0.00     0.216 C 
BRANCH  30  31
HETATM   31  C10 UNL     1       1.190  51.493 -15.980  1.00  0.00    -0.034 A 
HETATM   32  C11 UNL     1       1.780  52.403 -16.869  1.00  0.00     0.009 A 
HETATM   33  C12 UNL     1       3.090  52.841 -16.668  1.00  0.00     0.001 A 
HETATM   34  C13 UNL     1       3.825  52.367 -15.583  1.00  0.00     0.000 A 
HETATM   35  C14 UNL     1       3.254  51.451 -14.701  1.00  0.00     0.001 A 
HETATM   36  C15 UNL     1       1.943  51.012 -14.900  1.00  0.00     0.009 A 
ENDBRANCH  30  31
ENDBRANCH  29  30
ENDBRANCH   7  29
TORSDOF 8
ENDMDL
