MODEL 1
REMARK minimizedAffinity -9.75761414
REMARK  4 active torsions:
REMARK  status: ('A' for Active; 'I' for Inactive)
REMARK    1  A    between atoms: C2_2  and  N1_3 
REMARK    2  A    between atoms: C2_2  and  C17_26 
REMARK       I    between atoms: N1_3  and  C3_4 
REMARK       I    between atoms: C3_4  and  N2_6 
REMARK    3  A    between atoms: N2_6  and  C4_7 
REMARK    4  A    between atoms: C7_13  and  C8_14 
ROOT
HETATM    1  C8  UNL     1       0.350  52.610 -22.772  1.00  0.00    -0.007 A 
HETATM    2  C9  UNL     1       1.063  53.659 -22.173  1.00  0.00     0.015 A 
HETATM    3  C10 UNL     1       1.245  53.690 -20.785  1.00  0.00     0.023 A 
HETATM    4  C11 UNL     1       0.723  52.670 -19.983  1.00  0.00     0.044 A 
HETATM    5  C12 UNL     1       0.912  52.702 -18.562  1.00  0.00     0.099 C 
HETATM    6  N5  UNL     1       1.065  52.733 -17.412  1.00  0.00    -0.191 NA
HETATM    7  C13 UNL     1       0.020  51.616 -20.574  1.00  0.00     0.023 A 
HETATM    8  C14 UNL     1      -0.160  51.586 -21.961  1.00  0.00     0.015 A 
ENDROOT
BRANCH   1   9
HETATM    9  C7  UNL     1       0.150  52.564 -24.221  1.00  0.00     0.072 A 
HETATM   10  N4  UNL     1       1.036  53.140 -25.051  1.00  0.00    -0.299 N 
HETATM   11  N3  UNL     1       0.536  52.926 -26.277  1.00  0.00    -0.299 N 
ATOM     12  H4  UNL     1       1.896  53.630 -24.805  1.00  0.00     0.187 HD
HETATM   13  C6  UNL     1      -0.628  52.212 -26.288  1.00  0.00     0.065 A 
HETATM   14  H8  UNL     1       1.044  53.290 -27.075  1.00  0.00     0.187 HD
HETATM   15  C5  UNL     1      -1.442  51.777 -27.333  1.00  0.00     0.080 A 
HETATM   16  C15 UNL     1      -0.908  51.946 -24.954  1.00  0.00     0.036 A 
HETATM   17  C4  UNL     1      -2.558  51.043 -26.949  1.00  0.00     0.111 A 
HETATM   18  N6  UNL     1      -2.859  50.759 -25.660  1.00  0.00    -0.351 N 
HETATM   19  C16 UNL     1      -2.047  51.193 -24.661  1.00  0.00     0.105 A 
ATOM     20  H6  UNL     1      -3.696  50.220 -25.439  1.00  0.00     0.166 HD
BRANCH  17  21
HETATM   21  N2  UNL     1      -3.490  50.529 -27.850  1.00  0.00    -0.295 N 
HETATM   22  C3  UNL     1      -3.928  49.238 -27.977  1.00  0.00     0.322 C 
HETATM   23  N1  UNL     1      -4.831  49.117 -29.009  1.00  0.00    -0.335 N 
HETATM   24  O1  UNL     1      -3.596  48.288 -27.282  1.00  0.00    -0.247 OA
HETATM   25  H5  UNL     1      -4.824  49.833 -29.719  1.00  0.00     0.165 HD
HETATM   26  H6  UNL     1      -3.952  51.252 -28.378  1.00  0.00     0.172 HD
BRANCH  23  27
HETATM   27  C2  UNL     1      -5.400  47.831 -29.377  1.00  0.00     0.115 C 
HETATM   28  C1  UNL     1      -5.365  47.619 -30.895  1.00  0.00     0.037 C 
BRANCH  27  29
HETATM   29  C17 UNL     1      -6.792  47.719 -28.780  1.00  0.00    -0.034 A 
HETATM   30  C18 UNL     1      -7.014  47.324 -27.450  1.00  0.00     0.009 A 
HETATM   31  C19 UNL     1      -8.312  47.205 -26.946  1.00  0.00     0.002 A 
HETATM   32  C20 UNL     1      -9.408  47.467 -27.766  1.00  0.00     0.024 A 
HETATM   33  C21 UNL     1      -9.202  47.843 -29.091  1.00  0.00     0.034 A 
HETATM   34 CL1  UNL     1     -10.553  48.156 -30.110  1.00  0.00    -0.084 Cl
HETATM   35  C22 UNL     1      -7.908  47.964 -29.599  1.00  0.00     0.033 A 
ENDBRANCH  27  29
ENDBRANCH  23  27
ENDBRANCH  17  21
ENDBRANCH   1   9
TORSDOF 4
ENDMDL
