MODEL 1
REMARK minimizedAffinity -9.78626537
REMARK  7 active torsions:
REMARK  status: ('A' for Active; 'I' for Inactive)
REMARK    1  A    between atoms: O1_2  and  C2_3 
REMARK    2  A    between atoms: C2_3  and  C3_4 
REMARK    3  A    between atoms: C3_4  and  N1_5 
REMARK    4  A    between atoms: C3_4  and  C19_32 
REMARK       I    between atoms: N1_5  and  C4_6 
REMARK       I    between atoms: C4_6  and  N2_8 
REMARK    5  A    between atoms: N2_8  and  C5_9 
REMARK    6  A    between atoms: C8_15  and  C9_16 
REMARK    7  A    between atoms: C12_19  and  N5_20 
ROOT
HETATM    1  C5  UNL     1       1.065  51.977 -15.856  1.00  0.00     0.111 A 
HETATM    2  C6  UNL     1       0.393  50.798 -16.148  1.00  0.00     0.080 A 
HETATM    3  C7  UNL     1       0.063  50.620 -17.491  1.00  0.00     0.065 A 
HETATM    4  N3  UNL     1      -0.569  49.601 -18.145  1.00  0.00    -0.299 N 
HETATM    5  N4  UNL     1      -0.698  49.795 -19.467  1.00  0.00    -0.299 N 
ATOM      6  H4  UNL     1      -1.124  49.169 -20.151  1.00  0.00     0.187 HD
HETATM    7  C8  UNL     1      -0.141  50.998 -19.687  1.00  0.00     0.072 A 
HETATM    8  C17 UNL     1       0.370  51.551 -18.473  1.00  0.00     0.036 A 
HETATM    9  C18 UNL     1       1.059  52.702 -18.090  1.00  0.00     0.105 A 
HETATM   10  N8  UNL     1       1.390  52.904 -16.787  1.00  0.00    -0.351 N 
ATOM     11  H8  UNL     1       1.883  53.753 -16.512  1.00  0.00     0.166 HD
HETATM   12  H10 UNL     1      -0.927  48.739 -17.748  1.00  0.00     0.187 HD
ENDROOT
BRANCH   1  13
HETATM   13  N2  UNL     1       1.478  52.333 -14.572  1.00  0.00    -0.295 N 
HETATM   14  C4  UNL     1       0.712  52.555 -13.460  1.00  0.00     0.322 C 
HETATM   15  N1  UNL     1       1.484  52.887 -12.373  1.00  0.00    -0.332 N 
HETATM   16  O2  UNL     1      -0.507  52.470 -13.391  1.00  0.00    -0.247 OA
HETATM   17  H7  UNL     1       2.433  53.190 -12.530  1.00  0.00     0.165 HD
HETATM   18  H8  UNL     1       2.481  52.354 -14.485  1.00  0.00     0.172 HD
BRANCH  15  19
HETATM   19  C3  UNL     1       0.894  53.193 -11.069  1.00  0.00     0.143 C 
BRANCH  19  20
HETATM   20  C2  UNL     1      -0.627  53.461 -11.207  1.00  0.00     0.197 C 
BRANCH  20  21
HETATM   21  O1  UNL     1      -1.195  53.845  -9.950  1.00  0.00    -0.394 OA
HETATM   22  C1  UNL     1      -2.359  53.090  -9.647  1.00  0.00     0.201 C 
ENDBRANCH  20  21
ENDBRANCH  19  20
BRANCH  19  23
HETATM   23  C19 UNL     1       1.726  54.305 -10.431  1.00  0.00    -0.033 A 
HETATM   24  C20 UNL     1       1.289  54.843  -9.201  1.00  0.00     0.012 A 
HETATM   25  C21 UNL     1       2.014  55.844  -8.554  1.00  0.00     0.043 A 
HETATM   26  C22 UNL     1       3.182  56.320  -9.131  1.00  0.00     0.116 A 
HETATM   27  F1  UNL     1       3.881  57.282  -8.514  1.00  0.00    -0.206 F 
HETATM   28  C23 UNL     1       3.636  55.813 -10.342  1.00  0.00     0.043 A 
HETATM   29  C24 UNL     1       2.913  54.807 -10.989  1.00  0.00     0.012 A 
ENDBRANCH  19  23
ENDBRANCH  15  19
ENDBRANCH   1  13
BRANCH   7  30
HETATM   30  C9  UNL     1      -0.105  51.567 -21.035  1.00  0.00    -0.007 A 
HETATM   31  C10 UNL     1       0.702  52.673 -21.332  1.00  0.00     0.016 A 
HETATM   32  C11 UNL     1       0.737  53.207 -22.627  1.00  0.00     0.032 A 
HETATM   33  C12 UNL     1      -0.048  52.641 -23.641  1.00  0.00     0.054 A 
HETATM   34  C15 UNL     1      -0.870  51.545 -23.344  1.00  0.00     0.032 A 
HETATM   35  C16 UNL     1      -0.898  51.016 -22.050  1.00  0.00     0.016 A 
BRANCH  33  36
HETATM   36  N5  UNL     1      -0.028  53.164 -24.960  1.00  0.00    -0.250 N 
HETATM   37  C13 UNL     1      -0.220  52.509 -26.155  1.00  0.00     0.132 A 
HETATM   38  C14 UNL     1      -0.110  53.486 -27.113  1.00  0.00     0.123 A 
HETATM   39  N6  UNL     1       0.143  54.681 -26.515  1.00  0.00    -0.294 N 
HETATM   40  N7  UNL     1       0.194  54.479 -25.205  1.00  0.00    -0.016 NA
ATOM     41  H6  UNL     1       0.271  55.575 -26.990  1.00  0.00     0.183 HD
ENDBRANCH  33  36
ENDBRANCH   7  30
TORSDOF 7
ENDMDL
