MODEL 1
REMARK minimizedAffinity -10.1654701
REMARK CNNscore 0.49239701
REMARK CNNaffinity 7.74178076
REMARK  9 active torsions:
REMARK  status: ('A' for Active; 'I' for Inactive)
REMARK    1  A    between atoms: C2_2  and  O1_3 
REMARK    2  A    between atoms: O1_3  and  C3_4 
REMARK    3  A    between atoms: C3_4  and  C4_5 
REMARK       I    between atoms: C4_5  and  N1_7 
REMARK    4  A    between atoms: N1_7  and  C5_8 
REMARK    5  A    between atoms: C9_15  and  C10_16 
REMARK    6  A    between atoms: N4_27  and  C20_28 
REMARK    7  A    between atoms: C20_28  and  C21_29 
REMARK       I    between atoms: C21_29  and  N5_31 
REMARK    8  A    between atoms: N6_34  and  C24_35 
REMARK    9  A    between atoms: C27_38  and  C28_39 
ROOT
HETATM    1  C3  UNL     1      -1.562  51.063 -26.387  1.00  0.00     0.169 C 
HETATM    2  C18 UNL     1      -2.617  51.650 -27.345  1.00  0.00     0.080 C 
HETATM    3  C19 UNL     1      -3.529  50.476 -27.668  1.00  0.00     0.276 C 
HETATM    4  N4  UNL     1      -3.578  49.753 -26.391  1.00  0.00     0.100 N 
HETATM    5  C36 UNL     1      -2.172  49.712 -25.943  1.00  0.00     0.321 C 
ENDROOT
BRANCH   1   6
HETATM    6  O1  UNL     1      -0.393  50.867 -27.195  1.00  0.00    -0.369 OA
BRANCH   6   7
HETATM    7  C2  UNL     1       0.526  51.960 -27.226  1.00  0.00     0.165 C 
HETATM    8  C1  UNL     1       0.139  52.864 -28.380  1.00  0.00     0.033 C 
ENDBRANCH   6   7
ENDBRANCH   1   6
BRANCH   1   9
HETATM    9  C4  UNL     1      -1.361  52.005 -25.153  1.00  0.00     0.259 C 
HETATM   10  O2  UNL     1      -2.095  52.977 -24.977  1.00  0.00    -0.270 OA
HETATM   11  N1  UNL     1      -0.309  51.639 -24.315  1.00  0.00    -0.325 N 
HETATM   12  H6  UNL     1       0.154  50.754 -24.517  1.00  0.00     0.169 HD
BRANCH  11  13
HETATM   13  C5  UNL     1       0.147  52.330 -23.171  1.00  0.00     0.035 A 
HETATM   14  C6  UNL     1       0.787  53.574 -23.229  1.00  0.00     0.032 A 
HETATM   15  C7  UNL     1       1.239  54.224 -22.073  1.00  0.00     0.034 A 
HETATM   16  C8  UNL     1       0.998  53.592 -20.852  1.00  0.00     0.060 A 
HETATM   17  N2  UNL     1       1.304  53.962 -19.576  1.00  0.00    -0.299 N 
HETATM   18  C16 UNL     1       0.350  52.366 -20.736  1.00  0.00     0.023 A 
HETATM   19  N3  UNL     1       0.908  53.093 -18.638  1.00  0.00    -0.299 N 
HETATM   20  H9  UNL     1       1.788  54.801 -19.279  1.00  0.00     0.187 HD
HETATM   21  C9  UNL     1       0.289  52.114 -19.325  1.00  0.00     0.070 A 
ATOM     22  H3  UNL     1       1.044  53.158 -17.630  1.00  0.00     0.187 HD
HETATM   23  C17 UNL     1      -0.054  51.710 -21.922  1.00  0.00     0.045 A 
BRANCH  21  24
HETATM   24  C10 UNL     1      -0.314  50.984 -18.607  1.00  0.00    -0.007 A 
HETATM   25  C11 UNL     1      -0.874  49.916 -19.333  1.00  0.00     0.017 A 
HETATM   26  C12 UNL     1      -1.438  48.819 -18.679  1.00  0.00     0.043 A 
HETATM   27  C13 UNL     1      -1.447  48.788 -17.293  1.00  0.00     0.116 A 
HETATM   28  F1  UNL     1      -1.983  47.735 -16.661  1.00  0.00    -0.206 F 
HETATM   29  C14 UNL     1      -0.899  49.827 -16.549  1.00  0.00     0.043 A 
HETATM   30  C15 UNL     1      -0.324  50.921 -17.206  1.00  0.00     0.017 A 
ENDBRANCH  21  24
ENDBRANCH  11  13
ENDBRANCH   1   9
BRANCH   4  31
HETATM   31  C20 UNL     1      -4.118  48.383 -26.543  1.00  0.00     0.374 C 
BRANCH  31  32
HETATM   32  C21 UNL     1      -4.725  48.125 -27.938  1.00  0.00     0.248 C 
HETATM   33  O3  UNL     1      -4.031  48.102 -28.958  1.00  0.00    -0.271 OA
HETATM   34  N5  UNL     1      -6.100  47.927 -27.997  1.00  0.00    -0.348 N 
HETATM   35  C22 UNL     1      -7.004  48.008 -26.842  1.00  0.00     0.145 C 
HETATM   36  C35 UNL     1      -6.730  47.562 -29.265  1.00  0.00     0.145 C 
HETATM   37  C23 UNL     1      -8.498  47.882 -27.196  1.00  0.00     0.143 C 
HETATM   38  N6  UNL     1      -8.736  46.696 -28.027  1.00  0.00    -0.378 N 
HETATM   39  C34 UNL     1      -7.740  46.413 -29.090  1.00  0.00     0.143 C 
BRANCH  38  40
HETATM   40  C24 UNL     1      -9.975  46.069 -28.071  1.00  0.00     0.030 A 
HETATM   41  C25 UNL     1     -10.705  45.758 -26.913  1.00  0.00     0.030 A 
HETATM   42  C26 UNL     1     -11.964  45.129 -26.966  1.00  0.00     0.017 A 
HETATM   43  C27 UNL     1     -12.559  44.767 -28.186  1.00  0.00     0.008 A 
HETATM   44  C32 UNL     1     -11.824  45.061 -29.346  1.00  0.00     0.017 A 
HETATM   45  C33 UNL     1     -10.566  45.688 -29.287  1.00  0.00     0.030 A 
BRANCH  43  46
HETATM   46  C28 UNL     1     -13.892  44.130 -28.246  1.00  0.00     0.115 A 
HETATM   47  N7  UNL     1     -14.941  44.897 -28.627  1.00  0.00    -0.352 N 
HETATM   48  C29 UNL     1     -16.151  44.310 -28.622  1.00  0.00     0.091 A 
ATOM     49  H7  UNL     1     -14.820  45.871 -28.905  1.00  0.00     0.166 HD
HETATM   50  C30 UNL     1     -16.354  43.000 -28.258  1.00  0.00     0.034 A 
HETATM   51  C31 UNL     1     -15.226  42.297 -27.904  1.00  0.00     0.091 A 
HETATM   52  N8  UNL     1     -13.992  42.831 -27.881  1.00  0.00    -0.352 N 
ATOM     53  H8  UNL     1     -13.175  42.287 -27.603  1.00  0.00     0.166 HD
ENDBRANCH  43  46
ENDBRANCH  38  40
ENDBRANCH  31  32
ENDBRANCH   4  31
TORSDOF 9
ENDMDL
