MODEL 1
REMARK minimizedAffinity -8.62266064
REMARK  6 active torsions:
REMARK  status: ('A' for Active; 'I' for Inactive)
REMARK    1  A    between atoms: O1_2  and  C2_3 
REMARK    2  A    between atoms: C2_3  and  C3_4 
REMARK    3  A    between atoms: C3_4  and  N1_5 
REMARK    4  A    between atoms: C3_4  and  C15_26 
REMARK       I    between atoms: N1_5  and  C4_6 
REMARK       I    between atoms: C4_6  and  N2_8 
REMARK    5  A    between atoms: N2_8  and  C5_9 
REMARK    6  A    between atoms: N5_16  and  C9_17 
ROOT
HETATM    1  C5  UNL     1       0.800  52.949 -19.673  1.00  0.00     0.111 A 
HETATM    2  C6  UNL     1       1.293  54.061 -20.344  1.00  0.00     0.080 A 
HETATM    3  C7  UNL     1       1.239  53.987 -21.735  1.00  0.00     0.067 A 
HETATM    4  N3  UNL     1       1.618  54.861 -22.713  1.00  0.00    -0.298 N 
HETATM    5  N4  UNL     1       1.398  54.418 -23.962  1.00  0.00    -0.284 N 
ATOM      6  H4  UNL     1       1.603  54.894 -24.840  1.00  0.00     0.188 HD
HETATM    7  C8  UNL     1       0.851  53.213 -23.791  1.00  0.00     0.130 A 
HETATM    8  N5  UNL     1       0.457  52.386 -24.787  1.00  0.00    -0.368 N 
HETATM    9  C13 UNL     1       0.727  52.888 -22.411  1.00  0.00     0.052 A 
HETATM   10  C14 UNL     1       0.244  51.819 -21.655  1.00  0.00     0.107 A 
HETATM   11  N6  UNL     1       0.288  51.862 -20.297  1.00  0.00    -0.351 N 
ATOM     12  H6  UNL     1      -0.065  51.077 -19.749  1.00  0.00     0.166 HD
HETATM   13  H10 UNL     1       2.036  55.777 -22.595  1.00  0.00     0.187 HD
HETATM   14  H11 UNL     1       0.314  51.404 -24.583  1.00  0.00     0.161 HD
ENDROOT
BRANCH   1  15
HETATM   15  N2  UNL     1       0.762  52.847 -18.282  1.00  0.00    -0.295 N 
HETATM   16  C4  UNL     1       0.465  51.751 -17.515  1.00  0.00     0.322 C 
HETATM   17  N1  UNL     1       0.607  52.037 -16.174  1.00  0.00    -0.332 N 
HETATM   18  O2  UNL     1       0.107  50.656 -17.930  1.00  0.00    -0.247 OA
HETATM   19  H7  UNL     1       1.270  52.761 -15.954  1.00  0.00     0.165 HD
HETATM   20  H8  UNL     1       0.851  53.741 -17.826  1.00  0.00     0.172 HD
BRANCH  17  21
HETATM   21  C3  UNL     1       0.437  50.992 -15.164  1.00  0.00     0.143 C 
BRANCH  21  22
HETATM   22  C2  UNL     1      -0.456  51.477 -13.998  1.00  0.00     0.197 C 
BRANCH  22  23
HETATM   23  O1  UNL     1      -0.038  52.779 -13.566  1.00  0.00    -0.394 OA
HETATM   24  C1  UNL     1      -0.068  52.898 -12.150  1.00  0.00     0.201 C 
ENDBRANCH  22  23
ENDBRANCH  21  22
BRANCH  21  25
HETATM   25  C15 UNL     1       1.805  50.521 -14.688  1.00  0.00    -0.033 A 
HETATM   26  C16 UNL     1       1.989  49.286 -14.044  1.00  0.00     0.009 A 
HETATM   27  C17 UNL     1       3.256  48.893 -13.607  1.00  0.00     0.001 A 
HETATM   28  C18 UNL     1       4.353  49.731 -13.795  1.00  0.00     0.000 A 
HETATM   29  C19 UNL     1       4.183  50.968 -14.412  1.00  0.00     0.001 A 
HETATM   30  C20 UNL     1       2.918  51.361 -14.852  1.00  0.00     0.009 A 
ENDBRANCH  21  25
ENDBRANCH  17  21
ENDBRANCH   1  15
BRANCH   8  31
HETATM   31  C9  UNL     1       0.826  52.671 -26.168  1.00  0.00     0.109 C 
HETATM   32  C10 UNL     1       0.945  51.407 -26.993  1.00  0.00     0.053 C 
HETATM   33  C11 UNL     1       0.679  51.920 -28.388  1.00  0.00     0.169 C 
HETATM   34  O3  UNL     1      -0.333  52.924 -28.256  1.00  0.00    -0.389 OA
HETATM   35  C12 UNL     1      -0.268  53.440 -26.914  1.00  0.00     0.192 C 
ENDBRANCH   8  31
TORSDOF 6
ENDMDL
