MODEL 1
REMARK minimizedAffinity -8.34484196
REMARK  4 active torsions:
REMARK  status: ('A' for Active; 'I' for Inactive)
REMARK    1  A    between atoms: C3_4  and  C4_5 
REMARK    2  A    between atoms: C9_12  and  N3_13 
REMARK       I    between atoms: N3_13  and  C10_14 
REMARK       I    between atoms: C10_14  and  N4_16 
REMARK    3  A    between atoms: N4_16  and  C11_17 
REMARK    4  A    between atoms: C11_17  and  C12_18 
ROOT
HETATM    1  C4  UNL     1      10.934  36.020  18.801  1.00  0.00    -0.005 A 
HETATM    2  C5  UNL     1      11.821  36.390  19.804  1.00  0.00     0.101 A 
HETATM    3  N2  UNL     1      13.157  36.523  19.629  1.00  0.00    -0.363 N 
ATOM      4  H2  UNL     1      13.769  36.796  20.398  1.00  0.00     0.165 HD
HETATM    5  C6  UNL     1      13.644  36.278  18.397  1.00  0.00     0.059 A 
HETATM    6  C7  UNL     1      15.000  36.395  18.153  1.00  0.00     0.035 A 
HETATM    7  C8  UNL     1      15.526  36.146  16.884  1.00  0.00     0.051 A 
HETATM    8  C9  UNL     1      14.661  35.774  15.870  1.00  0.00     0.109 A 
HETATM    9  N5  UNL     1      13.332  35.653  16.067  1.00  0.00    -0.341 N 
ATOM     10  H5  UNL     1      12.712  35.384  15.303  1.00  0.00     0.167 HD
HETATM   11  C18 UNL     1      12.843  35.898  17.302  1.00  0.00     0.061 A 
HETATM   12  C19 UNL     1      11.481  35.778  17.538  1.00  0.00     0.045 A 
ENDROOT
BRANCH   8  13
HETATM   13  N3  UNL     1      15.055  35.505  14.561  1.00  0.00    -0.295 N 
HETATM   14  C10 UNL     1      16.321  35.307  14.076  1.00  0.00     0.322 C 
HETATM   15  O1  UNL     1      17.351  35.285  14.736  1.00  0.00    -0.247 OA
HETATM   16  N4  UNL     1      16.303  35.104  12.713  1.00  0.00    -0.339 N 
HETATM   17  H9  UNL     1      15.535  35.522  12.212  1.00  0.00     0.164 HD
HETATM   18  H8  UNL     1      14.276  35.344  13.944  1.00  0.00     0.172 HD
BRANCH  16  19
HETATM   19  C11 UNL     1      17.533  34.962  11.965  1.00  0.00     0.162 C 
BRANCH  19  20
HETATM   20  C12 UNL     1      17.762  33.525  11.572  1.00  0.00    -0.040 A 
HETATM   21  C13 UNL     1      17.176  32.480  12.300  1.00  0.00     0.009 A 
HETATM   22  C14 UNL     1      17.374  31.153  11.916  1.00  0.00     0.001 A 
HETATM   23  C15 UNL     1      18.154  30.857  10.800  1.00  0.00     0.000 A 
HETATM   24  C16 UNL     1      18.735  31.888  10.064  1.00  0.00     0.001 A 
HETATM   25  C17 UNL     1      18.539  33.215  10.446  1.00  0.00     0.009 A 
ENDBRANCH  19  20
ENDBRANCH  16  19
ENDBRANCH   8  13
BRANCH   1  26
HETATM   26  C3  UNL     1       9.508  35.894  19.035  1.00  0.00     0.009 A 
HETATM   27  C2  UNL     1       8.921  35.078  19.982  1.00  0.00     0.123 A 
HETATM   28  N1  UNL     1       7.571  35.250  19.855  1.00  0.00    -0.307 N 
HETATM   29  C1  UNL     1       6.536  34.603  20.624  1.00  0.00     0.177 C 
HETATM   30  N6  UNL     1       7.232  36.122  18.891  1.00  0.00    -0.310 N 
HETATM   31  C20 UNL     1       8.408  36.510  18.392  1.00  0.00     0.121 A 
ATOM     32  H6  UNL     1       6.297  36.418  18.607  1.00  0.00     0.186 HD
ENDBRANCH   1  26
TORSDOF 4
ENDMDL
