MODEL 1
REMARK minimizedAffinity -8.2633419
REMARK  7 active torsions:
REMARK  status: ('A' for Active; 'I' for Inactive)
REMARK    1  A    between atoms: C2_2  and  C3_3 
REMARK       I    between atoms: C3_3  and  N1_5 
REMARK    2  A    between atoms: N1_5  and  C4_6 
REMARK    3  A    between atoms: C9_11  and  N2_12 
REMARK    4  A    between atoms: N2_12  and  C10_13 
REMARK    5  A    between atoms: C11_16  and  N4_17 
REMARK    6  A    between atoms: N4_17  and  C12_18 
REMARK    7  A    between atoms: C15_21  and  N5_22 
ROOT
HETATM    1  C10 UNL     1      -3.122  51.012 -22.523  1.00  0.00     0.110 A 
HETATM    2  N3  UNL     1      -2.877  51.690 -23.666  1.00  0.00    -0.322 N 
ATOM      3  H3  UNL     1      -1.939  52.026 -23.882  1.00  0.00     0.169 HD
HETATM    4  C11 UNL     1      -3.892  51.910 -24.510  1.00  0.00     0.158 A 
HETATM    5  N6  UNL     1      -5.145  51.501 -24.289  1.00  0.00    -0.341 N 
ATOM      6  H6  UNL     1      -5.901  51.713 -24.940  1.00  0.00     0.167 HD
HETATM    7  C20 UNL     1      -5.359  50.793 -23.162  1.00  0.00     0.117 A 
HETATM    8  C21 UNL     1      -4.382  50.508 -22.236  1.00  0.00     0.088 A 
HETATM    9 CL1  UNL     1      -4.765  49.519 -20.883  1.00  0.00    -0.079 Cl
ENDROOT
BRANCH   1  10
HETATM   10  N2  UNL     1      -2.008  50.828 -21.686  1.00  0.00    -0.242 NA
HETATM   11  H9  UNL     1      -1.687  49.859 -21.815  1.00  0.00     0.135 HD
BRANCH  10  12
HETATM   12  C9  UNL     1      -0.858  51.648 -21.527  1.00  0.00     0.041 A 
HETATM   13  C4  UNL     1      -0.292  51.863 -20.246  1.00  0.00     0.056 A 
HETATM   14  C5  UNL     1       0.738  52.809 -20.094  1.00  0.00     0.031 A 
HETATM   15  C6  UNL     1       1.261  53.487 -21.193  1.00  0.00     0.002 A 
HETATM   16  C7  UNL     1       0.754  53.236 -22.461  1.00  0.00     0.002 A 
HETATM   17  C8  UNL     1      -0.296  52.331 -22.623  1.00  0.00     0.026 A 
BRANCH  13  18
HETATM   18  N1  UNL     1      -0.700  51.223 -19.047  1.00  0.00    -0.322 N 
HETATM   19  C3  UNL     1      -1.902  51.359 -18.395  1.00  0.00     0.244 C 
HETATM   20  O1  UNL     1      -2.892  51.963 -18.796  1.00  0.00    -0.268 OA
HETATM   21  H4  UNL     1      -0.124  50.451 -18.745  1.00  0.00     0.169 HD
BRANCH  19  22
HETATM   22  C2  UNL     1      -2.008  50.576 -17.133  1.00  0.00     0.064 C 
HETATM   23  C1  UNL     1      -2.970  50.734 -16.214  1.00  0.00     0.017 C 
ENDBRANCH  19  22
ENDBRANCH  13  18
ENDBRANCH  10  12
ENDBRANCH   1  10
BRANCH   4  24
HETATM   24  N4  UNL     1      -3.564  52.612 -25.660  1.00  0.00    -0.259 NA
HETATM   25  H10 UNL     1      -4.446  52.980 -26.003  1.00  0.00     0.131 HD
BRANCH  24  26
HETATM   26  C12 UNL     1      -2.736  51.911 -26.637  1.00  0.00     0.063 C 
HETATM   27  C13 UNL     1      -1.818  52.930 -27.339  1.00  0.00     0.022 C 
HETATM   28  C14 UNL     1      -0.557  53.225 -26.529  1.00  0.00     0.037 C 
HETATM   29  C15 UNL     1       0.290  51.959 -26.253  1.00  0.00     0.222 C 
HETATM   30  C18 UNL     1      -0.514  50.660 -26.476  1.00  0.00     0.037 C 
HETATM   31  C19 UNL     1      -1.933  50.797 -25.934  1.00  0.00     0.022 C 
BRANCH  29  32
HETATM   32  N5  UNL     1       1.596  52.014 -26.943  1.00  0.00     0.084 N 
HETATM   33  C16 UNL     1       2.600  51.166 -26.300  1.00  0.00     0.309 C 
HETATM   34  C17 UNL     1       1.547  51.740 -28.377  1.00  0.00     0.309 C 
ENDBRANCH  29  32
ENDBRANCH  24  26
ENDBRANCH   4  24
TORSDOF 7
ENDMDL
