MODEL 1
REMARK minimizedAffinity -10.2955818
REMARK  6 active torsions:
REMARK  status: ('A' for Active; 'I' for Inactive)
REMARK    1  A    between atoms: O1_2  and  C2_3 
REMARK    2  A    between atoms: C7_9  and  C8_10 
REMARK    3  A    between atoms: C8_10  and  N1_11 
REMARK    4  A    between atoms: C12_15  and  N2_16 
REMARK       I    between atoms: N2_16  and  C13_17 
REMARK       I    between atoms: C13_17  and  N3_19 
REMARK    5  A    between atoms: N3_19  and  C14_20 
REMARK    6  A    between atoms: C17_26  and  C18_27 
ROOT
HETATM    1  N2  UNL     1       0.938  51.978 -16.081  1.00  0.00    -0.337 N 
HETATM    2  C13 UNL     1       0.702  51.754 -17.421  1.00  0.00     0.322 C 
HETATM    3  O2  UNL     1       0.256  50.695 -17.842  1.00  0.00    -0.247 OA
HETATM    4  N3  UNL     1       1.047  52.844 -18.171  1.00  0.00    -0.295 N 
HETATM    5  H16 UNL     1       0.924  52.943 -15.787  1.00  0.00     0.164 HD
HETATM    6  H17 UNL     1       1.495  53.625 -17.720  1.00  0.00     0.172 HD
ENDROOT
BRANCH   4   7
HETATM    7  C14 UNL     1       0.954  53.012 -19.553  1.00  0.00     0.111 A 
HETATM    8  C15 UNL     1       1.562  54.053 -20.245  1.00  0.00     0.080 A 
HETATM    9  C16 UNL     1       1.354  54.050 -21.624  1.00  0.00     0.065 A 
HETATM   10  N4  UNL     1       1.759  54.905 -22.608  1.00  0.00    -0.299 N 
HETATM   11  C24 UNL     1       0.612  53.073 -22.270  1.00  0.00     0.036 A 
HETATM   12  N5  UNL     1       1.337  54.567 -23.836  1.00  0.00    -0.299 N 
HETATM   13  H19 UNL     1       2.312  55.747 -22.504  1.00  0.00     0.187 HD
HETATM   14  C17 UNL     1       0.655  53.424 -23.654  1.00  0.00     0.072 A 
ATOM     15  H5  UNL     1       1.498  55.066 -24.712  1.00  0.00     0.187 HD
HETATM   16  C25 UNL     1       0.029  52.068 -21.495  1.00  0.00     0.105 A 
HETATM   17  N6  UNL     1       0.209  52.050 -20.148  1.00  0.00    -0.351 N 
ATOM     18  H6  UNL     1      -0.216  51.312 -19.585  1.00  0.00     0.166 HD
BRANCH  14  19
HETATM   19  C18 UNL     1       0.053  52.722 -24.785  1.00  0.00    -0.007 A 
HETATM   20  C19 UNL     1      -1.326  52.824 -25.021  1.00  0.00     0.017 A 
HETATM   21  C20 UNL     1      -1.914  52.152 -26.096  1.00  0.00     0.043 A 
HETATM   22  C21 UNL     1      -1.119  51.387 -26.940  1.00  0.00     0.116 A 
HETATM   23  F2  UNL     1      -1.679  50.746 -27.975  1.00  0.00    -0.206 F 
HETATM   24  C22 UNL     1       0.251  51.280 -26.730  1.00  0.00     0.043 A 
HETATM   25  C23 UNL     1       0.840  51.950 -25.654  1.00  0.00     0.017 A 
ENDBRANCH  14  19
ENDBRANCH   4   7
BRANCH   1  26
HETATM   26  C12 UNL     1       0.554  50.990 -15.077  1.00  0.00     0.114 C 
HETATM   27  C11 UNL     1       0.353  49.610 -15.725  1.00  0.00     0.029 C 
HETATM   28  C10 UNL     1      -0.582  48.712 -14.915  1.00  0.00     0.032 C 
HETATM   29  C9  UNL     1      -0.640  49.126 -13.445  1.00  0.00     0.273 C 
HETATM   30  N1  UNL     1      -1.165  50.491 -13.274  1.00  0.00     0.094 N 
HETATM   31  C26 UNL     1      -0.720  51.421 -14.326  1.00  0.00     0.297 C 
BRANCH  30  32
HETATM   32  C8  UNL     1      -0.872  51.024 -11.929  1.00  0.00     0.317 C 
BRANCH  32  33
HETATM   33  C7  UNL     1      -1.873  52.045 -11.441  1.00  0.00     0.042 A 
HETATM   34  C2  UNL     1      -1.478  53.293 -10.925  1.00  0.00     0.079 A 
HETATM   35  C3  UNL     1      -2.452  54.204 -10.495  1.00  0.00     0.037 A 
HETATM   36  C4  UNL     1      -3.810  53.890 -10.580  1.00  0.00     0.006 A 
HETATM   37  C5  UNL     1      -4.205  52.659 -11.086  1.00  0.00     0.043 A 
HETATM   38  C6  UNL     1      -3.241  51.752 -11.508  1.00  0.00     0.127 A 
HETATM   39  F1  UNL     1      -3.649  50.570 -11.990  1.00  0.00    -0.205 F 
BRANCH  34  40
HETATM   40  O1  UNL     1      -0.130  53.515 -10.850  1.00  0.00    -0.355 OA
HETATM   41  C1  UNL     1       0.298  54.831 -10.533  1.00  0.00     0.210 C 
ENDBRANCH  34  40
ENDBRANCH  32  33
ENDBRANCH  30  32
ENDBRANCH   1  26
TORSDOF 6
ENDMDL
