MODEL 1
REMARK minimizedAffinity -9.86859512
REMARK  5 active torsions:
REMARK  status: ('A' for Active; 'I' for Inactive)
REMARK    1  A    between atoms: C4_5  and  C5_6 
REMARK    2  A    between atoms: C8_9  and  C9_10 
REMARK    3  A    between atoms: C12_16  and  N3_17 
REMARK       I    between atoms: N3_17  and  C13_18 
REMARK       I    between atoms: C13_18  and  N4_20 
REMARK    4  A    between atoms: N4_20  and  C14_21 
REMARK    5  A    between atoms: C14_21  and  C16_23 
ROOT
HETATM    1  C9  UNL     1      -0.936  52.551 -24.614  1.00  0.00     0.073 A 
HETATM    2  N1  UNL     1      -0.506  53.571 -25.375  1.00  0.00    -0.299 N 
ATOM      3  H1  UNL     1       0.107  54.339 -25.100  1.00  0.00     0.187 HD
HETATM    4  N2  UNL     1      -1.061  53.354 -26.575  1.00  0.00    -0.299 N 
HETATM    5  C10 UNL     1      -1.814  52.218 -26.647  1.00  0.00     0.065 A 
HETATM    6  C11 UNL     1      -2.531  51.636 -27.692  1.00  0.00     0.080 A 
HETATM    7  C12 UNL     1      -3.173  50.437 -27.388  1.00  0.00     0.111 A 
HETATM    8  N5  UNL     1      -3.123  49.871 -26.168  1.00  0.00    -0.351 N 
ATOM      9  H5  UNL     1      -3.622  48.998 -25.997  1.00  0.00     0.166 HD
HETATM   10  C22 UNL     1      -2.416  50.449 -25.164  1.00  0.00     0.105 A 
HETATM   11  C23 UNL     1      -1.748  51.655 -25.378  1.00  0.00     0.036 A 
HETATM   12  H7  UNL     1      -0.876  54.024 -27.315  1.00  0.00     0.187 HD
ENDROOT
BRANCH   7  13
HETATM   13  N3  UNL     1      -3.918  49.843 -28.414  1.00  0.00    -0.295 N 
HETATM   14  C13 UNL     1      -4.757  48.762 -28.271  1.00  0.00     0.322 C 
HETATM   15  O1  UNL     1      -4.915  48.062 -27.283  1.00  0.00    -0.247 OA
HETATM   16  N4  UNL     1      -5.429  48.527 -29.462  1.00  0.00    -0.335 N 
HETATM   17  H10 UNL     1      -5.703  49.377 -29.932  1.00  0.00     0.165 HD
HETATM   18  H9  UNL     1      -3.707  50.110 -29.360  1.00  0.00     0.172 HD
BRANCH  16  19
HETATM   19  C14 UNL     1      -6.409  47.449 -29.541  1.00  0.00     0.115 C 
HETATM   20  C15 UNL     1      -6.681  46.819 -28.171  1.00  0.00     0.037 C 
BRANCH  19  21
HETATM   21  C16 UNL     1      -5.930  46.404 -30.538  1.00  0.00    -0.036 A 
HETATM   22  C17 UNL     1      -4.845  46.691 -31.385  1.00  0.00     0.012 A 
HETATM   23  C18 UNL     1      -4.386  45.739 -32.296  1.00  0.00     0.043 A 
HETATM   24  C19 UNL     1      -5.007  44.498 -32.363  1.00  0.00     0.116 A 
HETATM   25  F1  UNL     1      -4.563  43.584 -33.236  1.00  0.00    -0.206 F 
HETATM   26  C20 UNL     1      -6.076  44.189 -31.534  1.00  0.00     0.043 A 
HETATM   27  C21 UNL     1      -6.537  45.139 -30.621  1.00  0.00     0.012 A 
ENDBRANCH  19  21
ENDBRANCH  16  19
ENDBRANCH   7  13
BRANCH   1  28
HETATM   28  C8  UNL     1      -0.551  52.462 -23.209  1.00  0.00     0.008 A 
HETATM   29  C7  UNL     1       0.656  53.003 -22.759  1.00  0.00     0.017 A 
HETATM   30  C6  UNL     1       1.005  52.907 -21.409  1.00  0.00     0.033 A 
HETATM   31  C5  UNL     1       0.136  52.269 -20.527  1.00  0.00     0.066 A 
HETATM   32  N6  UNL     1      -1.049  51.750 -20.942  1.00  0.00    -0.363 N 
HETATM   33  C24 UNL     1      -1.364  51.865 -22.256  1.00  0.00     0.102 A 
ATOM     34  H6  UNL     1      -1.681  51.289 -20.287  1.00  0.00     0.165 HD
BRANCH  31  35
HETATM   35  C4  UNL     1       0.412  52.117 -19.083  1.00  0.00     0.101 A 
HETATM   36  S1  UNL     1      -0.660  51.215 -18.069  1.00  0.00    -0.080 SA
HETATM   37  C3  UNL     1       0.324  51.561 -16.714  1.00  0.00     0.076 A 
HETATM   38  C2  UNL     1       1.400  52.337 -17.095  1.00  0.00     0.012 A 
HETATM   39  C1  UNL     1       2.475  52.858 -16.213  1.00  0.00     0.068 C 
HETATM   40  N7  UNL     1       1.438  52.648 -18.442  1.00  0.00    -0.352 N 
ATOM     41  H7  UNL     1       2.163  53.213 -18.882  1.00  0.00     0.166 HD
ENDBRANCH  31  35
ENDBRANCH   1  28
TORSDOF 5
ENDMDL
