MODEL 1
REMARK minimizedAffinity -9.50333405
REMARK  4 active torsions:
REMARK  status: ('A' for Active; 'I' for Inactive)
REMARK    1  A    between atoms: C2_2  and  N1_3 
REMARK    2  A    between atoms: C2_2  and  C16_28 
REMARK       I    between atoms: N1_3  and  C3_4 
REMARK       I    between atoms: C3_4  and  N2_6 
REMARK    3  A    between atoms: N2_6  and  C4_7 
REMARK    4  A    between atoms: C7_13  and  N5_14 
ROOT
HETATM    1  C4  UNL     1      -0.022  52.396 -19.719  1.00  0.00     0.111 A 
HETATM    2  C5  UNL     1       1.100  53.038 -19.197  1.00  0.00     0.080 A 
HETATM    3  C6  UNL     1       1.391  52.749 -17.864  1.00  0.00     0.067 A 
HETATM    4  N3  UNL     1       2.374  53.182 -17.021  1.00  0.00    -0.298 N 
HETATM    5  N4  UNL     1       2.308  52.668 -15.787  1.00  0.00    -0.284 N 
ATOM      6  H4  UNL     1       2.925  52.859 -14.998  1.00  0.00     0.188 HD
HETATM    7  C7  UNL     1       1.254  51.848 -15.820  1.00  0.00     0.132 A 
HETATM    8  C14 UNL     1       0.622  51.882 -17.099  1.00  0.00     0.053 A 
HETATM    9  C15 UNL     1      -0.502  51.309 -17.694  1.00  0.00     0.107 A 
HETATM   10  N7  UNL     1      -0.801  51.572 -18.992  1.00  0.00    -0.351 N 
ATOM     11  H7  UNL     1      -1.621  51.143 -19.420  1.00  0.00     0.166 HD
HETATM   12  H8  UNL     1       3.121  53.836 -17.223  1.00  0.00     0.187 HD
ENDROOT
BRANCH   1  13
HETATM   13  N2  UNL     1      -0.342  52.674 -21.054  1.00  0.00    -0.295 N 
HETATM   14  C3  UNL     1      -0.723  51.748 -21.997  1.00  0.00     0.322 C 
HETATM   15  N1  UNL     1      -1.086  52.392 -23.172  1.00  0.00    -0.335 N 
HETATM   16  O1  UNL     1      -0.742  50.531 -21.887  1.00  0.00    -0.247 OA
HETATM   17  H5  UNL     1      -1.587  53.252 -23.007  1.00  0.00     0.165 HD
HETATM   18  H6  UNL     1      -0.122  53.591 -21.405  1.00  0.00     0.172 HD
BRANCH  15  19
HETATM   19  C2  UNL     1      -1.577  51.615 -24.302  1.00  0.00     0.115 C 
HETATM   20  C1  UNL     1      -1.955  50.186 -23.898  1.00  0.00     0.037 C 
BRANCH  19  21
HETATM   21  C16 UNL     1      -0.529  51.622 -25.406  1.00  0.00    -0.036 A 
HETATM   22  C17 UNL     1       0.833  51.837 -25.124  1.00  0.00     0.012 A 
HETATM   23  C18 UNL     1       1.775  51.860 -26.153  1.00  0.00     0.043 A 
HETATM   24  C19 UNL     1       1.362  51.678 -27.466  1.00  0.00     0.116 A 
HETATM   25  F1  UNL     1       2.267  51.704 -28.452  1.00  0.00    -0.206 F 
HETATM   26  C20 UNL     1       0.022  51.473 -27.772  1.00  0.00     0.043 A 
HETATM   27  C21 UNL     1      -0.923  51.448 -26.745  1.00  0.00     0.012 A 
ENDBRANCH  19  21
ENDBRANCH  15  19
ENDBRANCH   1  13
BRANCH   7  28
HETATM   28  N5  UNL     1       0.818  51.092 -14.768  1.00  0.00    -0.359 N 
HETATM   29  C8  UNL     1       1.846  50.650 -13.785  1.00  0.00     0.130 C 
HETATM   30  C9  UNL     1       2.234  51.777 -12.794  1.00  0.00     0.068 C 
HETATM   31  C10 UNL     1       0.995  52.389 -12.229  1.00  0.00     0.009 A 
HETATM   32  S1  UNL     1       0.910  53.298 -10.797  1.00  0.00    -0.087 SA
HETATM   33  C12 UNL     1      -0.248  52.299 -12.824  1.00  0.00     0.040 A 
HETATM   34  C11 UNL     1      -0.782  53.490 -11.061  1.00  0.00     0.138 A 
HETATM   35  N6  UNL     1      -1.277  52.915 -12.138  1.00  0.00    -0.361 N 
ATOM     36  H6  UNL     1      -2.257  52.922 -12.419  1.00  0.00     0.165 HD
HETATM   37  C13 UNL     1      -0.447  51.528 -14.100  1.00  0.00     0.182 C 
ENDBRANCH   7  28
TORSDOF 4
ENDMDL
