MODEL 1
REMARK minimizedAffinity -9.6686697
REMARK  6 active torsions:
REMARK  status: ('A' for Active; 'I' for Inactive)
REMARK       I    between atoms: C1_2  and  N1_3 
REMARK       I    between atoms: C1_2  and  N2_12 
REMARK    1  A    between atoms: N1_3  and  C2_4 
REMARK    2  A    between atoms: C2_4  and  C3_5 
REMARK    3  A    between atoms: N2_12  and  C9_13 
REMARK    4  A    between atoms: C12_19  and  C13_20 
REMARK    5  A    between atoms: C16_23  and  O2_24 
REMARK    6  A    between atoms: O2_24  and  C17_25 
ROOT
HETATM    1  C9  UNL     1       1.127  53.116 -19.958  1.00  0.00     0.111 A 
HETATM    2  C10 UNL     1       1.606  54.081 -20.843  1.00  0.00     0.080 A 
HETATM    3  C11 UNL     1       1.233  53.915 -22.177  1.00  0.00     0.065 A 
HETATM    4  N3  UNL     1       1.518  54.629 -23.305  1.00  0.00    -0.299 N 
HETATM    5  N4  UNL     1       0.975  54.130 -24.425  1.00  0.00    -0.299 N 
ATOM      6  H4  UNL     1       1.067  54.487 -25.376  1.00  0.00     0.187 HD
HETATM    7  C12 UNL     1       0.281  53.055 -24.012  1.00  0.00     0.072 A 
HETATM    8  C20 UNL     1       0.429  52.866 -22.603  1.00  0.00     0.036 A 
HETATM    9  C21 UNL     1      -0.002  51.942 -21.651  1.00  0.00     0.105 A 
HETATM   10  N5  UNL     1       0.346  52.092 -20.347  1.00  0.00    -0.351 N 
ATOM     11  H5  UNL     1       0.011  51.422 -19.655  1.00  0.00     0.166 HD
HETATM   12  H10 UNL     1       2.086  55.466 -23.383  1.00  0.00     0.187 HD
ENDROOT
BRANCH   1  13
HETATM   13  N2  UNL     1       1.480  53.268 -18.611  1.00  0.00    -0.295 N 
HETATM   14  C1  UNL     1       1.051  52.469 -17.576  1.00  0.00     0.322 C 
HETATM   15  O1  UNL     1       0.388  51.444 -17.650  1.00  0.00    -0.247 OA
HETATM   16  N1  UNL     1       1.507  52.967 -16.366  1.00  0.00    -0.339 N 
HETATM   17  H1  UNL     1       1.608  53.969 -16.320  1.00  0.00     0.164 HD
HETATM   18  H8  UNL     1       2.215  53.917 -18.394  1.00  0.00     0.172 HD
BRANCH  16  19
HETATM   19  C2  UNL     1       1.124  52.330 -15.124  1.00  0.00     0.162 C 
BRANCH  19  20
HETATM   20  C3  UNL     1       0.385  51.039 -15.382  1.00  0.00    -0.040 A 
HETATM   21  C4  UNL     1       1.085  49.834 -15.554  1.00  0.00     0.012 A 
HETATM   22  C5  UNL     1       0.394  48.642 -15.771  1.00  0.00     0.043 A 
HETATM   23  C6  UNL     1      -0.995  48.651 -15.810  1.00  0.00     0.116 A 
HETATM   24  F1  UNL     1      -1.656  47.504 -16.015  1.00  0.00    -0.206 F 
HETATM   25  C7  UNL     1      -1.708  49.830 -15.636  1.00  0.00     0.043 A 
HETATM   26  C8  UNL     1      -1.019  51.024 -15.420  1.00  0.00     0.012 A 
ENDBRANCH  19  20
ENDBRANCH  16  19
ENDBRANCH   1  13
BRANCH   7  27
HETATM   27  C13 UNL     1      -0.477  52.245 -24.965  1.00  0.00    -0.007 A 
HETATM   28  C14 UNL     1      -1.868  52.354 -25.068  1.00  0.00     0.016 A 
HETATM   29  C15 UNL     1      -2.572  51.564 -25.982  1.00  0.00     0.038 A 
HETATM   30  C16 UNL     1      -1.906  50.656 -26.809  1.00  0.00     0.078 A 
HETATM   31  C18 UNL     1      -0.519  50.553 -26.721  1.00  0.00     0.038 A 
HETATM   32  C19 UNL     1       0.189  51.344 -25.808  1.00  0.00     0.016 A 
BRANCH  30  33
HETATM   33  O2  UNL     1      -2.723  49.952 -27.647  1.00  0.00    -0.255 OA
BRANCH  33  34
HETATM   34  C17 UNL     1      -3.310  48.761 -27.151  1.00  0.00     0.530 C 
HETATM   35  F2  UNL     1      -4.450  49.022 -26.475  1.00  0.00    -0.144 F 
HETATM   36  F3  UNL     1      -2.454  48.092 -26.349  1.00  0.00    -0.144 F 
HETATM   37  F4  UNL     1      -3.617  47.961 -28.197  1.00  0.00    -0.144 F 
ENDBRANCH  33  34
ENDBRANCH  30  33
ENDBRANCH   7  27
TORSDOF 6
ENDMDL
