MODEL 1
REMARK minimizedAffinity -8.96349907
REMARK CNNscore 0.501090765
REMARK CNNaffinity 7.5269084
REMARK  7 active torsions:
REMARK  status: ('A' for Active; 'I' for Inactive)
REMARK       I    between atoms: C1_2  and  N1_3 
REMARK    1  A    between atoms: C1_2  and  C8_12 
REMARK    2  A    between atoms: N1_3  and  C2_4 
REMARK    3  A    between atoms: C5_7  and  O2_8 
REMARK    4  A    between atoms: N2_15  and  C11_16 
REMARK    5  A    between atoms: C11_16  and  C12_17 
REMARK       I    between atoms: C12_17  and  N3_19 
REMARK    6  A    between atoms: N4_22  and  C15_23 
REMARK    7  A    between atoms: C18_26  and  C19_27 
ROOT
HETATM    1  C11 UNL     1      -5.643  48.508 -21.959  1.00  0.00     0.374 C 
ENDROOT
BRANCH   1   2
HETATM    2  N2  UNL     1      -5.063  49.058 -23.197  1.00  0.00     0.098 N 
HETATM    3  C10 UNL     1      -5.545  48.423 -24.420  1.00  0.00     0.274 C 
HETATM    4  C9  UNL     1      -4.541  48.926 -25.441  1.00  0.00     0.046 C 
HETATM    5  C8  UNL     1      -3.208  48.858 -24.701  1.00  0.00     0.108 C 
HETATM    6  C27 UNL     1      -3.596  48.941 -23.219  1.00  0.00     0.287 C 
BRANCH   5   7
HETATM    7  C1  UNL     1      -2.194  49.917 -25.124  1.00  0.00     0.228 C 
HETATM    8  O1  UNL     1      -1.806  50.014 -26.283  1.00  0.00    -0.273 OA
HETATM    9  N1  UNL     1      -1.865  50.780 -24.088  1.00  0.00    -0.327 N 
HETATM   10  H1  UNL     1      -2.304  50.603 -23.193  1.00  0.00     0.169 HD
BRANCH   9  11
HETATM   11  C2  UNL     1      -0.981  51.880 -24.129  1.00  0.00     0.036 A 
HETATM   12  C3  UNL     1      -0.770  52.674 -25.260  1.00  0.00     0.032 A 
HETATM   13  C4  UNL     1       0.126  53.749 -25.222  1.00  0.00     0.040 A 
HETATM   14  C5  UNL     1       0.815  54.032 -24.050  1.00  0.00     0.087 A 
HETATM   15  C6  UNL     1       0.615  53.248 -22.916  1.00  0.00     0.069 A 
HETATM   16 CL1  UNL     1       1.467  53.591 -21.456  1.00  0.00    -0.081 Cl
HETATM   17  C7  UNL     1      -0.278  52.176 -22.952  1.00  0.00     0.056 A 
BRANCH  14  18
HETATM   18  O2  UNL     1       1.678  55.091 -24.063  1.00  0.00    -0.359 OA
HETATM   19  H4  UNL     1       2.078  55.150 -23.177  1.00  0.00     0.217 HD
ENDBRANCH  14  18
ENDBRANCH   9  11
ENDBRANCH   5   7
ENDBRANCH   1   2
BRANCH   1  20
HETATM   20  C12 UNL     1      -4.659  47.641 -21.145  1.00  0.00     0.248 C 
HETATM   21  O3  UNL     1      -4.391  46.473 -21.433  1.00  0.00    -0.271 OA
HETATM   22  N3  UNL     1      -4.061  48.261 -20.041  1.00  0.00    -0.348 N 
HETATM   23  C13 UNL     1      -3.055  47.496 -19.291  1.00  0.00     0.145 C 
HETATM   24  C26 UNL     1      -3.856  49.713 -19.942  1.00  0.00     0.145 C 
HETATM   25  C14 UNL     1      -1.637  47.830 -19.800  1.00  0.00     0.143 C 
HETATM   26  N4  UNL     1      -1.393  49.301 -19.736  1.00  0.00    -0.378 N 
HETATM   27  C25 UNL     1      -2.437  50.089 -20.431  1.00  0.00     0.143 C 
BRANCH  26  28
HETATM   28  C15 UNL     1      -0.791  49.786 -18.573  1.00  0.00     0.030 A 
HETATM   29  C16 UNL     1      -0.597  48.934 -17.474  1.00  0.00     0.030 A 
HETATM   30  C17 UNL     1       0.016  49.370 -16.290  1.00  0.00     0.015 A 
HETATM   31  C18 UNL     1       0.478  50.682 -16.167  1.00  0.00    -0.019 A 
HETATM   32  C23 UNL     1       0.308  51.539 -17.257  1.00  0.00     0.015 A 
HETATM   33  C24 UNL     1      -0.307  51.093 -18.438  1.00  0.00     0.030 A 
BRANCH  31  34
HETATM   34  C19 UNL     1       1.109  51.129 -14.918  1.00  0.00     0.015 A 
HETATM   35  C20 UNL     1       2.448  51.095 -14.569  1.00  0.00     0.020 A 
HETATM   36  C21 UNL     1       2.694  51.633 -13.272  1.00  0.00     0.008 A 
HETATM   37  C22 UNL     1       1.537  52.073 -12.671  1.00  0.00     0.050 A 
HETATM   38  S1  UNL     1       0.169  51.836 -13.667  1.00  0.00    -0.101 SA
ENDBRANCH  31  34
ENDBRANCH  26  28
ENDBRANCH   1  20
TORSDOF 7
ENDMDL
