MODEL 1
REMARK minimizedAffinity -9.28665447
REMARK CNNscore 0.346251965
REMARK CNNaffinity 7.22519445
REMARK  6 active torsions:
REMARK  status: ('A' for Active; 'I' for Inactive)
REMARK       I    between atoms: C1_2  and  N1_3 
REMARK    1  A    between atoms: C1_2  and  C13_19 
REMARK    2  A    between atoms: N1_3  and  C2_4 
REMARK    3  A    between atoms: C2_4  and  C3_5 
REMARK    4  A    between atoms: C2_4  and  C9_13 
REMARK    5  A    between atoms: C18_26  and  N4_27 
REMARK    6  A    between atoms: N4_27  and  C19_28 
ROOT
HETATM    1  C13 UNL     1      -0.144  51.291 -20.187  1.00  0.00     0.034 A 
HETATM    2  C14 UNL     1       0.388  52.581 -20.248  1.00  0.00     0.018 A 
HETATM    3  C15 UNL     1       0.931  53.155 -19.102  1.00  0.00     0.016 A 
HETATM    4  C16 UNL     1       0.922  52.436 -17.892  1.00  0.00     0.006 A 
HETATM    5  C17 UNL     1       1.428  52.923 -16.701  1.00  0.00     0.104 A 
HETATM    6  N3  UNL     1       1.401  52.238 -15.541  1.00  0.00    -0.342 N 
ATOM      7  H3  UNL     1       1.782  52.632 -14.681  1.00  0.00     0.167 HD
HETATM    8  C18 UNL     1       0.854  51.025 -15.568  1.00  0.00     0.157 A 
HETATM    9  N5  UNL     1       0.345  50.457 -16.671  1.00  0.00    -0.332 N 
ATOM     10  H5  UNL     1      -0.056  49.520 -16.640  1.00  0.00     0.168 HD
HETATM   11  C24 UNL     1       0.377  51.152 -17.815  1.00  0.00     0.047 A 
HETATM   12  C25 UNL     1      -0.150  50.593 -18.971  1.00  0.00     0.047 A 
ENDROOT
BRANCH   1  13
HETATM   13  C1  UNL     1      -0.731  50.701 -21.418  1.00  0.00     0.252 C 
HETATM   14  O1  UNL     1      -0.781  49.484 -21.549  1.00  0.00    -0.268 OA
HETATM   15  N1  UNL     1      -1.232  51.600 -22.340  1.00  0.00    -0.345 N 
HETATM   16  H1  UNL     1      -1.562  52.476 -21.948  1.00  0.00     0.163 HD
BRANCH  15  17
HETATM   17  C2  UNL     1      -1.990  51.123 -23.505  1.00  0.00     0.159 C 
BRANCH  17  18
HETATM   18  C3  UNL     1      -1.322  51.535 -24.815  1.00  0.00    -0.030 A 
HETATM   19  C4  UNL     1      -2.027  52.204 -25.832  1.00  0.00     0.012 A 
HETATM   20  C5  UNL     1      -1.396  52.561 -27.027  1.00  0.00     0.044 A 
HETATM   21  C6  UNL     1      -0.051  52.262 -27.213  1.00  0.00     0.138 A 
HETATM   22  F1  UNL     1       0.532  52.601 -28.373  1.00  0.00    -0.204 F 
HETATM   23  C7  UNL     1       0.673  51.617 -26.215  1.00  0.00     0.073 A 
HETATM   24 CL1  UNL     1       2.339  51.241 -26.438  1.00  0.00    -0.081 Cl
HETATM   25  C8  UNL     1       0.044  51.260 -25.018  1.00  0.00     0.036 A 
ENDBRANCH  17  18
BRANCH  17  26
HETATM   26  C9  UNL     1      -3.482  51.526 -23.383  1.00  0.00     0.155 C 
HETATM   27  F2  UNL     1      -3.501  52.909 -23.414  1.00  0.00    -0.238 F 
HETATM   28  C10 UNL     1      -4.181  51.108 -22.088  1.00  0.00     0.078 C 
HETATM   29  C11 UNL     1      -5.572  50.648 -22.516  1.00  0.00     0.273 C 
HETATM   30  N2  UNL     1      -5.755  51.146 -23.877  1.00  0.00     0.086 N 
HETATM   31  C12 UNL     1      -4.422  51.047 -24.490  1.00  0.00     0.315 C 
HETATM   32  H10 UNL     1      -6.439  50.589 -24.386  1.00  0.00     0.316 HD
ENDBRANCH  17  26
ENDBRANCH  15  17
ENDBRANCH   1  13
BRANCH   8  33
HETATM   33  N4  UNL     1       0.799  50.243 -14.435  1.00  0.00    -0.259 NA
HETATM   34  H16 UNL     1      -0.179  50.245 -14.162  1.00  0.00     0.131 HD
BRANCH  33  35
HETATM   35  C19 UNL     1       1.718  50.447 -13.312  1.00  0.00     0.067 C 
HETATM   36  C20 UNL     1       1.645  49.361 -12.234  1.00  0.00     0.046 C 
HETATM   37  C21 UNL     1       2.806  48.375 -12.244  1.00  0.00     0.169 C 
HETATM   38  O2  UNL     1       4.053  49.040 -12.433  1.00  0.00    -0.391 OA
HETATM   39  C22 UNL     1       4.110  49.675 -13.708  1.00  0.00     0.169 C 
HETATM   40  C23 UNL     1       3.133  50.836 -13.751  1.00  0.00     0.046 C 
ENDBRANCH  33  35
ENDBRANCH   8  33
TORSDOF 6
ENDMDL
