MODEL 1
REMARK minimizedAffinity -8.74665546
REMARK  7 active torsions:
REMARK  status: ('A' for Active; 'I' for Inactive)
REMARK    1  A    between atoms: O1_2  and  C2_3 
REMARK    2  A    between atoms: C2_3  and  C3_4 
REMARK    3  A    between atoms: C3_4  and  N1_5 
REMARK    4  A    between atoms: C3_4  and  C17_29 
REMARK       I    between atoms: N1_5  and  C4_6 
REMARK       I    between atoms: C4_6  and  N2_8 
REMARK    5  A    between atoms: N2_8  and  C5_9 
REMARK    6  A    between atoms: C8_15  and  C9_16 
REMARK    7  A    between atoms: C12_21  and  O3_22 
ROOT
HETATM    1  C5  UNL     1      -3.342  49.178 -25.535  1.00  0.00     0.111 A 
HETATM    2  C6  UNL     1      -4.599  48.758 -25.121  1.00  0.00     0.080 A 
HETATM    3  C7  UNL     1      -5.413  48.238 -26.127  1.00  0.00     0.065 A 
HETATM    4  N3  UNL     1      -6.680  47.730 -26.101  1.00  0.00    -0.299 N 
HETATM    5  N4  UNL     1      -7.127  47.307 -27.292  1.00  0.00    -0.299 N 
ATOM      6  H4  UNL     1      -8.029  46.881 -27.506  1.00  0.00     0.187 HD
HETATM    7  C8  UNL     1      -6.120  47.572 -28.143  1.00  0.00     0.073 A 
HETATM    8  C15 UNL     1      -5.007  48.143 -27.451  1.00  0.00     0.036 A 
HETATM    9  C16 UNL     1      -3.718  48.570 -27.774  1.00  0.00     0.105 A 
HETATM   10  N6  UNL     1      -2.906  49.085 -26.814  1.00  0.00    -0.351 N 
ATOM     11  H6  UNL     1      -1.967  49.402 -27.057  1.00  0.00     0.166 HD
HETATM   12  H10 UNL     1      -7.293  47.639 -25.296  1.00  0.00     0.187 HD
ENDROOT
BRANCH   1  13
HETATM   13  N2  UNL     1      -2.388  49.724 -24.677  1.00  0.00    -0.295 N 
HETATM   14  C4  UNL     1      -1.906  51.005 -24.643  1.00  0.00     0.322 C 
HETATM   15  N1  UNL     1      -0.990  51.163 -23.627  1.00  0.00    -0.332 N 
HETATM   16  O2  UNL     1      -2.209  51.911 -25.409  1.00  0.00    -0.247 OA
HETATM   17  H7  UNL     1      -1.096  50.543 -22.839  1.00  0.00     0.165 HD
HETATM   18  H8  UNL     1      -1.961  49.029 -24.087  1.00  0.00     0.172 HD
BRANCH  15  19
HETATM   19  C3  UNL     1      -0.404  52.471 -23.325  1.00  0.00     0.143 C 
BRANCH  19  20
HETATM   20  C2  UNL     1       0.772  52.745 -24.293  1.00  0.00     0.197 C 
BRANCH  20  21
HETATM   21  O1  UNL     1       0.614  54.008 -24.942  1.00  0.00    -0.394 OA
HETATM   22  C1  UNL     1       0.252  53.859 -26.308  1.00  0.00     0.201 C 
ENDBRANCH  20  21
ENDBRANCH  19  20
BRANCH  19  23
HETATM   23  C17 UNL     1      -0.074  52.517 -21.834  1.00  0.00    -0.033 A 
HETATM   24  C18 UNL     1      -0.757  51.754 -20.872  1.00  0.00     0.012 A 
HETATM   25  C19 UNL     1      -0.430  51.862 -19.517  1.00  0.00     0.043 A 
HETATM   26  C20 UNL     1       0.571  52.737 -19.116  1.00  0.00     0.116 A 
HETATM   27  F1  UNL     1       0.879  52.839 -17.816  1.00  0.00    -0.206 F 
HETATM   28  C21 UNL     1       1.255  53.509 -20.044  1.00  0.00     0.043 A 
HETATM   29  C22 UNL     1       0.933  53.401 -21.398  1.00  0.00     0.012 A 
ENDBRANCH  19  23
ENDBRANCH  15  19
ENDBRANCH   1  13
BRANCH   7  30
HETATM   30  C9  UNL     1      -6.248  47.264 -29.562  1.00  0.00     0.011 A 
HETATM   31  C10 UNL     1      -7.470  46.919 -30.128  1.00  0.00     0.101 A 
HETATM   32  N5  UNL     1      -7.651  46.643 -31.443  1.00  0.00    -0.372 N 
HETATM   33  C11 UNL     1      -6.547  46.693 -32.228  1.00  0.00     0.124 A 
ATOM     34  H5  UNL     1      -8.570  46.411 -31.822  1.00  0.00     0.164 HD
HETATM   35  C12 UNL     1      -5.274  47.006 -31.767  1.00  0.00     0.084 A 
HETATM   36  C14 UNL     1      -5.135  47.292 -30.410  1.00  0.00     0.053 A 
BRANCH  35  37
HETATM   37  O3  UNL     1      -4.126  47.071 -32.503  1.00  0.00    -0.355 OA
HETATM   38  C13 UNL     1      -4.191  47.803 -33.722  1.00  0.00     0.210 C 
ENDBRANCH  35  37
ENDBRANCH   7  30
TORSDOF 7
ENDMDL
