MODEL 1
REMARK minimizedAffinity -9.40148067
REMARK  4 active torsions:
REMARK  status: ('A' for Active; 'I' for Inactive)
REMARK    1  A    between atoms: C2_2  and  N1_3 
REMARK    2  A    between atoms: C2_2  and  C16_25 
REMARK       I    between atoms: N1_3  and  C3_4 
REMARK       I    between atoms: C3_4  and  N2_6 
REMARK    3  A    between atoms: N2_6  and  C4_7 
REMARK    4  A    between atoms: C7_13  and  C8_14 
ROOT
HETATM    1  C4  UNL     1       0.651  52.694 -19.852  1.00  0.00     0.111 A 
HETATM    2  C5  UNL     1       1.203  53.897 -20.291  1.00  0.00     0.080 A 
HETATM    3  C6  UNL     1       1.244  54.072 -21.675  1.00  0.00     0.065 A 
HETATM    4  N3  UNL     1       1.687  55.101 -22.455  1.00  0.00    -0.299 N 
HETATM    5  N4  UNL     1       1.545  54.894 -23.771  1.00  0.00    -0.299 N 
ATOM      6  H4  UNL     1       1.791  55.527 -24.532  1.00  0.00     0.187 HD
HETATM    7  C7  UNL     1       1.007  53.664 -23.864  1.00  0.00     0.072 A 
HETATM    8  C14 UNL     1       0.781  53.113 -22.565  1.00  0.00     0.036 A 
HETATM    9  C15 UNL     1       0.235  51.942 -22.038  1.00  0.00     0.105 A 
HETATM   10  N5  UNL     1       0.194  51.750 -20.696  1.00  0.00    -0.351 N 
ATOM     11  H5  UNL     1      -0.186  50.881 -20.321  1.00  0.00     0.166 HD
HETATM   12  H8  UNL     1       2.092  55.981 -22.153  1.00  0.00     0.187 HD
ENDROOT
BRANCH   1  13
HETATM   13  N2  UNL     1       0.619  52.484 -18.467  1.00  0.00    -0.295 N 
HETATM   14  C3  UNL     1       0.308  51.296 -17.846  1.00  0.00     0.322 C 
HETATM   15  N1  UNL     1       0.511  51.405 -16.479  1.00  0.00    -0.338 N 
HETATM   16  O1  UNL     1      -0.117  50.274 -18.366  1.00  0.00    -0.247 OA
HETATM   17  H5  UNL     1       1.196  52.086 -16.187  1.00  0.00     0.164 HD
HETATM   18  H6  UNL     1       0.661  53.293 -17.874  1.00  0.00     0.172 HD
BRANCH  15  19
HETATM   19  C2  UNL     1       0.291  50.278 -15.570  1.00  0.00     0.086 C 
HETATM   20  C1  UNL     1      -0.080  49.064 -16.424  1.00  0.00     0.032 C 
BRANCH  19  21
HETATM   21  C16 UNL     1      -0.797  50.629 -14.511  1.00  0.00     0.008 C 
HETATM   22  C17 UNL     1      -2.206  50.683 -15.148  1.00  0.00     0.007 C 
HETATM   23  C18 UNL     1      -3.235  51.481 -14.342  1.00  0.00     0.000 C 
HETATM   24  C19 UNL     1      -2.886  51.535 -12.865  1.00  0.00     0.000 C 
HETATM   25  C20 UNL     1      -1.529  52.197 -12.638  1.00  0.00     0.000 C 
HETATM   26  C21 UNL     1      -0.519  51.941 -13.763  1.00  0.00     0.007 C 
ENDBRANCH  19  21
ENDBRANCH  15  19
ENDBRANCH   1  13
BRANCH   7  27
HETATM   27  C8  UNL     1       0.723  53.071 -25.170  1.00  0.00    -0.007 A 
HETATM   28  C9  UNL     1       1.198  51.793 -25.505  1.00  0.00     0.017 A 
HETATM   29  C10 UNL     1       0.917  51.240 -26.757  1.00  0.00     0.043 A 
HETATM   30  C11 UNL     1       0.167  51.966 -27.676  1.00  0.00     0.116 A 
HETATM   31  F1  UNL     1      -0.098  51.434 -28.876  1.00  0.00    -0.206 F 
HETATM   32  C12 UNL     1      -0.303  53.236 -27.370  1.00  0.00     0.043 A 
HETATM   33  C13 UNL     1      -0.022  53.790 -26.119  1.00  0.00     0.017 A 
ENDBRANCH   7  27
TORSDOF 4
ENDMDL
