MODEL 1
REMARK minimizedAffinity -9.07069683
REMARK  6 active torsions:
REMARK  status: ('A' for Active; 'I' for Inactive)
REMARK    1  A    between atoms: O1_2  and  C2_3 
REMARK    2  A    between atoms: C2_3  and  C3_4 
REMARK    3  A    between atoms: C3_4  and  N1_5 
REMARK    4  A    between atoms: C3_4  and  C17_28 
REMARK       I    between atoms: N1_5  and  C4_6 
REMARK       I    between atoms: C4_6  and  N2_8 
REMARK    5  A    between atoms: N2_8  and  C5_9 
REMARK    6  A    between atoms: N5_16  and  C9_17 
ROOT
HETATM    1  C5  UNL     1      -3.300  48.789 -24.627  1.00  0.00     0.111 A 
HETATM    2  C6  UNL     1      -4.636  48.409 -24.597  1.00  0.00     0.080 A 
HETATM    3  C7  UNL     1      -5.239  48.260 -25.845  1.00  0.00     0.067 A 
HETATM    4  N3  UNL     1      -6.503  47.901 -26.210  1.00  0.00    -0.298 N 
HETATM    5  N4  UNL     1      -6.704  47.873 -27.535  1.00  0.00    -0.284 N 
ATOM      6  H4  UNL     1      -7.565  47.638 -28.028  1.00  0.00     0.188 HD
HETATM    7  C8  UNL     1      -5.528  48.221 -28.068  1.00  0.00     0.134 A 
HETATM    8  N5  UNL     1      -5.217  48.332 -29.387  1.00  0.00    -0.341 N 
HETATM    9  C15 UNL     1      -4.567  48.476 -27.039  1.00  0.00     0.053 A 
HETATM   10  C16 UNL     1      -3.227  48.861 -26.974  1.00  0.00     0.107 A 
HETATM   11  N6  UNL     1      -2.612  49.014 -25.772  1.00  0.00    -0.351 N 
ATOM     12  H6  UNL     1      -1.633  49.298 -25.732  1.00  0.00     0.166 HD
HETATM   13  H10 UNL     1      -7.278  47.661 -25.603  1.00  0.00     0.187 HD
HETATM   14  H11 UNL     1      -4.267  48.596 -29.616  1.00  0.00     0.167 HD
ENDROOT
BRANCH   1  15
HETATM   15  N2  UNL     1      -2.529  48.990 -23.483  1.00  0.00    -0.295 N 
HETATM   16  C4  UNL     1      -2.660  49.960 -22.526  1.00  0.00     0.322 C 
HETATM   17  N1  UNL     1      -1.693  49.842 -21.558  1.00  0.00    -0.332 N 
HETATM   18  O2  UNL     1      -3.513  50.836 -22.494  1.00  0.00    -0.247 OA
HETATM   19  H7  UNL     1      -0.873  49.292 -21.761  1.00  0.00     0.165 HD
HETATM   20  H8  UNL     1      -1.866  48.246 -23.331  1.00  0.00     0.172 HD
BRANCH  17  21
HETATM   21  C3  UNL     1      -1.600  50.775 -20.435  1.00  0.00     0.143 C 
BRANCH  21  22
HETATM   22  C2  UNL     1      -3.000  51.291 -20.013  1.00  0.00     0.197 C 
BRANCH  22  23
HETATM   23  O1  UNL     1      -2.967  51.825 -18.685  1.00  0.00    -0.394 OA
HETATM   24  C1  UNL     1      -2.782  50.805 -17.714  1.00  0.00     0.201 C 
ENDBRANCH  22  23
ENDBRANCH  21  22
BRANCH  21  25
HETATM   25  C17 UNL     1      -0.579  51.845 -20.809  1.00  0.00    -0.033 A 
HETATM   26  C18 UNL     1      -0.052  52.762 -19.887  1.00  0.00     0.009 A 
HETATM   27  C19 UNL     1       0.853  53.746 -20.296  1.00  0.00     0.001 A 
HETATM   28  C20 UNL     1       1.237  53.834 -21.632  1.00  0.00     0.000 A 
HETATM   29  C21 UNL     1       0.718  52.939 -22.563  1.00  0.00     0.001 A 
HETATM   30  C22 UNL     1      -0.184  51.955 -22.155  1.00  0.00     0.009 A 
ENDBRANCH  21  25
ENDBRANCH  17  21
ENDBRANCH   1  15
BRANCH   8  31
HETATM   31  C9  UNL     1      -5.989  48.141 -30.555  1.00  0.00     0.033 A 
HETATM   32  C10 UNL     1      -7.301  48.654 -30.583  1.00  0.00     0.032 A 
HETATM   33  C11 UNL     1      -8.116  48.502 -31.708  1.00  0.00     0.044 A 
HETATM   34  C12 UNL     1      -7.626  47.834 -32.820  1.00  0.00     0.116 A 
HETATM   35  F1  UNL     1      -8.405  47.687 -33.900  1.00  0.00    -0.206 F 
HETATM   36  C13 UNL     1      -6.339  47.317 -32.825  1.00  0.00     0.044 A 
HETATM   37  C14 UNL     1      -5.527  47.472 -31.696  1.00  0.00     0.032 A 
ENDBRANCH   8  31
TORSDOF 6
ENDMDL
