MODEL 1
REMARK minimizedAffinity -9.03258419
REMARK  6 active torsions:
REMARK  status: ('A' for Active; 'I' for Inactive)
REMARK    1  A    between atoms: O1_2  and  C2_3 
REMARK    2  A    between atoms: C2_3  and  C3_4 
REMARK    3  A    between atoms: C3_4  and  N1_5 
REMARK    4  A    between atoms: C3_4  and  C17_27 
REMARK       I    between atoms: N1_5  and  C4_6 
REMARK       I    between atoms: C4_6  and  N2_8 
REMARK    5  A    between atoms: N2_8  and  C5_9 
REMARK    6  A    between atoms: N5_16  and  C9_17 
ROOT
HETATM    1  C5  UNL     1      -2.479  51.095 -27.059  1.00  0.00     0.111 A 
HETATM    2  C6  UNL     1      -1.210  51.248 -27.603  1.00  0.00     0.080 A 
HETATM    3  C7  UNL     1      -0.266  51.826 -26.754  1.00  0.00     0.067 A 
HETATM    4  N3  UNL     1       1.046  52.153 -26.938  1.00  0.00    -0.298 N 
HETATM    5  N4  UNL     1       1.623  52.733 -25.872  1.00  0.00    -0.284 N 
ATOM      6  H4  UNL     1       2.573  53.095 -25.793  1.00  0.00     0.188 HD
HETATM    7  C8  UNL     1       0.666  52.728 -24.940  1.00  0.00     0.134 A 
HETATM    8  N5  UNL     1       0.866  53.242 -23.705  1.00  0.00    -0.341 N 
HETATM    9  C15 UNL     1      -0.557  52.207 -25.451  1.00  0.00     0.053 A 
HETATM   10  C16 UNL     1      -1.865  52.033 -24.994  1.00  0.00     0.107 A 
HETATM   11  N6  UNL     1      -2.805  51.470 -25.800  1.00  0.00    -0.351 N 
ATOM     12  H6  UNL     1      -3.755  51.330 -25.455  1.00  0.00     0.166 HD
HETATM   13  H10 UNL     1       1.604  52.026 -27.776  1.00  0.00     0.187 HD
HETATM   14  H11 UNL     1       1.752  53.734 -23.618  1.00  0.00     0.167 HD
ENDROOT
BRANCH   1  15
HETATM   15  N2  UNL     1      -3.551  50.531 -27.751  1.00  0.00    -0.295 N 
HETATM   16  C4  UNL     1      -3.860  49.209 -27.917  1.00  0.00     0.322 C 
HETATM   17  N1  UNL     1      -5.018  49.054 -28.642  1.00  0.00    -0.332 N 
HETATM   18  O2  UNL     1      -3.206  48.255 -27.513  1.00  0.00    -0.247 OA
HETATM   19  H7  UNL     1      -5.663  49.829 -28.672  1.00  0.00     0.165 HD
HETATM   20  H8  UNL     1      -4.098  51.220 -28.242  1.00  0.00     0.172 HD
BRANCH  17  21
HETATM   21  C3  UNL     1      -5.627  47.748 -28.855  1.00  0.00     0.143 C 
BRANCH  21  22
HETATM   22  C2  UNL     1      -5.655  47.409 -30.364  1.00  0.00     0.197 C 
BRANCH  22  23
HETATM   23  O1  UNL     1      -4.875  48.347 -31.124  1.00  0.00    -0.394 OA
HETATM   24  C1  UNL     1      -4.830  47.989 -32.501  1.00  0.00     0.201 C 
ENDBRANCH  22  23
ENDBRANCH  21  22
BRANCH  21  25
HETATM   25  C17 UNL     1      -6.989  47.685 -28.172  1.00  0.00    -0.033 A 
HETATM   26  C18 UNL     1      -8.182  48.029 -28.830  1.00  0.00     0.012 A 
HETATM   27  C19 UNL     1      -9.407  47.974 -28.163  1.00  0.00     0.043 A 
HETATM   28  C20 UNL     1      -9.447  47.588 -26.829  1.00  0.00     0.116 A 
HETATM   29  F1  UNL     1     -10.623  47.538 -26.190  1.00  0.00    -0.206 F 
HETATM   30  C21 UNL     1      -8.283  47.260 -26.148  1.00  0.00     0.043 A 
HETATM   31  C22 UNL     1      -7.058  47.312 -26.815  1.00  0.00     0.012 A 
ENDBRANCH  21  25
ENDBRANCH  17  21
ENDBRANCH   1  15
BRANCH   8  32
HETATM   32  C9  UNL     1       0.461  52.757 -22.441  1.00  0.00     0.033 A 
HETATM   33  C10 UNL     1       0.687  53.562 -21.314  1.00  0.00     0.029 A 
HETATM   34  C11 UNL     1       0.285  53.147 -20.042  1.00  0.00     0.002 A 
HETATM   35  C12 UNL     1      -0.350  51.918 -19.879  1.00  0.00     0.000 A 
HETATM   36  C13 UNL     1      -0.580  51.106 -20.987  1.00  0.00     0.002 A 
HETATM   37  C14 UNL     1      -0.178  51.525 -22.259  1.00  0.00     0.029 A 
ENDBRANCH   8  32
TORSDOF 6
ENDMDL
