MODEL 1
REMARK minimizedAffinity -9.43424511
REMARK CNNscore 0.292081684
REMARK CNNaffinity 6.97411728
REMARK  6 active torsions:
REMARK  status: ('A' for Active; 'I' for Inactive)
REMARK       I    between atoms: C1_2  and  N1_3 
REMARK    1  A    between atoms: C1_2  and  C13_19 
REMARK    2  A    between atoms: N1_3  and  C2_4 
REMARK    3  A    between atoms: C2_4  and  C3_5 
REMARK    4  A    between atoms: C2_4  and  C9_13 
REMARK    5  A    between atoms: C18_26  and  N4_27 
REMARK    6  A    between atoms: N4_27  and  C19_28 
ROOT
HETATM    1  C13 UNL     1      -0.653  52.122 -21.540  1.00  0.00     0.034 A 
HETATM    2  C14 UNL     1       0.182  53.234 -21.398  1.00  0.00     0.018 A 
HETATM    3  C15 UNL     1       0.846  53.440 -20.190  1.00  0.00     0.016 A 
HETATM    4  C16 UNL     1       0.674  52.527 -19.131  1.00  0.00     0.006 A 
HETATM    5  C17 UNL     1       1.288  52.655 -17.897  1.00  0.00     0.104 A 
HETATM    6  N3  UNL     1       1.126  51.784 -16.887  1.00  0.00    -0.342 N 
ATOM      7  H3  UNL     1       1.587  51.917 -15.986  1.00  0.00     0.167 HD
HETATM    8  C18 UNL     1       0.328  50.733 -17.119  1.00  0.00     0.157 A 
HETATM    9  N5  UNL     1      -0.320  50.525 -18.272  1.00  0.00    -0.332 N 
ATOM     10  H5  UNL     1      -0.931  49.717 -18.390  1.00  0.00     0.168 HD
HETATM   11  C24 UNL     1      -0.146  51.406 -19.266  1.00  0.00     0.047 A 
HETATM   12  C25 UNL     1      -0.796  51.217 -20.478  1.00  0.00     0.047 A 
ENDROOT
BRANCH   1  13
HETATM   13  C1  UNL     1      -1.386  51.848 -22.806  1.00  0.00     0.252 C 
HETATM   14  O1  UNL     1      -1.825  52.775 -23.476  1.00  0.00    -0.268 OA
HETATM   15  N1  UNL     1      -1.487  50.521 -23.177  1.00  0.00    -0.345 N 
HETATM   16  H1  UNL     1      -0.767  49.903 -22.816  1.00  0.00     0.163 HD
BRANCH  15  17
HETATM   17  C2  UNL     1      -2.015  50.152 -24.500  1.00  0.00     0.159 C 
BRANCH  17  18
HETATM   18  C3  UNL     1      -1.350  50.963 -25.607  1.00  0.00    -0.030 A 
HETATM   19  C4  UNL     1      -2.097  51.765 -26.488  1.00  0.00     0.012 A 
HETATM   20  C5  UNL     1      -1.466  52.502 -27.494  1.00  0.00     0.044 A 
HETATM   21  C6  UNL     1      -0.084  52.448 -27.625  1.00  0.00     0.138 A 
HETATM   22  F1  UNL     1       0.498  53.161 -28.601  1.00  0.00    -0.204 F 
HETATM   23  C7  UNL     1       0.677  51.671 -26.759  1.00  0.00     0.073 A 
HETATM   24 CL1  UNL     1       2.391  51.601 -26.914  1.00  0.00    -0.081 Cl
HETATM   25  C8  UNL     1       0.050  50.933 -25.751  1.00  0.00     0.036 A 
ENDBRANCH  17  18
BRANCH  17  26
HETATM   26  C9  UNL     1      -3.561  50.203 -24.493  1.00  0.00     0.155 C 
HETATM   27  F2  UNL     1      -3.984  49.236 -25.389  1.00  0.00    -0.238 F 
HETATM   28  C10 UNL     1      -4.287  49.902 -23.191  1.00  0.00     0.078 C 
HETATM   29  C11 UNL     1      -5.677  50.437 -23.493  1.00  0.00     0.273 C 
HETATM   30  N2  UNL     1      -5.419  51.706 -24.174  1.00  0.00     0.086 N 
HETATM   31  C12 UNL     1      -4.178  51.529 -24.952  1.00  0.00     0.315 C 
HETATM   32  H10 UNL     1      -6.198  51.951 -24.785  1.00  0.00     0.316 HD
ENDBRANCH  17  26
ENDBRANCH  15  17
ENDBRANCH   1  13
BRANCH   8  33
HETATM   33  N4  UNL     1       0.114  49.775 -16.141  1.00  0.00    -0.259 NA
HETATM   34  H16 UNL     1      -0.079  48.914 -16.642  1.00  0.00     0.131 HD
BRANCH  33  35
HETATM   35  C19 UNL     1      -0.813  50.128 -15.072  1.00  0.00     0.067 C 
HETATM   36  C20 UNL     1      -2.156  50.575 -15.658  1.00  0.00     0.046 C 
HETATM   37  C21 UNL     1      -3.064  51.090 -14.552  1.00  0.00     0.169 C 
HETATM   38  O2  UNL     1      -2.440  52.152 -13.833  1.00  0.00    -0.391 OA
HETATM   39  C22 UNL     1      -1.225  51.745 -13.206  1.00  0.00     0.169 C 
HETATM   40  C23 UNL     1      -0.218  51.270 -14.241  1.00  0.00     0.046 C 
ENDBRANCH  33  35
ENDBRANCH   8  33
TORSDOF 6
ENDMDL
