MODEL 1
REMARK minimizedAffinity -7.93173885
REMARK  7 active torsions:
REMARK  status: ('A' for Active; 'I' for Inactive)
REMARK    1  A    between atoms: O1_2  and  C2_3 
REMARK    2  A    between atoms: C2_3  and  C3_4 
REMARK    3  A    between atoms: C3_4  and  O2_5 
REMARK    4  A    between atoms: O2_5  and  C4_6 
REMARK    5  A    between atoms: C7_12  and  N3_13 
REMARK       I    between atoms: N3_13  and  C8_14 
REMARK       I    between atoms: C8_14  and  N4_16 
REMARK    6  A    between atoms: N4_16  and  C9_17 
REMARK    7  A    between atoms: C9_17  and  C10_18 
ROOT
HETATM    1  C4  UNL     1      -0.291  53.412 -25.649  1.00  0.00     0.171 A 
HETATM    2  N1  UNL     1       0.559  54.440 -25.593  1.00  0.00    -0.279 N 
ATOM      3  H1  UNL     1       0.781  55.120 -26.319  1.00  0.00     0.189 HD
HETATM    4  N2  UNL     1       1.051  54.361 -24.340  1.00  0.00    -0.298 N 
HETATM    5  C5  UNL     1       0.534  53.331 -23.601  1.00  0.00     0.067 A 
HETATM    6  C6  UNL     1       0.763  52.912 -22.291  1.00  0.00     0.080 A 
HETATM    7  C7  UNL     1       0.033  51.798 -21.891  1.00  0.00     0.111 A 
HETATM    8  N5  UNL     1      -0.849  51.149 -22.689  1.00  0.00    -0.351 N 
ATOM      9  H5  UNL     1      -1.359  50.340 -22.335  1.00  0.00     0.166 HD
HETATM   10  C16 UNL     1      -1.052  51.577 -23.965  1.00  0.00     0.108 A 
HETATM   11  C17 UNL     1      -0.359  52.684 -24.445  1.00  0.00     0.060 A 
HETATM   12  H8  UNL     1       1.740  55.046 -24.048  1.00  0.00     0.187 HD
ENDROOT
BRANCH   7  13
HETATM   13  N3  UNL     1       0.123  51.236 -20.617  1.00  0.00    -0.295 N 
HETATM   14  C8  UNL     1      -0.023  51.851 -19.402  1.00  0.00     0.322 C 
HETATM   15  O3  UNL     1      -0.222  53.044 -19.214  1.00  0.00    -0.247 OA
HETATM   16  N4  UNL     1       0.107  50.946 -18.370  1.00  0.00    -0.339 N 
HETATM   17  H11 UNL     1      -0.124  49.988 -18.587  1.00  0.00     0.164 HD
HETATM   18  H10 UNL     1       0.429  50.277 -20.640  1.00  0.00     0.172 HD
BRANCH  16  19
HETATM   19  C9  UNL     1      -0.102  51.345 -16.995  1.00  0.00     0.162 C 
BRANCH  19  20
HETATM   20  C10 UNL     1       1.213  51.527 -16.282  1.00  0.00    -0.040 A 
HETATM   21  C11 UNL     1       2.165  52.444 -16.754  1.00  0.00     0.009 A 
HETATM   22  C12 UNL     1       3.390  52.590 -16.101  1.00  0.00     0.001 A 
HETATM   23  C13 UNL     1       3.678  51.820 -14.976  1.00  0.00     0.000 A 
HETATM   24  C14 UNL     1       2.744  50.901 -14.502  1.00  0.00     0.001 A 
HETATM   25  C15 UNL     1       1.518  50.753 -15.153  1.00  0.00     0.009 A 
ENDBRANCH  19  20
ENDBRANCH  16  19
ENDBRANCH   7  13
BRANCH   1  26
HETATM   26  O2  UNL     1      -1.009  53.151 -26.764  1.00  0.00    -0.332 OA
BRANCH  26  27
HETATM   27  C3  UNL     1      -0.247  53.006 -27.969  1.00  0.00     0.203 C 
BRANCH  27  28
HETATM   28  C2  UNL     1       0.534  51.688 -28.015  1.00  0.00     0.193 C 
BRANCH  28  29
HETATM   29  O1  UNL     1       1.956  51.882 -27.974  1.00  0.00    -0.394 OA
HETATM   30  C1  UNL     1       2.543  51.477 -26.744  1.00  0.00     0.201 C 
ENDBRANCH  28  29
ENDBRANCH  27  28
ENDBRANCH  26  27
ENDBRANCH   1  26
TORSDOF 7
ENDMDL
