MODEL 1
REMARK minimizedAffinity -9.76561928
REMARK  3 active torsions:
REMARK  status: ('A' for Active; 'I' for Inactive)
REMARK       I    between atoms: C1_2  and  N1_3 
REMARK       I    between atoms: C1_2  and  N6_23 
REMARK    1  A    between atoms: N1_3  and  C2_4 
REMARK    2  A    between atoms: N4_11  and  C6_12 
REMARK    3  A    between atoms: N6_23  and  C14_24 
ROOT
HETATM    1  C2  UNL     1      -4.845  48.621 -27.697  1.00  0.00     0.111 A 
HETATM    2  C3  UNL     1      -4.902  48.123 -26.397  1.00  0.00     0.080 A 
HETATM    3  C4  UNL     1      -3.988  48.676 -25.500  1.00  0.00     0.067 A 
HETATM    4  N2  UNL     1      -3.743  48.445 -24.177  1.00  0.00    -0.298 N 
HETATM    5  N3  UNL     1      -2.746  49.177 -23.669  1.00  0.00    -0.284 N 
ATOM      6  H3  UNL     1      -2.370  49.147 -22.721  1.00  0.00     0.188 HD
HETATM    7  C5  UNL     1      -2.351  49.957 -24.681  1.00  0.00     0.134 A 
HETATM    8  N4  UNL     1      -1.357  50.878 -24.634  1.00  0.00    -0.339 N 
HETATM    9  C12 UNL     1      -3.085  49.664 -25.868  1.00  0.00     0.053 A 
HETATM   10  C13 UNL     1      -3.105  50.111 -27.188  1.00  0.00     0.107 A 
HETATM   11  N5  UNL     1      -3.971  49.568 -28.083  1.00  0.00    -0.351 N 
ATOM     12  H5  UNL     1      -3.959  49.881 -29.054  1.00  0.00     0.166 HD
HETATM   13  H3  UNL     1      -4.214  47.793 -23.561  1.00  0.00     0.187 HD
HETATM   14  H4  UNL     1      -0.930  51.191 -25.500  1.00  0.00     0.167 HD
ENDROOT
BRANCH   1  15
HETATM   15  N1  UNL     1      -5.708  48.037 -28.633  1.00  0.00    -0.295 N 
HETATM   16  C1  UNL     1      -5.548  48.067 -29.998  1.00  0.00     0.322 C 
HETATM   17  O1  UNL     1      -4.782  48.767 -30.643  1.00  0.00    -0.247 OA
HETATM   18  N6  UNL     1      -6.424  47.177 -30.595  1.00  0.00    -0.334 N 
HETATM   19  H10 UNL     1      -6.635  46.361 -30.036  1.00  0.00     0.165 HD
HETATM   20  H1  UNL     1      -6.603  47.719 -28.304  1.00  0.00     0.172 HD
BRANCH  18  21
HETATM   21  C14 UNL     1      -6.407  46.967 -32.040  1.00  0.00     0.122 C 
HETATM   22  C15 UNL     1      -7.649  47.578 -32.710  1.00  0.00     0.032 C 
HETATM   23  C16 UNL     1      -8.988  47.104 -32.142  1.00  0.00     0.029 C 
HETATM   24  C17 UNL     1      -9.024  45.615 -31.844  1.00  0.00     0.175 C 
HETATM   25  O2  UNL     1      -8.466  44.872 -32.924  1.00  0.00    -0.351 OA
HETATM   26  C18 UNL     1      -7.136  44.586 -32.767  1.00  0.00     0.077 A 
HETATM   27  C19 UNL     1      -6.786  43.275 -33.110  1.00  0.00     0.037 A 
HETATM   28  C23 UNL     1      -6.156  45.499 -32.348  1.00  0.00    -0.002 A 
HETATM   29  C20 UNL     1      -5.467  42.839 -32.995  1.00  0.00     0.003 A 
HETATM   30  C21 UNL     1      -4.489  43.713 -32.538  1.00  0.00     0.001 A 
HETATM   31  C22 UNL     1      -4.830  45.030 -32.222  1.00  0.00     0.012 A 
ENDBRANCH  18  21
ENDBRANCH   1  15
BRANCH   8  32
HETATM   32  C6  UNL     1      -0.696  51.389 -23.491  1.00  0.00     0.055 A 
HETATM   33  C7  UNL     1      -0.907  50.732 -22.265  1.00  0.00     0.031 A 
HETATM   34  C8  UNL     1      -0.338  51.208 -21.082  1.00  0.00     0.002 A 
HETATM   35  C9  UNL     1       0.452  52.353 -21.101  1.00  0.00     0.002 A 
HETATM   36  C10 UNL     1       0.686  53.013 -22.305  1.00  0.00     0.026 A 
HETATM   37  C11 UNL     1       0.122  52.535 -23.494  1.00  0.00     0.060 A 
HETATM   38 CL1  UNL     1       0.582  53.348 -24.951  1.00  0.00    -0.082 Cl
ENDBRANCH   8  32
TORSDOF 3
ENDMDL
