MODEL 1
REMARK minimizedAffinity -9.3043642
REMARK  5 active torsions:
REMARK  status: ('A' for Active; 'I' for Inactive)
REMARK    1  A    between atoms: O1_2  and  C2_3 
REMARK    2  A    between atoms: C5_6  and  C6_7 
REMARK    3  A    between atoms: C9_13  and  N3_14 
REMARK       I    between atoms: N3_14  and  C10_15 
REMARK       I    between atoms: C10_15  and  N4_17 
REMARK    4  A    between atoms: N4_17  and  C11_18 
REMARK    5  A    between atoms: C11_18  and  C12_19 
ROOT
HETATM    1  C6  UNL     1       0.266  52.746 -23.892  1.00  0.00     0.072 A 
HETATM    2  N1  UNL     1       1.121  53.404 -24.695  1.00  0.00    -0.299 N 
ATOM      3  H1  UNL     1       1.940  53.949 -24.424  1.00  0.00     0.187 HD
HETATM    4  N2  UNL     1       0.654  53.183 -25.934  1.00  0.00    -0.299 N 
HETATM    5  C7  UNL     1      -0.450  52.381 -25.980  1.00  0.00     0.065 A 
HETATM    6  C8  UNL     1      -1.210  51.908 -27.049  1.00  0.00     0.080 A 
HETATM    7  C9  UNL     1      -2.277  51.090 -26.699  1.00  0.00     0.111 A 
HETATM    8  N5  UNL     1      -2.571  50.749 -25.423  1.00  0.00    -0.351 N 
ATOM      9  H5  UNL     1      -3.364  50.138 -25.229  1.00  0.00     0.166 HD
HETATM   10  C18 UNL     1      -1.812  51.221 -24.401  1.00  0.00     0.105 A 
HETATM   11  C19 UNL     1      -0.730  52.066 -24.658  1.00  0.00     0.036 A 
HETATM   12  H6  UNL     1       1.144  53.606 -26.713  1.00  0.00     0.187 HD
ENDROOT
BRANCH   7  13
HETATM   13  N3  UNL     1      -3.147  50.519 -27.628  1.00  0.00    -0.295 N 
HETATM   14  C10 UNL     1      -3.765  49.299 -27.579  1.00  0.00     0.322 C 
HETATM   15  O2  UNL     1      -3.627  48.452 -26.706  1.00  0.00    -0.247 OA
HETATM   16  N4  UNL     1      -4.581  49.111 -28.674  1.00  0.00    -0.339 N 
HETATM   17  H9  UNL     1      -4.937  49.946 -29.114  1.00  0.00     0.164 HD
HETATM   18  H8  UNL     1      -3.223  51.066 -28.470  1.00  0.00     0.172 HD
BRANCH  16  19
HETATM   19  C11 UNL     1      -5.405  47.928 -28.798  1.00  0.00     0.162 C 
BRANCH  19  20
HETATM   20  C12 UNL     1      -6.260  47.991 -30.039  1.00  0.00    -0.040 A 
HETATM   21  C13 UNL     1      -5.702  47.703 -31.296  1.00  0.00     0.012 A 
HETATM   22  C14 UNL     1      -6.493  47.737 -32.446  1.00  0.00     0.043 A 
HETATM   23  C15 UNL     1      -7.841  48.052 -32.339  1.00  0.00     0.116 A 
HETATM   24  F1  UNL     1      -8.602  48.083 -33.442  1.00  0.00    -0.206 F 
HETATM   25  C16 UNL     1      -8.416  48.331 -31.104  1.00  0.00     0.043 A 
HETATM   26  C17 UNL     1      -7.627  48.297 -29.953  1.00  0.00     0.012 A 
ENDBRANCH  19  20
ENDBRANCH  16  19
ENDBRANCH   7  13
BRANCH   1  27
HETATM   27  C5  UNL     1       0.435  52.773 -22.439  1.00  0.00    -0.007 A 
HETATM   28  C4  UNL     1       1.151  53.815 -21.834  1.00  0.00     0.016 A 
HETATM   29  C3  UNL     1       1.331  53.854 -20.446  1.00  0.00     0.037 A 
HETATM   30  C2  UNL     1       0.787  52.851 -19.643  1.00  0.00     0.068 A 
HETATM   31  C21 UNL     1       0.061  51.819 -20.240  1.00  0.00     0.037 A 
HETATM   32  C20 UNL     1      -0.119  51.779 -21.627  1.00  0.00     0.016 A 
BRANCH  30  33
HETATM   33  O1  UNL     1       0.887  52.767 -18.281  1.00  0.00    -0.356 OA
HETATM   34  C1  UNL     1       0.308  51.625 -17.664  1.00  0.00     0.210 C 
ENDBRANCH  30  33
ENDBRANCH   1  27
TORSDOF 5
ENDMDL
