MODEL 1
REMARK minimizedAffinity -8.44064045
REMARK  9 active torsions:
REMARK  status: ('A' for Active; 'I' for Inactive)
REMARK    1  A    between atoms: O1_2  and  C2_3 
REMARK    2  A    between atoms: C2_3  and  C3_4 
REMARK    3  A    between atoms: C3_4  and  O2_5 
REMARK    4  A    between atoms: O2_5  and  C4_6 
REMARK    5  A    between atoms: C7_12  and  N3_13 
REMARK       I    between atoms: N3_13  and  C8_14 
REMARK       I    between atoms: C8_14  and  N4_16 
REMARK    6  A    between atoms: N4_16  and  C9_17 
REMARK    7  A    between atoms: N5_21  and  C13_22 
REMARK    8  A    between atoms: C13_22  and  C14_23 
REMARK    9  A    between atoms: C19_29  and  O4_30 
ROOT
HETATM    1  N3  UNL     1       0.097  51.866 -18.921  1.00  0.00    -0.295 N 
HETATM    2  C8  UNL     1       0.825  52.185 -17.807  1.00  0.00     0.322 C 
HETATM    3  O3  UNL     1       1.803  52.919 -17.767  1.00  0.00    -0.247 OA
HETATM    4  N4  UNL     1       0.323  51.551 -16.689  1.00  0.00    -0.337 N 
HETATM    5  H10 UNL     1      -0.567  51.110 -18.864  1.00  0.00     0.172 HD
HETATM    6  H11 UNL     1      -0.663  51.337 -16.725  1.00  0.00     0.164 HD
ENDROOT
BRANCH   1   7
HETATM    7  C7  UNL     1       0.273  52.321 -20.228  1.00  0.00     0.111 A 
HETATM    8  C6  UNL     1       0.920  53.511 -20.544  1.00  0.00     0.080 A 
HETATM    9  C5  UNL     1       1.012  53.791 -21.908  1.00  0.00     0.067 A 
HETATM   10  N2  UNL     1       1.574  54.835 -22.594  1.00  0.00    -0.298 N 
HETATM   11  C23 UNL     1       0.489  52.948 -22.879  1.00  0.00     0.060 A 
HETATM   12  N1  UNL     1       1.462  54.733 -23.933  1.00  0.00    -0.279 N 
HETATM   13  H8  UNL     1       2.054  55.640 -22.207  1.00  0.00     0.187 HD
HETATM   14  C4  UNL     1       0.802  53.584 -24.095  1.00  0.00     0.171 A 
ATOM     15  H1  UNL     1       1.799  55.377 -24.649  1.00  0.00     0.189 HD
HETATM   16  C22 UNL     1      -0.155  51.782 -22.476  1.00  0.00     0.108 A 
HETATM   17  N6  UNL     1      -0.257  51.483 -21.153  1.00  0.00    -0.351 N 
ATOM     18  H6  UNL     1      -0.732  50.631 -20.857  1.00  0.00     0.166 HD
BRANCH  14  19
HETATM   19  O2  UNL     1       0.486  53.123 -25.326  1.00  0.00    -0.332 OA
BRANCH  19  20
HETATM   20  C3  UNL     1       0.172  54.144 -26.278  1.00  0.00     0.203 C 
BRANCH  20  21
HETATM   21  C2  UNL     1      -0.552  53.505 -27.467  1.00  0.00     0.193 C 
BRANCH  21  22
HETATM   22  O1  UNL     1      -1.976  53.462 -27.323  1.00  0.00    -0.394 OA
HETATM   23  C1  UNL     1      -2.488  52.157 -27.087  1.00  0.00     0.201 C 
ENDBRANCH  21  22
ENDBRANCH  20  21
ENDBRANCH  19  20
ENDBRANCH  14  19
ENDBRANCH   1   7
BRANCH   4  24
HETATM   24  C9  UNL     1       0.881  51.818 -15.363  1.00  0.00     0.114 C 
HETATM   25  C10 UNL     1       2.067  50.878 -15.098  1.00  0.00     0.029 C 
HETATM   26  C11 UNL     1       2.223  50.527 -13.618  1.00  0.00     0.032 C 
HETATM   27  C12 UNL     1       1.746  51.663 -12.718  1.00  0.00     0.273 C 
HETATM   28  N5  UNL     1       0.327  51.992 -12.902  1.00  0.00     0.094 N 
HETATM   29  C21 UNL     1      -0.181  51.684 -14.251  1.00  0.00     0.297 C 
BRANCH  28  30
HETATM   30  C13 UNL     1      -0.554  51.409 -11.876  1.00  0.00     0.317 C 
BRANCH  30  31
HETATM   31  C14 UNL     1      -1.653  52.340 -11.416  1.00  0.00     0.042 A 
HETATM   32  C15 UNL     1      -2.970  52.089 -11.826  1.00  0.00     0.127 A 
HETATM   33  F1  UNL     1      -3.244  51.022 -12.591  1.00  0.00    -0.205 F 
HETATM   34  C16 UNL     1      -4.025  52.909 -11.438  1.00  0.00     0.043 A 
HETATM   35  C17 UNL     1      -3.775  54.006 -10.621  1.00  0.00     0.006 A 
HETATM   36  C18 UNL     1      -2.472  54.272 -10.192  1.00  0.00     0.037 A 
HETATM   37  C19 UNL     1      -1.406  53.448 -10.583  1.00  0.00     0.079 A 
BRANCH  37  38
HETATM   38  O4  UNL     1      -0.103  53.637 -10.199  1.00  0.00    -0.355 OA
HETATM   39  C20 UNL     1       0.520  54.861 -10.571  1.00  0.00     0.210 C 
ENDBRANCH  37  38
ENDBRANCH  30  31
ENDBRANCH  28  30
ENDBRANCH   4  24
TORSDOF 9
ENDMDL
