MODEL 1
REMARK minimizedAffinity -9.14113617
REMARK  4 active torsions:
REMARK  status: ('A' for Active; 'I' for Inactive)
REMARK    1  A    between atoms: C2_2  and  N1_3 
REMARK    2  A    between atoms: C2_2  and  C15_25 
REMARK       I    between atoms: N1_3  and  C3_4 
REMARK       I    between atoms: C3_4  and  N2_6 
REMARK    3  A    between atoms: N2_6  and  C4_7 
REMARK    4  A    between atoms: N5_14  and  C8_15 
ROOT
HETATM    1  C4  UNL     1       0.800  52.812 -19.018  1.00  0.00     0.111 A 
HETATM    2  C5  UNL     1      -0.064  51.825 -19.474  1.00  0.00     0.080 A 
HETATM    3  C6  UNL     1      -0.217  51.765 -20.859  1.00  0.00     0.067 A 
HETATM    4  N3  UNL     1      -0.961  50.948 -21.663  1.00  0.00    -0.298 N 
HETATM    5  N4  UNL     1      -0.840  51.209 -22.973  1.00  0.00    -0.284 N 
ATOM      6  H4  UNL     1      -1.299  50.735 -23.751  1.00  0.00     0.188 HD
HETATM    7  C7  UNL     1       0.016  52.231 -23.028  1.00  0.00     0.130 A 
HETATM    8  N5  UNL     1       0.439  52.836 -24.161  1.00  0.00    -0.368 N 
HETATM    9  C13 UNL     1       0.444  52.622 -21.727  1.00  0.00     0.052 A 
HETATM   10  C14 UNL     1       1.301  53.576 -21.182  1.00  0.00     0.107 A 
HETATM   11  N7  UNL     1       1.468  53.661 -19.835  1.00  0.00    -0.351 N 
ATOM     12  H7  UNL     1       2.094  54.363 -19.441  1.00  0.00     0.166 HD
HETATM   13  H8  UNL     1      -1.574  50.193 -21.378  1.00  0.00     0.187 HD
HETATM   14  H9  UNL     1       0.865  53.755 -24.103  1.00  0.00     0.161 HD
ENDROOT
BRANCH   1  15
HETATM   15  N2  UNL     1       1.085  53.022 -17.669  1.00  0.00    -0.295 N 
HETATM   16  C3  UNL     1       1.000  52.131 -16.631  1.00  0.00     0.322 C 
HETATM   17  N1  UNL     1       1.416  52.711 -15.450  1.00  0.00    -0.335 N 
HETATM   18  O1  UNL     1       0.592  50.979 -16.699  1.00  0.00    -0.247 OA
HETATM   19  H5  UNL     1       2.102  53.442 -15.554  1.00  0.00     0.165 HD
HETATM   20  H6  UNL     1       1.268  53.990 -17.459  1.00  0.00     0.172 HD
BRANCH  17  21
HETATM   21  C2  UNL     1       1.529  51.925 -14.229  1.00  0.00     0.115 C 
HETATM   22  C1  UNL     1       1.820  50.465 -14.581  1.00  0.00     0.037 C 
BRANCH  21  23
HETATM   23  C15 UNL     1       0.283  52.118 -13.379  1.00  0.00    -0.036 A 
HETATM   24  C16 UNL     1      -0.964  51.574 -13.727  1.00  0.00     0.009 A 
HETATM   25  C17 UNL     1      -2.089  51.799 -12.930  1.00  0.00     0.001 A 
HETATM   26  C18 UNL     1      -1.988  52.581 -11.781  1.00  0.00     0.000 A 
HETATM   27  C19 UNL     1      -0.763  53.142 -11.430  1.00  0.00     0.001 A 
HETATM   28  C20 UNL     1       0.361  52.916 -12.225  1.00  0.00     0.009 A 
ENDBRANCH  21  23
ENDBRANCH  17  21
ENDBRANCH   1  15
BRANCH   8  29
HETATM   29  C8  UNL     1      -0.207  52.552 -25.445  1.00  0.00     0.111 C 
HETATM   30  C9  UNL     1       0.344  51.218 -25.990  1.00  0.00     0.028 C 
HETATM   31  C10 UNL     1       1.419  51.456 -27.045  1.00  0.00     0.032 C 
HETATM   32  C11 UNL     1       0.871  52.277 -28.217  1.00  0.00     0.270 C 
HETATM   33  N6  UNL     1      -0.093  53.318 -27.850  1.00  0.00     0.085 N 
HETATM   34  C12 UNL     1       0.039  53.716 -26.442  1.00  0.00     0.294 C 
HETATM   35  H17 UNL     1      -1.040  52.967 -27.995  1.00  0.00     0.315 HD
ENDBRANCH   8  29
TORSDOF 4
ENDMDL
