MODEL 1
REMARK minimizedAffinity -8.74780941
REMARK  7 active torsions:
REMARK  status: ('A' for Active; 'I' for Inactive)
REMARK    1  A    between atoms: O1_2  and  C2_3 
REMARK    2  A    between atoms: C2_3  and  C3_4 
REMARK    3  A    between atoms: C3_4  and  N1_5 
REMARK    4  A    between atoms: C3_4  and  C16_27 
REMARK       I    between atoms: N1_5  and  C4_6 
REMARK       I    between atoms: C4_6  and  N2_8 
REMARK    5  A    between atoms: N2_8  and  C5_9 
REMARK    6  A    between atoms: C8_15  and  O3_16 
REMARK    7  A    between atoms: O3_16  and  C9_17 
ROOT
HETATM    1  C5  UNL     1      -2.743  51.014 -26.787  1.00  0.00     0.111 A 
HETATM    2  C6  UNL     1      -2.185  52.257 -27.064  1.00  0.00     0.080 A 
HETATM    3  C7  UNL     1      -1.167  52.658 -26.199  1.00  0.00     0.067 A 
HETATM    4  N3  UNL     1      -0.399  53.793 -26.144  1.00  0.00    -0.298 N 
HETATM    5  N4  UNL     1       0.496  53.802 -25.137  1.00  0.00    -0.279 N 
ATOM      6  H4  UNL     1       1.172  54.525 -24.892  1.00  0.00     0.189 HD
HETATM    7  C8  UNL     1       0.280  52.630 -24.542  1.00  0.00     0.171 A 
HETATM    8  C14 UNL     1      -0.746  51.872 -25.134  1.00  0.00     0.060 A 
HETATM    9  C15 UNL     1      -1.367  50.646 -24.917  1.00  0.00     0.108 A 
HETATM   10  N6  UNL     1      -2.355  50.229 -25.751  1.00  0.00    -0.351 N 
ATOM     11  H6  UNL     1      -2.805  49.326 -25.599  1.00  0.00     0.166 HD
HETATM   12  H10 UNL     1      -0.439  54.598 -26.761  1.00  0.00     0.187 HD
ENDROOT
BRANCH   1  13
HETATM   13  N2  UNL     1      -3.769  50.445 -27.541  1.00  0.00    -0.295 N 
HETATM   14  C4  UNL     1      -3.903  49.147 -27.960  1.00  0.00     0.322 C 
HETATM   15  N1  UNL     1      -5.045  48.984 -28.711  1.00  0.00    -0.332 N 
HETATM   16  O2  UNL     1      -3.145  48.222 -27.694  1.00  0.00    -0.247 OA
HETATM   17  H7  UNL     1      -5.453  49.815 -29.104  1.00  0.00     0.165 HD
HETATM   18  H8  UNL     1      -4.529  51.087 -27.699  1.00  0.00     0.172 HD
BRANCH  15  19
HETATM   19  C3  UNL     1      -5.333  47.729 -29.402  1.00  0.00     0.143 C 
BRANCH  19  20
HETATM   20  C2  UNL     1      -5.776  47.966 -30.869  1.00  0.00     0.197 C 
BRANCH  20  21
HETATM   21  O1  UNL     1      -4.707  48.324 -31.752  1.00  0.00    -0.394 OA
HETATM   22  C1  UNL     1      -4.662  47.526 -32.928  1.00  0.00     0.201 C 
ENDBRANCH  20  21
ENDBRANCH  19  20
BRANCH  19  23
HETATM   23  C16 UNL     1      -6.384  46.951 -28.623  1.00  0.00    -0.033 A 
HETATM   24  C17 UNL     1      -6.914  45.739 -29.094  1.00  0.00     0.009 A 
HETATM   25  C18 UNL     1      -7.871  45.043 -28.353  1.00  0.00     0.001 A 
HETATM   26  C19 UNL     1      -8.319  45.551 -27.136  1.00  0.00     0.000 A 
HETATM   27  C20 UNL     1      -7.814  46.759 -26.661  1.00  0.00     0.001 A 
HETATM   28  C21 UNL     1      -6.856  47.457 -27.400  1.00  0.00     0.009 A 
ENDBRANCH  19  23
ENDBRANCH  15  19
ENDBRANCH   1  13
BRANCH   7  29
HETATM   29  O3  UNL     1       1.003  52.342 -23.445  1.00  0.00    -0.329 OA
BRANCH  29  30
HETATM   30  C9  UNL     1       0.307  52.695 -22.243  1.00  0.00     0.134 C 
HETATM   31  C10 UNL     1       1.204  53.659 -21.462  1.00  0.00     0.062 C 
HETATM   32  C11 UNL     1       0.612  53.963 -20.090  1.00  0.00     0.272 C 
HETATM   33  N5  UNL     1       0.372  52.743 -19.318  1.00  0.00     0.083 N 
HETATM   34  C12 UNL     1      -0.521  51.829 -20.033  1.00  0.00     0.272 C 
HETATM   35  H16 UNL     1       1.263  52.272 -19.150  1.00  0.00     0.315 HD
HETATM   36  C13 UNL     1       0.032  51.446 -21.400  1.00  0.00     0.062 C 
ENDBRANCH  29  30
ENDBRANCH   7  29
TORSDOF 7
ENDMDL
