MODEL 1
REMARK minimizedAffinity -9.20279121
REMARK  7 active torsions:
REMARK  status: ('A' for Active; 'I' for Inactive)
REMARK    1  A    between atoms: C2_2  and  C3_3 
REMARK    2  A    between atoms: C2_2  and  N2_10 
REMARK    3  A    between atoms: C3_3  and  C4_4 
REMARK    4  A    between atoms: N2_10  and  C9_11 
REMARK    5  A    between atoms: C12_17  and  N5_18 
REMARK       I    between atoms: N5_18  and  C13_19 
REMARK       I    between atoms: C13_19  and  N6_21 
REMARK    6  A    between atoms: N6_21  and  C14_22 
REMARK    7  A    between atoms: C14_22  and  C16_24 
ROOT
HETATM    1  C9  UNL     1       0.319  53.099 -24.507  1.00  0.00     0.130 A 
HETATM    2  N3  UNL     1       0.861  54.244 -24.916  1.00  0.00    -0.284 N 
ATOM      3  H3  UNL     1       0.899  54.613 -25.866  1.00  0.00     0.188 HD
HETATM    4  N4  UNL     1       1.347  54.802 -23.799  1.00  0.00    -0.298 N 
HETATM    5  C10 UNL     1       1.168  54.052 -22.673  1.00  0.00     0.067 A 
HETATM    6  C11 UNL     1       1.523  54.261 -21.341  1.00  0.00     0.080 A 
HETATM    7  C12 UNL     1       1.139  53.255 -20.465  1.00  0.00     0.111 A 
HETATM    8  N7  UNL     1       0.476  52.138 -20.845  1.00  0.00    -0.351 N 
ATOM      9  H7  UNL     1       0.225  51.432 -20.154  1.00  0.00     0.166 HD
HETATM   10  C22 UNL     1       0.145  51.961 -22.152  1.00  0.00     0.107 A 
HETATM   11  C23 UNL     1       0.486  52.923 -23.101  1.00  0.00     0.052 A 
HETATM   12  H18 UNL     1       1.796  55.707 -23.873  1.00  0.00     0.187 HD
ENDROOT
BRANCH   7  13
HETATM   13  N5  UNL     1       1.362  53.311 -19.090  1.00  0.00    -0.295 N 
HETATM   14  C13 UNL     1       0.799  52.547 -18.103  1.00  0.00     0.322 C 
HETATM   15  O1  UNL     1      -0.102  51.733 -18.241  1.00  0.00    -0.247 OA
HETATM   16  N6  UNL     1       1.383  52.802 -16.884  1.00  0.00    -0.335 N 
HETATM   17  H21 UNL     1       2.311  53.202 -16.903  1.00  0.00     0.165 HD
HETATM   18  H20 UNL     1       1.939  54.092 -18.824  1.00  0.00     0.172 HD
BRANCH  16  19
HETATM   19  C14 UNL     1       1.029  52.031 -15.700  1.00  0.00     0.115 C 
HETATM   20  C15 UNL     1       2.281  51.451 -15.042  1.00  0.00     0.037 C 
BRANCH  19  21
HETATM   21  C16 UNL     1      -0.010  50.993 -16.086  1.00  0.00    -0.036 A 
HETATM   22  C17 UNL     1      -1.387  51.205 -15.930  1.00  0.00     0.009 A 
HETATM   23  C18 UNL     1      -2.303  50.198 -16.240  1.00  0.00     0.001 A 
HETATM   24  C19 UNL     1      -1.854  48.960 -16.696  1.00  0.00     0.000 A 
HETATM   25  C20 UNL     1      -0.488  48.729 -16.849  1.00  0.00     0.001 A 
HETATM   26  C21 UNL     1       0.426  49.735 -16.541  1.00  0.00     0.009 A 
ENDBRANCH  19  21
ENDBRANCH  16  19
ENDBRANCH   7  13
BRANCH   1  27
HETATM   27  N2  UNL     1      -0.302  52.171 -25.277  1.00  0.00    -0.370 N 
HETATM   28  H17 UNL     1       0.100  51.232 -25.216  1.00  0.00     0.161 HD
BRANCH  27  29
HETATM   29  C2  UNL     1      -0.727  52.412 -26.659  1.00  0.00     0.081 C 
HETATM   30  C1  UNL     1       0.153  51.696 -27.685  1.00  0.00     0.032 C 
BRANCH  29  31
HETATM   31  C3  UNL     1      -2.226  52.112 -26.862  1.00  0.00     0.060 C 
BRANCH  31  32
HETATM   32  C4  UNL     1      -2.764  50.812 -26.214  1.00  0.00     0.222 C 
HETATM   33  C5  UNL     1      -2.959  49.676 -27.238  1.00  0.00     0.036 C 
HETATM   34  C6  UNL     1      -3.791  48.510 -26.692  1.00  0.00     0.004 C 
HETATM   35  C7  UNL     1      -3.844  48.532 -25.170  1.00  0.00     0.030 C 
HETATM   36  C8  UNL     1      -4.386  49.867 -24.653  1.00  0.00     0.270 C 
HETATM   37  N1  UNL     1      -4.009  51.022 -25.468  1.00  0.00     0.088 N 
HETATM   38  H16 UNL     1      -3.910  51.841 -24.864  1.00  0.00     0.316 HD
ENDBRANCH  31  32
ENDBRANCH  29  31
ENDBRANCH  27  29
ENDBRANCH   1  27
TORSDOF 7
ENDMDL
