MODEL 1
REMARK minimizedAffinity -8.32843685
REMARK  5 active torsions:
REMARK  status: ('A' for Active; 'I' for Inactive)
REMARK    1  A    between atoms: C2_2  and  C3_3 
REMARK       I    between atoms: C3_3  and  N1_5 
REMARK    2  A    between atoms: N1_5  and  C4_6 
REMARK    3  A    between atoms: C9_11  and  N2_12 
REMARK    4  A    between atoms: N2_12  and  C10_13 
REMARK    5  A    between atoms: C11_16  and  N4_17 
ROOT
HETATM    1  C10 UNL     1      -2.037  50.394 -22.426  1.00  0.00     0.124 A 
HETATM    2  N3  UNL     1      -3.066  50.021 -23.218  1.00  0.00    -0.179 N 
ATOM      3  H3  UNL     1      -3.588  50.716 -23.753  1.00  0.00     0.185 HD
HETATM    4  C11 UNL     1      -3.392  48.720 -23.290  1.00  0.00     0.684 A 
HETATM    5  N7  UNL     1      -2.748  47.764 -22.604  1.00  0.00    -0.200 N 
ATOM      6  H7  UNL     1      -3.010  46.782 -22.689  1.00  0.00     0.183 HD
HETATM    7  C16 UNL     1      -1.742  48.156 -21.800  1.00  0.00     0.133 A 
HETATM    8  C17 UNL     1      -1.346  49.463 -21.661  1.00  0.00     0.089 A 
HETATM    9 CL1  UNL     1      -0.053  49.886 -20.610  1.00  0.00    -0.079 Cl
ENDROOT
BRANCH   1  10
HETATM   10  N2  UNL     1      -1.734  51.779 -22.283  1.00  0.00    -0.241 NA
HETATM   11  H9  UNL     1      -2.582  52.256 -21.968  1.00  0.00     0.135 HD
BRANCH  10  12
HETATM   12  C9  UNL     1      -0.650  52.319 -21.525  1.00  0.00     0.041 A 
HETATM   13  C4  UNL     1       0.535  52.691 -22.205  1.00  0.00     0.056 A 
HETATM   14  C5  UNL     1       1.555  53.346 -21.512  1.00  0.00     0.031 A 
HETATM   15  C6  UNL     1       1.404  53.647 -20.156  1.00  0.00     0.002 A 
HETATM   16  C7  UNL     1       0.234  53.304 -19.487  1.00  0.00     0.002 A 
HETATM   17  C8  UNL     1      -0.795  52.655 -20.171  1.00  0.00     0.026 A 
BRANCH  13  18
HETATM   18  N1  UNL     1       0.616  52.339 -23.573  1.00  0.00    -0.322 N 
HETATM   19  C3  UNL     1       0.699  53.181 -24.659  1.00  0.00     0.244 C 
HETATM   20  O1  UNL     1       0.667  54.404 -24.653  1.00  0.00    -0.268 OA
HETATM   21  H4  UNL     1       0.646  51.339 -23.728  1.00  0.00     0.169 HD
BRANCH  19  22
HETATM   22  C2  UNL     1       0.827  52.419 -25.936  1.00  0.00     0.064 C 
HETATM   23  C1  UNL     1       1.795  51.505 -26.091  1.00  0.00     0.017 C 
ENDBRANCH  19  22
ENDBRANCH  13  18
ENDBRANCH  10  12
ENDBRANCH   1  10
BRANCH   4  24
HETATM   24  N4  UNL     1      -4.463  48.434 -24.138  1.00  0.00    -0.175 N 
HETATM   25  C12 UNL     1      -4.487  48.393 -25.491  1.00  0.00     0.138 A 
HETATM   26  C13 UNL     1      -3.533  48.628 -26.458  1.00  0.00     0.069 A 
HETATM   27  N6  UNL     1      -5.628  48.063 -26.191  1.00  0.00    -0.281 N 
HETATM   28  C14 UNL     1      -4.186  48.419 -27.686  1.00  0.00     0.111 A 
HETATM   29  N5  UNL     1      -5.464  48.076 -27.530  1.00  0.00    -0.308 N 
ATOM     30  H5  UNL     1      -6.156  47.873 -28.253  1.00  0.00     0.186 HD
HETATM   31  C15 UNL     1      -6.920  47.719 -25.648  1.00  0.00     0.179 C 
HETATM   32  H10 UNL     1      -5.268  48.225 -23.558  1.00  0.00     0.186 HD
ENDBRANCH   4  24
TORSDOF 5
ENDMDL
