MODEL 1
REMARK minimizedAffinity -8.96196842
REMARK  9 active torsions:
REMARK  status: ('A' for Active; 'I' for Inactive)
REMARK    1  A    between atoms: O1_2  and  C2_3 
REMARK    2  A    between atoms: C2_3  and  C3_4 
REMARK    3  A    between atoms: C3_4  and  N1_5 
REMARK    4  A    between atoms: C3_4  and  C19_30 
REMARK       I    between atoms: N1_5  and  C4_6 
REMARK       I    between atoms: C4_6  and  N2_8 
REMARK    5  A    between atoms: N2_8  and  C5_9 
REMARK    6  A    between atoms: N5_16  and  C9_17 
REMARK    7  A    between atoms: C9_17  and  C10_18 
REMARK    8  A    between atoms: C12_20  and  C13_21 
REMARK    9  A    between atoms: C13_21  and  O3_24 
ROOT
HETATM    1  C5  UNL     1      -3.348  48.781 -23.784  1.00  0.00     0.111 A 
HETATM    2  C6  UNL     1      -2.901  48.901 -25.094  1.00  0.00     0.080 A 
HETATM    3  C7  UNL     1      -3.859  48.644 -26.075  1.00  0.00     0.067 A 
HETATM    4  N3  UNL     1      -3.798  48.661 -27.439  1.00  0.00    -0.298 N 
HETATM    5  N4  UNL     1      -4.954  48.351 -28.043  1.00  0.00    -0.284 N 
ATOM      6  H4  UNL     1      -5.144  48.302 -29.044  1.00  0.00     0.188 HD
HETATM    7  C8  UNL     1      -5.802  48.122 -27.038  1.00  0.00     0.129 A 
HETATM    8  N5  UNL     1      -7.103  47.771 -27.174  1.00  0.00    -0.374 N 
HETATM    9  C17 UNL     1      -5.165  48.289 -25.776  1.00  0.00     0.052 A 
HETATM   10  C18 UNL     1      -5.526  48.180 -24.433  1.00  0.00     0.107 A 
HETATM   11  N6  UNL     1      -4.614  48.428 -23.455  1.00  0.00    -0.351 N 
ATOM     12  H6  UNL     1      -4.884  48.349 -22.474  1.00  0.00     0.166 HD
HETATM   13  H10 UNL     1      -2.995  48.876 -28.020  1.00  0.00     0.187 HD
HETATM   14  H11 UNL     1      -7.720  47.913 -26.384  1.00  0.00     0.161 HD
ENDROOT
BRANCH   1  15
HETATM   15  N2  UNL     1      -2.536  48.998 -22.671  1.00  0.00    -0.295 N 
HETATM   16  C4  UNL     1      -2.580  50.029 -21.773  1.00  0.00     0.322 C 
HETATM   17  N1  UNL     1      -1.591  49.899 -20.822  1.00  0.00    -0.332 N 
HETATM   18  O2  UNL     1      -3.384  50.953 -21.760  1.00  0.00    -0.247 OA
HETATM   19  H7  UNL     1      -0.737  49.474 -21.150  1.00  0.00     0.165 HD
HETATM   20  H8  UNL     1      -1.920  48.225 -22.479  1.00  0.00     0.172 HD
BRANCH  17  21
HETATM   21  C3  UNL     1      -1.374  50.959 -19.844  1.00  0.00     0.143 C 
BRANCH  21  22
HETATM   22  C2  UNL     1      -2.714  51.537 -19.323  1.00  0.00     0.197 C 
BRANCH  22  23
HETATM   23  O1  UNL     1      -2.875  51.284 -17.917  1.00  0.00    -0.394 OA
HETATM   24  C1  UNL     1      -1.716  50.672 -17.365  1.00  0.00     0.201 C 
ENDBRANCH  22  23
ENDBRANCH  21  22
BRANCH  21  25
HETATM   25  C19 UNL     1      -0.422  51.994 -20.426  1.00  0.00    -0.033 A 
HETATM   26  C20 UNL     1       0.063  53.020 -19.596  1.00  0.00     0.009 A 
HETATM   27  C21 UNL     1       0.950  53.982 -20.085  1.00  0.00     0.001 A 
HETATM   28  C22 UNL     1       1.373  53.928 -21.410  1.00  0.00     0.000 A 
HETATM   29  C23 UNL     1       0.917  52.908 -22.243  1.00  0.00     0.001 A 
HETATM   30  C24 UNL     1       0.031  51.945 -21.754  1.00  0.00     0.009 A 
ENDBRANCH  21  25
ENDBRANCH  17  21
ENDBRANCH   1  15
BRANCH   8  31
HETATM   31  C9  UNL     1      -7.750  47.887 -28.474  1.00  0.00     0.126 C 
BRANCH  31  32
HETATM   32  C10 UNL     1      -6.766  47.806 -29.641  1.00  0.00     0.004 C 
HETATM   33  C11 UNL     1      -7.092  48.511 -30.980  1.00  0.00     0.014 C 
HETATM   34  C12 UNL     1      -6.464  47.304 -31.734  1.00  0.00     0.020 C 
HETATM   35  C16 UNL     1      -6.652  46.479 -30.427  1.00  0.00     0.014 C 
BRANCH  34  36
HETATM   36  C13 UNL     1      -5.051  47.459 -32.323  1.00  0.00     0.054 C 
HETATM   37  C14 UNL     1      -5.143  47.726 -33.826  1.00  0.00     0.045 C 
HETATM   38  C15 UNL     1      -4.231  46.191 -32.073  1.00  0.00     0.045 C 
BRANCH  36  39
HETATM   39  O3  UNL     1      -4.381  48.570 -31.731  1.00  0.00    -0.390 OA
HETATM   40  H24 UNL     1      -4.152  48.336 -30.816  1.00  0.00     0.210 HD
ENDBRANCH  36  39
ENDBRANCH  34  36
ENDBRANCH  31  32
ENDBRANCH   8  31
TORSDOF 9
ENDMDL
