MODEL 1
REMARK minimizedAffinity -8.5048666
REMARK  6 active torsions:
REMARK  status: ('A' for Active; 'I' for Inactive)
REMARK    1  A    between atoms: O1_2  and  C2_3 
REMARK    2  A    between atoms: C2_3  and  C3_4 
REMARK    3  A    between atoms: C3_4  and  N1_5 
REMARK    4  A    between atoms: C3_4  and  C14_25 
REMARK       I    between atoms: N1_5  and  C4_6 
REMARK       I    between atoms: C4_6  and  N2_8 
REMARK    5  A    between atoms: N2_8  and  C5_9 
REMARK    6  A    between atoms: C8_15  and  C9_16 
ROOT
HETATM    1  C5  UNL     1      -3.115  48.684 -24.597  1.00  0.00     0.111 A 
HETATM    2  C6  UNL     1      -4.475  48.444 -24.400  1.00  0.00     0.080 A 
HETATM    3  C7  UNL     1      -5.227  48.256 -25.560  1.00  0.00     0.065 A 
HETATM    4  N3  UNL     1      -6.558  48.008 -25.767  1.00  0.00    -0.300 N 
HETATM    5  N4  UNL     1      -6.901  47.896 -27.061  1.00  0.00    -0.303 N 
ATOM      6  H4  UNL     1      -7.827  47.738 -27.457  1.00  0.00     0.186 HD
HETATM    7  C8  UNL     1      -5.741  48.039 -27.703  1.00  0.00     0.050 A 
HETATM    8  C12 UNL     1      -4.661  48.296 -26.828  1.00  0.00     0.032 A 
HETATM    9  C13 UNL     1      -3.297  48.554 -26.934  1.00  0.00     0.105 A 
HETATM   10  N5  UNL     1      -2.553  48.748 -25.816  1.00  0.00    -0.351 N 
ATOM     11  H5  UNL     1      -1.556  48.945 -25.902  1.00  0.00     0.166 HD
HETATM   12  H10 UNL     1      -7.289  47.910 -25.071  1.00  0.00     0.187 HD
ENDROOT
BRANCH   1  13
HETATM   13  N2  UNL     1      -2.338  48.880 -23.448  1.00  0.00    -0.295 N 
HETATM   14  C4  UNL     1      -2.433  49.951 -22.589  1.00  0.00     0.322 C 
HETATM   15  N1  UNL     1      -1.571  49.779 -21.517  1.00  0.00    -0.332 N 
HETATM   16  O2  UNL     1      -3.139  50.943 -22.702  1.00  0.00    -0.247 OA
HETATM   17  H7  UNL     1      -1.518  48.820 -21.205  1.00  0.00     0.165 HD
HETATM   18  H8  UNL     1      -1.563  48.257 -23.300  1.00  0.00     0.172 HD
BRANCH  15  19
HETATM   19  C3  UNL     1      -1.552  50.767 -20.435  1.00  0.00     0.143 C 
BRANCH  19  20
HETATM   20  C2  UNL     1      -2.949  51.369 -20.138  1.00  0.00     0.197 C 
BRANCH  20  21
HETATM   21  O1  UNL     1      -3.059  51.776 -18.766  1.00  0.00    -0.394 OA
HETATM   22  C1  UNL     1      -2.810  50.717 -17.851  1.00  0.00     0.201 C 
ENDBRANCH  20  21
ENDBRANCH  19  20
BRANCH  19  23
HETATM   23  C14 UNL     1      -0.539  51.853 -20.786  1.00  0.00    -0.033 A 
HETATM   24  C15 UNL     1      -0.007  52.702 -19.798  1.00  0.00     0.012 A 
HETATM   25  C16 UNL     1       0.913  53.694 -20.140  1.00  0.00     0.043 A 
HETATM   26  C17 UNL     1       1.303  53.841 -21.465  1.00  0.00     0.116 A 
HETATM   27  F3  UNL     1       2.184  54.796 -21.791  1.00  0.00    -0.206 F 
HETATM   28  C18 UNL     1       0.792  53.015 -22.457  1.00  0.00     0.043 A 
HETATM   29  C19 UNL     1      -0.127  52.021 -22.119  1.00  0.00     0.012 A 
ENDBRANCH  19  23
ENDBRANCH  15  19
ENDBRANCH   1  13
BRANCH   7  30
HETATM   30  C9  UNL     1      -5.644  47.976 -29.247  1.00  0.00     0.116 A 
HETATM   31  C10 UNL     1      -6.152  46.759 -29.993  1.00  0.00     0.096 A 
HETATM   32  C11 UNL     1      -6.886  48.046 -30.055  1.00  0.00     0.253 A 
HETATM   33  F1  UNL     1      -8.142  48.123 -29.498  1.00  0.00    -0.206 F 
HETATM   34  F2  UNL     1      -6.921  48.738 -31.245  1.00  0.00    -0.206 F 
ENDBRANCH   7  30
TORSDOF 6
ENDMDL
