MODEL 1
REMARK minimizedAffinity -8.56162739
REMARK CNNscore 0.405642003
REMARK CNNaffinity 5.68852282
REMARK  8 active torsions:
REMARK  status: ('A' for Active; 'I' for Inactive)
REMARK    1  A    between atoms: C2_2  and  C4_4 
REMARK    2  A    between atoms: C6_6  and  N1_7 
REMARK       I    between atoms: N1_7  and  C7_8 
REMARK    3  A    between atoms: C7_8  and  C8_10 
REMARK    4  A    between atoms: N2_13  and  C11_14 
REMARK    5  A    between atoms: C11_14  and  C12_15 
REMARK       I    between atoms: C12_15  and  N3_17 
REMARK    6  A    between atoms: N4_20  and  C15_21 
REMARK    7  A    between atoms: C18_24  and  C19_25 
REMARK    8  A    between atoms: C30_40  and  O3_41 
ROOT
HETATM    1  C12 UNL     1      -8.588  47.109 -30.412  1.00  0.00     0.248 C 
HETATM    2  O2  UNL     1      -8.167  47.143 -31.573  1.00  0.00    -0.271 OA
HETATM    3  N3  UNL     1      -7.751  47.357 -29.325  1.00  0.00    -0.348 N 
HETATM    4  C13 UNL     1      -8.247  47.630 -27.969  1.00  0.00     0.145 C 
HETATM    5  C14 UNL     1      -7.180  47.423 -26.870  1.00  0.00     0.143 C 
HETATM    6  N4  UNL     1      -5.918  48.121 -27.214  1.00  0.00    -0.378 N 
HETATM    7  C25 UNL     1      -5.397  47.715 -28.537  1.00  0.00     0.143 C 
HETATM    8  C26 UNL     1      -6.448  47.955 -29.631  1.00  0.00     0.145 C 
ENDROOT
BRANCH   1   9
HETATM    9  C11 UNL     1     -10.065  46.770 -30.160  1.00  0.00     0.374 C 
BRANCH   9  10
HETATM   10  N2  UNL     1     -10.346  45.314 -30.271  1.00  0.00     0.098 N 
HETATM   11  C10 UNL     1      -9.686  44.539 -29.204  1.00  0.00     0.274 C 
HETATM   12  C9  UNL     1     -10.654  44.546 -28.042  1.00  0.00     0.046 C 
HETATM   13  C8  UNL     1     -11.997  44.395 -28.737  1.00  0.00     0.108 C 
HETATM   14  C27 UNL     1     -11.798  45.074 -30.093  1.00  0.00     0.287 C 
BRANCH  13  15
HETATM   15  C7  UNL     1     -13.164  44.987 -27.962  1.00  0.00     0.228 C 
HETATM   16  N1  UNL     1     -14.377  44.415 -28.320  1.00  0.00    -0.327 N 
HETATM   17  H9  UNL     1     -14.344  43.643 -28.973  1.00  0.00     0.169 HD
HETATM   18  O1  UNL     1     -13.000  45.854 -27.113  1.00  0.00    -0.273 OA
BRANCH  16  19
HETATM   19  C6  UNL     1     -15.650  44.691 -27.767  1.00  0.00     0.035 A 
HETATM   20  C5  UNL     1     -15.858  45.478 -26.628  1.00  0.00     0.039 A 
HETATM   21  C4  UNL     1     -17.154  45.728 -26.117  1.00  0.00    -0.019 A 
HETATM   22  C30 UNL     1     -18.235  45.112 -26.763  1.00  0.00     0.072 A 
HETATM   23  C29 UNL     1     -18.039  44.337 -27.906  1.00  0.00     0.039 A 
HETATM   24  C28 UNL     1     -16.754  44.134 -28.412  1.00  0.00     0.032 A 
BRANCH  21  25
HETATM   25  C2  UNL     1     -17.260  46.663 -24.920  1.00  0.00     0.013 C 
HETATM   26  C1  UNL     1     -18.624  46.616 -24.228  1.00  0.00     0.015 C 
HETATM   27  C3  UNL     1     -16.110  46.471 -23.929  1.00  0.00     0.015 C 
ENDBRANCH  21  25
BRANCH  22  28
HETATM   28  O3  UNL     1     -19.531  45.210 -26.347  1.00  0.00    -0.360 OA
HETATM   29  H36 UNL     1     -19.544  45.514 -25.426  1.00  0.00     0.217 HD
ENDBRANCH  22  28
ENDBRANCH  16  19
ENDBRANCH  13  15
ENDBRANCH   9  10
ENDBRANCH   1   9
BRANCH   6  30
HETATM   30  C15 UNL     1      -5.001  48.251 -26.160  1.00  0.00     0.030 A 
HETATM   31  C16 UNL     1      -3.632  48.481 -26.352  1.00  0.00     0.030 A 
HETATM   32  C17 UNL     1      -2.759  48.691 -25.272  1.00  0.00     0.017 A 
HETATM   33  C18 UNL     1      -3.214  48.690 -23.945  1.00  0.00     0.008 A 
HETATM   34  C23 UNL     1      -4.580  48.436 -23.750  1.00  0.00     0.017 A 
HETATM   35  C24 UNL     1      -5.450  48.224 -24.832  1.00  0.00     0.030 A 
BRANCH  33  36
HETATM   36  C19 UNL     1      -2.308  48.990 -22.816  1.00  0.00     0.115 A 
HETATM   37  N5  UNL     1      -1.757  50.220 -22.751  1.00  0.00    -0.352 N 
HETATM   38  C20 UNL     1      -0.879  50.434 -21.750  1.00  0.00     0.091 A 
ATOM     39  H5  UNL     1      -1.992  50.950 -23.424  1.00  0.00     0.166 HD
HETATM   40  C21 UNL     1      -0.530  49.482 -20.826  1.00  0.00     0.034 A 
HETATM   41  C22 UNL     1      -1.151  48.265 -20.967  1.00  0.00     0.091 A 
HETATM   42  N6  UNL     1      -2.038  47.994 -21.946  1.00  0.00    -0.352 N 
ATOM     43  H6  UNL     1      -2.485  47.080 -22.024  1.00  0.00     0.166 HD
ENDBRANCH  33  36
ENDBRANCH   6  30
TORSDOF 8
ENDMDL
