MODEL 1
REMARK minimizedAffinity -8.87474251
REMARK  7 active torsions:
REMARK  status: ('A' for Active; 'I' for Inactive)
REMARK    1  A    between atoms: O1_2  and  C2_3 
REMARK    2  A    between atoms: C2_3  and  C3_4 
REMARK    3  A    between atoms: C3_4  and  N1_5 
REMARK    4  A    between atoms: C3_4  and  C17_28 
REMARK       I    between atoms: N1_5  and  C4_6 
REMARK       I    between atoms: C4_6  and  N2_8 
REMARK    5  A    between atoms: N2_8  and  C5_9 
REMARK    6  A    between atoms: C8_15  and  O3_16 
REMARK    7  A    between atoms: O3_16  and  C9_17 
ROOT
HETATM    1  C5  UNL     1      -3.063  48.749 -24.654  1.00  0.00     0.110 A 
HETATM    2  C6  UNL     1      -4.413  48.395 -24.660  1.00  0.00     0.080 A 
HETATM    3  C7  UNL     1      -4.997  48.279 -25.921  1.00  0.00     0.067 A 
HETATM    4  N3  UNL     1      -6.268  47.969 -26.327  1.00  0.00    -0.298 N 
HETATM    5  N4  UNL     1      -6.433  47.962 -27.663  1.00  0.00    -0.279 N 
ATOM      6  H4  UNL     1      -7.280  47.763 -28.196  1.00  0.00     0.189 HD
HETATM    7  C8  UNL     1      -5.220  48.278 -28.121  1.00  0.00     0.171 A 
HETATM    8  C15 UNL     1      -4.281  48.490 -27.093  1.00  0.00     0.060 A 
HETATM    9  C16 UNL     1      -2.935  48.828 -26.999  1.00  0.00     0.108 A 
HETATM   10  N5  UNL     1      -2.349  48.945 -25.780  1.00  0.00    -0.351 N 
ATOM     11  H5  UNL     1      -1.359  49.183 -25.716  1.00  0.00     0.166 HD
HETATM   12  H10 UNL     1      -7.070  47.754 -25.745  1.00  0.00     0.187 HD
ENDROOT
BRANCH   1  13
HETATM   13  N2  UNL     1      -2.447  48.856 -23.401  1.00  0.00    -0.299 N 
HETATM   14  C4  UNL     1      -2.564  49.921 -22.536  1.00  0.00     0.300 C 
HETATM   15  N1  UNL     1      -1.697  49.744 -21.467  1.00  0.00    -0.233 NA
HETATM   16  O2  UNL     1      -3.307  50.885 -22.638  1.00  0.00    -0.254 OA
HETATM   17  H7  UNL     1      -0.777  49.469 -21.786  1.00  0.00     0.133 HD
HETATM   18  H8  UNL     1      -2.036  48.028 -23.005  1.00  0.00     0.171 HD
BRANCH  15  19
HETATM   19  C3  UNL     1      -1.620  50.781 -20.435  1.00  0.00     0.121 C 
BRANCH  19  20
HETATM   20  C2  UNL     1      -3.015  51.406 -20.207  1.00  0.00     0.191 C 
BRANCH  20  21
HETATM   21  O1  UNL     1      -3.151  51.766 -18.822  1.00  0.00    -0.394 OA
HETATM   22  C1  UNL     1      -2.800  50.685 -17.970  1.00  0.00     0.201 C 
ENDBRANCH  20  21
ENDBRANCH  19  20
BRANCH  19  23
HETATM   23  C17 UNL     1      -0.611  51.858 -20.792  1.00  0.00    -0.038 A 
HETATM   24  C18 UNL     1      -0.111  52.744 -19.823  1.00  0.00     0.009 A 
HETATM   25  C19 UNL     1       0.836  53.712 -20.164  1.00  0.00     0.001 A 
HETATM   26  C20 UNL     1       1.290  53.813 -21.477  1.00  0.00     0.000 A 
HETATM   27  C21 UNL     1       0.792  52.951 -22.452  1.00  0.00     0.001 A 
HETATM   28  C22 UNL     1      -0.153  51.981 -22.113  1.00  0.00     0.009 A 
ENDBRANCH  19  23
ENDBRANCH  15  19
ENDBRANCH   1  13
BRANCH   7  29
HETATM   29  O3  UNL     1      -4.962  48.374 -29.445  1.00  0.00    -0.329 OA
BRANCH  29  30
HETATM   30  C9  UNL     1      -5.757  47.544 -30.305  1.00  0.00     0.135 C 
HETATM   31  C10 UNL     1      -6.879  48.376 -30.940  1.00  0.00     0.059 C 
HETATM   32  C11 UNL     1      -7.244  47.824 -32.305  1.00  0.00     0.170 C 
HETATM   33  O4  UNL     1      -6.153  47.841 -33.227  1.00  0.00    -0.386 OA
HETATM   34  C12 UNL     1      -4.848  47.833 -32.634  1.00  0.00     0.119 C 
HETATM   35  C13 UNL     1      -3.874  47.317 -33.685  1.00  0.00     0.039 C 
HETATM   36  C14 UNL     1      -4.815  46.970 -31.375  1.00  0.00     0.064 C 
ENDBRANCH  29  30
ENDBRANCH   7  29
TORSDOF 7
ENDMDL
