MODEL 1
REMARK minimizedAffinity -7.86027479
REMARK  7 active torsions:
REMARK  status: ('A' for Active; 'I' for Inactive)
REMARK    1  A    between atoms: O1_2  and  C2_3 
REMARK    2  A    between atoms: C2_3  and  C3_4 
REMARK    3  A    between atoms: C3_4  and  O2_5 
REMARK    4  A    between atoms: O2_5  and  C4_6 
REMARK    5  A    between atoms: C7_12  and  N3_13 
REMARK       I    between atoms: N3_13  and  C8_14 
REMARK       I    between atoms: C8_14  and  N4_16 
REMARK    6  A    between atoms: N4_16  and  C9_17 
REMARK    7  A    between atoms: C9_17  and  C11_19 
ROOT
HETATM    1  C4  UNL     1       0.726  53.501 -23.828  1.00  0.00     0.171 A 
HETATM    2  N1  UNL     1       1.356  54.664 -24.011  1.00  0.00    -0.279 N 
ATOM      3  H1  UNL     1       1.521  55.165 -24.884  1.00  0.00     0.189 HD
HETATM    4  N2  UNL     1       1.720  55.014 -22.762  1.00  0.00    -0.298 N 
HETATM    5  C5  UNL     1       1.333  54.122 -21.796  1.00  0.00     0.067 A 
HETATM    6  C6  UNL     1       1.499  54.110 -20.412  1.00  0.00     0.080 A 
HETATM    7  C7  UNL     1       0.958  53.007 -19.761  1.00  0.00     0.111 A 
HETATM    8  N5  UNL     1       0.303  52.006 -20.396  1.00  0.00    -0.351 N 
ATOM      9  H5  UNL     1      -0.077  51.225 -19.862  1.00  0.00     0.166 HD
HETATM   10  C17 UNL     1       0.154  52.041 -21.748  1.00  0.00     0.108 A 
HETATM   11  C18 UNL     1       0.671  53.109 -22.476  1.00  0.00     0.060 A 
HETATM   12  H8  UNL     1       2.233  55.880 -22.631  1.00  0.00     0.187 HD
ENDROOT
BRANCH   7  13
HETATM   13  N3  UNL     1       1.020  52.822 -18.379  1.00  0.00    -0.295 N 
HETATM   14  C8  UNL     1       0.601  51.747 -17.644  1.00  0.00     0.322 C 
HETATM   15  O3  UNL     1       0.051  50.742 -18.074  1.00  0.00    -0.247 OA
HETATM   16  N4  UNL     1       0.870  51.933 -16.303  1.00  0.00    -0.335 N 
HETATM   17  H11 UNL     1       1.700  52.477 -16.117  1.00  0.00     0.165 HD
HETATM   18  H10 UNL     1       1.306  53.657 -17.892  1.00  0.00     0.172 HD
BRANCH  16  19
HETATM   19  C9  UNL     1       0.569  50.889 -15.333  1.00  0.00     0.115 C 
HETATM   20  C10 UNL     1       0.247  49.554 -16.011  1.00  0.00     0.037 C 
BRANCH  19  21
HETATM   21  C11 UNL     1      -0.574  51.341 -14.437  1.00  0.00    -0.036 A 
HETATM   22  C12 UNL     1      -0.337  52.072 -13.259  1.00  0.00     0.011 A 
HETATM   23  C13 UNL     1      -1.397  52.469 -12.442  1.00  0.00     0.024 A 
HETATM   24  C14 UNL     1      -2.703  52.137 -12.792  1.00  0.00     0.034 A 
HETATM   25 CL1  UNL     1      -4.009  52.625 -11.784  1.00  0.00    -0.084 Cl
HETATM   26  C15 UNL     1      -2.958  51.408 -13.951  1.00  0.00     0.024 A 
HETATM   27  C16 UNL     1      -1.898  51.011 -14.769  1.00  0.00     0.011 A 
ENDBRANCH  19  21
ENDBRANCH  16  19
ENDBRANCH   7  13
BRANCH   1  28
HETATM   28  O2  UNL     1       0.194  52.816 -24.865  1.00  0.00    -0.332 OA
BRANCH  28  29
HETATM   29  C3  UNL     1      -0.015  53.576 -26.057  1.00  0.00     0.203 C 
BRANCH  29  30
HETATM   30  C2  UNL     1      -0.954  52.858 -27.028  1.00  0.00     0.193 C 
BRANCH  30  31
HETATM   31  O1  UNL     1      -2.330  53.125 -26.744  1.00  0.00    -0.394 OA
HETATM   32  C1  UNL     1      -3.036  51.962 -26.328  1.00  0.00     0.201 C 
ENDBRANCH  30  31
ENDBRANCH  29  30
ENDBRANCH  28  29
ENDBRANCH   1  28
TORSDOF 7
ENDMDL
