MODEL 1
REMARK minimizedAffinity -8.71366215
REMARK CNNscore 0.56009841
REMARK CNNaffinity 6.35778379
REMARK  7 active torsions:
REMARK  status: ('A' for Active; 'I' for Inactive)
REMARK       I    between atoms: C1_2  and  N1_3 
REMARK    1  A    between atoms: C1_2  and  C8_12 
REMARK    2  A    between atoms: N1_3  and  C2_4 
REMARK    3  A    between atoms: C5_7  and  O2_8 
REMARK    4  A    between atoms: N2_15  and  C11_16 
REMARK    5  A    between atoms: C11_16  and  C12_17 
REMARK       I    between atoms: C12_17  and  N3_19 
REMARK    6  A    between atoms: N4_22  and  C15_23 
REMARK    7  A    between atoms: C18_26  and  C19_27 
ROOT
HETATM    1  C12 UNL     1      -6.810  47.749 -25.834  1.00  0.00     0.248 C 
HETATM    2  O3  UNL     1      -6.144  47.838 -26.869  1.00  0.00    -0.271 OA
HETATM    3  N3  UNL     1      -8.188  47.502 -25.881  1.00  0.00    -0.348 N 
HETATM    4  C13 UNL     1      -8.830  47.583 -27.200  1.00  0.00     0.140 C 
HETATM    5  C14 UNL     1     -10.159  46.813 -27.277  1.00  0.00     0.115 C 
HETATM    6  N4  UNL     1     -11.052  47.202 -26.165  1.00  0.00    -0.280 NA
HETATM    7  C25 UNL     1     -10.420  46.993 -24.842  1.00  0.00     0.115 C 
HETATM    8  C26 UNL     1      -9.087  47.761 -24.749  1.00  0.00     0.140 C 
ENDROOT
BRANCH   1   9
HETATM    9  C11 UNL     1      -6.183  47.866 -24.426  1.00  0.00     0.374 C 
BRANCH   9  10
HETATM   10  N2  UNL     1      -5.396  49.109 -24.246  1.00  0.00     0.098 N 
HETATM   11  C10 UNL     1      -4.417  49.312 -25.324  1.00  0.00     0.274 C 
HETATM   12  C9  UNL     1      -3.170  48.552 -24.900  1.00  0.00     0.046 C 
HETATM   13  C8  UNL     1      -3.233  48.519 -23.374  1.00  0.00     0.108 C 
HETATM   14  C27 UNL     1      -4.606  49.074 -23.006  1.00  0.00     0.287 C 
BRANCH  13  15
HETATM   15  C1  UNL     1      -2.102  49.286 -22.699  1.00  0.00     0.228 C 
HETATM   16  O1  UNL     1      -1.427  48.733 -21.834  1.00  0.00    -0.273 OA
HETATM   17  N1  UNL     1      -1.946  50.587 -23.146  1.00  0.00    -0.327 N 
HETATM   18  H1  UNL     1      -2.583  50.898 -23.871  1.00  0.00     0.169 HD
BRANCH  17  19
HETATM   19  C2  UNL     1      -1.013  51.547 -22.700  1.00  0.00     0.036 A 
HETATM   20  C3  UNL     1      -0.125  52.225 -23.541  1.00  0.00     0.032 A 
HETATM   21  C4  UNL     1       0.778  53.161 -23.021  1.00  0.00     0.040 A 
HETATM   22  C5  UNL     1       0.794  53.419 -21.657  1.00  0.00     0.087 A 
HETATM   23  C6  UNL     1      -0.086  52.749 -20.807  1.00  0.00     0.069 A 
HETATM   24 CL1  UNL     1      -0.070  53.061 -19.111  1.00  0.00    -0.081 Cl
HETATM   25  C7  UNL     1      -0.984  51.815 -21.326  1.00  0.00     0.056 A 
BRANCH  22  26
HETATM   26  O2  UNL     1       1.693  54.340 -21.196  1.00  0.00    -0.359 OA
HETATM   27  H4  UNL     1       1.582  54.394 -20.229  1.00  0.00     0.217 HD
ENDBRANCH  22  26
ENDBRANCH  17  19
ENDBRANCH  13  15
ENDBRANCH   9  10
ENDBRANCH   1   9
BRANCH   6  28
HETATM   28  C15 UNL     1     -12.394  46.792 -26.222  1.00  0.00     0.010 A 
HETATM   29  C16 UNL     1     -13.206  46.910 -25.086  1.00  0.00     0.024 A 
HETATM   30  C17 UNL     1     -14.555  46.527 -25.093  1.00  0.00     0.017 A 
HETATM   31  C18 UNL     1     -15.166  46.016 -26.248  1.00  0.00     0.008 A 
HETATM   32  C23 UNL     1     -14.358  45.913 -27.393  1.00  0.00     0.017 A 
HETATM   33  C24 UNL     1     -13.006  46.294 -27.380  1.00  0.00     0.024 A 
BRANCH  31  34
HETATM   34  C19 UNL     1     -16.589  45.623 -26.263  1.00  0.00     0.115 A 
HETATM   35  N5  UNL     1     -17.083  45.077 -27.396  1.00  0.00    -0.352 N 
HETATM   36  C20 UNL     1     -18.388  44.744 -27.386  1.00  0.00     0.091 A 
ATOM     37  H5  UNL     1     -16.498  44.924 -28.217  1.00  0.00     0.166 HD
HETATM   38  C21 UNL     1     -19.211  44.927 -26.301  1.00  0.00     0.034 A 
HETATM   39  C22 UNL     1     -18.614  45.483 -25.195  1.00  0.00     0.091 A 
HETATM   40  N6  UNL     1     -17.317  45.840 -25.148  1.00  0.00    -0.352 N 
ATOM     41  H6  UNL     1     -16.905  46.253 -24.312  1.00  0.00     0.166 HD
ENDBRANCH  31  34
ENDBRANCH   6  28
TORSDOF 7
ENDMDL
