MODEL 1
REMARK minimizedAffinity -8.97961807
REMARK  7 active torsions:
REMARK  status: ('A' for Active; 'I' for Inactive)
REMARK    1  A    between atoms: O1_2  and  C2_3 
REMARK    2  A    between atoms: C2_3  and  C3_4 
REMARK    3  A    between atoms: C3_4  and  N1_5 
REMARK    4  A    between atoms: C3_4  and  C18_29 
REMARK       I    between atoms: N1_5  and  C4_6 
REMARK       I    between atoms: C4_6  and  N2_8 
REMARK    5  A    between atoms: N2_8  and  C5_9 
REMARK    6  A    between atoms: C8_15  and  O3_16 
REMARK    7  A    between atoms: O3_16  and  C9_17 
ROOT
HETATM    1  C9  UNL     1       0.247  52.416 -22.283  1.00  0.00     0.130 C 
HETATM    2  C10 UNL     1       0.317  53.236 -20.988  1.00  0.00     0.034 C 
HETATM    3  C11 UNL     1       0.672  52.373 -19.777  1.00  0.00     0.021 C 
HETATM    4  C12 UNL     1      -0.258  51.164 -19.609  1.00  0.00     0.093 C 
HETATM    5  C13 UNL     1      -1.585  51.580 -19.113  1.00  0.00     0.064 C 
HETATM    6  N5  UNL     1      -2.629  51.905 -18.724  1.00  0.00    -0.197 NA
HETATM    7  C14 UNL     1      -0.381  50.373 -20.917  1.00  0.00     0.021 C 
HETATM    8  C15 UNL     1      -0.741  51.253 -22.113  1.00  0.00     0.034 C 
ENDROOT
BRANCH   1   9
HETATM    9  O3  UNL     1      -0.202  53.305 -23.310  1.00  0.00    -0.329 OA
BRANCH   9  10
HETATM   10  C8  UNL     1      -0.087  52.854 -24.579  1.00  0.00     0.171 A 
HETATM   11  N4  UNL     1       1.076  52.887 -25.232  1.00  0.00    -0.279 N 
HETATM   12  N3  UNL     1       0.770  52.355 -26.431  1.00  0.00    -0.298 N 
ATOM     13  H4  UNL     1       1.978  53.232 -24.904  1.00  0.00     0.189 HD
HETATM   14  C7  UNL     1      -0.542  51.984 -26.558  1.00  0.00     0.067 A 
HETATM   15  H10 UNL     1       1.506  52.271 -27.124  1.00  0.00     0.187 HD
HETATM   16  C6  UNL     1      -1.252  51.401 -27.608  1.00  0.00     0.080 A 
HETATM   17  C16 UNL     1      -1.136  52.309 -25.347  1.00  0.00     0.060 A 
HETATM   18  C5  UNL     1      -2.600  51.170 -27.354  1.00  0.00     0.111 A 
HETATM   19  N6  UNL     1      -3.207  51.479 -26.184  1.00  0.00    -0.351 N 
HETATM   20  C17 UNL     1      -2.492  52.046 -25.175  1.00  0.00     0.108 A 
ATOM     21  H6  UNL     1      -4.201  51.286 -26.059  1.00  0.00     0.166 HD
BRANCH  18  22
HETATM   22  N2  UNL     1      -3.466  50.580 -28.274  1.00  0.00    -0.295 N 
HETATM   23  C4  UNL     1      -3.872  49.276 -28.346  1.00  0.00     0.322 C 
HETATM   24  N1  UNL     1      -4.774  49.088 -29.368  1.00  0.00    -0.332 N 
HETATM   25  O2  UNL     1      -3.502  48.357 -27.625  1.00  0.00    -0.247 OA
HETATM   26  H7  UNL     1      -5.324  49.893 -29.630  1.00  0.00     0.165 HD
HETATM   27  H8  UNL     1      -3.745  51.216 -29.003  1.00  0.00     0.172 HD
BRANCH  24  28
HETATM   28  C3  UNL     1      -5.412  47.787 -29.568  1.00  0.00     0.143 C 
BRANCH  28  29
HETATM   29  C2  UNL     1      -5.521  47.427 -31.075  1.00  0.00     0.197 C 
BRANCH  29  30
HETATM   30  O1  UNL     1      -4.276  47.057 -31.678  1.00  0.00    -0.394 OA
HETATM   31  C1  UNL     1      -4.289  45.743 -32.222  1.00  0.00     0.201 C 
ENDBRANCH  29  30
ENDBRANCH  28  29
BRANCH  28  32
HETATM   32  C18 UNL     1      -6.738  47.780 -28.817  1.00  0.00    -0.033 A 
HETATM   33  C19 UNL     1      -7.911  48.329 -29.357  1.00  0.00     0.009 A 
HETATM   34  C20 UNL     1      -9.098  48.340 -28.619  1.00  0.00     0.001 A 
HETATM   35  C21 UNL     1      -9.126  47.815 -27.329  1.00  0.00     0.000 A 
HETATM   36  C22 UNL     1      -7.966  47.282 -26.771  1.00  0.00     0.001 A 
HETATM   37  C23 UNL     1      -6.780  47.268 -27.507  1.00  0.00     0.009 A 
ENDBRANCH  28  32
ENDBRANCH  24  28
ENDBRANCH  18  22
ENDBRANCH   9  10
ENDBRANCH   1   9
TORSDOF 7
ENDMDL
