MODEL 1
REMARK minimizedAffinity -8.18231297
REMARK  6 active torsions:
REMARK  status: ('A' for Active; 'I' for Inactive)
REMARK    1  A    between atoms: O1_2  and  C2_3 
REMARK    2  A    between atoms: C2_3  and  C3_4 
REMARK    3  A    between atoms: C3_4  and  N1_5 
REMARK    4  A    between atoms: C3_4  and  C14_25 
REMARK       I    between atoms: N1_5  and  C4_6 
REMARK       I    between atoms: C4_6  and  N2_8 
REMARK    5  A    between atoms: N2_8  and  C5_9 
REMARK    6  A    between atoms: N5_16  and  C9_17 
ROOT
HETATM    1  C5  UNL     1      -0.310  52.572 -22.622  1.00  0.00     0.111 A 
HETATM    2  C6  UNL     1       0.767  52.743 -23.480  1.00  0.00     0.080 A 
HETATM    3  C7  UNL     1       0.462  52.669 -24.839  1.00  0.00     0.067 A 
HETATM    4  N3  UNL     1       1.244  52.795 -25.951  1.00  0.00    -0.298 N 
HETATM    5  N4  UNL     1       0.579  52.653 -27.106  1.00  0.00    -0.284 N 
ATOM      6  H4  UNL     1       0.953  52.702 -28.054  1.00  0.00     0.188 HD
HETATM    7  C8  UNL     1      -0.684  52.435 -26.735  1.00  0.00     0.130 A 
HETATM    8  N5  UNL     1      -1.638  52.241 -27.674  1.00  0.00    -0.366 N 
HETATM    9  C12 UNL     1      -0.824  52.438 -25.318  1.00  0.00     0.052 A 
HETATM   10  C13 UNL     1      -1.844  52.285 -24.378  1.00  0.00     0.107 A 
HETATM   11  N6  UNL     1      -1.573  52.345 -23.046  1.00  0.00    -0.351 N 
ATOM     12  H6  UNL     1      -2.324  52.220 -22.367  1.00  0.00     0.166 HD
HETATM   13  H10 UNL     1       2.241  52.980 -25.988  1.00  0.00     0.187 HD
HETATM   14  H11 UNL     1      -1.241  52.155 -28.608  1.00  0.00     0.161 HD
ENDROOT
BRANCH   1  15
HETATM   15  N2  UNL     1      -0.198  52.598 -21.232  1.00  0.00    -0.295 N 
HETATM   16  C4  UNL     1      -0.226  51.548 -20.357  1.00  0.00     0.322 C 
HETATM   17  N1  UNL     1      -0.151  51.978 -19.054  1.00  0.00    -0.332 N 
HETATM   18  O2  UNL     1      -0.299  50.362 -20.648  1.00  0.00    -0.247 OA
HETATM   19  H7  UNL     1      -0.423  52.930 -18.856  1.00  0.00     0.165 HD
HETATM   20  H8  UNL     1       0.055  53.510 -20.883  1.00  0.00     0.172 HD
BRANCH  17  21
HETATM   21  C3  UNL     1      -0.202  51.038 -17.935  1.00  0.00     0.143 C 
BRANCH  21  22
HETATM   22  C2  UNL     1      -1.632  50.974 -17.326  1.00  0.00     0.197 C 
BRANCH  22  23
HETATM   23  O1  UNL     1      -2.652  51.569 -18.137  1.00  0.00    -0.394 OA
HETATM   24  C1  UNL     1      -3.445  50.614 -18.828  1.00  0.00     0.201 C 
ENDBRANCH  22  23
ENDBRANCH  21  22
BRANCH  21  25
HETATM   25  C14 UNL     1       0.922  51.395 -16.970  1.00  0.00    -0.033 A 
HETATM   26  C15 UNL     1       1.029  50.672 -15.766  1.00  0.00     0.009 A 
HETATM   27  C16 UNL     1       2.054  50.936 -14.854  1.00  0.00     0.001 A 
HETATM   28  C17 UNL     1       2.993  51.923 -15.134  1.00  0.00     0.000 A 
HETATM   29  C18 UNL     1       2.909  52.645 -16.322  1.00  0.00     0.001 A 
HETATM   30  C19 UNL     1       1.883  52.381 -17.234  1.00  0.00     0.009 A 
ENDBRANCH  21  25
ENDBRANCH  17  21
ENDBRANCH   1  15
BRANCH   8  31
HETATM   31  C9  UNL     1      -2.869  51.525 -27.498  1.00  0.00     0.130 C 
HETATM   32  C10 UNL     1      -3.410  51.536 -26.062  1.00  0.00     0.195 C 
HETATM   33  O3  UNL     1      -3.417  50.088 -26.011  1.00  0.00    -0.387 OA
HETATM   34  C11 UNL     1      -2.680  50.021 -27.256  1.00  0.00     0.195 C 
ENDBRANCH   8  31
TORSDOF 6
ENDMDL
