MODEL 1
REMARK minimizedAffinity -10.000329
REMARK  3 active torsions:
REMARK  status: ('A' for Active; 'I' for Inactive)
REMARK    1  A    between atoms: C4_4  and  C5_5 
REMARK    2  A    between atoms: C8_11  and  N3_12 
REMARK       I    between atoms: N3_12  and  C9_13 
REMARK       I    between atoms: C9_13  and  N4_15 
REMARK    3  A    between atoms: N4_15  and  C10_16 
ROOT
HETATM    1  C5  UNL     1      -5.905  47.822 -27.509  1.00  0.00     0.072 A 
HETATM    2  N1  UNL     1      -7.005  47.733 -26.741  1.00  0.00    -0.299 N 
ATOM      3  H1  UNL     1      -7.937  47.429 -27.018  1.00  0.00     0.187 HD
HETATM    4  N2  UNL     1      -6.600  48.135 -25.526  1.00  0.00    -0.299 N 
HETATM    5  C6  UNL     1      -5.274  48.450 -25.457  1.00  0.00     0.065 A 
HETATM    6  C7  UNL     1      -4.475  48.883 -24.398  1.00  0.00     0.080 A 
HETATM    7  C8  UNL     1      -3.140  49.099 -24.715  1.00  0.00     0.111 A 
HETATM    8  N6  UNL     1      -2.620  48.896 -25.947  1.00  0.00    -0.351 N 
ATOM      9  H6  UNL     1      -1.628  49.062 -26.115  1.00  0.00     0.166 HD
HETATM   10  C19 UNL     1      -3.420  48.470 -26.960  1.00  0.00     0.105 A 
HETATM   11  C20 UNL     1      -4.780  48.249 -26.738  1.00  0.00     0.036 A 
HETATM   12  H5  UNL     1      -7.283  48.167 -24.778  1.00  0.00     0.187 HD
ENDROOT
BRANCH   7  13
HETATM   13  N3  UNL     1      -2.188  49.527 -23.788  1.00  0.00    -0.295 N 
HETATM   14  C9  UNL     1      -1.947  50.799 -23.343  1.00  0.00     0.322 C 
HETATM   15  O1  UNL     1      -2.513  51.817 -23.720  1.00  0.00    -0.247 OA
HETATM   16  N4  UNL     1      -0.954  50.811 -22.388  1.00  0.00    -0.334 N 
HETATM   17  H8  UNL     1      -0.803  49.950 -21.883  1.00  0.00     0.165 HD
HETATM   18  H7  UNL     1      -1.545  48.795 -23.533  1.00  0.00     0.172 HD
BRANCH  16  19
HETATM   19  C10 UNL     1      -0.568  52.037 -21.700  1.00  0.00     0.121 C 
HETATM   20  C11 UNL     1       0.657  52.633 -22.418  1.00  0.00     0.030 C 
HETATM   21  C12 UNL     1       1.307  53.825 -21.702  1.00  0.00     0.008 C 
HETATM   22  C13 UNL     1       0.731  54.127 -20.320  1.00  0.00     0.057 C 
HETATM   23  C14 UNL     1       0.422  52.862 -19.565  1.00  0.00     0.017 A 
HETATM   24  N5  UNL     1       0.762  52.813 -18.257  1.00  0.00    -0.369 N 
HETATM   25  C18 UNL     1      -0.246  51.828 -20.235  1.00  0.00    -0.013 A 
HETATM   26  C15 UNL     1       0.415  51.701 -17.576  1.00  0.00     0.088 A 
ATOM     27  H5  UNL     1       1.258  53.582 -17.805  1.00  0.00     0.165 HD
HETATM   28  C16 UNL     1      -0.266  50.636 -18.139  1.00  0.00     0.018 A 
HETATM   29  C17 UNL     1      -0.606  50.705 -19.488  1.00  0.00     0.012 A 
ENDBRANCH  16  19
ENDBRANCH   7  13
BRANCH   1  30
HETATM   30  C4  UNL     1      -5.961  47.485 -28.930  1.00  0.00    -0.004 A 
HETATM   31  C3  UNL     1      -6.637  46.348 -29.378  1.00  0.00     0.038 A 
HETATM   32  C2  UNL     1      -6.666  46.075 -30.742  1.00  0.00     0.005 A 
HETATM   33  C1  UNL     1      -7.380  44.858 -31.251  1.00  0.00     0.068 C 
HETATM   34  N7  UNL     1      -6.062  46.867 -31.657  1.00  0.00    -0.369 N 
HETATM   35  C22 UNL     1      -5.397  47.949 -31.201  1.00  0.00     0.089 A 
ATOM     36  H7  UNL     1      -6.108  46.654 -32.653  1.00  0.00     0.165 HD
HETATM   37  C21 UNL     1      -5.317  48.295 -29.864  1.00  0.00     0.031 A 
ENDBRANCH   1  30
TORSDOF 3
ENDMDL
