MODEL 1
REMARK minimizedAffinity -9.3931036
REMARK  7 active torsions:
REMARK  status: ('A' for Active; 'I' for Inactive)
REMARK    1  A    between atoms: C2_2  and  N1_3 
REMARK    2  A    between atoms: C2_2  and  C19_30 
REMARK       I    between atoms: N1_3  and  C3_4 
REMARK       I    between atoms: C3_4  and  N2_6 
REMARK    3  A    between atoms: N2_6  and  C4_7 
REMARK    4  A    between atoms: C7_13  and  C8_14 
REMARK       I    between atoms: C8_14  and  N5_16 
REMARK    5  A    between atoms: N5_16  and  C9_17 
REMARK    6  A    between atoms: C9_17  and  C10_18 
REMARK    7  A    between atoms: N6_21  and  C13_22 
ROOT
HETATM    1  C4  UNL     1       0.659  52.741 -19.900  1.00  0.00     0.111 A 
HETATM    2  C5  UNL     1       1.342  53.871 -20.331  1.00  0.00     0.080 A 
HETATM    3  C6  UNL     1       1.301  54.101 -21.707  1.00  0.00     0.065 A 
HETATM    4  N3  UNL     1       1.840  55.086 -22.485  1.00  0.00    -0.299 N 
HETATM    5  N4  UNL     1       1.575  54.959 -23.799  1.00  0.00    -0.294 N 
ATOM      6  H4  UNL     1       1.871  55.568 -24.562  1.00  0.00     0.187 HD
HETATM    7  C7  UNL     1       0.826  53.836 -23.870  1.00  0.00     0.130 A 
HETATM    8  C17 UNL     1       0.629  53.261 -22.585  1.00  0.00     0.041 A 
HETATM    9  C18 UNL     1      -0.025  52.143 -22.067  1.00  0.00     0.106 A 
HETATM   10  N7  UNL     1       0.003  51.897 -20.731  1.00  0.00    -0.351 N 
ATOM     11  H7  UNL     1      -0.471  51.076 -20.355  1.00  0.00     0.166 HD
HETATM   12  H8  UNL     1       2.401  55.873 -22.178  1.00  0.00     0.187 HD
ENDROOT
BRANCH   1  13
HETATM   13  N2  UNL     1       0.587  52.348 -18.564  1.00  0.00    -0.295 N 
HETATM   14  C3  UNL     1       0.033  51.214 -18.038  1.00  0.00     0.322 C 
HETATM   15  N1  UNL     1       0.143  51.194 -16.667  1.00  0.00    -0.335 N 
HETATM   16  O1  UNL     1      -0.489  50.302 -18.668  1.00  0.00    -0.247 OA
HETATM   17  H5  UNL     1       0.300  52.071 -16.193  1.00  0.00     0.165 HD
HETATM   18  H6  UNL     1       1.123  52.950 -17.958  1.00  0.00     0.172 HD
BRANCH  15  19
HETATM   19  C2  UNL     1      -0.392  50.103 -15.867  1.00  0.00     0.115 C 
HETATM   20  C1  UNL     1      -1.570  50.573 -15.008  1.00  0.00     0.037 C 
BRANCH  19  21
HETATM   21  C19 UNL     1       0.748  49.475 -15.080  1.00  0.00    -0.036 A 
HETATM   22  C20 UNL     1       0.922  48.080 -15.136  1.00  0.00     0.009 A 
HETATM   23  C21 UNL     1       1.971  47.460 -14.456  1.00  0.00     0.001 A 
HETATM   24  C22 UNL     1       2.866  48.224 -13.713  1.00  0.00     0.000 A 
HETATM   25  C23 UNL     1       2.718  49.609 -13.657  1.00  0.00     0.001 A 
HETATM   26  C24 UNL     1       1.670  50.232 -14.341  1.00  0.00     0.009 A 
ENDBRANCH  19  21
ENDBRANCH  15  19
ENDBRANCH   1  13
BRANCH   7  27
HETATM   27  C8  UNL     1       0.316  53.327 -25.152  1.00  0.00     0.270 C 
HETATM   28  O2  UNL     1      -0.509  53.933 -25.829  1.00  0.00    -0.266 OA
HETATM   29  N5  UNL     1       0.853  52.108 -25.502  1.00  0.00    -0.355 N 
HETATM   30  H9  UNL     1       1.539  51.737 -24.847  1.00  0.00     0.162 HD
BRANCH  29  31
HETATM   31  C9  UNL     1       0.517  51.394 -26.712  1.00  0.00     0.129 C 
BRANCH  31  32
HETATM   32  C10 UNL     1      -0.734  50.520 -26.598  1.00  0.00     0.033 C 
HETATM   33  C11 UNL     1      -1.924  50.957 -27.456  1.00  0.00     0.038 C 
HETATM   34  C12 UNL     1      -3.074  51.113 -26.473  1.00  0.00     0.273 C 
HETATM   35  N6  UNL     1      -2.744  50.230 -25.339  1.00  0.00     0.093 N 
HETATM   36  C16 UNL     1      -1.296  50.429 -25.177  1.00  0.00     0.279 C 
BRANCH  35  37
HETATM   37  C13 UNL     1      -3.218  48.844 -25.552  1.00  0.00     0.223 A 
HETATM   38  C14 UNL     1      -3.822  48.496 -26.890  1.00  0.00     0.038 A 
HETATM   39  C15 UNL     1      -4.657  48.417 -25.648  1.00  0.00     0.038 A 
ENDBRANCH  35  37
ENDBRANCH  31  32
ENDBRANCH  29  31
ENDBRANCH   7  27
TORSDOF 7
ENDMDL
