MODEL 1
REMARK minimizedAffinity -8.18588448
REMARK CNNscore 0.547566056
REMARK CNNaffinity 5.96784544
REMARK  7 active torsions:
REMARK  status: ('A' for Active; 'I' for Inactive)
REMARK       I    between atoms: C1_2  and  N1_3 
REMARK    1  A    between atoms: C1_2  and  C8_12 
REMARK    2  A    between atoms: N1_3  and  C2_4 
REMARK    3  A    between atoms: C5_7  and  O2_8 
REMARK    4  A    between atoms: N2_15  and  C11_16 
REMARK    5  A    between atoms: C11_16  and  C12_17 
REMARK       I    between atoms: C12_17  and  N3_19 
REMARK    6  A    between atoms: N4_22  and  C15_23 
REMARK    7  A    between atoms: C18_26  and  C19_27 
ROOT
HETATM    1  C12 UNL     1      -7.346  47.334 -26.755  1.00  0.00     0.248 C 
HETATM    2  O3  UNL     1      -7.074  46.976 -27.905  1.00  0.00    -0.271 OA
HETATM    3  N3  UNL     1      -6.385  47.863 -25.906  1.00  0.00    -0.348 N 
HETATM    4  C13 UNL     1      -5.022  48.061 -26.398  1.00  0.00     0.145 C 
HETATM    5  C14 UNL     1      -4.347  49.306 -25.795  1.00  0.00     0.143 C 
HETATM    6  N4  UNL     1      -4.381  49.300 -24.320  1.00  0.00    -0.378 N 
HETATM    7  C25 UNL     1      -5.347  48.395 -23.675  1.00  0.00     0.143 C 
HETATM    8  C26 UNL     1      -6.631  48.249 -24.512  1.00  0.00     0.145 C 
ENDROOT
BRANCH   1   9
HETATM    9  C11 UNL     1      -8.786  47.209 -26.232  1.00  0.00     0.374 C 
BRANCH   9  10
HETATM   10  N2  UNL     1      -9.714  46.763 -27.302  1.00  0.00     0.098 N 
HETATM   11  C10 UNL     1     -10.204  47.889 -28.113  1.00  0.00     0.274 C 
HETATM   12  C9  UNL     1     -11.370  48.489 -27.340  1.00  0.00     0.046 C 
HETATM   13  C8  UNL     1     -11.896  47.341 -26.478  1.00  0.00     0.108 C 
HETATM   14  C27 UNL     1     -10.936  46.179 -26.719  1.00  0.00     0.287 C 
BRANCH  13  15
HETATM   15  C1  UNL     1     -13.340  46.946 -26.758  1.00  0.00     0.228 C 
HETATM   16  O1  UNL     1     -13.748  46.919 -27.916  1.00  0.00    -0.273 OA
HETATM   17  N1  UNL     1     -14.093  46.676 -25.629  1.00  0.00    -0.327 N 
HETATM   18  H1  UNL     1     -13.624  46.756 -24.735  1.00  0.00     0.169 HD
BRANCH  17  19
HETATM   19  C2  UNL     1     -15.453  46.304 -25.569  1.00  0.00     0.036 A 
HETATM   20  C3  UNL     1     -15.903  45.387 -26.531  1.00  0.00     0.032 A 
HETATM   21  C4  UNL     1     -17.235  44.962 -26.549  1.00  0.00     0.040 A 
HETATM   22  C5  UNL     1     -18.121  45.450 -25.600  1.00  0.00     0.087 A 
HETATM   23  C6  UNL     1     -17.687  46.362 -24.636  1.00  0.00     0.069 A 
HETATM   24 CL1  UNL     1     -18.792  46.967 -23.458  1.00  0.00    -0.081 Cl
HETATM   25  C7  UNL     1     -16.358  46.790 -24.620  1.00  0.00     0.056 A 
BRANCH  22  26
HETATM   26  O2  UNL     1     -19.412  45.005 -25.653  1.00  0.00    -0.359 OA
HETATM   27  H4  UNL     1     -19.893  45.433 -24.920  1.00  0.00     0.217 HD
ENDBRANCH  22  26
ENDBRANCH  17  19
ENDBRANCH  13  15
ENDBRANCH   9  10
ENDBRANCH   1   9
BRANCH   6  28
HETATM   28  C15 UNL     1      -3.441  50.006 -23.586  1.00  0.00     0.030 A 
HETATM   29  C16 UNL     1      -3.443  51.405 -23.514  1.00  0.00     0.030 A 
HETATM   30  C17 UNL     1      -2.480  52.119 -22.783  1.00  0.00     0.014 A 
HETATM   31  C18 UNL     1      -1.460  51.458 -22.087  1.00  0.00    -0.023 A 
HETATM   32  C23 UNL     1      -1.450  50.060 -22.147  1.00  0.00     0.014 A 
HETATM   33  C24 UNL     1      -2.418  49.355 -22.879  1.00  0.00     0.030 A 
BRANCH  31  34
HETATM   34  C19 UNL     1      -0.445  52.200 -21.331  1.00  0.00     0.005 A 
HETATM   35  C20 UNL     1       0.604  52.879 -21.931  1.00  0.00     0.102 A 
HETATM   36  N5  UNL     1       1.555  53.571 -21.264  1.00  0.00    -0.361 N 
HETATM   37  C21 UNL     1       1.435  53.580 -19.930  1.00  0.00     0.180 A 
ATOM     38  H5  UNL     1       2.314  54.054 -21.746  1.00  0.00     0.166 HD
HETATM   39  N6  UNL     1       0.473  52.972 -19.222  1.00  0.00    -0.361 N 
HETATM   40  C22 UNL     1      -0.445  52.293 -19.948  1.00  0.00     0.102 A 
ATOM     41  H6  UNL     1       0.435  53.018 -18.204  1.00  0.00     0.166 HD
ENDBRANCH  31  34
ENDBRANCH   6  28
TORSDOF 7
ENDMDL
