MODEL 1
REMARK minimizedAffinity -8.16278362
REMARK CNNscore 0.294332981
REMARK CNNaffinity 5.81523848
REMARK  8 active torsions:
REMARK  status: ('A' for Active; 'I' for Inactive)
REMARK    1  A    between atoms: C2_2  and  C3_3 
REMARK    2  A    between atoms: C5_7  and  C6_8 
REMARK    3  A    between atoms: C9_11  and  N2_12 
REMARK       I    between atoms: N3_15  and  C12_16 
REMARK    4  A    between atoms: C12_16  and  C13_18 
REMARK    5  A    between atoms: C13_18  and  N4_19 
REMARK    6  A    between atoms: C16_22  and  C17_23 
REMARK       I    between atoms: C17_23  and  N5_25 
REMARK    7  A    between atoms: N5_25  and  C18_26 
REMARK    8  A    between atoms: C21_29  and  O3_30 
ROOT
HETATM    1  N2  UNL     1      -6.296  48.019 -23.991  1.00  0.00    -0.378 N 
HETATM    2  C10 UNL     1      -7.024  47.132 -23.060  1.00  0.00     0.143 C 
HETATM    3  C11 UNL     1      -7.893  46.102 -23.801  1.00  0.00     0.145 C 
HETATM    4  N3  UNL     1      -8.725  46.761 -24.808  1.00  0.00    -0.348 N 
HETATM    5  C12 UNL     1     -10.111  46.818 -24.827  1.00  0.00     0.248 C 
HETATM    6  O1  UNL     1     -10.711  47.313 -25.786  1.00  0.00    -0.271 OA
HETATM    7  C25 UNL     1      -7.992  47.587 -25.772  1.00  0.00     0.145 C 
HETATM    8  C26 UNL     1      -6.494  47.778 -25.434  1.00  0.00     0.143 C 
ENDROOT
BRANCH   5   9
HETATM    9  C13 UNL     1     -10.861  46.260 -23.599  1.00  0.00     0.374 C 
BRANCH   9  10
HETATM   10  N4  UNL     1     -12.292  46.049 -23.888  1.00  0.00     0.098 N 
HETATM   11  C14 UNL     1     -12.571  44.720 -24.455  1.00  0.00     0.274 C 
HETATM   12  C15 UNL     1     -13.929  44.880 -25.133  1.00  0.00     0.046 C 
HETATM   13  C16 UNL     1     -14.169  46.389 -25.208  1.00  0.00     0.108 C 
HETATM   14  C24 UNL     1     -12.817  47.004 -24.871  1.00  0.00     0.287 C 
BRANCH  13  15
HETATM   15  C17 UNL     1     -15.264  46.831 -24.232  1.00  0.00     0.228 C 
HETATM   16  O2  UNL     1     -15.601  48.012 -24.187  1.00  0.00    -0.273 OA
HETATM   17  N5  UNL     1     -15.802  45.793 -23.496  1.00  0.00    -0.327 N 
HETATM   18  H20 UNL     1     -15.365  44.881 -23.649  1.00  0.00     0.169 HD
BRANCH  17  19
HETATM   19  C18 UNL     1     -16.854  45.837 -22.564  1.00  0.00     0.036 A 
HETATM   20  C19 UNL     1     -18.083  45.195 -22.749  1.00  0.00     0.032 A 
HETATM   21  C20 UNL     1     -19.079  45.272 -21.771  1.00  0.00     0.040 A 
HETATM   22  C21 UNL     1     -18.848  45.994 -20.607  1.00  0.00     0.087 A 
HETATM   23  C22 UNL     1     -17.626  46.636 -20.411  1.00  0.00     0.069 A 
HETATM   24 CL1  UNL     1     -17.335  47.531 -18.964  1.00  0.00    -0.081 Cl
HETATM   25  C23 UNL     1     -16.627  46.559 -21.384  1.00  0.00     0.056 A 
BRANCH  22  26
HETATM   26  O3  UNL     1     -19.851  46.028 -19.678  1.00  0.00    -0.359 OA
HETATM   27  H23 UNL     1     -19.535  46.574 -18.933  1.00  0.00     0.217 HD
ENDBRANCH  22  26
ENDBRANCH  17  19
ENDBRANCH  13  15
ENDBRANCH   9  10
ENDBRANCH   5   9
BRANCH   1  28
HETATM   28  C9  UNL     1      -5.221  48.752 -23.506  1.00  0.00     0.030 A 
HETATM   29  C8  UNL     1      -5.378  50.088 -23.107  1.00  0.00     0.030 A 
HETATM   30  C7  UNL     1      -4.304  50.862 -22.640  1.00  0.00     0.017 A 
HETATM   31  C6  UNL     1      -3.005  50.341 -22.553  1.00  0.00     0.008 A 
HETATM   32  C28 UNL     1      -2.842  49.004 -22.946  1.00  0.00     0.017 A 
HETATM   33  C27 UNL     1      -3.922  48.232 -23.412  1.00  0.00     0.030 A 
BRANCH  31  34
HETATM   34  C5  UNL     1      -1.876  51.166 -22.083  1.00  0.00     0.115 A 
HETATM   35  N1  UNL     1      -1.725  51.342 -20.755  1.00  0.00    -0.351 N 
HETATM   36  C4  UNL     1      -0.661  52.072 -20.360  1.00  0.00     0.098 A 
ATOM     37  H1  UNL     1      -2.381  50.945 -20.083  1.00  0.00     0.166 HD
HETATM   38  C3  UNL     1       0.250  52.636 -21.226  1.00  0.00    -0.028 A 
HETATM   39  C29 UNL     1      -0.004  52.405 -22.561  1.00  0.00     0.098 A 
HETATM   40  N6  UNL     1      -1.044  51.679 -23.012  1.00  0.00    -0.351 N 
ATOM     41  H6  UNL     1      -1.196  51.525 -24.009  1.00  0.00     0.166 HD
BRANCH  38  42
HETATM   42  C2  UNL     1       1.434  53.426 -20.760  1.00  0.00     0.037 C 
HETATM   43  C1  UNL     1       1.740  54.599 -21.682  1.00  0.00     0.010 C 
ENDBRANCH  38  42
ENDBRANCH  31  34
ENDBRANCH   1  28
TORSDOF 8
ENDMDL
