MODEL 1
REMARK minimizedAffinity -9.00719166
REMARK  6 active torsions:
REMARK  status: ('A' for Active; 'I' for Inactive)
REMARK    1  A    between atoms: C2_2  and  N1_3 
REMARK    2  A    between atoms: C2_2  and  C16_27 
REMARK       I    between atoms: N1_3  and  C3_4 
REMARK       I    between atoms: C3_4  and  N2_6 
REMARK    3  A    between atoms: N2_6  and  C4_7 
REMARK    4  A    between atoms: C7_13  and  O2_14 
REMARK    5  A    between atoms: O2_14  and  C8_15 
REMARK    6  A    between atoms: C8_15  and  C9_16 
ROOT
HETATM    1  C4  UNL     1      -2.524  50.619 -21.126  1.00  0.00     0.111 A 
HETATM    2  C5  UNL     1      -3.891  50.756 -21.345  1.00  0.00     0.080 A 
HETATM    3  C6  UNL     1      -4.241  51.307 -22.576  1.00  0.00     0.067 A 
HETATM    4  N3  UNL     1      -5.456  51.590 -23.145  1.00  0.00    -0.298 N 
HETATM    5  N4  UNL     1      -5.371  52.129 -24.374  1.00  0.00    -0.279 N 
ATOM      6  H4  UNL     1      -6.130  52.420 -24.991  1.00  0.00     0.189 HD
HETATM    7  C7  UNL     1      -4.058  52.190 -24.594  1.00  0.00     0.171 A 
HETATM    8  C14 UNL     1      -3.296  51.694 -23.517  1.00  0.00     0.060 A 
HETATM    9  C15 UNL     1      -1.948  51.527 -23.217  1.00  0.00     0.108 A 
HETATM   10  N6  UNL     1      -1.578  50.993 -22.022  1.00  0.00    -0.351 N 
ATOM     11  H6  UNL     1      -0.589  50.874 -21.800  1.00  0.00     0.166 HD
HETATM   12  H8  UNL     1      -6.377  51.439 -22.747  1.00  0.00     0.187 HD
ENDROOT
BRANCH   1  13
HETATM   13  N2  UNL     1      -1.980  50.092 -19.955  1.00  0.00    -0.295 N 
HETATM   14  C3  UNL     1      -1.977  50.634 -18.698  1.00  0.00     0.322 C 
HETATM   15  N1  UNL     1      -1.311  49.825 -17.806  1.00  0.00    -0.335 N 
HETATM   16  O1  UNL     1      -2.494  51.692 -18.363  1.00  0.00    -0.247 OA
HETATM   17  H5  UNL     1      -0.663  49.150 -18.182  1.00  0.00     0.165 HD
HETATM   18  H6  UNL     1      -1.652  49.147 -20.076  1.00  0.00     0.172 HD
BRANCH  15  19
HETATM   19  C2  UNL     1      -1.127  50.213 -16.417  1.00  0.00     0.115 C 
HETATM   20  C1  UNL     1      -2.335  50.996 -15.891  1.00  0.00     0.037 C 
BRANCH  19  21
HETATM   21  C16 UNL     1       0.185  50.971 -16.285  1.00  0.00    -0.036 A 
HETATM   22  C17 UNL     1       0.653  51.841 -17.285  1.00  0.00     0.012 A 
HETATM   23  C18 UNL     1       1.876  52.500 -17.139  1.00  0.00     0.043 A 
HETATM   24  C19 UNL     1       2.640  52.285 -16.000  1.00  0.00     0.116 A 
HETATM   25  F1  UNL     1       3.813  52.917 -15.862  1.00  0.00    -0.206 F 
HETATM   26  C20 UNL     1       2.209  51.419 -15.004  1.00  0.00     0.043 A 
HETATM   27  C21 UNL     1       0.987  50.760 -15.148  1.00  0.00     0.012 A 
ENDBRANCH  19  21
ENDBRANCH  15  19
ENDBRANCH   1  13
BRANCH   7  28
HETATM   28  O2  UNL     1      -3.555  52.699 -25.740  1.00  0.00    -0.328 OA
BRANCH  28  29
HETATM   29  C8  UNL     1      -3.083  51.734 -26.688  1.00  0.00     0.234 C 
BRANCH  29  30
HETATM   30  C9  UNL     1      -1.613  51.857 -27.043  1.00  0.00     0.033 A 
HETATM   31  C10 UNL     1      -0.684  50.898 -26.643  1.00  0.00     0.027 A 
HETATM   32  C11 UNL     1       0.646  51.038 -27.032  1.00  0.00     0.003 A 
HETATM   33  C12 UNL     1       1.015  52.121 -27.820  1.00  0.00     0.017 A 
HETATM   34  C13 UNL     1       0.033  53.020 -28.192  1.00  0.00     0.088 A 
HETATM   35  N5  UNL     1      -1.265  52.908 -27.834  1.00  0.00    -0.367 N 
ATOM     36  H5  UNL     1      -1.958  53.588 -28.145  1.00  0.00     0.165 HD
ENDBRANCH  29  30
ENDBRANCH  28  29
ENDBRANCH   7  28
TORSDOF 6
ENDMDL
