MODEL 1
REMARK minimizedAffinity -8.4600544
REMARK  7 active torsions:
REMARK  status: ('A' for Active; 'I' for Inactive)
REMARK    1  A    between atoms: C2_2  and  C3_3 
REMARK       I    between atoms: C3_3  and  N1_5 
REMARK    2  A    between atoms: N1_5  and  C4_6 
REMARK    3  A    between atoms: C9_11  and  N2_12 
REMARK    4  A    between atoms: N2_12  and  C10_13 
REMARK    5  A    between atoms: C11_16  and  N4_17 
REMARK    6  A    between atoms: N4_17  and  C12_18 
REMARK    7  A    between atoms: C18_27  and  C19_28 
ROOT
HETATM    1  C10 UNL     1      -2.297  50.489 -25.752  1.00  0.00     0.103 A 
HETATM    2  N3  UNL     1      -2.668  49.899 -26.909  1.00  0.00    -0.322 N 
ATOM      3  H3  UNL     1      -2.399  50.298 -27.808  1.00  0.00     0.169 HD
HETATM    4  C11 UNL     1      -3.398  48.778 -26.848  1.00  0.00     0.158 A 
HETATM    5  N5  UNL     1      -3.782  48.212 -25.702  1.00  0.00    -0.342 N 
ATOM      6  H5  UNL     1      -4.331  47.353 -25.691  1.00  0.00     0.167 HD
HETATM    7  C17 UNL     1      -3.410  48.824 -24.565  1.00  0.00     0.110 A 
HETATM    8  C18 UNL     1      -2.649  49.970 -24.524  1.00  0.00     0.101 A 
ENDROOT
BRANCH   1   9
HETATM    9  N2  UNL     1      -1.560  51.688 -25.881  1.00  0.00    -0.243 NA
HETATM   10  H9  UNL     1      -2.146  52.398 -26.319  1.00  0.00     0.135 HD
BRANCH   9  11
HETATM   11  C9  UNL     1      -0.248  51.738 -26.448  1.00  0.00     0.041 A 
HETATM   12  C4  UNL     1       0.926  51.871 -25.664  1.00  0.00     0.056 A 
HETATM   13  C5  UNL     1       2.175  51.853 -26.297  1.00  0.00     0.031 A 
HETATM   14  C6  UNL     1       2.273  51.731 -27.685  1.00  0.00     0.002 A 
HETATM   15  C7  UNL     1       1.125  51.637 -28.461  1.00  0.00     0.002 A 
HETATM   16  C8  UNL     1      -0.127  51.647 -27.849  1.00  0.00     0.026 A 
BRANCH  12  17
HETATM   17  N1  UNL     1       0.788  52.086 -24.273  1.00  0.00    -0.322 N 
HETATM   18  C3  UNL     1       0.832  53.277 -23.592  1.00  0.00     0.244 C 
HETATM   19  O1  UNL     1       1.125  54.382 -24.034  1.00  0.00    -0.268 OA
HETATM   20  H4  UNL     1       0.680  51.238 -23.720  1.00  0.00     0.169 HD
BRANCH  18  21
HETATM   21  C2  UNL     1       0.545  53.154 -22.137  1.00  0.00     0.064 C 
HETATM   22  C1  UNL     1       1.321  53.663 -21.170  1.00  0.00     0.017 C 
ENDBRANCH  18  21
ENDBRANCH  12  17
ENDBRANCH   9  11
ENDBRANCH   1   9
BRANCH   8  23
HETATM   23  C19 UNL     1      -2.277  50.582 -23.227  1.00  0.00     0.421 C 
HETATM   24  F1  UNL     1      -2.349  51.938 -23.227  1.00  0.00    -0.166 F 
HETATM   25  F2  UNL     1      -1.005  50.269 -22.839  1.00  0.00    -0.166 F 
HETATM   26  F3  UNL     1      -3.072  50.171 -22.198  1.00  0.00    -0.166 F 
ENDBRANCH   8  23
BRANCH   4  27
HETATM   27  N4  UNL     1      -3.745  48.223 -28.062  1.00  0.00    -0.259 NA
HETATM   28  H10 UNL     1      -3.433  47.259 -28.065  1.00  0.00     0.131 HD
BRANCH  27  29
HETATM   29  C12 UNL     1      -5.088  48.469 -28.571  1.00  0.00     0.067 C 
HETATM   30  C13 UNL     1      -6.123  47.598 -27.853  1.00  0.00     0.046 C 
HETATM   31  C14 UNL     1      -7.483  47.746 -28.521  1.00  0.00     0.169 C 
HETATM   32  O2  UNL     1      -7.400  47.414 -29.906  1.00  0.00    -0.391 OA
HETATM   33  C15 UNL     1      -6.517  48.280 -30.618  1.00  0.00     0.169 C 
HETATM   34  C16 UNL     1      -5.102  48.163 -30.072  1.00  0.00     0.046 C 
ENDBRANCH  27  29
ENDBRANCH   4  27
TORSDOF 7
ENDMDL
