MODEL 1
REMARK minimizedAffinity -8.97817421
REMARK CNNscore 0.266224802
REMARK CNNaffinity 6.98842812
REMARK  6 active torsions:
REMARK  status: ('A' for Active; 'I' for Inactive)
REMARK       I    between atoms: C1_2  and  N1_3 
REMARK    1  A    between atoms: C1_2  and  C13_19 
REMARK    2  A    between atoms: N1_3  and  C2_4 
REMARK    3  A    between atoms: C2_4  and  C3_5 
REMARK    4  A    between atoms: C2_4  and  C9_13 
REMARK    5  A    between atoms: C18_26  and  N4_27 
REMARK    6  A    between atoms: N4_27  and  C19_28 
ROOT
HETATM    1  C13 UNL     1      -0.577  52.278 -21.231  1.00  0.00     0.034 A 
HETATM    2  C14 UNL     1       0.387  53.265 -21.012  1.00  0.00     0.018 A 
HETATM    3  C15 UNL     1       1.023  53.345 -19.776  1.00  0.00     0.016 A 
HETATM    4  C16 UNL     1       0.701  52.421 -18.767  1.00  0.00     0.006 A 
HETATM    5  C17 UNL     1       1.291  52.410 -17.515  1.00  0.00     0.104 A 
HETATM    6  N3  UNL     1       1.001  51.511 -16.558  1.00  0.00    -0.342 N 
ATOM      7  H3  UNL     1       1.451  51.539 -15.644  1.00  0.00     0.167 HD
HETATM    8  C18 UNL     1       0.093  50.576 -16.866  1.00  0.00     0.157 A 
HETATM    9  N5  UNL     1      -0.553  50.515 -18.038  1.00  0.00    -0.332 N 
ATOM     10  H5  UNL     1      -1.258  49.798 -18.211  1.00  0.00     0.168 HD
HETATM   11  C24 UNL     1      -0.249  51.420 -18.977  1.00  0.00     0.047 A 
HETATM   12  C25 UNL     1      -0.882  51.365 -20.213  1.00  0.00     0.047 A 
ENDROOT
BRANCH   1  13
HETATM   13  C1  UNL     1      -1.211  52.190 -22.574  1.00  0.00     0.252 C 
HETATM   14  O1  UNL     1      -1.469  53.214 -23.193  1.00  0.00    -0.268 OA
HETATM   15  N1  UNL     1      -1.493  50.917 -23.038  1.00  0.00    -0.345 N 
HETATM   16  H1  UNL     1      -1.713  50.241 -22.315  1.00  0.00     0.163 HD
BRANCH  15  17
HETATM   17  C2  UNL     1      -2.240  50.735 -24.293  1.00  0.00     0.159 C 
BRANCH  17  18
HETATM   18  C3  UNL     1      -1.347  50.956 -25.512  1.00  0.00    -0.030 A 
HETATM   19  C4  UNL     1      -1.925  51.196 -26.771  1.00  0.00     0.012 A 
HETATM   20  C5  UNL     1      -1.124  51.413 -27.895  1.00  0.00     0.044 A 
HETATM   21  C6  UNL     1       0.260  51.402 -27.773  1.00  0.00     0.138 A 
HETATM   22  F1  UNL     1       1.002  51.619 -28.868  1.00  0.00    -0.204 F 
HETATM   23  C7  UNL     1       0.856  51.178 -26.536  1.00  0.00     0.073 A 
HETATM   24 CL1  UNL     1       2.567  51.163 -26.377  1.00  0.00    -0.081 Cl
HETATM   25  C8  UNL     1       0.059  50.958 -25.411  1.00  0.00     0.036 A 
ENDBRANCH  17  18
BRANCH  17  26
HETATM   26  C9  UNL     1      -2.997  49.384 -24.283  1.00  0.00     0.155 C 
HETATM   27  F2  UNL     1      -2.457  48.639 -25.318  1.00  0.00    -0.238 F 
HETATM   28  C10 UNL     1      -2.843  48.542 -23.013  1.00  0.00     0.078 C 
HETATM   29  C11 UNL     1      -4.240  48.007 -22.718  1.00  0.00     0.273 C 
HETATM   30  N2  UNL     1      -4.997  48.178 -23.953  1.00  0.00     0.086 N 
HETATM   31  C12 UNL     1      -4.509  49.443 -24.516  1.00  0.00     0.315 C 
HETATM   32  H10 UNL     1      -5.997  48.216 -23.766  1.00  0.00     0.316 HD
ENDBRANCH  17  26
ENDBRANCH  15  17
ENDBRANCH   1  13
BRANCH   8  33
HETATM   33  N4  UNL     1      -0.242  49.588 -15.956  1.00  0.00    -0.259 NA
HETATM   34  H16 UNL     1      -0.464  48.761 -16.499  1.00  0.00     0.131 HD
BRANCH  33  35
HETATM   35  C19 UNL     1      -1.174  49.946 -14.890  1.00  0.00     0.067 C 
HETATM   36  C20 UNL     1      -2.276  50.863 -15.430  1.00  0.00     0.046 C 
HETATM   37  C21 UNL     1      -3.145  51.372 -14.288  1.00  0.00     0.169 C 
HETATM   38  O2  UNL     1      -2.358  52.036 -13.299  1.00  0.00    -0.391 OA
HETATM   39  C22 UNL     1      -1.382  51.176 -12.715  1.00  0.00     0.169 C 
HETATM   40  C23 UNL     1      -0.411  50.669 -13.772  1.00  0.00     0.046 C 
ENDBRANCH  33  35
ENDBRANCH   8  33
TORSDOF 6
ENDMDL
