MODEL 1
REMARK minimizedAffinity -9.7809267
REMARK  3 active torsions:
REMARK  status: ('A' for Active; 'I' for Inactive)
REMARK    1  A    between atoms: C4_4  and  C5_5 
REMARK    2  A    between atoms: C8_11  and  N3_12 
REMARK       I    between atoms: N3_12  and  C9_13 
REMARK       I    between atoms: C9_13  and  N4_15 
REMARK    3  A    between atoms: N4_15  and  C10_16 
ROOT
HETATM    1  C5  UNL     1       0.787  53.419 -23.773  1.00  0.00     0.072 A 
HETATM    2  N1  UNL     1       1.429  54.595 -23.885  1.00  0.00    -0.299 N 
ATOM      3  H1  UNL     1       1.668  55.098 -24.739  1.00  0.00     0.187 HD
HETATM    4  N2  UNL     1       1.684  54.959 -22.618  1.00  0.00    -0.299 N 
HETATM    5  C6  UNL     1       1.268  54.055 -21.683  1.00  0.00     0.065 A 
HETATM    6  C7  UNL     1       1.360  54.050 -20.292  1.00  0.00     0.080 A 
HETATM    7  C8  UNL     1       0.832  52.926 -19.669  1.00  0.00     0.111 A 
HETATM    8  N6  UNL     1       0.250  51.902 -20.338  1.00  0.00    -0.351 N 
ATOM      9  H6  UNL     1      -0.133  51.108 -19.823  1.00  0.00     0.166 HD
HETATM   10  C19 UNL     1       0.178  51.932 -21.695  1.00  0.00     0.105 A 
HETATM   11  C20 UNL     1       0.680  53.025 -22.404  1.00  0.00     0.036 A 
HETATM   12  H5  UNL     1       2.159  55.841 -22.457  1.00  0.00     0.187 HD
ENDROOT
BRANCH   7  13
HETATM   13  N3  UNL     1       0.838  52.739 -18.286  1.00  0.00    -0.295 N 
HETATM   14  C9  UNL     1       0.454  51.629 -17.583  1.00  0.00     0.322 C 
HETATM   15  O1  UNL     1      -0.006  50.595 -18.050  1.00  0.00    -0.247 OA
HETATM   16  N4  UNL     1       0.636  51.811 -16.225  1.00  0.00    -0.338 N 
HETATM   17  H8  UNL     1       1.376  52.452 -15.975  1.00  0.00     0.164 HD
HETATM   18  H7  UNL     1       0.997  53.596 -17.781  1.00  0.00     0.172 HD
BRANCH  16  19
HETATM   19  C10 UNL     1       0.357  50.723 -15.282  1.00  0.00     0.092 C 
HETATM   20  C11 UNL     1       1.063  51.003 -13.942  1.00  0.00     0.030 C 
HETATM   21  C12 UNL     1       2.371  50.237 -13.778  1.00  0.00     0.042 C 
HETATM   22  C13 UNL     1       2.101  48.771 -13.936  1.00  0.00    -0.035 A 
HETATM   23  C14 UNL     1       2.688  47.810 -13.113  1.00  0.00     0.010 A 
HETATM   24  C17 UNL     1       1.244  48.342 -14.952  1.00  0.00     0.017 A 
HETATM   25  C15 UNL     1       2.394  46.468 -13.320  1.00  0.00     0.018 A 
HETATM   26  C16 UNL     1       1.528  46.135 -14.348  1.00  0.00     0.088 A 
HETATM   27  N5  UNL     1       0.955  47.039 -15.170  1.00  0.00    -0.369 N 
ATOM     28  H5  UNL     1       0.331  46.751 -15.924  1.00  0.00     0.165 HD
HETATM   29  C18 UNL     1       0.683  49.351 -15.917  1.00  0.00     0.082 C 
ENDBRANCH  16  19
ENDBRANCH   7  13
BRANCH   1  30
HETATM   30  C4  UNL     1       0.318  52.713 -24.965  1.00  0.00    -0.004 A 
HETATM   31  C3  UNL     1      -1.040  52.667 -25.290  1.00  0.00     0.038 A 
HETATM   32  C2  UNL     1      -1.434  51.982 -26.435  1.00  0.00     0.005 A 
HETATM   33  C1  UNL     1      -2.883  51.920 -26.812  1.00  0.00     0.068 C 
HETATM   34  N7  UNL     1      -0.554  51.353 -27.249  1.00  0.00    -0.369 N 
HETATM   35  C22 UNL     1       0.754  51.427 -26.925  1.00  0.00     0.089 A 
ATOM     36  H7  UNL     1      -0.867  50.843 -28.075  1.00  0.00     0.165 HD
HETATM   37  C21 UNL     1       1.234  52.089 -25.810  1.00  0.00     0.031 A 
ENDBRANCH   1  30
TORSDOF 3
ENDMDL
