MODEL 1
REMARK minimizedAffinity -9.68746662
REMARK CNNscore 0.565817893
REMARK CNNaffinity 7.07717562
REMARK  4 active torsions:
REMARK  status: ('A' for Active; 'I' for Inactive)
REMARK    1  A    between atoms: C2_2  and  N1_3 
REMARK    2  A    between atoms: C2_2  and  C17_26 
REMARK       I    between atoms: N1_3  and  C3_4 
REMARK       I    between atoms: C3_4  and  N2_6 
REMARK    3  A    between atoms: N2_6  and  C4_7 
REMARK    4  A    between atoms: C7_13  and  C8_14 
ROOT
HETATM    1  C8  UNL     1      -0.573  52.404 -24.675  1.00  0.00    -0.007 A 
HETATM    2  C9  UNL     1      -1.960  52.599 -24.751  1.00  0.00     0.015 A 
HETATM    3  C10 UNL     1      -2.719  51.924 -25.715  1.00  0.00     0.023 A 
HETATM    4  C11 UNL     1      -2.100  51.043 -26.609  1.00  0.00     0.044 A 
HETATM    5  C12 UNL     1      -2.879  50.352 -27.594  1.00  0.00     0.099 C 
HETATM    6  N5  UNL     1      -3.513  49.796 -28.392  1.00  0.00    -0.191 NA
HETATM    7  C13 UNL     1      -0.720  50.836 -26.532  1.00  0.00     0.023 A 
HETATM    8  C14 UNL     1       0.037  51.510 -25.568  1.00  0.00     0.015 A 
ENDROOT
BRANCH   1   9
HETATM    9  C7  UNL     1       0.233  53.102 -23.674  1.00  0.00     0.072 A 
HETATM   10  N4  UNL     1       1.069  54.090 -24.038  1.00  0.00    -0.299 N 
HETATM   11  N3  UNL     1       1.648  54.479 -22.892  1.00  0.00    -0.299 N 
ATOM     12  H4  UNL     1       1.228  54.461 -24.975  1.00  0.00     0.187 HD
HETATM   13  C6  UNL     1       1.209  53.805 -21.788  1.00  0.00     0.065 A 
HETATM   14  H8  UNL     1       2.337  55.221 -22.928  1.00  0.00     0.187 HD
HETATM   15  C5  UNL     1       1.542  53.915 -20.438  1.00  0.00     0.080 A 
HETATM   16  C15 UNL     1       0.270  52.898 -22.261  1.00  0.00     0.036 A 
HETATM   17  C4  UNL     1       0.858  53.056 -19.588  1.00  0.00     0.111 A 
HETATM   18  N6  UNL     1      -0.069  52.164 -20.012  1.00  0.00    -0.351 N 
HETATM   19  C16 UNL     1      -0.376  52.080 -21.332  1.00  0.00     0.105 A 
ATOM     20  H6  UNL     1      -0.535  51.555 -19.340  1.00  0.00     0.166 HD
BRANCH  17  21
HETATM   21  N2  UNL     1       1.059  53.014 -18.208  1.00  0.00    -0.295 N 
HETATM   22  C3  UNL     1       0.698  52.032 -17.325  1.00  0.00     0.322 C 
HETATM   23  N1  UNL     1       1.039  52.371 -16.036  1.00  0.00    -0.335 N 
HETATM   24  O1  UNL     1       0.153  50.972 -17.602  1.00  0.00    -0.247 OA
HETATM   25  H5  UNL     1       1.187  53.348 -15.835  1.00  0.00     0.165 HD
HETATM   26  H6  UNL     1       1.641  53.769 -17.882  1.00  0.00     0.172 HD
BRANCH  23  27
HETATM   27  C2  UNL     1       0.711  51.511 -14.910  1.00  0.00     0.115 C 
HETATM   28  C1  UNL     1       0.036  52.302 -13.783  1.00  0.00     0.037 C 
BRANCH  27  29
HETATM   29  C17 UNL     1       1.965  50.778 -14.469  1.00  0.00    -0.034 A 
HETATM   30  C18 UNL     1       3.254  51.303 -14.660  1.00  0.00     0.009 A 
HETATM   31  C19 UNL     1       4.386  50.585 -14.267  1.00  0.00     0.002 A 
HETATM   32  C20 UNL     1       4.249  49.325 -13.685  1.00  0.00     0.024 A 
HETATM   33  C21 UNL     1       2.978  48.786 -13.505  1.00  0.00     0.034 A 
HETATM   34 CL1  UNL     1       2.804  47.226 -12.799  1.00  0.00    -0.084 Cl
HETATM   35  C22 UNL     1       1.844  49.500 -13.896  1.00  0.00     0.033 A 
ENDBRANCH  27  29
ENDBRANCH  23  27
ENDBRANCH  17  21
ENDBRANCH   1   9
TORSDOF 4
ENDMDL
