MODEL 1
REMARK minimizedAffinity -10.1307764
REMARK CNNscore 0.374922931
REMARK CNNaffinity 7.01772928
REMARK  9 active torsions:
REMARK  status: ('A' for Active; 'I' for Inactive)
REMARK    1  A    between atoms: O1_2  and  C2_3 
REMARK    2  A    between atoms: C2_3  and  C3_4 
REMARK    3  A    between atoms: C3_4  and  C4_5 
REMARK       I    between atoms: C4_5  and  N1_7 
REMARK    4  A    between atoms: N1_7  and  C5_8 
REMARK    5  A    between atoms: C9_15  and  C10_16 
REMARK    6  A    between atoms: N4_27  and  C20_28 
REMARK    7  A    between atoms: C20_28  and  C21_29 
REMARK       I    between atoms: C21_29  and  N5_31 
REMARK    8  A    between atoms: N6_34  and  C24_35 
REMARK    9  A    between atoms: C27_38  and  C28_39 
ROOT
HETATM    1  C3  UNL     1      -2.597  48.717 -19.866  1.00  0.00     0.090 C 
HETATM    2  C18 UNL     1      -2.722  47.340 -20.541  1.00  0.00     0.053 C 
HETATM    3  C19 UNL     1      -3.943  47.454 -21.443  1.00  0.00     0.274 C 
HETATM    4  N4  UNL     1      -4.831  48.411 -20.772  1.00  0.00     0.098 N 
HETATM    5  C36 UNL     1      -3.930  49.421 -20.195  1.00  0.00     0.294 C 
ENDROOT
BRANCH   1   6
HETATM    6  C2  UNL     1      -2.433  48.602 -18.338  1.00  0.00     0.188 C 
BRANCH   6   7
HETATM    7  O1  UNL     1      -3.452  49.367 -17.671  1.00  0.00    -0.395 OA
HETATM    8  C1  UNL     1      -2.882  50.376 -16.842  1.00  0.00     0.201 C 
ENDBRANCH   6   7
ENDBRANCH   1   6
BRANCH   1   9
HETATM    9  C4  UNL     1      -1.395  49.491 -20.452  1.00  0.00     0.234 C 
HETATM   10  O2  UNL     1      -0.442  48.916 -20.972  1.00  0.00    -0.272 OA
HETATM   11  N1  UNL     1      -1.495  50.864 -20.284  1.00  0.00    -0.326 N 
HETATM   12  H6  UNL     1      -2.377  51.193 -19.891  1.00  0.00     0.169 HD
BRANCH  11  13
HETATM   13  C5  UNL     1      -0.624  51.861 -20.773  1.00  0.00     0.035 A 
HETATM   14  C6  UNL     1      -0.032  52.708 -19.826  1.00  0.00     0.032 A 
HETATM   15  C7  UNL     1       0.810  53.765 -20.201  1.00  0.00     0.034 A 
HETATM   16  C8  UNL     1       1.034  53.944 -21.568  1.00  0.00     0.060 A 
HETATM   17  N2  UNL     1       1.757  54.876 -22.257  1.00  0.00    -0.299 N 
HETATM   18  C16 UNL     1       0.489  53.114 -22.539  1.00  0.00     0.023 A 
HETATM   19  N3  UNL     1       1.721  54.729 -23.592  1.00  0.00    -0.299 N 
HETATM   20  H9  UNL     1       2.313  55.641 -21.878  1.00  0.00     0.187 HD
HETATM   21  C9  UNL     1       0.970  53.629 -23.783  1.00  0.00     0.070 A 
ATOM     22  H3  UNL     1       2.163  55.316 -24.300  1.00  0.00     0.187 HD
HETATM   23  C17 UNL     1      -0.349  52.053 -22.132  1.00  0.00     0.045 A 
BRANCH  21  24
HETATM   24  C10 UNL     1       0.730  53.105 -25.128  1.00  0.00    -0.007 A 
HETATM   25  C11 UNL     1       0.078  53.896 -26.092  1.00  0.00     0.017 A 
HETATM   26  C12 UNL     1      -0.161  53.387 -27.373  1.00  0.00     0.043 A 
HETATM   27  C13 UNL     1       0.257  52.098 -27.692  1.00  0.00     0.116 A 
HETATM   28  F1  UNL     1       0.027  51.616 -28.920  1.00  0.00    -0.206 F 
HETATM   29  C14 UNL     1       0.917  51.308 -26.755  1.00  0.00     0.043 A 
HETATM   30  C15 UNL     1       1.154  51.810 -25.472  1.00  0.00     0.017 A 
ENDBRANCH  21  24
ENDBRANCH  11  13
ENDBRANCH   1   9
BRANCH   4  31
HETATM   31  C20 UNL     1      -5.747  47.785 -19.804  1.00  0.00     0.374 C 
BRANCH  31  32
HETATM   32  C21 UNL     1      -6.985  48.685 -19.570  1.00  0.00     0.248 C 
HETATM   33  O3  UNL     1      -7.028  49.860 -19.935  1.00  0.00    -0.271 OA
HETATM   34  N5  UNL     1      -8.063  48.098 -18.897  1.00  0.00    -0.348 N 
HETATM   35  C22 UNL     1      -8.518  46.732 -19.199  1.00  0.00     0.145 C 
HETATM   36  C35 UNL     1      -9.140  48.998 -18.469  1.00  0.00     0.145 C 
HETATM   37  C23 UNL     1      -9.397  46.132 -18.081  1.00  0.00     0.143 C 
HETATM   38  N6  UNL     1     -10.455  47.057 -17.635  1.00  0.00    -0.378 N 
HETATM   39  C34 UNL     1      -9.940  48.406 -17.295  1.00  0.00     0.143 C 
BRANCH  38  40
HETATM   40  C24 UNL     1     -11.745  47.008 -18.155  1.00  0.00     0.030 A 
HETATM   41  C25 UNL     1     -12.040  46.702 -19.487  1.00  0.00     0.030 A 
HETATM   42  C26 UNL     1     -13.364  46.686 -19.963  1.00  0.00     0.017 A 
HETATM   43  C27 UNL     1     -14.459  46.950 -19.123  1.00  0.00     0.008 A 
HETATM   44  C32 UNL     1     -14.163  47.227 -17.780  1.00  0.00     0.017 A 
HETATM   45  C33 UNL     1     -12.840  47.247 -17.313  1.00  0.00     0.030 A 
BRANCH  43  46
HETATM   46  C28 UNL     1     -15.851  46.936 -19.621  1.00  0.00     0.115 A 
HETATM   47  N7  UNL     1     -16.085  46.356 -20.818  1.00  0.00    -0.352 N 
HETATM   48  C29 UNL     1     -17.367  46.324 -21.235  1.00  0.00     0.091 A 
ATOM     49  H7  UNL     1     -15.330  45.961 -21.379  1.00  0.00     0.166 HD
HETATM   50  C30 UNL     1     -18.413  46.844 -20.513  1.00  0.00     0.034 A 
HETATM   51  C31 UNL     1     -18.071  47.419 -19.313  1.00  0.00     0.091 A 
HETATM   52  N8  UNL     1     -16.811  47.479 -18.843  1.00  0.00    -0.352 N 
ATOM     53  H8  UNL     1     -16.593  47.912 -17.946  1.00  0.00     0.166 HD
ENDBRANCH  43  46
ENDBRANCH  38  40
ENDBRANCH  31  32
ENDBRANCH   4  31
TORSDOF 9
ENDMDL
