MODEL 1
REMARK minimizedAffinity -8.9870348
REMARK CNNscore 0.611317039
REMARK CNNaffinity 5.93012762
REMARK  7 active torsions:
REMARK  status: ('A' for Active; 'I' for Inactive)
REMARK       I    between atoms: C1_2  and  N1_3 
REMARK    1  A    between atoms: C1_2  and  C8_12 
REMARK    2  A    between atoms: N1_3  and  C2_4 
REMARK    3  A    between atoms: C5_7  and  O2_8 
REMARK    4  A    between atoms: N2_15  and  C11_16 
REMARK    5  A    between atoms: C11_16  and  C12_17 
REMARK       I    between atoms: C12_17  and  N3_19 
REMARK    6  A    between atoms: N4_22  and  C15_23 
REMARK    7  A    between atoms: C18_26  and  C19_27 
ROOT
HETATM    1  C12 UNL     1      -8.381  46.356 -30.411  1.00  0.00     0.248 C 
HETATM    2  O3  UNL     1      -7.914  45.450 -31.105  1.00  0.00    -0.271 OA
HETATM    3  N3  UNL     1      -7.577  47.031 -29.497  1.00  0.00    -0.348 N 
HETATM    4  C13 UNL     1      -8.042  48.024 -28.519  1.00  0.00     0.145 C 
HETATM    5  C14 UNL     1      -7.269  47.935 -27.188  1.00  0.00     0.143 C 
HETATM    6  N4  UNL     1      -5.824  48.108 -27.394  1.00  0.00    -0.378 N 
HETATM    7  C27 UNL     1      -5.278  47.691 -28.702  1.00  0.00     0.143 C 
HETATM    8  C28 UNL     1      -6.169  46.640 -29.392  1.00  0.00     0.145 C 
ENDROOT
BRANCH   1   9
HETATM    9  C11 UNL     1      -9.857  46.800 -30.486  1.00  0.00     0.374 C 
BRANCH   9  10
HETATM   10  N2  UNL     1     -10.820  46.059 -29.652  1.00  0.00     0.098 N 
HETATM   11  C10 UNL     1     -10.224  45.262 -28.580  1.00  0.00     0.274 C 
HETATM   12  C9  UNL     1     -11.338  44.301 -28.161  1.00  0.00     0.046 C 
HETATM   13  C8  UNL     1     -12.403  44.402 -29.256  1.00  0.00     0.108 C 
HETATM   14  C29 UNL     1     -11.717  45.161 -30.389  1.00  0.00     0.287 C 
BRANCH  13  15
HETATM   15  C1  UNL     1     -13.658  45.129 -28.757  1.00  0.00     0.228 C 
HETATM   16  O1  UNL     1     -13.849  46.308 -29.045  1.00  0.00    -0.273 OA
HETATM   17  N1  UNL     1     -14.500  44.320 -28.015  1.00  0.00    -0.327 N 
HETATM   18  H1  UNL     1     -14.128  43.393 -27.812  1.00  0.00     0.169 HD
BRANCH  17  19
HETATM   19  C2  UNL     1     -15.763  44.624 -27.479  1.00  0.00     0.036 A 
HETATM   20  C3  UNL     1     -16.872  44.052 -28.118  1.00  0.00     0.032 A 
HETATM   21  C4  UNL     1     -18.166  44.319 -27.672  1.00  0.00     0.040 A 
HETATM   22  C5  UNL     1     -18.356  45.161 -26.586  1.00  0.00     0.087 A 
HETATM   23  C6  UNL     1     -17.260  45.735 -25.939  1.00  0.00     0.069 A 
HETATM   24 CL1  UNL     1     -17.500  46.809 -24.608  1.00  0.00    -0.081 Cl
HETATM   25  C7  UNL     1     -15.964  45.467 -26.382  1.00  0.00     0.056 A 
BRANCH  22  26
HETATM   26  O2  UNL     1     -19.643  45.409 -26.200  1.00  0.00    -0.359 OA
HETATM   27  H4  UNL     1     -19.603  46.047 -25.463  1.00  0.00     0.217 HD
ENDBRANCH  22  26
ENDBRANCH  17  19
ENDBRANCH  13  15
ENDBRANCH   9  10
ENDBRANCH   1   9
BRANCH   6  28
HETATM   28  C15 UNL     1      -4.965  48.284 -26.315  1.00  0.00     0.030 A 
HETATM   29  C16 UNL     1      -5.433  48.268 -24.993  1.00  0.00     0.030 A 
HETATM   30  C17 UNL     1      -4.581  48.465 -23.892  1.00  0.00     0.014 A 
HETATM   31  C18 UNL     1      -3.208  48.675 -24.061  1.00  0.00    -0.023 A 
HETATM   32  C25 UNL     1      -2.726  48.662 -25.377  1.00  0.00     0.014 A 
HETATM   33  C26 UNL     1      -3.583  48.469 -26.473  1.00  0.00     0.030 A 
BRANCH  31  34
HETATM   34  C19 UNL     1      -2.309  48.908 -22.914  1.00  0.00     0.013 A 
HETATM   35  C20 UNL     1      -1.720  50.170 -22.704  1.00  0.00     0.015 A 
HETATM   36  C21 UNL     1      -0.870  50.409 -21.617  1.00  0.00     0.001 A 
HETATM   37  C22 UNL     1      -0.592  49.388 -20.711  1.00  0.00     0.003 A 
HETATM   38  C23 UNL     1      -1.162  48.131 -20.895  1.00  0.00     0.043 A 
HETATM   39  C24 UNL     1      -2.006  47.900 -21.982  1.00  0.00     0.127 A 
HETATM   40  F1  UNL     1      -2.525  46.669 -22.120  1.00  0.00    -0.205 F 
ENDBRANCH  31  34
ENDBRANCH   6  28
TORSDOF 7
ENDMDL
