MODEL 1
REMARK minimizedAffinity -9.49217701
REMARK CNNscore 0.481847435
REMARK CNNaffinity 6.74269629
REMARK  7 active torsions:
REMARK  status: ('A' for Active; 'I' for Inactive)
REMARK       I    between atoms: C1_2  and  N1_3 
REMARK    1  A    between atoms: C1_2  and  C8_12 
REMARK    2  A    between atoms: N1_3  and  C2_4 
REMARK    3  A    between atoms: C5_7  and  O2_8 
REMARK    4  A    between atoms: N2_15  and  C11_16 
REMARK    5  A    between atoms: C11_16  and  C12_17 
REMARK       I    between atoms: C12_17  and  N3_19 
REMARK    6  A    between atoms: N4_22  and  C15_23 
REMARK    7  A    between atoms: C18_26  and  C19_27 
ROOT
HETATM    1  C12 UNL     1      -5.083  47.984 -28.268  1.00  0.00     0.248 C 
HETATM    2  O3  UNL     1      -4.474  47.843 -29.335  1.00  0.00    -0.271 OA
HETATM    3  N3  UNL     1      -6.479  47.850 -28.222  1.00  0.00    -0.348 N 
HETATM    4  C13 UNL     1      -7.082  47.175 -29.381  1.00  0.00     0.145 C 
HETATM    5  C14 UNL     1      -8.604  47.345 -29.497  1.00  0.00     0.143 C 
HETATM    6  N4  UNL     1      -9.258  47.046 -28.210  1.00  0.00    -0.378 N 
HETATM    7  C27 UNL     1      -8.752  47.905 -27.118  1.00  0.00     0.143 C 
HETATM    8  C28 UNL     1      -7.229  47.727 -26.962  1.00  0.00     0.145 C 
ENDROOT
BRANCH   1   9
HETATM    9  C11 UNL     1      -4.367  48.341 -26.943  1.00  0.00     0.374 C 
BRANCH   9  10
HETATM   10  N2  UNL     1      -3.110  49.078 -27.160  1.00  0.00     0.098 N 
HETATM   11  C10 UNL     1      -3.285  50.386 -27.797  1.00  0.00     0.274 C 
HETATM   12  C9  UNL     1      -1.920  51.031 -27.600  1.00  0.00     0.046 C 
HETATM   13  C8  UNL     1      -1.382  50.423 -26.301  1.00  0.00     0.108 C 
HETATM   14  C29 UNL     1      -2.396  49.350 -25.910  1.00  0.00     0.287 C 
BRANCH  13  15
HETATM   15  C1  UNL     1      -1.167  51.418 -25.167  1.00  0.00     0.228 C 
HETATM   16  O1  UNL     1      -1.150  52.622 -25.407  1.00  0.00    -0.273 OA
HETATM   17  N1  UNL     1      -0.958  50.837 -23.928  1.00  0.00    -0.327 N 
HETATM   18  H1  UNL     1      -1.057  49.833 -23.874  1.00  0.00     0.169 HD
BRANCH  17  19
HETATM   19  C2  UNL     1      -0.650  51.484 -22.713  1.00  0.00     0.036 A 
HETATM   20  C3  UNL     1      -1.267  51.192 -21.493  1.00  0.00     0.032 A 
HETATM   21  C4  UNL     1      -0.924  51.891 -20.333  1.00  0.00     0.040 A 
HETATM   22  C5  UNL     1       0.035  52.891 -20.391  1.00  0.00     0.087 A 
HETATM   23  C6  UNL     1       0.666  53.189 -21.598  1.00  0.00     0.069 A 
HETATM   24 CL1  UNL     1       1.865  54.425 -21.677  1.00  0.00    -0.081 Cl
HETATM   25  C7  UNL     1       0.328  52.488 -22.756  1.00  0.00     0.056 A 
BRANCH  22  26
HETATM   26  O2  UNL     1       0.322  53.557 -19.233  1.00  0.00    -0.359 OA
HETATM   27  H4  UNL     1       1.021  54.203 -19.436  1.00  0.00     0.217 HD
ENDBRANCH  22  26
ENDBRANCH  17  19
ENDBRANCH  13  15
ENDBRANCH   9  10
ENDBRANCH   1   9
BRANCH   6  28
HETATM   28  C15 UNL     1     -10.616  46.731 -28.193  1.00  0.00     0.030 A 
HETATM   29  C16 UNL     1     -11.510  47.485 -27.415  1.00  0.00     0.030 A 
HETATM   30  C17 UNL     1     -12.859  47.126 -27.274  1.00  0.00     0.014 A 
HETATM   31  C18 UNL     1     -13.376  45.985 -27.900  1.00  0.00    -0.026 A 
HETATM   32  C25 UNL     1     -12.500  45.253 -28.711  1.00  0.00     0.014 A 
HETATM   33  C26 UNL     1     -11.153  45.622 -28.855  1.00  0.00     0.030 A 
BRANCH  31  34
HETATM   34  C19 UNL     1     -14.761  45.532 -27.667  1.00  0.00    -0.026 A 
HETATM   35  C20 UNL     1     -15.459  44.773 -28.626  1.00  0.00     0.015 A 
HETATM   36  C21 UNL     1     -16.748  44.298 -28.369  1.00  0.00     0.043 A 
HETATM   37  C22 UNL     1     -17.356  44.587 -27.153  1.00  0.00     0.116 A 
HETATM   38  F1  UNL     1     -18.587  44.124 -26.906  1.00  0.00    -0.206 F 
HETATM   39  C23 UNL     1     -16.699  45.342 -26.190  1.00  0.00     0.043 A 
HETATM   40  C24 UNL     1     -15.408  45.808 -26.447  1.00  0.00     0.015 A 
ENDBRANCH  31  34
ENDBRANCH   6  28
TORSDOF 7
ENDMDL
