MODEL 1
REMARK minimizedAffinity -9.3413372
REMARK  6 active torsions:
REMARK  status: ('A' for Active; 'I' for Inactive)
REMARK    1  A    between atoms: O1_2  and  C2_3 
REMARK    2  A    between atoms: C5_6  and  C6_7 
REMARK    3  A    between atoms: C6_7  and  N1_8 
REMARK       I    between atoms: N1_8  and  C7_9 
REMARK       I    between atoms: C7_9  and  N2_11 
REMARK    4  A    between atoms: N2_11  and  C8_12 
REMARK    5  A    between atoms: C11_18  and  C12_19 
REMARK    6  A    between atoms: C21_31  and  O3_32 
ROOT
HETATM    1  C8  UNL     1      -2.342  51.248 -26.720  1.00  0.00     0.111 A 
HETATM    2  C9  UNL     1      -1.285  52.068 -27.093  1.00  0.00     0.080 A 
HETATM    3  C10 UNL     1      -0.508  52.550 -26.041  1.00  0.00     0.065 A 
HETATM    4  N3  UNL     1       0.581  53.374 -26.016  1.00  0.00    -0.299 N 
HETATM    5  N4  UNL     1       1.056  53.619 -24.785  1.00  0.00    -0.299 N 
ATOM      6  H4  UNL     1       1.844  54.213 -24.527  1.00  0.00     0.187 HD
HETATM    7  C11 UNL     1       0.260  52.906 -23.970  1.00  0.00     0.072 A 
HETATM    8  C18 UNL     1      -0.757  52.232 -24.713  1.00  0.00     0.036 A 
HETATM    9  C19 UNL     1      -1.850  51.410 -24.429  1.00  0.00     0.105 A 
HETATM   10  N5  UNL     1      -2.622  50.925 -25.436  1.00  0.00    -0.351 N 
ATOM     11  H5  UNL     1      -3.414  50.318 -25.223  1.00  0.00     0.166 HD
HETATM   12  H11 UNL     1       1.047  53.807 -26.805  1.00  0.00     0.187 HD
ENDROOT
BRANCH   1  13
HETATM   13  N2  UNL     1      -3.222  50.661 -27.630  1.00  0.00    -0.295 N 
HETATM   14  C7  UNL     1      -3.695  49.376 -27.652  1.00  0.00     0.322 C 
HETATM   15  N1  UNL     1      -4.577  49.191 -28.695  1.00  0.00    -0.339 N 
HETATM   16  O2  UNL     1      -3.390  48.478 -26.878  1.00  0.00    -0.247 OA
HETATM   17  H8  UNL     1      -5.059  50.012 -29.023  1.00  0.00     0.164 HD
HETATM   18  H9  UNL     1      -3.442  51.271 -28.401  1.00  0.00     0.172 HD
BRANCH  15  19
HETATM   19  C6  UNL     1      -5.277  47.936 -28.868  1.00  0.00     0.163 C 
BRANCH  19  20
HETATM   20  C5  UNL     1      -5.984  47.892 -30.200  1.00  0.00    -0.038 A 
HETATM   21  C4  UNL     1      -7.380  47.915 -30.271  1.00  0.00     0.012 A 
HETATM   22  C3  UNL     1      -8.029  47.849 -31.507  1.00  0.00     0.040 A 
HETATM   23  C2  UNL     1      -7.291  47.750 -32.691  1.00  0.00     0.101 A 
HETATM   24  C21 UNL     1      -5.884  47.717 -32.632  1.00  0.00     0.102 A 
HETATM   25  C20 UNL     1      -5.244  47.788 -31.388  1.00  0.00     0.048 A 
BRANCH  23  26
HETATM   26  O1  UNL     1      -7.844  47.677 -33.947  1.00  0.00    -0.353 OA
HETATM   27  C1  UNL     1      -8.553  46.495 -34.288  1.00  0.00     0.210 C 
ENDBRANCH  23  26
BRANCH  24  28
HETATM   28  O3  UNL     1      -5.229  47.613 -33.834  1.00  0.00    -0.353 OA
HETATM   29  C22 UNL     1      -3.809  47.644 -33.815  1.00  0.00     0.210 C 
ENDBRANCH  24  28
ENDBRANCH  19  20
ENDBRANCH  15  19
ENDBRANCH   1  13
BRANCH   7  30
HETATM   30  C12 UNL     1       0.487  52.900 -22.524  1.00  0.00    -0.007 A 
HETATM   31  C13 UNL     1       0.032  51.837 -21.727  1.00  0.00     0.017 A 
HETATM   32  C14 UNL     1       0.257  51.846 -20.348  1.00  0.00     0.043 A 
HETATM   33  C15 UNL     1       0.938  52.909 -19.768  1.00  0.00     0.116 A 
HETATM   34  F1  UNL     1       1.152  52.911 -18.446  1.00  0.00    -0.206 F 
HETATM   35  C16 UNL     1       1.407  53.963 -20.540  1.00  0.00     0.043 A 
HETATM   36  C17 UNL     1       1.186  53.957 -21.919  1.00  0.00     0.017 A 
ENDBRANCH   7  30
TORSDOF 6
ENDMDL
