MODEL 1
REMARK minimizedAffinity -10.2758684
REMARK  4 active torsions:
REMARK  status: ('A' for Active; 'I' for Inactive)
REMARK    1  A    between atoms: C4_4  and  C5_5 
REMARK    2  A    between atoms: C8_11  and  N3_12 
REMARK       I    between atoms: N3_12  and  C9_13 
REMARK       I    between atoms: C9_13  and  N4_15 
REMARK    3  A    between atoms: N4_15  and  C10_16 
REMARK    4  A    between atoms: C10_16  and  C11_17 
ROOT
HETATM    1  C5  UNL     1       0.296  52.928 -23.962  1.00  0.00     0.072 A 
HETATM    2  N1  UNL     1       1.031  53.731 -24.752  1.00  0.00    -0.299 N 
ATOM      3  H1  UNL     1       1.761  54.386 -24.472  1.00  0.00     0.187 HD
HETATM    4  N2  UNL     1       0.585  53.473 -25.992  1.00  0.00    -0.299 N 
HETATM    5  C6  UNL     1      -0.441  52.571 -26.043  1.00  0.00     0.065 A 
HETATM    6  C7  UNL     1      -1.184  52.063 -27.108  1.00  0.00     0.080 A 
HETATM    7  C8  UNL     1      -2.190  51.172 -26.755  1.00  0.00     0.111 A 
HETATM    8  N6  UNL     1      -2.456  50.807 -25.480  1.00  0.00    -0.351 N 
ATOM      9  H6  UNL     1      -3.220  50.160 -25.283  1.00  0.00     0.166 HD
HETATM   10  C20 UNL     1      -1.704  51.302 -24.462  1.00  0.00     0.105 A 
HETATM   11  C21 UNL     1      -0.668  52.201 -24.725  1.00  0.00     0.036 A 
HETATM   12  H5  UNL     1       1.018  53.960 -26.768  1.00  0.00     0.187 HD
ENDROOT
BRANCH   7  13
HETATM   13  N3  UNL     1      -3.062  50.607 -27.684  1.00  0.00    -0.295 N 
HETATM   14  C9  UNL     1      -3.799  49.462 -27.561  1.00  0.00     0.322 C 
HETATM   15  O1  UNL     1      -3.921  48.781 -26.552  1.00  0.00    -0.247 OA
HETATM   16  N4  UNL     1      -4.433  49.156 -28.743  1.00  0.00    -0.337 N 
HETATM   17  H8  UNL     1      -3.894  49.372 -29.568  1.00  0.00     0.164 HD
HETATM   18  H7  UNL     1      -3.285  51.229 -28.445  1.00  0.00     0.172 HD
BRANCH  16  19
HETATM   19  C10 UNL     1      -5.189  47.923 -28.843  1.00  0.00     0.182 C 
BRANCH  19  20
HETATM   20  C11 UNL     1      -6.515  48.152 -29.529  1.00  0.00     0.038 A 
HETATM   21  N5  UNL     1      -7.534  48.503 -28.693  1.00  0.00    -0.367 N 
HETATM   22  C12 UNL     1      -8.748  48.702 -29.239  1.00  0.00     0.089 A 
ATOM     23  H5  UNL     1      -7.382  48.612 -27.690  1.00  0.00     0.165 HD
HETATM   24  C13 UNL     1      -9.020  48.550 -30.586  1.00  0.00     0.029 A 
HETATM   25  C14 UNL     1      -7.987  48.165 -31.444  1.00  0.00    -0.023 A 
HETATM   26  C15 UNL     1      -8.232  47.984 -32.817  1.00  0.00     0.012 A 
HETATM   27  C19 UNL     1      -6.691  47.950 -30.921  1.00  0.00    -0.002 A 
HETATM   28  C16 UNL     1      -7.210  47.586 -33.679  1.00  0.00     0.001 A 
HETATM   29  C17 UNL     1      -5.933  47.362 -33.178  1.00  0.00     0.001 A 
HETATM   30  C18 UNL     1      -5.674  47.540 -31.818  1.00  0.00     0.014 A 
ENDBRANCH  19  20
ENDBRANCH  16  19
ENDBRANCH   7  13
BRANCH   1  31
HETATM   31  C4  UNL     1       0.513  52.898 -22.519  1.00  0.00    -0.004 A 
HETATM   32  C3  UNL     1       0.011  51.851 -21.739  1.00  0.00     0.038 A 
HETATM   33  C2  UNL     1       0.232  51.874 -20.366  1.00  0.00     0.005 A 
HETATM   34  C1  UNL     1      -0.309  50.775 -19.500  1.00  0.00     0.068 C 
HETATM   35  N7  UNL     1       0.918  52.866 -19.753  1.00  0.00    -0.369 N 
HETATM   36  C23 UNL     1       1.407  53.857 -20.529  1.00  0.00     0.089 A 
ATOM     37  H7  UNL     1       1.061  52.866 -18.743  1.00  0.00     0.165 HD
HETATM   38  C22 UNL     1       1.235  53.918 -21.899  1.00  0.00     0.031 A 
ENDBRANCH   1  31
TORSDOF 4
ENDMDL
