MODEL 1
REMARK minimizedAffinity -8.90188789
REMARK  5 active torsions:
REMARK  status: ('A' for Active; 'I' for Inactive)
REMARK    1  A    between atoms: C2_2  and  N1_3 
REMARK    2  A    between atoms: C2_2  and  C14_24 
REMARK       I    between atoms: N1_3  and  C3_4 
REMARK       I    between atoms: C3_4  and  N2_6 
REMARK    3  A    between atoms: N2_6  and  C4_7 
REMARK    4  A    between atoms: N5_14  and  C8_15 
REMARK    5  A    between atoms: C10_17  and  N6_18 
ROOT
HETATM    1  C4  UNL     1      -3.293  48.716 -24.336  1.00  0.00     0.111 A 
HETATM    2  C5  UNL     1      -4.663  48.487 -24.358  1.00  0.00     0.080 A 
HETATM    3  C6  UNL     1      -5.210  48.283 -25.625  1.00  0.00     0.067 A 
HETATM    4  N3  UNL     1      -6.486  48.029 -26.040  1.00  0.00    -0.298 N 
HETATM    5  N4  UNL     1      -6.614  47.893 -27.369  1.00  0.00    -0.284 N 
ATOM      6  H4  UNL     1      -7.466  47.705 -27.899  1.00  0.00     0.188 HD
HETATM    7  C7  UNL     1      -5.376  48.061 -27.839  1.00  0.00     0.130 A 
HETATM    8  N5  UNL     1      -5.022  48.009 -29.146  1.00  0.00    -0.370 N 
HETATM    9  C12 UNL     1      -4.451  48.309 -26.786  1.00  0.00     0.052 A 
HETATM   10  C13 UNL     1      -3.081  48.549 -26.669  1.00  0.00     0.107 A 
HETATM   11  N7  UNL     1      -2.521  48.752 -25.448  1.00  0.00    -0.351 N 
ATOM     12  H7  UNL     1      -1.520  48.931 -25.369  1.00  0.00     0.166 HD
HETATM   13  H8  UNL     1      -7.316  47.932 -25.465  1.00  0.00     0.187 HD
HETATM   14  H9  UNL     1      -4.105  48.348 -29.414  1.00  0.00     0.161 HD
ENDROOT
BRANCH   1  15
HETATM   15  N2  UNL     1      -2.569  48.942 -23.166  1.00  0.00    -0.295 N 
HETATM   16  C3  UNL     1      -2.699  49.968 -22.269  1.00  0.00     0.322 C 
HETATM   17  N1  UNL     1      -1.781  49.858 -21.249  1.00  0.00    -0.335 N 
HETATM   18  O1  UNL     1      -3.518  50.877 -22.319  1.00  0.00    -0.247 OA
HETATM   19  H5  UNL     1      -0.961  49.296 -21.415  1.00  0.00     0.165 HD
HETATM   20  H6  UNL     1      -1.963  48.172 -22.933  1.00  0.00     0.172 HD
BRANCH  17  21
HETATM   21  C2  UNL     1      -1.690  50.850 -20.190  1.00  0.00     0.115 C 
HETATM   22  C1  UNL     1      -3.066  51.444 -19.867  1.00  0.00     0.037 C 
BRANCH  21  23
HETATM   23  C14 UNL     1      -0.641  51.879 -20.578  1.00  0.00    -0.036 A 
HETATM   24  C15 UNL     1      -0.234  51.958 -21.921  1.00  0.00     0.009 A 
HETATM   25  C16 UNL     1       0.707  52.904 -22.333  1.00  0.00     0.001 A 
HETATM   26  C17 UNL     1       1.249  53.793 -21.410  1.00  0.00     0.000 A 
HETATM   27  C18 UNL     1       0.845  53.741 -20.078  1.00  0.00     0.001 A 
HETATM   28  C19 UNL     1      -0.098  52.796 -19.665  1.00  0.00     0.009 A 
ENDBRANCH  21  23
ENDBRANCH  17  21
ENDBRANCH   1  15
BRANCH   8  29
HETATM   29  C8  UNL     1      -5.986  47.974 -30.213  1.00  0.00     0.087 C 
HETATM   30  C9  UNL     1      -5.353  48.205 -31.607  1.00  0.00     0.060 C 
HETATM   31  C10 UNL     1      -5.215  46.674 -31.737  1.00  0.00     0.221 C 
HETATM   32  C11 UNL     1      -6.317  46.532 -30.667  1.00  0.00     0.060 C 
BRANCH  31  33
HETATM   33  N6  UNL     1      -5.724  46.238 -33.031  1.00  0.00     0.083 N 
HETATM   34  H14 UNL     1      -6.596  46.677 -33.324  1.00  0.00     0.313 HD
HETATM   35  H15 UNL     1      -5.880  45.232 -33.097  1.00  0.00     0.313 HD
ENDBRANCH  31  33
ENDBRANCH   8  29
TORSDOF 5
ENDMDL
