MODEL 1
REMARK minimizedAffinity -7.79506922
REMARK  7 active torsions:
REMARK  status: ('A' for Active; 'I' for Inactive)
REMARK    1  A    between atoms: O1_2  and  C2_3 
REMARK    2  A    between atoms: C2_3  and  C3_4 
REMARK    3  A    between atoms: C3_4  and  O2_5 
REMARK    4  A    between atoms: O2_5  and  C4_6 
REMARK    5  A    between atoms: C7_12  and  N3_13 
REMARK       I    between atoms: N3_13  and  C8_14 
REMARK       I    between atoms: C8_14  and  N4_16 
REMARK    6  A    between atoms: N4_16  and  C9_17 
REMARK    7  A    between atoms: C9_17  and  C10_18 
ROOT
HETATM    1  C4  UNL     1      -0.345  53.396 -25.809  1.00  0.00     0.171 A 
HETATM    2  N1  UNL     1       0.518  54.395 -25.619  1.00  0.00    -0.279 N 
ATOM      3  H1  UNL     1       0.776  55.137 -26.270  1.00  0.00     0.189 HD
HETATM    4  N2  UNL     1       0.965  54.194 -24.372  1.00  0.00    -0.298 N 
HETATM    5  C5  UNL     1       0.422  53.101 -23.754  1.00  0.00     0.067 A 
HETATM    6  C6  UNL     1       0.626  52.567 -22.480  1.00  0.00     0.080 A 
HETATM    7  C7  UNL     1      -0.116  51.432 -22.188  1.00  0.00     0.111 A 
HETATM    8  N5  UNL     1      -0.976  50.859 -23.060  1.00  0.00    -0.351 N 
ATOM      9  H5  UNL     1      -1.492  50.022 -22.790  1.00  0.00     0.166 HD
HETATM   10  C16 UNL     1      -1.155  51.397 -24.296  1.00  0.00     0.108 A 
HETATM   11  C17 UNL     1      -0.456  52.543 -24.679  1.00  0.00     0.060 A 
HETATM   12  H8  UNL     1       1.647  54.843 -23.995  1.00  0.00     0.187 HD
ENDROOT
BRANCH   7  13
HETATM   13  N3  UNL     1      -0.046  50.754 -20.971  1.00  0.00    -0.295 N 
HETATM   14  C8  UNL     1      -0.748  50.993 -19.821  1.00  0.00     0.322 C 
HETATM   15  O3  UNL     1      -1.613  51.845 -19.664  1.00  0.00    -0.247 OA
HETATM   16  N4  UNL     1      -0.374  50.124 -18.819  1.00  0.00    -0.339 N 
HETATM   17  H11 UNL     1       0.551  49.728 -18.888  1.00  0.00     0.164 HD
HETATM   18  H10 UNL     1       0.533  49.931 -21.024  1.00  0.00     0.172 HD
BRANCH  16  19
HETATM   19  C9  UNL     1      -0.932  50.230 -17.490  1.00  0.00     0.162 C 
BRANCH  19  20
HETATM   20  C10 UNL     1       0.138  50.538 -16.473  1.00  0.00    -0.039 A 
HETATM   21  C11 UNL     1       0.104  49.940 -15.206  1.00  0.00     0.010 A 
HETATM   22  C12 UNL     1       1.082  50.240 -14.253  1.00  0.00     0.026 A 
HETATM   23  C13 UNL     1       2.101  51.147 -14.552  1.00  0.00     0.055 A 
HETATM   24 CL1  UNL     1       3.274  51.472 -13.327  1.00  0.00    -0.083 Cl
HETATM   25  C14 UNL     1       2.139  51.757 -15.810  1.00  0.00     0.056 A 
HETATM   26 CL2  UNL     1       3.362  52.895 -16.251  1.00  0.00    -0.083 Cl
HETATM   27  C15 UNL     1       1.159  51.455 -16.764  1.00  0.00     0.034 A 
ENDBRANCH  19  20
ENDBRANCH  16  19
ENDBRANCH   7  13
BRANCH   1  28
HETATM   28  O2  UNL     1      -0.922  53.416 -27.029  1.00  0.00    -0.332 OA
BRANCH  28  29
HETATM   29  C3  UNL     1      -0.043  53.235 -28.133  1.00  0.00     0.203 C 
BRANCH  29  30
HETATM   30  C2  UNL     1       0.549  51.824 -28.069  1.00  0.00     0.193 C 
BRANCH  30  31
HETATM   31  O1  UNL     1       1.981  51.817 -28.087  1.00  0.00    -0.394 OA
HETATM   32  C1  UNL     1       2.560  51.517 -26.823  1.00  0.00     0.201 C 
ENDBRANCH  30  31
ENDBRANCH  29  30
ENDBRANCH  28  29
ENDBRANCH   1  28
TORSDOF 7
ENDMDL
