MODEL 1
REMARK minimizedAffinity -9.05758953
REMARK CNNscore 0.57982254
REMARK CNNaffinity 6.95695543
REMARK  4 active torsions:
REMARK  status: ('A' for Active; 'I' for Inactive)
REMARK    1  A    between atoms: C2_2  and  N1_3 
REMARK    2  A    between atoms: C2_2  and  C16_25 
REMARK       I    between atoms: N1_3  and  C3_4 
REMARK       I    between atoms: C3_4  and  N2_6 
REMARK    3  A    between atoms: N2_6  and  C4_7 
REMARK    4  A    between atoms: C7_13  and  C8_14 
ROOT
HETATM    1  C4  UNL     1       0.039  52.571 -19.975  1.00  0.00     0.111 A 
HETATM    2  C5  UNL     1       0.761  53.713 -20.294  1.00  0.00     0.080 A 
HETATM    3  C6  UNL     1       0.985  53.913 -21.655  1.00  0.00     0.065 A 
HETATM    4  N3  UNL     1       1.626  54.908 -22.336  1.00  0.00    -0.299 N 
HETATM    5  N4  UNL     1       1.623  54.752 -23.668  1.00  0.00    -0.299 N 
ATOM      6  H4  UNL     1       2.022  55.374 -24.371  1.00  0.00     0.187 HD
HETATM    7  C7  UNL     1       0.975  53.592 -23.869  1.00  0.00     0.072 A 
HETATM    8  C14 UNL     1       0.535  53.033 -22.630  1.00  0.00     0.036 A 
HETATM    9  C15 UNL     1      -0.190  51.914 -22.218  1.00  0.00     0.105 A 
HETATM   10  N5  UNL     1      -0.422  51.694 -20.898  1.00  0.00    -0.351 N 
ATOM     11  H5  UNL     1      -0.943  50.869 -20.602  1.00  0.00     0.166 HD
HETATM   12  H8  UNL     1       2.081  55.728 -21.950  1.00  0.00     0.187 HD
ENDROOT
BRANCH   1  13
HETATM   13  N2  UNL     1      -0.280  52.199 -18.668  1.00  0.00    -0.295 N 
HETATM   14  C3  UNL     1      -0.484  50.942 -18.168  1.00  0.00     0.322 C 
HETATM   15  N1  UNL     1      -0.817  50.984 -16.832  1.00  0.00    -0.335 N 
HETATM   16  O1  UNL     1      -0.384  49.889 -18.784  1.00  0.00    -0.247 OA
HETATM   17  H5  UNL     1      -1.201  51.850 -16.484  1.00  0.00     0.165 HD
HETATM   18  H6  UNL     1      -0.230  52.974 -18.027  1.00  0.00     0.172 HD
BRANCH  15  19
HETATM   19  C2  UNL     1      -1.142  49.773 -16.097  1.00  0.00     0.115 C 
HETATM   20  C1  UNL     1      -2.389  49.964 -15.227  1.00  0.00     0.037 C 
BRANCH  19  21
HETATM   21  C16 UNL     1       0.079  49.330 -15.306  1.00  0.00    -0.034 A 
HETATM   22  C17 UNL     1       0.280  47.960 -15.061  1.00  0.00     0.012 A 
HETATM   23  C18 UNL     1       1.402  47.515 -14.359  1.00  0.00     0.044 A 
HETATM   24  C19 UNL     1       2.340  48.435 -13.904  1.00  0.00     0.138 A 
HETATM   25  F2  UNL     1       3.412  47.987 -13.235  1.00  0.00    -0.204 F 
HETATM   26  C20 UNL     1       2.169  49.795 -14.148  1.00  0.00     0.073 A 
HETATM   27 CL1  UNL     1       3.334  50.938 -13.600  1.00  0.00    -0.081 Cl
HETATM   28  C21 UNL     1       1.047  50.243 -14.849  1.00  0.00     0.036 A 
ENDBRANCH  19  21
ENDBRANCH  15  19
ENDBRANCH   1  13
BRANCH   7  29
HETATM   29  C8  UNL     1       0.788  53.066 -25.222  1.00  0.00    -0.007 A 
HETATM   30  C9  UNL     1       1.381  51.858 -25.617  1.00  0.00     0.017 A 
HETATM   31  C10 UNL     1       1.190  51.368 -26.912  1.00  0.00     0.043 A 
HETATM   32  C11 UNL     1       0.411  52.088 -27.812  1.00  0.00     0.116 A 
HETATM   33  F1  UNL     1       0.230  51.616 -29.051  1.00  0.00    -0.206 F 
HETATM   34  C12 UNL     1      -0.176  53.292 -27.444  1.00  0.00     0.043 A 
HETATM   35  C13 UNL     1       0.015  53.783 -26.150  1.00  0.00     0.017 A 
ENDBRANCH   7  29
TORSDOF 4
ENDMDL
