MODEL 1
REMARK minimizedAffinity -9.63550568
REMARK CNNscore 0.689047575
REMARK CNNaffinity 6.32631302
REMARK  7 active torsions:
REMARK  status: ('A' for Active; 'I' for Inactive)
REMARK       I    between atoms: C1_2  and  N1_3 
REMARK    1  A    between atoms: C1_2  and  C8_12 
REMARK    2  A    between atoms: N1_3  and  C2_4 
REMARK    3  A    between atoms: C5_7  and  O2_8 
REMARK    4  A    between atoms: N2_15  and  C11_16 
REMARK    5  A    between atoms: C11_16  and  C12_17 
REMARK       I    between atoms: C12_17  and  N3_19 
REMARK    6  A    between atoms: N4_22  and  C15_23 
REMARK    7  A    between atoms: C18_26  and  C19_27 
ROOT
HETATM    1  C12 UNL     1      -7.278  47.621 -24.105  1.00  0.00     0.248 C 
HETATM    2  O3  UNL     1      -6.838  47.171 -23.044  1.00  0.00    -0.271 OA
HETATM    3  N3  UNL     1      -8.634  47.496 -24.430  1.00  0.00    -0.348 N 
HETATM    4  C13 UNL     1      -9.533  47.031 -23.363  1.00  0.00     0.140 C 
HETATM    5  C14 UNL     1     -10.834  46.398 -23.889  1.00  0.00     0.115 C 
HETATM    6  N4  UNL     1     -11.480  47.288 -24.887  1.00  0.00    -0.280 NA
HETATM    7  C27 UNL     1     -10.577  47.602 -26.012  1.00  0.00     0.115 C 
HETATM    8  C28 UNL     1      -9.291  48.271 -25.492  1.00  0.00     0.140 C 
ENDROOT
BRANCH   1   9
HETATM    9  C11 UNL     1      -6.388  48.336 -25.147  1.00  0.00     0.374 C 
BRANCH   9  10
HETATM   10  N2  UNL     1      -4.947  48.231 -24.855  1.00  0.00     0.098 N 
HETATM   11  C10 UNL     1      -4.134  48.413 -26.057  1.00  0.00     0.274 C 
HETATM   12  C9  UNL     1      -2.737  48.667 -25.503  1.00  0.00     0.046 C 
HETATM   13  C8  UNL     1      -2.957  49.149 -24.065  1.00  0.00     0.108 C 
HETATM   14  C29 UNL     1      -4.471  49.274 -23.933  1.00  0.00     0.287 C 
BRANCH  13  15
HETATM   15  C1  UNL     1      -2.223  50.444 -23.753  1.00  0.00     0.228 C 
HETATM   16  O1  UNL     1      -2.367  51.456 -24.430  1.00  0.00    -0.273 OA
HETATM   17  N1  UNL     1      -1.412  50.321 -22.633  1.00  0.00    -0.327 N 
HETATM   18  H1  UNL     1      -1.407  49.415 -22.181  1.00  0.00     0.169 HD
BRANCH  17  19
HETATM   19  C2  UNL     1      -0.613  51.316 -22.034  1.00  0.00     0.036 A 
HETATM   20  C3  UNL     1       0.105  52.279 -22.748  1.00  0.00     0.032 A 
HETATM   21  C4  UNL     1       0.875  53.240 -22.081  1.00  0.00     0.040 A 
HETATM   22  C5  UNL     1       0.931  53.239 -20.688  1.00  0.00     0.087 A 
HETATM   23  C6  UNL     1       0.216  52.285 -19.964  1.00  0.00     0.069 A 
HETATM   24 CL1  UNL     1       0.235  52.262 -18.238  1.00  0.00    -0.081 Cl
HETATM   25  C7  UNL     1      -0.552  51.327 -20.634  1.00  0.00     0.056 A 
BRANCH  22  26
HETATM   26  O2  UNL     1       1.680  54.178 -20.036  1.00  0.00    -0.359 OA
HETATM   27  H4  UNL     1       2.085  54.775 -20.685  1.00  0.00     0.217 HD
ENDBRANCH  22  26
ENDBRANCH  17  19
ENDBRANCH  13  15
ENDBRANCH   9  10
ENDBRANCH   1   9
BRANCH   6  28
HETATM   28  C15 UNL     1     -12.791  46.889 -25.196  1.00  0.00     0.010 A 
HETATM   29  C16 UNL     1     -13.285  46.771 -26.501  1.00  0.00     0.024 A 
HETATM   30  C17 UNL     1     -14.605  46.364 -26.746  1.00  0.00     0.014 A 
HETATM   31  C18 UNL     1     -15.485  46.068 -25.697  1.00  0.00    -0.026 A 
HETATM   32  C25 UNL     1     -14.998  46.196 -24.390  1.00  0.00     0.014 A 
HETATM   33  C26 UNL     1     -13.677  46.598 -24.148  1.00  0.00     0.024 A 
BRANCH  31  34
HETATM   34  C19 UNL     1     -16.871  45.643 -25.958  1.00  0.00    -0.023 A 
HETATM   35  C20 UNL     1     -17.174  44.753 -27.008  1.00  0.00     0.012 A 
HETATM   36  C21 UNL     1     -18.488  44.341 -27.256  1.00  0.00     0.004 A 
HETATM   37  C22 UNL     1     -19.525  44.815 -26.457  1.00  0.00     0.042 A 
HETATM   38  C23 UNL     1     -19.239  45.695 -25.420  1.00  0.00     0.117 A 
HETATM   39  F1  UNL     1     -20.236  46.152 -24.650  1.00  0.00    -0.206 F 
HETATM   40  C24 UNL     1     -17.934  46.108 -25.165  1.00  0.00     0.054 A 
ENDBRANCH  31  34
ENDBRANCH   6  28
TORSDOF 7
ENDMDL
