MODEL 1
REMARK minimizedAffinity -9.64011478
REMARK CNNscore 0.587259769
REMARK CNNaffinity 7.25738335
REMARK  7 active torsions:
REMARK  status: ('A' for Active; 'I' for Inactive)
REMARK    1  A    between atoms: C2_2  and  C3_3 
REMARK       I    between atoms: C3_3  and  N1_5 
REMARK    2  A    between atoms: N1_5  and  C4_6 
REMARK    3  A    between atoms: C8_13  and  C9_14 
REMARK    4  A    between atoms: N4_25  and  C19_26 
REMARK    5  A    between atoms: C19_26  and  C20_27 
REMARK       I    between atoms: C20_27  and  N5_29 
REMARK    6  A    between atoms: N6_32  and  C23_33 
REMARK    7  A    between atoms: C26_36  and  C27_37 
ROOT
HETATM    1  C1  UNL     1      -2.779  48.958 -17.513  1.00  0.00     0.027 C 
HETATM    2  C2  UNL     1      -2.419  49.026 -19.006  1.00  0.00     0.065 C 
HETATM    3  C17 UNL     1      -1.942  47.641 -19.492  1.00  0.00     0.051 C 
HETATM    4  C18 UNL     1      -2.723  47.390 -20.775  1.00  0.00     0.274 C 
HETATM    5  N4  UNL     1      -4.011  48.079 -20.593  1.00  0.00     0.098 N 
HETATM    6  C35 UNL     1      -3.645  49.319 -19.891  1.00  0.00     0.291 C 
ENDROOT
BRANCH   2   7
HETATM    7  C3  UNL     1      -1.346  50.120 -19.204  1.00  0.00     0.232 C 
HETATM    8  O1  UNL     1      -0.538  50.392 -18.322  1.00  0.00    -0.272 OA
HETATM    9  N1  UNL     1      -1.423  50.752 -20.438  1.00  0.00    -0.326 N 
HETATM   10  H4  UNL     1      -2.097  50.392 -21.100  1.00  0.00     0.169 HD
BRANCH   9  11
HETATM   11  C4  UNL     1      -0.629  51.820 -20.913  1.00  0.00     0.035 A 
HETATM   12  C5  UNL     1      -0.121  52.705 -19.952  1.00  0.00     0.032 A 
HETATM   13  C6  UNL     1       0.679  53.798 -20.304  1.00  0.00     0.034 A 
HETATM   14  C7  UNL     1       0.955  53.971 -21.660  1.00  0.00     0.060 A 
HETATM   15  N2  UNL     1       1.694  54.910 -22.322  1.00  0.00    -0.299 N 
HETATM   16  C15 UNL     1       0.476  53.121 -22.650  1.00  0.00     0.023 A 
HETATM   17  N3  UNL     1       1.752  54.737 -23.648  1.00  0.00    -0.299 N 
HETATM   18  H7  UNL     1       2.192  55.696 -21.921  1.00  0.00     0.187 HD
HETATM   19  C8  UNL     1       0.997  53.646 -23.877  1.00  0.00     0.070 A 
ATOM     20  H3  UNL     1       2.255  55.303 -24.331  1.00  0.00     0.187 HD
HETATM   21  C16 UNL     1      -0.323  52.021 -22.265  1.00  0.00     0.045 A 
BRANCH  19  22
HETATM   22  C9  UNL     1       0.815  53.143 -25.241  1.00  0.00    -0.007 A 
HETATM   23  C10 UNL     1       1.368  51.919 -25.649  1.00  0.00     0.017 A 
HETATM   24  C11 UNL     1       1.188  51.460 -26.956  1.00  0.00     0.043 A 
HETATM   25  C12 UNL     1       0.449  52.221 -27.856  1.00  0.00     0.116 A 
HETATM   26  F1  UNL     1       0.278  51.780 -29.108  1.00  0.00    -0.206 F 
HETATM   27  C13 UNL     1      -0.118  53.429 -27.472  1.00  0.00     0.043 A 
HETATM   28  C14 UNL     1       0.061  53.888 -26.165  1.00  0.00     0.017 A 
ENDBRANCH  19  22
ENDBRANCH   9  11
ENDBRANCH   2   7
BRANCH   5  29
HETATM   29  C19 UNL     1      -4.977  47.267 -19.823  1.00  0.00     0.374 C 
BRANCH  29  30
HETATM   30  C20 UNL     1      -5.467  46.059 -20.637  1.00  0.00     0.248 C 
HETATM   31  O2  UNL     1      -4.853  44.989 -20.571  1.00  0.00    -0.271 OA
HETATM   32  N5  UNL     1      -6.628  46.196 -21.390  1.00  0.00    -0.348 N 
HETATM   33  C21 UNL     1      -7.012  45.085 -22.269  1.00  0.00     0.140 C 
HETATM   34  C34 UNL     1      -7.209  47.490 -21.770  1.00  0.00     0.140 C 
HETATM   35  C22 UNL     1      -8.533  45.004 -22.483  1.00  0.00     0.115 C 
HETATM   36  N6  UNL     1      -9.073  46.307 -22.935  1.00  0.00    -0.280 NA
HETATM   37  C33 UNL     1      -8.730  47.412 -22.006  1.00  0.00     0.115 C 
BRANCH  36  38
HETATM   38  C23 UNL     1     -10.416  46.343 -23.350  1.00  0.00     0.010 A 
HETATM   39  C24 UNL     1     -11.437  46.320 -22.387  1.00  0.00     0.024 A 
HETATM   40  C25 UNL     1     -12.793  46.337 -22.744  1.00  0.00     0.017 A 
HETATM   41  C26 UNL     1     -13.198  46.388 -24.087  1.00  0.00     0.008 A 
HETATM   42  C31 UNL     1     -12.175  46.436 -25.048  1.00  0.00     0.017 A 
HETATM   43  C32 UNL     1     -10.817  46.420 -24.688  1.00  0.00     0.024 A 
BRANCH  41  44
HETATM   44  C27 UNL     1     -14.624  46.393 -24.469  1.00  0.00     0.115 A 
HETATM   45  N7  UNL     1     -15.429  47.315 -23.899  1.00  0.00    -0.352 N 
HETATM   46  C28 UNL     1     -16.722  47.300 -24.270  1.00  0.00     0.091 A 
ATOM     47  H7  UNL     1     -15.074  47.990 -23.221  1.00  0.00     0.166 HD
HETATM   48  C29 UNL     1     -17.241  46.412 -25.182  1.00  0.00     0.034 A 
HETATM   49  C30 UNL     1     -16.344  45.515 -25.707  1.00  0.00     0.091 A 
HETATM   50  N8  UNL     1     -15.040  45.482 -25.373  1.00  0.00    -0.352 N 
ATOM     51  H8  UNL     1     -14.399  44.803 -25.783  1.00  0.00     0.166 HD
ENDBRANCH  41  44
ENDBRANCH  36  38
ENDBRANCH  29  30
ENDBRANCH   5  29
TORSDOF 7
ENDMDL
