MODEL 1
REMARK minimizedAffinity -9.06987286
REMARK  7 active torsions:
REMARK  status: ('A' for Active; 'I' for Inactive)
REMARK    1  A    between atoms: C2_2  and  N1_3 
REMARK    2  A    between atoms: C2_2  and  C17_27 
REMARK       I    between atoms: N1_3  and  C3_4 
REMARK       I    between atoms: C3_4  and  N2_6 
REMARK    3  A    between atoms: N2_6  and  C4_7 
REMARK    4  A    between atoms: C7_13  and  O2_14 
REMARK    5  A    between atoms: O2_14  and  C8_15 
REMARK    6  A    between atoms: C8_15  and  C9_16 
REMARK    7  A    between atoms: C9_16  and  C10_17 
ROOT
HETATM    1  C4  UNL     1       0.236  52.510 -20.088  1.00  0.00     0.111 A 
HETATM    2  C5  UNL     1       1.203  53.121 -19.296  1.00  0.00     0.080 A 
HETATM    3  C6  UNL     1       1.195  52.743 -17.954  1.00  0.00     0.067 A 
HETATM    4  N3  UNL     1       1.968  53.120 -16.888  1.00  0.00    -0.298 N 
HETATM    5  N4  UNL     1       1.634  52.521 -15.729  1.00  0.00    -0.279 N 
ATOM      6  H4  UNL     1       2.053  52.644 -14.807  1.00  0.00     0.189 HD
HETATM    7  C7  UNL     1       0.621  51.725 -16.079  1.00  0.00     0.171 A 
HETATM    8  C15 UNL     1       0.292  51.819 -17.445  1.00  0.00     0.060 A 
HETATM    9  C16 UNL     1      -0.641  51.250 -18.309  1.00  0.00     0.108 A 
HETATM   10  N6  UNL     1      -0.656  51.603 -19.621  1.00  0.00    -0.351 N 
ATOM     11  H6  UNL     1      -1.338  51.186 -20.254  1.00  0.00     0.166 HD
HETATM   12  H8  UNL     1       2.733  53.786 -16.884  1.00  0.00     0.187 HD
ENDROOT
BRANCH   1  13
HETATM   13  N2  UNL     1       0.091  52.758 -21.453  1.00  0.00    -0.295 N 
HETATM   14  C3  UNL     1      -0.421  51.936 -22.420  1.00  0.00     0.322 C 
HETATM   15  N1  UNL     1      -0.424  52.563 -23.648  1.00  0.00    -0.335 N 
HETATM   16  O1  UNL     1      -0.823  50.791 -22.261  1.00  0.00    -0.247 OA
HETATM   17  H5  UNL     1      -0.552  53.564 -23.609  1.00  0.00     0.165 HD
HETATM   18  H6  UNL     1       0.539  53.615 -21.738  1.00  0.00     0.172 HD
BRANCH  15  19
HETATM   19  C2  UNL     1      -0.988  51.907 -24.820  1.00  0.00     0.115 C 
HETATM   20  C1  UNL     1      -1.569  50.531 -24.479  1.00  0.00     0.037 C 
BRANCH  19  21
HETATM   21  C17 UNL     1       0.073  51.805 -25.904  1.00  0.00    -0.036 A 
HETATM   22  C18 UNL     1       1.437  51.686 -25.587  1.00  0.00     0.009 A 
HETATM   23  C19 UNL     1       2.399  51.610 -26.596  1.00  0.00     0.001 A 
HETATM   24  C20 UNL     1       2.012  51.658 -27.934  1.00  0.00     0.000 A 
HETATM   25  C21 UNL     1       0.664  51.783 -28.264  1.00  0.00     0.001 A 
HETATM   26  C22 UNL     1      -0.299  51.858 -27.256  1.00  0.00     0.009 A 
ENDBRANCH  19  21
ENDBRANCH  15  19
ENDBRANCH   1  13
BRANCH   7  27
HETATM   27  O2  UNL     1      -0.010  50.947 -15.172  1.00  0.00    -0.334 OA
BRANCH  27  28
HETATM   28  C8  UNL     1       0.014  51.458 -13.838  1.00  0.00     0.179 C 
BRANCH  28  29
HETATM   29  C9  UNL     1      -1.392  51.937 -13.468  1.00  0.00     0.062 C 
BRANCH  29  30
HETATM   30  C10 UNL     1      -1.609  52.123 -11.950  1.00  0.00     0.222 C 
HETATM   31  C11 UNL     1      -3.054  51.738 -11.553  1.00  0.00     0.036 C 
HETATM   32  C12 UNL     1      -3.993  52.938 -11.584  1.00  0.00     0.004 C 
HETATM   33  C13 UNL     1      -3.481  54.063 -10.682  1.00  0.00     0.030 C 
HETATM   34  C14 UNL     1      -1.990  53.933 -10.366  1.00  0.00     0.270 C 
HETATM   35  N5  UNL     1      -1.245  53.495 -11.543  1.00  0.00     0.088 N 
HETATM   36  H22 UNL     1      -1.437  54.145 -12.306  1.00  0.00     0.316 HD
ENDBRANCH  29  30
ENDBRANCH  28  29
ENDBRANCH  27  28
ENDBRANCH   7  27
TORSDOF 7
ENDMDL
