MODEL 1
REMARK minimizedAffinity -10.5437031
REMARK CNNscore 0.549467385
REMARK CNNaffinity 7.65880013
REMARK  6 active torsions:
REMARK  status: ('A' for Active; 'I' for Inactive)
REMARK    1  A    between atoms: O1_2  and  C2_3 
REMARK    2  A    between atoms: C7_9  and  C8_10 
REMARK    3  A    between atoms: C8_10  and  N1_11 
REMARK    4  A    between atoms: C12_15  and  N2_16 
REMARK       I    between atoms: N2_16  and  C13_17 
REMARK       I    between atoms: C13_17  and  N3_19 
REMARK    5  A    between atoms: N3_19  and  C14_20 
REMARK    6  A    between atoms: C17_26  and  C18_27 
ROOT
HETATM    1  C14 UNL     1       0.709  52.534 -19.714  1.00  0.00     0.111 A 
HETATM    2  C15 UNL     1       1.102  53.266 -20.836  1.00  0.00     0.080 A 
HETATM    3  C16 UNL     1       0.569  52.837 -22.053  1.00  0.00     0.065 A 
HETATM    4  N4  UNL     1       0.713  53.294 -23.332  1.00  0.00    -0.299 N 
HETATM    5  N5  UNL     1      -0.008  52.622 -24.241  1.00  0.00    -0.299 N 
ATOM      6  H5  UNL     1      -0.070  52.798 -25.244  1.00  0.00     0.187 HD
HETATM    7  C17 UNL     1      -0.629  51.665 -23.533  1.00  0.00     0.072 A 
HETATM    8  C26 UNL     1      -0.297  51.756 -22.149  1.00  0.00     0.036 A 
HETATM    9  C27 UNL     1      -0.636  51.079 -20.977  1.00  0.00     0.105 A 
HETATM   10  N8  UNL     1      -0.115  51.473 -19.787  1.00  0.00    -0.351 N 
ATOM     11  H8  UNL     1      -0.352  50.960 -18.938  1.00  0.00     0.166 HD
HETATM   12  H19 UNL     1       1.268  54.080 -23.650  1.00  0.00     0.187 HD
ENDROOT
BRANCH   1  13
HETATM   13  N3  UNL     1       1.210  52.966 -18.478  1.00  0.00    -0.295 N 
HETATM   14  C13 UNL     1       1.198  52.242 -17.307  1.00  0.00     0.322 C 
HETATM   15  N2  UNL     1       1.737  52.996 -16.275  1.00  0.00    -0.337 N 
HETATM   16  O2  UNL     1       0.778  51.108 -17.131  1.00  0.00    -0.247 OA
HETATM   17  H16 UNL     1       2.458  53.646 -16.545  1.00  0.00     0.164 HD
HETATM   18  H17 UNL     1       1.484  53.929 -18.405  1.00  0.00     0.172 HD
BRANCH  15  19
HETATM   19  C12 UNL     1       1.857  52.434 -14.928  1.00  0.00     0.114 C 
HETATM   20  C11 UNL     1       2.600  51.098 -15.002  1.00  0.00     0.029 C 
HETATM   21  C10 UNL     1       2.638  50.429 -13.637  1.00  0.00     0.032 C 
HETATM   22  C9  UNL     1       1.230  50.273 -13.057  1.00  0.00     0.273 C 
HETATM   23  N1  UNL     1       0.553  51.571 -12.947  1.00  0.00     0.094 N 
HETATM   24  C28 UNL     1       0.475  52.253 -14.253  1.00  0.00     0.297 C 
BRANCH  23  25
HETATM   25  C8  UNL     1      -0.804  51.437 -12.374  1.00  0.00     0.317 C 
BRANCH  25  26
HETATM   26  C7  UNL     1      -1.254  52.646 -11.586  1.00  0.00     0.042 A 
HETATM   27  C2  UNL     1      -2.612  52.914 -11.351  1.00  0.00     0.079 A 
HETATM   28  C3  UNL     1      -2.991  54.048 -10.618  1.00  0.00     0.037 A 
HETATM   29  C4  UNL     1      -2.026  54.935 -10.140  1.00  0.00     0.006 A 
HETATM   30  C5  UNL     1      -0.678  54.686 -10.380  1.00  0.00     0.043 A 
HETATM   31  C6  UNL     1      -0.305  53.549 -11.092  1.00  0.00     0.127 A 
HETATM   32  F1  UNL     1       1.002  53.334 -11.311  1.00  0.00    -0.205 F 
BRANCH  27  33
HETATM   33  O1  UNL     1      -3.519  51.989 -11.799  1.00  0.00    -0.355 OA
HETATM   34  C1  UNL     1      -4.311  51.387 -10.780  1.00  0.00     0.210 C 
ENDBRANCH  27  33
ENDBRANCH  25  26
ENDBRANCH  23  25
ENDBRANCH  15  19
ENDBRANCH   1  13
BRANCH   7  35
HETATM   35  C18 UNL     1      -1.535  50.714 -24.182  1.00  0.00    -0.006 A 
HETATM   36  C19 UNL     1      -2.188  49.711 -23.382  1.00  0.00     0.016 A 
HETATM   37  C20 UNL     1      -3.110  48.766 -23.894  1.00  0.00     0.033 A 
HETATM   38  C21 UNL     1      -3.342  48.895 -25.272  1.00  0.00     0.059 A 
HETATM   39  N6  UNL     1      -4.154  48.197 -26.082  1.00  0.00    -0.299 N 
HETATM   40  C24 UNL     1      -2.658  49.902 -26.042  1.00  0.00     0.010 A 
HETATM   41  N7  UNL     1      -3.996  48.761 -27.298  1.00  0.00    -0.306 N 
ATOM     42  H6  UNL     1      -4.758  47.413 -25.834  1.00  0.00     0.187 HD
HETATM   43  C22 UNL     1      -4.751  48.254 -28.419  1.00  0.00     0.177 C 
HETATM   44  C23 UNL     1      -3.095  49.786 -27.333  1.00  0.00     0.123 A 
HETATM   45  C25 UNL     1      -1.740  50.836 -25.579  1.00  0.00     0.029 A 
ENDBRANCH   7  35
TORSDOF 6
ENDMDL
