MODEL 1
REMARK minimizedAffinity -8.29741478
REMARK  8 active torsions:
REMARK  status: ('A' for Active; 'I' for Inactive)
REMARK    1  A    between atoms: C2_2  and  N1_3 
REMARK       I    between atoms: N1_3  and  C3_4 
REMARK    2  A    between atoms: C3_4  and  C4_6 
REMARK    3  A    between atoms: C6_8  and  C7_9 
REMARK    4  A    between atoms: C10_15  and  N4_16 
REMARK       I    between atoms: N4_16  and  C11_17 
REMARK       I    between atoms: C11_17  and  N5_19 
REMARK    5  A    between atoms: N5_19  and  C12_20 
REMARK    6  A    between atoms: C12_20  and  C13_21 
REMARK    7  A    between atoms: C12_20  and  C15_24 
REMARK    8  A    between atoms: C13_21  and  O3_22 
ROOT
HETATM    1  C7  UNL     1       0.485  51.221 -16.187  1.00  0.00     0.044 A 
HETATM    2  N2  UNL     1      -0.089  50.016 -16.145  1.00  0.00    -0.303 N 
ATOM      3  H2  UNL     1      -0.226  49.409 -15.338  1.00  0.00     0.186 HD
HETATM    4  N3  UNL     1      -0.444  49.794 -17.428  1.00  0.00    -0.300 N 
HETATM    5  C8  UNL     1      -0.118  50.816 -18.278  1.00  0.00     0.065 A 
HETATM    6  C9  UNL     1      -0.329  50.992 -19.646  1.00  0.00     0.080 A 
HETATM    7  C10 UNL     1       0.143  52.192 -20.167  1.00  0.00     0.111 A 
HETATM    8  N6  UNL     1       0.767  53.138 -19.427  1.00  0.00    -0.351 N 
ATOM      9  H6  UNL     1       1.094  53.998 -19.868  1.00  0.00     0.166 HD
HETATM   10  C21 UNL     1       0.957  52.943 -18.094  1.00  0.00     0.105 A 
HETATM   11  C22 UNL     1       0.511  51.770 -17.490  1.00  0.00     0.032 A 
HETATM   12  H11 UNL     1      -0.923  48.930 -17.656  1.00  0.00     0.187 HD
ENDROOT
BRANCH   7  13
HETATM   13  N4  UNL     1       0.000  52.557 -21.507  1.00  0.00    -0.295 N 
HETATM   14  C11 UNL     1      -0.471  51.809 -22.552  1.00  0.00     0.322 C 
HETATM   15  O2  UNL     1      -0.812  50.633 -22.509  1.00  0.00    -0.247 OA
HETATM   16  N5  UNL     1      -0.523  52.556 -23.711  1.00  0.00    -0.332 N 
HETATM   17  H14 UNL     1      -0.765  53.524 -23.555  1.00  0.00     0.165 HD
HETATM   18  H13 UNL     1       0.355  53.482 -21.696  1.00  0.00     0.172 HD
BRANCH  16  19
HETATM   19  C12 UNL     1      -1.103  51.976 -24.924  1.00  0.00     0.143 C 
BRANCH  19  20
HETATM   20  C13 UNL     1      -1.782  50.605 -24.672  1.00  0.00     0.197 C 
BRANCH  20  21
HETATM   21  O3  UNL     1      -1.894  49.835 -25.882  1.00  0.00    -0.394 OA
HETATM   22  C14 UNL     1      -2.904  48.830 -25.792  1.00  0.00     0.201 C 
ENDBRANCH  20  21
ENDBRANCH  19  20
BRANCH  19  23
HETATM   23  C15 UNL     1      -0.030  51.872 -26.002  1.00  0.00    -0.033 A 
HETATM   24  C16 UNL     1       1.319  51.643 -25.678  1.00  0.00     0.009 A 
HETATM   25  C17 UNL     1       2.291  51.570 -26.675  1.00  0.00     0.001 A 
HETATM   26  C18 UNL     1       1.931  51.721 -28.010  1.00  0.00     0.000 A 
HETATM   27  C19 UNL     1       0.597  51.941 -28.347  1.00  0.00     0.001 A 
HETATM   28  C20 UNL     1      -0.377  52.014 -27.350  1.00  0.00     0.009 A 
ENDBRANCH  19  23
ENDBRANCH  16  19
ENDBRANCH   7  13
BRANCH   1  29
HETATM   29  C6  UNL     1       0.990  51.984 -14.934  1.00  0.00     0.052 A 
HETATM   30  C4  UNL     1       0.241  52.266 -13.659  1.00  0.00     0.088 A 
HETATM   31  C5  UNL     1       1.303  51.187 -13.696  1.00  0.00     0.026 A 
BRANCH  30  32
HETATM   32  C3  UNL     1      -1.122  51.888 -13.201  1.00  0.00     0.222 C 
HETATM   33  N1  UNL     1      -1.764  52.725 -12.330  1.00  0.00    -0.361 N 
HETATM   34  H6  UNL     1      -1.225  53.488 -11.916  1.00  0.00     0.162 HD
HETATM   35  O1  UNL     1      -1.607  50.836 -13.615  1.00  0.00    -0.273 OA
BRANCH  33  36
HETATM   36  C2  UNL     1      -3.054  52.412 -11.765  1.00  0.00     0.118 C 
HETATM   37  C1  UNL     1      -3.791  53.664 -11.293  1.00  0.00     0.026 C 
ENDBRANCH  33  36
ENDBRANCH  30  32
ENDBRANCH   1  29
TORSDOF 8
ENDMDL
