MODEL 1
REMARK minimizedAffinity -9.18793106
REMARK  4 active torsions:
REMARK  status: ('A' for Active; 'I' for Inactive)
REMARK    1  A    between atoms: C4_5  and  C5_6 
REMARK    2  A    between atoms: C5_6  and  N2_7 
REMARK       I    between atoms: N2_7  and  C6_8 
REMARK       I    between atoms: C6_8  and  N3_10 
REMARK    3  A    between atoms: N3_10  and  C7_11 
REMARK    4  A    between atoms: C10_17  and  C11_18 
ROOT
HETATM    1  C7  UNL     1      -2.360  51.092 -26.884  1.00  0.00     0.111 A 
HETATM    2  C8  UNL     1      -1.305  51.892 -27.310  1.00  0.00     0.080 A 
HETATM    3  C9  UNL     1      -0.508  52.413 -26.291  1.00  0.00     0.065 A 
HETATM    4  N4  UNL     1       0.583  53.234 -26.321  1.00  0.00    -0.299 N 
HETATM    5  N5  UNL     1       1.070  53.542 -25.108  1.00  0.00    -0.299 N 
ATOM      6  H5  UNL     1       1.852  54.157 -24.887  1.00  0.00     0.187 HD
HETATM    7  C10 UNL     1       0.294  52.857 -24.249  1.00  0.00     0.072 A 
HETATM    8  C17 UNL     1      -0.735  52.151 -24.946  1.00  0.00     0.036 A 
HETATM    9  C18 UNL     1      -1.829  51.350 -24.610  1.00  0.00     0.105 A 
HETATM   10  N6  UNL     1      -2.623  50.828 -25.582  1.00  0.00    -0.351 N 
ATOM     11  H6  UNL     1      -3.416  50.237 -25.331  1.00  0.00     0.166 HD
HETATM   12  H14 UNL     1       1.043  53.622 -27.136  1.00  0.00     0.187 HD
ENDROOT
BRANCH   1  13
HETATM   13  N3  UNL     1      -3.267  50.486 -27.753  1.00  0.00    -0.295 N 
HETATM   14  C6  UNL     1      -3.892  49.276 -27.622  1.00  0.00     0.321 C 
HETATM   15  N2  UNL     1      -4.707  49.013 -28.705  1.00  0.00    -0.342 N 
HETATM   16  O1  UNL     1      -3.784  48.502 -26.680  1.00  0.00    -0.247 OA
HETATM   17  H11 UNL     1      -4.518  49.523 -29.555  1.00  0.00     0.164 HD
HETATM   18  H12 UNL     1      -3.551  51.099 -28.500  1.00  0.00     0.172 HD
BRANCH  15  19
HETATM   19  C5  UNL     1      -5.405  47.746 -28.828  1.00  0.00     0.130 C 
BRANCH  19  20
HETATM   20  C4  UNL     1      -6.054  47.571 -30.199  1.00  0.00     0.033 C 
HETATM   21  C3  UNL     1      -6.110  46.112 -30.680  1.00  0.00     0.038 C 
HETATM   22  C2  UNL     1      -5.655  46.151 -32.137  1.00  0.00     0.272 C 
HETATM   23  N1  UNL     1      -5.728  47.570 -32.492  1.00  0.00     0.084 N 
HETATM   24  C1  UNL     1      -4.943  47.895 -33.673  1.00  0.00     0.309 C 
HETATM   25  C19 UNL     1      -5.279  48.290 -31.298  1.00  0.00     0.278 C 
ENDBRANCH  19  20
ENDBRANCH  15  19
ENDBRANCH   1  13
BRANCH   7  26
HETATM   26  C11 UNL     1       0.540  52.919 -22.807  1.00  0.00    -0.007 A 
HETATM   27  C12 UNL     1       1.217  54.006 -22.234  1.00  0.00     0.017 A 
HETATM   28  C13 UNL     1       1.447  54.047 -20.856  1.00  0.00     0.043 A 
HETATM   29  C14 UNL     1       0.995  53.008 -20.052  1.00  0.00     0.116 A 
HETATM   30  F1  UNL     1       1.217  53.050 -18.732  1.00  0.00    -0.206 F 
HETATM   31  C15 UNL     1       0.307  51.930 -20.596  1.00  0.00     0.043 A 
HETATM   32  C16 UNL     1       0.079  51.885 -21.974  1.00  0.00     0.017 A 
ENDBRANCH   7  26
TORSDOF 4
ENDMDL
