MODEL 1
REMARK minimizedAffinity -7.490026
REMARK  8 active torsions:
REMARK  status: ('A' for Active; 'I' for Inactive)
REMARK    1  A    between atoms: O1_2  and  C2_3 
REMARK    2  A    between atoms: C2_3  and  C3_4 
REMARK    3  A    between atoms: C3_4  and  O2_5 
REMARK    4  A    between atoms: O2_5  and  C4_6 
REMARK    5  A    between atoms: C7_12  and  N3_13 
REMARK       I    between atoms: N3_13  and  C8_14 
REMARK       I    between atoms: C8_14  and  N4_16 
REMARK    6  A    between atoms: N4_16  and  C9_17 
REMARK    7  A    between atoms: C9_17  and  C10_18 
REMARK    8  A    between atoms: C10_18  and  C11_19 
ROOT
HETATM    1  C4  UNL     1      -0.153  52.031 -26.320  1.00  0.00     0.171 A 
HETATM    2  N1  UNL     1       0.678  53.037 -26.601  1.00  0.00    -0.279 N 
ATOM      3  H1  UNL     1       0.968  53.383 -27.515  1.00  0.00     0.189 HD
HETATM    4  N2  UNL     1       1.039  53.485 -25.383  1.00  0.00    -0.298 N 
HETATM    5  C5  UNL     1       0.455  52.809 -24.345  1.00  0.00     0.067 A 
HETATM    6  C6  UNL     1       0.552  52.955 -22.961  1.00  0.00     0.080 A 
HETATM    7  C7  UNL     1      -0.205  52.057 -22.217  1.00  0.00     0.111 A 
HETATM    8  N6  UNL     1      -0.994  51.103 -22.768  1.00  0.00    -0.351 N 
ATOM      9  H6  UNL     1      -1.532  50.477 -22.168  1.00  0.00     0.166 HD
HETATM   10  C16 UNL     1      -1.071  50.981 -24.120  1.00  0.00     0.108 A 
HETATM   11  C17 UNL     1      -0.340  51.839 -24.938  1.00  0.00     0.060 A 
HETATM   12  H8  UNL     1       1.689  54.261 -25.328  1.00  0.00     0.187 HD
ENDROOT
BRANCH   7  13
HETATM   13  N3  UNL     1      -0.238  52.050 -20.823  1.00  0.00    -0.295 N 
HETATM   14  C8  UNL     1      -0.226  50.977 -19.974  1.00  0.00     0.321 C 
HETATM   15  O3  UNL     1      -0.203  49.795 -20.293  1.00  0.00    -0.247 OA
HETATM   16  N4  UNL     1      -0.248  51.385 -18.658  1.00  0.00    -0.342 N 
HETATM   17  H11 UNL     1       0.127  52.302 -18.458  1.00  0.00     0.164 HD
HETATM   18  H10 UNL     1      -0.387  52.968 -20.434  1.00  0.00     0.172 HD
BRANCH  16  19
HETATM   19  C9  UNL     1      -0.164  50.425 -17.567  1.00  0.00     0.130 C 
BRANCH  19  20
HETATM   20  C10 UNL     1      -0.005  51.074 -16.190  1.00  0.00     0.076 C 
BRANCH  20  21
HETATM   21  C11 UNL     1       1.415  51.503 -15.919  1.00  0.00     0.010 A 
HETATM   22  C12 UNL     1       2.039  52.440 -16.739  1.00  0.00     0.025 A 
HETATM   23  C13 UNL     1       3.351  52.812 -16.458  1.00  0.00     0.003 A 
HETATM   24  C14 UNL     1       4.004  52.239 -15.375  1.00  0.00     0.017 A 
HETATM   25  C15 UNL     1       3.314  51.314 -14.611  1.00  0.00     0.088 A 
HETATM   26  N5  UNL     1       2.039  50.937 -14.857  1.00  0.00    -0.369 N 
ATOM     27  H5  UNL     1       1.566  50.254 -14.267  1.00  0.00     0.165 HD
ENDBRANCH  20  21
ENDBRANCH  19  20
ENDBRANCH  16  19
ENDBRANCH   7  13
BRANCH   1  28
HETATM   28  O2  UNL     1      -0.739  51.308 -27.301  1.00  0.00    -0.332 OA
BRANCH  28  29
HETATM   29  C3  UNL     1      -1.883  50.557 -26.878  1.00  0.00     0.203 C 
BRANCH  29  30
HETATM   30  C2  UNL     1      -3.069  50.908 -27.781  1.00  0.00     0.193 C 
BRANCH  30  31
HETATM   31  O1  UNL     1      -3.582  49.787 -28.510  1.00  0.00    -0.394 OA
HETATM   32  C1  UNL     1      -3.952  48.691 -27.685  1.00  0.00     0.201 C 
ENDBRANCH  30  31
ENDBRANCH  29  30
ENDBRANCH  28  29
ENDBRANCH   1  28
TORSDOF 8
ENDMDL
