MODEL 1
REMARK minimizedAffinity -8.99867344
REMARK  6 active torsions:
REMARK  status: ('A' for Active; 'I' for Inactive)
REMARK    1  A    between atoms: O1_2  and  C2_3 
REMARK    2  A    between atoms: C2_3  and  C3_4 
REMARK    3  A    between atoms: C3_4  and  N1_5 
REMARK    4  A    between atoms: C3_4  and  C17_27 
REMARK       I    between atoms: N1_5  and  C4_6 
REMARK       I    between atoms: C4_6  and  N2_8 
REMARK    5  A    between atoms: N2_8  and  C5_9 
REMARK    6  A    between atoms: C8_15  and  C9_16 
ROOT
HETATM    1  C5  UNL     1       0.356  52.495 -19.777  1.00  0.00     0.111 A 
HETATM    2  C6  UNL     1       0.962  53.694 -20.125  1.00  0.00     0.080 A 
HETATM    3  C7  UNL     1       1.115  53.908 -21.495  1.00  0.00     0.065 A 
HETATM    4  N3  UNL     1       1.660  54.942 -22.201  1.00  0.00    -0.299 N 
HETATM    5  N4  UNL     1       1.636  54.771 -23.531  1.00  0.00    -0.299 N 
ATOM      6  H4  UNL     1       2.001  55.398 -24.248  1.00  0.00     0.187 HD
HETATM    7  C8  UNL     1       1.021  53.589 -23.708  1.00  0.00     0.072 A 
HETATM    8  C15 UNL     1       0.691  52.995 -22.451  1.00  0.00     0.036 A 
HETATM    9  C16 UNL     1       0.108  51.806 -22.010  1.00  0.00     0.105 A 
HETATM   10  N5  UNL     1      -0.054  51.574 -20.681  1.00  0.00    -0.351 N 
ATOM     11  H5  UNL     1      -0.487  50.706 -20.364  1.00  0.00     0.166 HD
HETATM   12  H10 UNL     1       2.073  55.791 -21.833  1.00  0.00     0.187 HD
ENDROOT
BRANCH   1  13
HETATM   13  N2  UNL     1       0.121  52.104 -18.459  1.00  0.00    -0.295 N 
HETATM   14  C4  UNL     1       0.964  52.181 -17.385  1.00  0.00     0.322 C 
HETATM   15  N1  UNL     1       0.375  51.668 -16.253  1.00  0.00    -0.332 N 
HETATM   16  O2  UNL     1       2.091  52.658 -17.378  1.00  0.00    -0.247 OA
HETATM   17  H7  UNL     1      -0.327  50.957 -16.398  1.00  0.00     0.165 HD
HETATM   18  H8  UNL     1      -0.837  51.834 -18.300  1.00  0.00     0.172 HD
BRANCH  15  19
HETATM   19  C3  UNL     1       1.117  51.579 -14.999  1.00  0.00     0.143 C 
BRANCH  19  20
HETATM   20  C2  UNL     1       0.416  52.274 -13.798  1.00  0.00     0.197 C 
BRANCH  20  21
HETATM   21  O1  UNL     1      -0.971  51.937 -13.657  1.00  0.00    -0.394 OA
HETATM   22  C1  UNL     1      -1.518  52.348 -12.411  1.00  0.00     0.201 C 
ENDBRANCH  20  21
ENDBRANCH  19  20
BRANCH  19  23
HETATM   23  C17 UNL     1       1.485  50.128 -14.725  1.00  0.00    -0.033 A 
HETATM   24  C18 UNL     1       2.613  49.825 -13.945  1.00  0.00     0.009 A 
HETATM   25  C19 UNL     1       2.980  48.500 -13.703  1.00  0.00     0.001 A 
HETATM   26  C20 UNL     1       2.228  47.459 -14.240  1.00  0.00     0.000 A 
HETATM   27  C21 UNL     1       1.111  47.741 -15.022  1.00  0.00     0.001 A 
HETATM   28  C22 UNL     1       0.743  49.064 -15.266  1.00  0.00     0.009 A 
ENDBRANCH  19  23
ENDBRANCH  15  19
ENDBRANCH   1  13
BRANCH   7  29
HETATM   29  C9  UNL     1       0.785  53.065 -25.053  1.00  0.00    -0.007 A 
HETATM   30  C10 UNL     1       1.411  51.875 -25.461  1.00  0.00     0.017 A 
HETATM   31  C11 UNL     1       1.191  51.361 -26.741  1.00  0.00     0.043 A 
HETATM   32  C12 UNL     1       0.352  52.040 -27.616  1.00  0.00     0.116 A 
HETATM   33  F1  UNL     1       0.141  51.549 -28.843  1.00  0.00    -0.206 F 
HETATM   34  C13 UNL     1      -0.268  53.225 -27.237  1.00  0.00     0.043 A 
HETATM   35  C14 UNL     1      -0.049  53.741 -25.957  1.00  0.00     0.017 A 
ENDBRANCH   7  29
TORSDOF 6
ENDMDL
