MODEL 1
REMARK minimizedAffinity -9.13753128
REMARK  6 active torsions:
REMARK  status: ('A' for Active; 'I' for Inactive)
REMARK    1  A    between atoms: O1_2  and  C2_3 
REMARK    2  A    between atoms: C2_3  and  C3_4 
REMARK    3  A    between atoms: C3_4  and  N1_5 
REMARK    4  A    between atoms: C3_4  and  C17_28 
REMARK       I    between atoms: N1_5  and  C4_6 
REMARK       I    between atoms: C4_6  and  N2_8 
REMARK    5  A    between atoms: N2_8  and  C5_9 
REMARK    6  A    between atoms: N5_16  and  C9_17 
ROOT
HETATM    1  C5  UNL     1       0.823  52.971 -19.508  1.00  0.00     0.111 A 
HETATM    2  C6  UNL     1       1.322  54.060 -20.210  1.00  0.00     0.080 A 
HETATM    3  C7  UNL     1       1.229  53.964 -21.598  1.00  0.00     0.067 A 
HETATM    4  N3  UNL     1       1.601  54.813 -22.601  1.00  0.00    -0.298 N 
HETATM    5  N4  UNL     1       1.360  54.344 -23.834  1.00  0.00    -0.284 N 
ATOM      6  H4  UNL     1       1.579  54.790 -24.725  1.00  0.00     0.188 HD
HETATM    7  C8  UNL     1       0.769  53.161 -23.633  1.00  0.00     0.134 A 
HETATM    8  N5  UNL     1       0.343  52.302 -24.595  1.00  0.00    -0.339 N 
HETATM    9  C15 UNL     1       0.674  52.866 -22.241  1.00  0.00     0.053 A 
HETATM   10  C16 UNL     1       0.181  51.825 -21.455  1.00  0.00     0.107 A 
HETATM   11  N6  UNL     1       0.266  51.888 -20.100  1.00  0.00    -0.351 N 
ATOM     12  H6  UNL     1      -0.089  51.120 -19.530  1.00  0.00     0.166 HD
HETATM   13  H10 UNL     1       2.039  55.723 -22.513  1.00  0.00     0.187 HD
HETATM   14  H11 UNL     1       0.300  51.317 -24.365  1.00  0.00     0.167 HD
ENDROOT
BRANCH   1  15
HETATM   15  N2  UNL     1       0.829  52.884 -18.115  1.00  0.00    -0.295 N 
HETATM   16  C4  UNL     1       0.502  51.813 -17.328  1.00  0.00     0.322 C 
HETATM   17  N1  UNL     1       0.673  52.115 -15.993  1.00  0.00    -0.332 N 
HETATM   18  O2  UNL     1       0.094  50.726 -17.712  1.00  0.00    -0.247 OA
HETATM   19  H7  UNL     1       1.441  52.746 -15.815  1.00  0.00     0.165 HD
HETATM   20  H8  UNL     1       0.997  53.773 -17.673  1.00  0.00     0.172 HD
BRANCH  17  21
HETATM   21  C3  UNL     1       0.483  51.088 -14.966  1.00  0.00     0.143 C 
BRANCH  21  22
HETATM   22  C2  UNL     1      -0.401  51.563 -13.786  1.00  0.00     0.197 C 
BRANCH  22  23
HETATM   23  O1  UNL     1       0.008  52.870 -13.360  1.00  0.00    -0.394 OA
HETATM   24  C1  UNL     1      -0.075  53.009 -11.948  1.00  0.00     0.201 C 
ENDBRANCH  22  23
ENDBRANCH  21  22
BRANCH  21  25
HETATM   25  C17 UNL     1       1.851  50.623 -14.479  1.00  0.00    -0.033 A 
HETATM   26  C18 UNL     1       1.988  49.508 -13.634  1.00  0.00     0.009 A 
HETATM   27  C19 UNL     1       3.246  49.103 -13.187  1.00  0.00     0.001 A 
HETATM   28  C20 UNL     1       4.384  49.804 -13.579  1.00  0.00     0.000 A 
HETATM   29  C21 UNL     1       4.266  50.910 -14.420  1.00  0.00     0.001 A 
HETATM   30  C22 UNL     1       3.008  51.317 -14.868  1.00  0.00     0.009 A 
ENDBRANCH  21  25
ENDBRANCH  17  21
ENDBRANCH   1  15
BRANCH   8  31
HETATM   31  C9  UNL     1       0.343  52.519 -25.995  1.00  0.00     0.055 A 
HETATM   32  C10 UNL     1      -0.705  53.283 -26.540  1.00  0.00     0.031 A 
HETATM   33  C11 UNL     1      -0.816  53.480 -27.919  1.00  0.00     0.002 A 
HETATM   34  C12 UNL     1       0.118  52.912 -28.781  1.00  0.00     0.002 A 
HETATM   35  C13 UNL     1       1.168  52.155 -28.263  1.00  0.00     0.026 A 
HETATM   36  C14 UNL     1       1.283  51.956 -26.881  1.00  0.00     0.060 A 
HETATM   37 CL1  UNL     1       2.691  51.112 -26.328  1.00  0.00    -0.082 Cl
ENDBRANCH   8  31
TORSDOF 6
ENDMDL
