MODEL 1
REMARK minimizedAffinity -9.69790554
REMARK  6 active torsions:
REMARK  status: ('A' for Active; 'I' for Inactive)
REMARK    1  A    between atoms: C4_4  and  C5_5 
REMARK    2  A    between atoms: C8_11  and  N3_12 
REMARK       I    between atoms: N3_12  and  C9_13 
REMARK       I    between atoms: C9_13  and  N4_15 
REMARK    3  A    between atoms: N4_15  and  C10_16 
REMARK    4  A    between atoms: C10_16  and  C11_17 
REMARK    5  A    between atoms: N5_20  and  C14_21 
REMARK    6  A    between atoms: C14_21  and  C15_22 
ROOT
HETATM    1  C5  UNL     1       0.670  53.655 -23.927  1.00  0.00     0.072 A 
HETATM    2  N1  UNL     1       1.380  54.792 -24.004  1.00  0.00    -0.299 N 
ATOM      3  H1  UNL     1       1.589  55.342 -24.837  1.00  0.00     0.187 HD
HETATM    4  N2  UNL     1       1.756  55.045 -22.740  1.00  0.00    -0.299 N 
HETATM    5  C6  UNL     1       1.307  54.129 -21.833  1.00  0.00     0.065 A 
HETATM    6  C7  UNL     1       1.464  54.037 -20.451  1.00  0.00     0.080 A 
HETATM    7  C8  UNL     1       0.822  52.960 -19.855  1.00  0.00     0.111 A 
HETATM    8  N6  UNL     1       0.101  52.044 -20.541  1.00  0.00    -0.351 N 
ATOM      9  H6  UNL     1      -0.336  51.265 -20.048  1.00  0.00     0.166 HD
HETATM   10  C22 UNL     1      -0.040  52.161 -21.887  1.00  0.00     0.105 A 
HETATM   11  C23 UNL     1       0.577  53.207 -22.573  1.00  0.00     0.036 A 
HETATM   12  H5  UNL     1       2.301  55.878 -22.558  1.00  0.00     0.187 HD
ENDROOT
BRANCH   7  13
HETATM   13  N3  UNL     1       0.875  52.697 -18.485  1.00  0.00    -0.295 N 
HETATM   14  C9  UNL     1       0.336  51.637 -17.807  1.00  0.00     0.321 C 
HETATM   15  O1  UNL     1      -0.247  50.680 -18.296  1.00  0.00    -0.247 OA
HETATM   16  N4  UNL     1       0.540  51.771 -16.445  1.00  0.00    -0.342 N 
HETATM   17  H8  UNL     1       0.513  52.731 -16.131  1.00  0.00     0.164 HD
HETATM   18  H7  UNL     1       1.564  53.260 -18.009  1.00  0.00     0.172 HD
BRANCH  16  19
HETATM   19  C10 UNL     1      -0.024  50.789 -15.534  1.00  0.00     0.130 C 
BRANCH  19  20
HETATM   20  C11 UNL     1       0.418  51.043 -14.101  1.00  0.00     0.033 C 
HETATM   21  C12 UNL     1       1.877  51.453 -13.977  1.00  0.00     0.038 C 
HETATM   22  C13 UNL     1       1.916  52.020 -12.568  1.00  0.00     0.273 C 
HETATM   23  N5  UNL     1       0.640  52.737 -12.424  1.00  0.00     0.093 N 
HETATM   24  C21 UNL     1      -0.302  52.205 -13.425  1.00  0.00     0.279 C 
BRANCH  23  25
HETATM   25  C14 UNL     1       0.096  52.675 -11.064  1.00  0.00     0.311 C 
BRANCH  25  26
HETATM   26  C15 UNL     1      -1.413  52.794 -11.008  1.00  0.00    -0.030 A 
HETATM   27  C16 UNL     1      -2.225  51.688 -11.289  1.00  0.00     0.009 A 
HETATM   28  C17 UNL     1      -3.616  51.788 -11.217  1.00  0.00     0.001 A 
HETATM   29  C18 UNL     1      -4.209  52.996 -10.866  1.00  0.00     0.000 A 
HETATM   30  C19 UNL     1      -3.413  54.108 -10.592  1.00  0.00     0.001 A 
HETATM   31  C20 UNL     1      -2.022  54.008 -10.662  1.00  0.00     0.009 A 
ENDBRANCH  25  26
ENDBRANCH  23  25
ENDBRANCH  19  20
ENDBRANCH  16  19
ENDBRANCH   7  13
BRANCH   1  32
HETATM   32  C4  UNL     1       0.099  53.053 -25.130  1.00  0.00    -0.004 A 
HETATM   33  C3  UNL     1      -0.549  51.817 -25.087  1.00  0.00     0.038 A 
HETATM   34  C2  UNL     1      -1.075  51.288 -26.264  1.00  0.00     0.005 A 
HETATM   35  C1  UNL     1      -1.771  49.961 -26.244  1.00  0.00     0.068 C 
HETATM   36  N7  UNL     1      -0.987  51.926 -27.453  1.00  0.00    -0.369 N 
HETATM   37  C25 UNL     1      -0.348  53.112 -27.475  1.00  0.00     0.089 A 
ATOM     38  H7  UNL     1      -1.389  51.524 -28.300  1.00  0.00     0.165 HD
HETATM   39  C24 UNL     1       0.209  53.706 -26.358  1.00  0.00     0.031 A 
ENDBRANCH   1  32
TORSDOF 6
ENDMDL
