MODEL 1
REMARK minimizedAffinity -8.09417629
REMARK  9 active torsions:
REMARK  status: ('A' for Active; 'I' for Inactive)
REMARK    1  A    between atoms: O1_2  and  C2_3 
REMARK    2  A    between atoms: C2_3  and  C3_4 
REMARK    3  A    between atoms: C3_4  and  O2_5 
REMARK    4  A    between atoms: O2_5  and  C4_6 
REMARK    5  A    between atoms: C7_12  and  N3_13 
REMARK       I    between atoms: N3_13  and  C8_14 
REMARK       I    between atoms: C8_14  and  N4_16 
REMARK    6  A    between atoms: N4_16  and  C9_17 
REMARK    7  A    between atoms: C9_17  and  C10_18 
REMARK    8  A    between atoms: C9_17  and  C16_25 
REMARK    9  A    between atoms: C16_25  and  O4_28 
ROOT
HETATM    1  N3  UNL     1      -2.960  49.080 -26.808  1.00  0.00    -0.295 N 
HETATM    2  C8  UNL     1      -2.683  50.377 -26.471  1.00  0.00     0.322 C 
HETATM    3  O3  UNL     1      -3.471  51.315 -26.477  1.00  0.00    -0.247 OA
HETATM    4  N4  UNL     1      -1.372  50.519 -26.087  1.00  0.00    -0.331 N 
HETATM    5  H10 UNL     1      -2.248  48.384 -26.658  1.00  0.00     0.172 HD
HETATM    6  H11 UNL     1      -0.703  49.853 -26.445  1.00  0.00     0.165 HD
ENDROOT
BRANCH   1   7
HETATM    7  C7  UNL     1      -4.179  48.521 -27.191  1.00  0.00     0.111 A 
HETATM    8  C6  UNL     1      -4.478  48.152 -28.498  1.00  0.00     0.080 A 
HETATM    9  C5  UNL     1      -5.765  47.651 -28.692  1.00  0.00     0.067 A 
HETATM   10  N2  UNL     1      -6.424  47.220 -29.811  1.00  0.00    -0.298 N 
HETATM   11  C20 UNL     1      -6.676  47.511 -27.652  1.00  0.00     0.060 A 
HETATM   12  N1  UNL     1      -7.693  46.824 -29.585  1.00  0.00    -0.279 N 
HETATM   13  H8  UNL     1      -6.066  47.179 -30.759  1.00  0.00     0.187 HD
HETATM   14  C4  UNL     1      -7.829  46.983 -28.266  1.00  0.00     0.171 A 
ATOM     15  H1  UNL     1      -8.381  46.485 -30.258  1.00  0.00     0.189 HD
HETATM   16  C19 UNL     1      -6.290  47.887 -26.368  1.00  0.00     0.108 A 
HETATM   17  N5  UNL     1      -5.043  48.389 -26.155  1.00  0.00    -0.351 N 
ATOM     18  H5  UNL     1      -4.758  48.664 -25.216  1.00  0.00     0.166 HD
BRANCH  14  19
HETATM   19  O2  UNL     1      -8.985  46.685 -27.631  1.00  0.00    -0.332 OA
BRANCH  19  20
HETATM   20  C3  UNL     1     -10.040  47.639 -27.796  1.00  0.00     0.203 C 
BRANCH  20  21
HETATM   21  C2  UNL     1     -10.397  48.310 -26.467  1.00  0.00     0.193 C 
BRANCH  21  22
HETATM   22  O1  UNL     1     -11.819  48.484 -26.397  1.00  0.00    -0.394 OA
HETATM   23  C1  UNL     1     -12.494  47.239 -26.304  1.00  0.00     0.201 C 
ENDBRANCH  21  22
ENDBRANCH  20  21
ENDBRANCH  19  20
ENDBRANCH  14  19
ENDBRANCH   1   7
BRANCH   4  24
HETATM   24  C9  UNL     1      -0.799  51.809 -25.713  1.00  0.00     0.153 C 
BRANCH  24  25
HETATM   25  C10 UNL     1      -0.549  51.786 -24.205  1.00  0.00    -0.032 A 
HETATM   26  C11 UNL     1      -1.041  50.760 -23.382  1.00  0.00     0.011 A 
HETATM   27  C12 UNL     1      -0.814  50.778 -22.004  1.00  0.00     0.024 A 
HETATM   28  C13 UNL     1      -0.105  51.830 -21.433  1.00  0.00     0.034 A 
HETATM   29 CL1  UNL     1       0.165  51.853 -19.733  1.00  0.00    -0.084 Cl
HETATM   30  C14 UNL     1       0.378  52.864 -22.227  1.00  0.00     0.024 A 
HETATM   31  C15 UNL     1       0.156  52.845 -23.606  1.00  0.00     0.011 A 
ENDBRANCH  24  25
BRANCH  24  32
HETATM   32  C16 UNL     1       0.459  52.145 -26.595  1.00  0.00     0.075 C 
HETATM   33  C17 UNL     1       1.696  51.381 -26.103  1.00  0.00     0.048 C 
HETATM   34  C18 UNL     1       0.228  51.807 -28.076  1.00  0.00     0.048 C 
BRANCH  32  35
HETATM   35  O4  UNL     1       0.774  53.547 -26.481  1.00  0.00    -0.388 OA
HETATM   36  H23 UNL     1       1.412  53.767 -27.177  1.00  0.00     0.210 HD
ENDBRANCH  32  35
ENDBRANCH  24  32
ENDBRANCH   4  24
TORSDOF 9
ENDMDL
