MODEL 1
REMARK minimizedAffinity -7.53447294
REMARK CNNscore 0.23691079
REMARK CNNaffinity 6.9835453
REMARK  9 active torsions:
REMARK  status: ('A' for Active; 'I' for Inactive)
REMARK    1  A    between atoms: O1_2  and  C2_3 
REMARK    2  A    between atoms: C2_3  and  C3_4 
REMARK    3  A    between atoms: C3_4  and  O3_6 
REMARK    4  A    between atoms: O3_6  and  C4_7 
REMARK    5  A    between atoms: C4_7  and  C5_8 
REMARK    6  A    between atoms: C5_8  and  N1_9 
REMARK    7  A    between atoms: C5_8  and  C19_31 
REMARK       I    between atoms: N1_9  and  C6_10 
REMARK       I    between atoms: C6_10  and  N2_12 
REMARK    8  A    between atoms: C11_19  and  N4_20 
REMARK    9  A    between atoms: N4_20  and  C12_21 
ROOT
HETATM    1  N1  UNL     1      -4.025  50.531 -20.014  1.00  0.00    -0.332 N 
HETATM    2  C6  UNL     1      -3.029  50.789 -19.108  1.00  0.00     0.319 C 
HETATM    3  O4  UNL     1      -3.050  50.342 -17.966  1.00  0.00    -0.247 OA
HETATM    4  N2  UNL     1      -1.999  51.582 -19.598  1.00  0.00    -0.328 N 
HETATM    5  C7  UNL     1      -0.886  51.840 -18.688  1.00  0.00     0.132 C 
HETATM    6  C8  UNL     1      -0.149  53.132 -19.043  1.00  0.00     0.062 C 
HETATM    7  C9  UNL     1       0.190  53.183 -20.497  1.00  0.00    -0.017 A 
HETATM    8  C10 UNL     1       1.194  53.978 -21.002  1.00  0.00     0.099 A 
HETATM    9  N3  UNL     1       1.499  54.050 -22.311  1.00  0.00    -0.342 N 
ATOM     10  H3  UNL     1       2.258  54.641 -22.649  1.00  0.00     0.167 HD
HETATM   11  C11 UNL     1       0.764  53.312 -23.148  1.00  0.00     0.157 A 
HETATM   12  N5  UNL     1      -0.240  52.519 -22.756  1.00  0.00    -0.334 N 
ATOM     13  H5  UNL     1      -0.772  51.971 -23.431  1.00  0.00     0.168 HD
HETATM   14  C17 UNL     1      -0.526  52.469 -21.436  1.00  0.00     0.037 A 
HETATM   15  C18 UNL     1      -1.666  51.568 -21.028  1.00  0.00     0.185 C 
HETATM   16  H9  UNL     1      -4.253  51.340 -20.576  1.00  0.00     0.165 HD
ENDROOT
BRANCH   1  17
HETATM   17  C5  UNL     1      -5.176  49.715 -19.632  1.00  0.00     0.143 C 
BRANCH  17  18
HETATM   18  C4  UNL     1      -4.767  48.351 -19.023  1.00  0.00     0.209 C 
BRANCH  18  19
HETATM   19  O3  UNL     1      -4.485  47.401 -20.071  1.00  0.00    -0.317 OA
BRANCH  19  20
HETATM   20  C3  UNL     1      -3.309  46.719 -19.977  1.00  0.00     0.282 C 
HETATM   21  O2  UNL     1      -2.892  46.160 -18.971  1.00  0.00    -0.263 OA
BRANCH  20  22
HETATM   22  C2  UNL     1      -2.526  46.795 -21.286  1.00  0.00     0.277 C 
BRANCH  22  23
HETATM   23  O1  UNL     1      -1.851  48.010 -21.574  1.00  0.00    -0.386 OA
HETATM   24  C1  UNL     1      -0.722  48.219 -20.737  1.00  0.00     0.202 C 
ENDBRANCH  22  23
ENDBRANCH  20  22
ENDBRANCH  19  20
ENDBRANCH  18  19
ENDBRANCH  17  18
BRANCH  17  25
HETATM   25  C19 UNL     1      -6.086  49.531 -20.842  1.00  0.00    -0.032 A 
HETATM   26  C20 UNL     1      -5.840  50.253 -22.022  1.00  0.00     0.012 A 
HETATM   27  C21 UNL     1      -6.677  50.106 -23.128  1.00  0.00     0.044 A 
HETATM   28  C22 UNL     1      -7.760  49.234 -23.064  1.00  0.00     0.138 A 
HETATM   29  F1  UNL     1      -8.546  49.109 -24.141  1.00  0.00    -0.204 F 
HETATM   30  C23 UNL     1      -8.019  48.508 -21.906  1.00  0.00     0.073 A 
HETATM   31 CL1  UNL     1      -9.353  47.423 -21.828  1.00  0.00    -0.081 Cl
HETATM   32  C24 UNL     1      -7.187  48.654 -20.797  1.00  0.00     0.036 A 
ENDBRANCH  17  25
ENDBRANCH   1  17
BRANCH  11  33
HETATM   33  N4  UNL     1       1.116  53.402 -24.481  1.00  0.00    -0.259 NA
HETATM   34  H15 UNL     1       2.133  53.372 -24.498  1.00  0.00     0.131 HD
BRANCH  33  35
HETATM   35  C12 UNL     1       0.452  52.566 -25.481  1.00  0.00     0.067 C 
HETATM   36  C13 UNL     1       1.445  51.744 -26.317  1.00  0.00     0.046 C 
HETATM   37  C14 UNL     1       0.945  51.565 -27.745  1.00  0.00     0.169 C 
HETATM   38  O5  UNL     1      -0.452  51.283 -27.731  1.00  0.00    -0.391 OA
HETATM   39  C15 UNL     1      -1.250  52.398 -27.323  1.00  0.00     0.169 C 
HETATM   40  C16 UNL     1      -0.551  53.337 -26.341  1.00  0.00     0.046 C 
ENDBRANCH  33  35
ENDBRANCH  11  33
TORSDOF 9
ENDMDL
