MODEL 1
REMARK minimizedAffinity -10.1607962
REMARK  7 active torsions:
REMARK  status: ('A' for Active; 'I' for Inactive)
REMARK    1  A    between atoms: C5_7  and  O1_8 
REMARK    2  A    between atoms: O1_8  and  C6_9 
REMARK    3  A    between atoms: C6_9  and  C7_10 
REMARK    4  A    between atoms: C7_10  and  N2_11 
REMARK    5  A    between atoms: C7_10  and  C8_12 
REMARK    6  A    between atoms: C8_12  and  C9_13 
REMARK    7  A    between atoms: C18_23  and  C19_24 
ROOT
HETATM    1  C1  UNL     1       1.412  53.828 -20.217  1.00  0.00     0.019 C 
HETATM    2  C2  UNL     1       1.049  53.493 -21.312  1.00  0.00    -0.059 C 
HETATM    3  C3  UNL     1       0.616  53.098 -22.620  1.00  0.00     0.097 A 
HETATM    4  N1  UNL     1       0.970  53.981 -23.585  1.00  0.00    -0.356 N 
ATOM      5  H1  UNL     1       1.502  54.824 -23.369  1.00  0.00     0.166 HD
HETATM    6  C4  UNL     1       0.584  53.691 -24.850  1.00  0.00     0.125 A 
HETATM    7  C5  UNL     1      -0.141  52.563 -25.205  1.00  0.00     0.085 A 
HETATM    8  C17 UNL     1      -0.490  51.680 -24.183  1.00  0.00     0.053 A 
HETATM    9  C18 UNL     1      -0.113  51.926 -22.852  1.00  0.00     0.012 A 
ENDROOT
BRANCH   9  10
HETATM   10  C19 UNL     1      -0.485  50.975 -21.796  1.00  0.00    -0.022 A 
HETATM   11  C20 UNL     1      -1.198  49.807 -22.104  1.00  0.00     0.013 A 
HETATM   12  C21 UNL     1      -1.550  48.899 -21.103  1.00  0.00     0.014 A 
HETATM   13  C22 UNL     1      -1.191  49.139 -19.767  1.00  0.00    -0.011 A 
HETATM   14  C23 UNL     1      -1.515  48.268 -18.723  1.00  0.00     0.099 A 
HETATM   15  C26 UNL     1      -0.470  50.302 -19.437  1.00  0.00    -0.022 A 
HETATM   16  N4  UNL     1      -1.184  48.466 -17.425  1.00  0.00    -0.374 N 
HETATM   17  C24 UNL     1      -0.494  49.591 -17.146  1.00  0.00     0.088 A 
ATOM     18  H4  UNL     1      -1.443  47.801 -16.697  1.00  0.00     0.164 HD
HETATM   19  C25 UNL     1      -0.119  50.524 -18.101  1.00  0.00     0.029 A 
HETATM   20  C27 UNL     1      -0.124  51.207 -20.457  1.00  0.00     0.024 A 
ENDBRANCH   9  10
BRANCH   7  21
HETATM   21  O1  UNL     1      -0.565  52.205 -26.450  1.00  0.00    -0.348 OA
BRANCH  21  22
HETATM   22  C6  UNL     1      -0.791  50.819 -26.727  1.00  0.00     0.211 C 
BRANCH  22  23
HETATM   23  C7  UNL     1      -2.294  50.487 -26.902  1.00  0.00     0.246 C 
BRANCH  23  24
HETATM   24  N2  UNL     1      -2.797  50.997 -28.195  1.00  0.00     0.085 N 
HETATM   25  H6  UNL     1      -2.371  50.482 -28.962  1.00  0.00     0.313 HD
HETATM   26  H7  UNL     1      -3.798  50.797 -28.251  1.00  0.00     0.313 HD
ENDBRANCH  23  24
BRANCH  23  27
HETATM   27  C8  UNL     1      -2.501  48.962 -26.765  1.00  0.00     0.078 C 
BRANCH  27  28
HETATM   28  C9  UNL     1      -3.931  48.563 -26.553  1.00  0.00    -0.028 A 
HETATM   29  C10 UNL     1      -4.855  48.274 -27.538  1.00  0.00     0.096 A 
HETATM   30  N3  UNL     1      -6.041  47.952 -26.935  1.00  0.00    -0.365 N 
HETATM   31  C11 UNL     1      -5.915  48.023 -25.568  1.00  0.00     0.042 A 
HETATM   32  H11 UNL     1      -6.891  47.696 -27.418  1.00  0.00     0.165 HD
HETATM   33  C12 UNL     1      -6.858  47.779 -24.563  1.00  0.00     0.030 A 
HETATM   34  C16 UNL     1      -4.600  48.400 -25.295  1.00  0.00    -0.002 A 
HETATM   35  C13 UNL     1      -6.445  47.928 -23.236  1.00  0.00     0.002 A 
HETATM   36  C14 UNL     1      -5.139  48.303 -22.930  1.00  0.00     0.001 A 
HETATM   37  C15 UNL     1      -4.208  48.541 -23.948  1.00  0.00     0.014 A 
ENDBRANCH  27  28
ENDBRANCH  23  27
ENDBRANCH  22  23
ENDBRANCH  21  22
ENDBRANCH   7  21
TORSDOF 7
ENDMDL
