MODEL 1
REMARK minimizedAffinity -10.4436703
REMARK  5 active torsions:
REMARK  status: ('A' for Active; 'I' for Inactive)
REMARK    1  A    between atoms: C4_4  and  C5_5 
REMARK    2  A    between atoms: C8_11  and  N3_12 
REMARK       I    between atoms: N3_12  and  C9_13 
REMARK       I    between atoms: C9_13  and  N4_15 
REMARK    3  A    between atoms: N4_15  and  C10_16 
REMARK    4  A    between atoms: C14_20  and  O2_21 
REMARK    5  A    between atoms: O2_21  and  C15_22 
ROOT
HETATM    1  C5  UNL     1       0.680  53.181 -23.722  1.00  0.00     0.072 A 
HETATM    2  N1  UNL     1       1.273  54.362 -23.963  1.00  0.00    -0.299 N 
ATOM      3  H1  UNL     1       1.455  54.795 -24.869  1.00  0.00     0.187 HD
HETATM    4  N2  UNL     1       1.571  54.844 -22.748  1.00  0.00    -0.299 N 
HETATM    5  C6  UNL     1       1.224  54.018 -21.718  1.00  0.00     0.065 A 
HETATM    6  C7  UNL     1       1.372  54.141 -20.337  1.00  0.00     0.080 A 
HETATM    7  C8  UNL     1       0.905  53.066 -19.594  1.00  0.00     0.111 A 
HETATM    8  N5  UNL     1       0.336  51.966 -20.142  1.00  0.00    -0.351 N 
ATOM      9  H5  UNL     1       0.002  51.211 -19.543  1.00  0.00     0.166 HD
HETATM   10  C22 UNL     1       0.211  51.869 -21.492  1.00  0.00     0.105 A 
HETATM   11  C23 UNL     1       0.643  52.908 -22.319  1.00  0.00     0.036 A 
HETATM   12  H5  UNL     1       2.023  55.751 -22.687  1.00  0.00     0.187 HD
ENDROOT
BRANCH   7  13
HETATM   13  N3  UNL     1       0.958  53.013 -18.200  1.00  0.00    -0.295 N 
HETATM   14  C9  UNL     1       0.729  51.939 -17.384  1.00  0.00     0.322 C 
HETATM   15  O1  UNL     1       0.375  50.820 -17.736  1.00  0.00    -0.247 OA
HETATM   16  N4  UNL     1       0.940  52.269 -16.059  1.00  0.00    -0.338 N 
HETATM   17  H8  UNL     1       1.611  53.007 -15.906  1.00  0.00     0.164 HD
HETATM   18  H7  UNL     1       1.027  53.927 -17.781  1.00  0.00     0.172 HD
BRANCH  16  19
HETATM   19  C10 UNL     1       0.822  51.262 -15.010  1.00  0.00     0.088 C 
HETATM   20  C11 UNL     1       0.079  50.033 -15.536  1.00  0.00     0.025 C 
HETATM   21  C12 UNL     1       0.026  48.913 -14.495  1.00  0.00     0.004 C 
HETATM   22  C13 UNL     1       0.008  49.422 -13.054  1.00  0.00     0.032 C 
HETATM   23  C14 UNL     1      -0.655  50.796 -12.951  1.00  0.00     0.131 C 
HETATM   24  C21 UNL     1       0.149  51.837 -13.750  1.00  0.00     0.057 C 
BRANCH  23  25
HETATM   25  O2  UNL     1      -0.687  51.242 -11.592  1.00  0.00    -0.346 OA
BRANCH  25  26
HETATM   26  C15 UNL     1      -1.553  52.235 -11.231  1.00  0.00     0.072 A 
HETATM   27  C16 UNL     1      -2.906  51.882 -11.319  1.00  0.00     0.037 A 
HETATM   28  C17 UNL     1      -3.912  52.795 -10.988  1.00  0.00     0.006 A 
HETATM   29  C18 UNL     1      -3.568  54.075 -10.566  1.00  0.00     0.042 A 
HETATM   30  C19 UNL     1      -2.224  54.423 -10.482  1.00  0.00     0.119 A 
HETATM   31  F1  UNL     1      -1.892  55.658 -10.082  1.00  0.00    -0.206 F 
HETATM   32  C20 UNL     1      -1.215  53.520 -10.811  1.00  0.00     0.079 A 
ENDBRANCH  25  26
ENDBRANCH  23  25
ENDBRANCH  16  19
ENDBRANCH   7  13
BRANCH   1  33
HETATM   33  C4  UNL     1       0.190  52.356 -24.826  1.00  0.00    -0.004 A 
HETATM   34  C3  UNL     1       0.800  52.439 -26.082  1.00  0.00     0.038 A 
HETATM   35  C2  UNL     1       0.321  51.649 -27.122  1.00  0.00     0.005 A 
HETATM   36  C1  UNL     1       0.962  51.719 -28.476  1.00  0.00     0.068 C 
HETATM   37  N6  UNL     1      -0.714  50.792 -26.967  1.00  0.00    -0.369 N 
HETATM   38  C25 UNL     1      -1.302  50.741 -25.753  1.00  0.00     0.089 A 
ATOM     39  H6  UNL     1      -1.037  50.206 -27.737  1.00  0.00     0.165 HD
HETATM   40  C24 UNL     1      -0.894  51.495 -24.665  1.00  0.00     0.031 A 
ENDBRANCH   1  33
TORSDOF 5
ENDMDL
