MODEL 1
REMARK minimizedAffinity -8.9603796
REMARK  4 active torsions:
REMARK  status: ('A' for Active; 'I' for Inactive)
REMARK    1  A    between atoms: C2_2  and  N1_3 
REMARK    2  A    between atoms: C2_2  and  C14_25 
REMARK       I    between atoms: N1_3  and  C3_4 
REMARK       I    between atoms: C3_4  and  N2_6 
REMARK    3  A    between atoms: N2_6  and  C4_7 
REMARK    4  A    between atoms: N5_14  and  C8_15 
ROOT
HETATM    1  C4  UNL     1      -3.254  48.744 -24.970  1.00  0.00     0.111 A 
HETATM    2  C5  UNL     1      -4.612  48.568 -24.733  1.00  0.00     0.080 A 
HETATM    3  C6  UNL     1      -5.378  48.281 -25.863  1.00  0.00     0.067 A 
HETATM    4  N3  UNL     1      -6.715  48.056 -26.030  1.00  0.00    -0.298 N 
HETATM    5  N4  UNL     1      -7.076  47.798 -27.298  1.00  0.00    -0.284 N 
ATOM      6  H4  UNL     1      -8.008  47.591 -27.655  1.00  0.00     0.188 HD
HETATM    7  C7  UNL     1      -5.933  47.875 -27.984  1.00  0.00     0.130 A 
HETATM    8  N5  UNL     1      -5.811  47.693 -29.315  1.00  0.00    -0.369 N 
HETATM    9  C12 UNL     1      -4.831  48.173 -27.134  1.00  0.00     0.052 A 
HETATM   10  C13 UNL     1      -3.457  48.362 -27.280  1.00  0.00     0.107 A 
HETATM   11  N6  UNL     1      -2.687  48.642 -26.195  1.00  0.00    -0.351 N 
ATOM     12  H6  UNL     1      -1.681  48.776 -26.303  1.00  0.00     0.166 HD
HETATM   13  H8  UNL     1      -7.435  48.062 -25.318  1.00  0.00     0.187 HD
HETATM   14  H9  UNL     1      -4.885  47.614 -29.745  1.00  0.00     0.161 HD
ENDROOT
BRANCH   1  15
HETATM   15  N2  UNL     1      -2.329  49.031 -23.967  1.00  0.00    -0.295 N 
HETATM   16  C3  UNL     1      -2.446  49.910 -22.923  1.00  0.00     0.322 C 
HETATM   17  N1  UNL     1      -1.320  49.881 -22.127  1.00  0.00    -0.335 N 
HETATM   18  O1  UNL     1      -3.398  50.645 -22.696  1.00  0.00    -0.247 OA
HETATM   19  H5  UNL     1      -0.860  48.984 -22.083  1.00  0.00     0.165 HD
HETATM   20  H6  UNL     1      -1.435  48.598 -24.134  1.00  0.00     0.172 HD
BRANCH  17  21
HETATM   21  C2  UNL     1      -1.242  50.684 -20.915  1.00  0.00     0.115 C 
HETATM   22  C1  UNL     1      -2.629  51.112 -20.425  1.00  0.00     0.037 C 
BRANCH  21  23
HETATM   23  C14 UNL     1      -0.348  51.888 -21.159  1.00  0.00    -0.036 A 
HETATM   24  C15 UNL     1       0.120  52.204 -22.446  1.00  0.00     0.009 A 
HETATM   25  C16 UNL     1       0.954  53.305 -22.651  1.00  0.00     0.001 A 
HETATM   26  C17 UNL     1       1.335  54.102 -21.573  1.00  0.00     0.000 A 
HETATM   27  C18 UNL     1       0.883  53.798 -20.291  1.00  0.00     0.001 A 
HETATM   28  C19 UNL     1       0.049  52.697 -20.084  1.00  0.00     0.009 A 
ENDBRANCH  21  23
ENDBRANCH  17  21
ENDBRANCH   1  15
BRANCH   8  29
HETATM   29  C8  UNL     1      -6.919  47.206 -30.128  1.00  0.00     0.095 C 
HETATM   30  C9  UNL     1      -6.701  45.764 -30.577  1.00  0.00     0.038 C 
HETATM   31  C10 UNL     1      -5.590  45.775 -31.611  1.00  0.00     0.111 C 
HETATM   32  S1  UNL     1      -5.650  47.382 -32.497  1.00  0.00     0.017 S 
HETATM   33  O2  UNL     1      -4.291  48.221 -32.028  1.00  0.00    -0.258 OA
HETATM   34  C11 UNL     1      -7.015  47.991 -31.432  1.00  0.00     0.133 C 
ENDBRANCH   8  29
TORSDOF 4
ENDMDL
