MODEL 1
REMARK minimizedAffinity -10.7566137
REMARK  6 active torsions:
REMARK  status: ('A' for Active; 'I' for Inactive)
REMARK    1  A    between atoms: O1_2  and  C2_3 
REMARK    2  A    between atoms: C7_9  and  C8_10 
REMARK    3  A    between atoms: C8_10  and  N1_11 
REMARK    4  A    between atoms: C12_15  and  N2_16 
REMARK       I    between atoms: N2_16  and  C13_17 
REMARK       I    between atoms: C13_17  and  N3_19 
REMARK    5  A    between atoms: N3_19  and  C14_20 
REMARK    6  A    between atoms: C17_26  and  C18_27 
ROOT
HETATM    1  C18 UNL     1      -0.700  52.392 -25.085  1.00  0.00    -0.007 A 
HETATM    2  C19 UNL     1      -0.119  51.462 -25.960  1.00  0.00     0.015 A 
HETATM    3  C20 UNL     1      -0.916  50.737 -26.854  1.00  0.00     0.023 A 
HETATM    4  C21 UNL     1      -2.300  50.937 -26.887  1.00  0.00     0.044 A 
HETATM    5  C22 UNL     1      -3.114  50.194 -27.804  1.00  0.00     0.099 C 
HETATM    6  N6  UNL     1      -3.770  49.589 -28.545  1.00  0.00    -0.191 NA
HETATM    7  C23 UNL     1      -2.884  51.870 -26.025  1.00  0.00     0.023 A 
HETATM    8  C24 UNL     1      -2.087  52.595 -25.133  1.00  0.00     0.015 A 
ENDROOT
BRANCH   1   9
HETATM    9  C17 UNL     1       0.120  53.159 -24.147  1.00  0.00     0.072 A 
HETATM   10  N5  UNL     1       0.880  54.179 -24.581  1.00  0.00    -0.299 N 
HETATM   11  N4  UNL     1       1.502  54.626 -23.479  1.00  0.00    -0.299 N 
ATOM     12  H5  UNL     1       0.965  54.534 -25.533  1.00  0.00     0.187 HD
HETATM   13  C16 UNL     1       1.157  53.963 -22.336  1.00  0.00     0.065 A 
HETATM   14  H19 UNL     1       2.153  55.399 -23.572  1.00  0.00     0.187 HD
HETATM   15  C15 UNL     1       1.557  54.127 -21.010  1.00  0.00     0.080 A 
HETATM   16  C25 UNL     1       0.243  52.997 -22.733  1.00  0.00     0.036 A 
HETATM   17  C14 UNL     1       0.973  53.251 -20.103  1.00  0.00     0.111 A 
HETATM   18  N7  UNL     1       0.065  52.310 -20.451  1.00  0.00    -0.351 N 
HETATM   19  C26 UNL     1      -0.309  52.173 -21.751  1.00  0.00     0.105 A 
ATOM     20  H7  UNL     1      -0.338  51.702 -19.738  1.00  0.00     0.166 HD
BRANCH  17  21
HETATM   21  N3  UNL     1       1.246  53.266 -18.735  1.00  0.00    -0.295 N 
HETATM   22  C13 UNL     1       0.994  52.290 -17.810  1.00  0.00     0.322 C 
HETATM   23  N2  UNL     1       1.460  52.659 -16.563  1.00  0.00    -0.337 N 
HETATM   24  O2  UNL     1       0.425  51.226 -18.011  1.00  0.00    -0.247 OA
HETATM   25  H16 UNL     1       2.265  53.269 -16.571  1.00  0.00     0.164 HD
HETATM   26  H17 UNL     1       1.541  54.171 -18.408  1.00  0.00     0.172 HD
BRANCH  23  27
HETATM   27  C12 UNL     1       1.383  51.726 -15.442  1.00  0.00     0.114 C 
HETATM   28  C11 UNL     1       0.576  50.491 -15.833  1.00  0.00     0.029 C 
HETATM   29  C10 UNL     1       0.505  49.489 -14.678  1.00  0.00     0.032 C 
HETATM   30  C9  UNL     1       0.685  50.134 -13.298  1.00  0.00     0.273 C 
HETATM   31  N1  UNL     1       0.065  51.458 -13.279  1.00  0.00     0.094 N 
HETATM   32  C27 UNL     1       0.784  52.392 -14.170  1.00  0.00     0.297 C 
BRANCH  31  33
HETATM   33  C8  UNL     1      -0.041  51.982 -11.904  1.00  0.00     0.317 C 
BRANCH  33  34
HETATM   34  C7  UNL     1      -1.382  52.613 -11.601  1.00  0.00     0.042 A 
HETATM   35  C2  UNL     1      -2.559  52.223 -12.268  1.00  0.00     0.079 A 
HETATM   36  C3  UNL     1      -3.773  52.850 -11.956  1.00  0.00     0.037 A 
HETATM   37  C4  UNL     1      -3.826  53.863 -10.995  1.00  0.00     0.006 A 
HETATM   38  C5  UNL     1      -2.667  54.252 -10.334  1.00  0.00     0.043 A 
HETATM   39  C6  UNL     1      -1.463  53.627 -10.638  1.00  0.00     0.127 A 
HETATM   40  F1  UNL     1      -0.360  54.020  -9.983  1.00  0.00    -0.205 F 
BRANCH  35  41
HETATM   41  O1  UNL     1      -2.429  51.206 -13.177  1.00  0.00    -0.355 OA
HETATM   42  C1  UNL     1      -3.148  51.323 -14.397  1.00  0.00     0.210 C 
ENDBRANCH  35  41
ENDBRANCH  33  34
ENDBRANCH  31  33
ENDBRANCH  23  27
ENDBRANCH  17  21
ENDBRANCH   1   9
TORSDOF 6
ENDMDL
