MODEL 1
REMARK minimizedAffinity -10.1781578
REMARK  5 active torsions:
REMARK  status: ('A' for Active; 'I' for Inactive)
REMARK    1  A    between atoms: C2_2  and  N1_3 
REMARK    2  A    between atoms: C2_2  and  C20_31 
REMARK       I    between atoms: N1_3  and  C3_4 
REMARK       I    between atoms: C3_4  and  N2_6 
REMARK    3  A    between atoms: N2_6  and  C4_7 
REMARK    4  A    between atoms: C7_13  and  C8_14 
REMARK    5  A    between atoms: C11_17  and  N5_18 
ROOT
HETATM    1  C4  UNL     1       0.821  52.173 -16.579  1.00  0.00     0.111 A 
HETATM    2  C5  UNL     1       0.164  50.951 -16.720  1.00  0.00     0.080 A 
HETATM    3  C6  UNL     1      -0.191  50.608 -18.024  1.00  0.00     0.065 A 
HETATM    4  N3  UNL     1      -0.852  49.532 -18.542  1.00  0.00    -0.299 N 
HETATM    5  N4  UNL     1      -1.020  49.575 -19.873  1.00  0.00    -0.299 N 
ATOM      6  H4  UNL     1      -1.497  48.896 -20.465  1.00  0.00     0.187 HD
HETATM    7  C7  UNL     1      -0.416  50.716 -20.248  1.00  0.00     0.073 A 
HETATM    8  C18 UNL     1       0.107  51.411 -19.117  1.00  0.00     0.036 A 
HETATM    9  C19 UNL     1       0.774  52.614 -18.887  1.00  0.00     0.105 A 
HETATM   10  N7  UNL     1       1.128  52.965 -17.624  1.00  0.00    -0.351 N 
ATOM     11  H7  UNL     1       1.633  53.837 -17.466  1.00  0.00     0.166 HD
HETATM   12  H8  UNL     1      -1.223  48.732 -18.044  1.00  0.00     0.187 HD
ENDROOT
BRANCH   1  13
HETATM   13  N2  UNL     1       1.191  52.548 -15.279  1.00  0.00    -0.295 N 
HETATM   14  C3  UNL     1       0.740  51.957 -14.125  1.00  0.00     0.322 C 
HETATM   15  N1  UNL     1       1.213  52.636 -13.018  1.00  0.00    -0.335 N 
HETATM   16  O1  UNL     1       0.055  50.950 -14.020  1.00  0.00    -0.247 OA
HETATM   17  H5  UNL     1       1.372  53.623 -13.137  1.00  0.00     0.165 HD
HETATM   18  H6  UNL     1       2.005  53.130 -15.179  1.00  0.00     0.172 HD
BRANCH  15  19
HETATM   19  C2  UNL     1       0.879  52.200 -11.671  1.00  0.00     0.115 C 
HETATM   20  C1  UNL     1       0.922  50.671 -11.553  1.00  0.00     0.037 C 
BRANCH  19  21
HETATM   21  C20 UNL     1      -0.452  52.821 -11.273  1.00  0.00    -0.036 A 
HETATM   22  C21 UNL     1      -1.603  52.010 -11.276  1.00  0.00     0.012 A 
HETATM   23  C22 UNL     1      -2.846  52.529 -10.910  1.00  0.00     0.043 A 
HETATM   24  C23 UNL     1      -2.946  53.860 -10.528  1.00  0.00     0.116 A 
HETATM   25  F1  UNL     1      -4.140  54.361 -10.186  1.00  0.00    -0.206 F 
HETATM   26  C24 UNL     1      -1.824  54.677 -10.498  1.00  0.00     0.043 A 
HETATM   27  C25 UNL     1      -0.578  54.160 -10.863  1.00  0.00     0.012 A 
ENDBRANCH  19  21
ENDBRANCH  15  19
ENDBRANCH   1  13
BRANCH   7  28
HETATM   28  C8  UNL     1      -0.365  51.107 -21.650  1.00  0.00     0.009 A 
HETATM   29  C9  UNL     1       0.495  52.100 -22.094  1.00  0.00     0.019 A 
HETATM   30  C10 UNL     1       0.529  52.429 -23.453  1.00  0.00     0.049 A 
HETATM   31  C11 UNL     1      -0.308  51.780 -24.361  1.00  0.00     0.102 A 
HETATM   32  N6  UNL     1      -1.149  50.815 -23.928  1.00  0.00    -0.352 N 
HETATM   33  C17 UNL     1      -1.168  50.506 -22.607  1.00  0.00     0.103 A 
ATOM     34  H6  UNL     1      -1.759  50.326 -24.583  1.00  0.00     0.166 HD
BRANCH  31  35
HETATM   35  N5  UNL     1      -0.271  52.076 -25.719  1.00  0.00    -0.367 N 
HETATM   36  C12 UNL     1      -0.016  53.471 -26.081  1.00  0.00     0.124 C 
HETATM   37  C13 UNL     1      -0.450  53.707 -27.525  1.00  0.00     0.020 C 
HETATM   38  C14 UNL     1       0.278  52.792 -28.509  1.00  0.00     0.003 C 
HETATM   39  C15 UNL     1       0.907  51.577 -27.836  1.00  0.00     0.020 C 
HETATM   40  C16 UNL     1       0.054  51.031 -26.692  1.00  0.00     0.124 C 
ENDBRANCH  31  35
ENDBRANCH   7  28
TORSDOF 5
ENDMDL
