MODEL 1
REMARK minimizedAffinity -8.43912888
REMARK  7 active torsions:
REMARK  status: ('A' for Active; 'I' for Inactive)
REMARK    1  A    between atoms: O1_2  and  C2_3 
REMARK    2  A    between atoms: C2_3  and  C3_4 
REMARK    3  A    between atoms: C3_4  and  N1_5 
REMARK    4  A    between atoms: C3_4  and  C16_26 
REMARK       I    between atoms: N1_5  and  C4_6 
REMARK       I    between atoms: C4_6  and  N2_8 
REMARK    5  A    between atoms: N2_8  and  C5_9 
REMARK    6  A    between atoms: N5_16  and  C9_17 
REMARK    7  A    between atoms: C9_17  and  C10_18 
ROOT
HETATM    1  C5  UNL     1       0.986  53.169 -19.608  1.00  0.00     0.111 A 
HETATM    2  C6  UNL     1       1.439  54.137 -20.497  1.00  0.00     0.080 A 
HETATM    3  C7  UNL     1       1.177  53.876 -21.841  1.00  0.00     0.067 A 
HETATM    4  N3  UNL     1       1.457  54.573 -22.981  1.00  0.00    -0.298 N 
HETATM    5  N4  UNL     1       1.033  53.980 -24.107  1.00  0.00    -0.284 N 
ATOM      6  H4  UNL     1       1.129  54.315 -25.066  1.00  0.00     0.188 HD
HETATM    7  C8  UNL     1       0.456  52.852 -23.689  1.00  0.00     0.129 A 
HETATM    8  N5  UNL     1      -0.119  51.924 -24.488  1.00  0.00    -0.374 N 
HETATM    9  C14 UNL     1       0.518  52.732 -22.271  1.00  0.00     0.052 A 
HETATM   10  C15 UNL     1       0.109  51.808 -21.310  1.00  0.00     0.107 A 
HETATM   11  N6  UNL     1       0.346  52.039 -19.990  1.00  0.00    -0.351 N 
ATOM     12  H6  UNL     1       0.041  51.363 -19.291  1.00  0.00     0.166 HD
HETATM   13  H10 UNL     1       1.938  55.462 -23.060  1.00  0.00     0.187 HD
HETATM   14  H11 UNL     1      -0.767  51.259 -24.081  1.00  0.00     0.161 HD
ENDROOT
BRANCH   1  15
HETATM   15  N2  UNL     1       1.160  53.252 -18.226  1.00  0.00    -0.295 N 
HETATM   16  C4  UNL     1       0.908  52.301 -17.277  1.00  0.00     0.322 C 
HETATM   17  N1  UNL     1       1.173  52.782 -16.011  1.00  0.00    -0.332 N 
HETATM   18  O2  UNL     1       0.510  51.160 -17.475  1.00  0.00    -0.247 OA
HETATM   19  H7  UNL     1       0.979  53.766 -15.895  1.00  0.00     0.165 HD
HETATM   20  H8  UNL     1       1.637  54.096 -17.948  1.00  0.00     0.172 HD
BRANCH  17  21
HETATM   21  C3  UNL     1       0.878  51.955 -14.840  1.00  0.00     0.143 C 
BRANCH  21  22
HETATM   22  C2  UNL     1      -0.402  51.096 -15.019  1.00  0.00     0.197 C 
BRANCH  22  23
HETATM   23  O1  UNL     1      -1.196  51.044 -13.824  1.00  0.00    -0.394 OA
HETATM   24  C1  UNL     1      -1.106  52.242 -13.059  1.00  0.00     0.201 C 
ENDBRANCH  22  23
ENDBRANCH  21  22
BRANCH  21  25
HETATM   25  C16 UNL     1       2.090  51.090 -14.514  1.00  0.00    -0.033 A 
HETATM   26  C17 UNL     1       1.914  49.830 -13.921  1.00  0.00     0.009 A 
HETATM   27  C18 UNL     1       3.017  49.032 -13.610  1.00  0.00     0.001 A 
HETATM   28  C19 UNL     1       4.306  49.482 -13.886  1.00  0.00     0.000 A 
HETATM   29  C20 UNL     1       4.496  50.728 -14.477  1.00  0.00     0.001 A 
HETATM   30  C21 UNL     1       3.396  51.528 -14.789  1.00  0.00     0.009 A 
ENDBRANCH  21  25
ENDBRANCH  17  21
ENDBRANCH   1  15
BRANCH   8  31
HETATM   31  C9  UNL     1      -0.371  52.231 -25.889  1.00  0.00     0.126 C 
BRANCH  31  32
HETATM   32  C10 UNL     1       0.586  51.453 -26.782  1.00  0.00     0.003 C 
HETATM   33  C11 UNL     1       0.939  52.113 -28.141  1.00  0.00     0.006 C 
HETATM   34  C12 UNL     1       2.361  51.540 -27.967  1.00  0.00     0.001 C 
HETATM   35  C13 UNL     1       2.099  51.547 -26.447  1.00  0.00     0.006 C 
ENDBRANCH  31  32
ENDBRANCH   8  31
TORSDOF 7
ENDMDL
