MODEL 1
REMARK minimizedAffinity -9.44932652
REMARK  5 active torsions:
REMARK  status: ('A' for Active; 'I' for Inactive)
REMARK    1  A    between atoms: C2_2  and  N1_3 
REMARK    2  A    between atoms: C2_2  and  C18_28 
REMARK       I    between atoms: N1_3  and  C3_4 
REMARK       I    between atoms: C3_4  and  N2_6 
REMARK    3  A    between atoms: N2_6  and  C4_7 
REMARK    4  A    between atoms: N5_14  and  C8_15 
REMARK    5  A    between atoms: C11_18  and  N6_19 
ROOT
HETATM    1  C4  UNL     1      -2.593  51.420 -26.663  1.00  0.00     0.111 A 
HETATM    2  C5  UNL     1      -1.749  52.412 -27.137  1.00  0.00     0.080 A 
HETATM    3  C6  UNL     1      -0.862  52.941 -26.198  1.00  0.00     0.067 A 
HETATM    4  N3  UNL     1       0.089  53.914 -26.312  1.00  0.00    -0.298 N 
HETATM    5  N4  UNL     1       0.769  54.147 -25.186  1.00  0.00    -0.284 N 
ATOM      6  H4  UNL     1       1.525  54.816 -25.043  1.00  0.00     0.188 HD
HETATM    7  C7  UNL     1       0.239  53.308 -24.290  1.00  0.00     0.130 A 
HETATM    8  N5  UNL     1       0.763  53.323 -23.046  1.00  0.00    -0.370 N 
HETATM    9  C16 UNL     1      -0.800  52.518 -24.873  1.00  0.00     0.052 A 
HETATM   10  C17 UNL     1      -1.688  51.508 -24.496  1.00  0.00     0.107 A 
HETATM   11  N7  UNL     1      -2.571  50.979 -25.387  1.00  0.00    -0.351 N 
ATOM     12  H7  UNL     1      -3.218  50.247 -25.091  1.00  0.00     0.166 HD
HETATM   13  H8  UNL     1       0.326  54.454 -27.136  1.00  0.00     0.187 HD
HETATM   14  H9  UNL     1       1.477  54.043 -22.950  1.00  0.00     0.161 HD
ENDROOT
BRANCH   1  15
HETATM   15  N2  UNL     1      -3.548  50.774 -27.448  1.00  0.00    -0.295 N 
HETATM   16  C3  UNL     1      -3.653  49.441 -27.736  1.00  0.00     0.322 C 
HETATM   17  N1  UNL     1      -4.744  49.188 -28.539  1.00  0.00    -0.335 N 
HETATM   18  O1  UNL     1      -2.897  48.555 -27.356  1.00  0.00    -0.247 OA
HETATM   19  H5  UNL     1      -5.499  49.852 -28.493  1.00  0.00     0.165 HD
HETATM   20  H6  UNL     1      -4.199  51.416 -27.869  1.00  0.00     0.172 HD
BRANCH  17  21
HETATM   21  C2  UNL     1      -5.108  47.825 -28.900  1.00  0.00     0.115 C 
HETATM   22  C1  UNL     1      -5.420  47.705 -30.395  1.00  0.00     0.037 C 
BRANCH  21  23
HETATM   23  C18 UNL     1      -6.249  47.363 -28.008  1.00  0.00    -0.036 A 
HETATM   24  C19 UNL     1      -6.341  47.723 -26.656  1.00  0.00     0.009 A 
HETATM   25  C20 UNL     1      -7.396  47.260 -25.865  1.00  0.00     0.001 A 
HETATM   26  C21 UNL     1      -8.363  46.423 -26.411  1.00  0.00     0.000 A 
HETATM   27  C22 UNL     1      -8.269  46.035 -27.745  1.00  0.00     0.001 A 
HETATM   28  C23 UNL     1      -7.221  46.500 -28.538  1.00  0.00     0.009 A 
ENDBRANCH  21  23
ENDBRANCH  17  21
ENDBRANCH   1  15
BRANCH   8  29
HETATM   29  C8  UNL     1       0.215  52.895 -21.775  1.00  0.00     0.083 C 
HETATM   30  C9  UNL     1       0.660  53.805 -20.631  1.00  0.00     0.027 C 
HETATM   31  C10 UNL     1       0.085  53.358 -19.286  1.00  0.00     0.038 C 
HETATM   32  C11 UNL     1       0.365  51.868 -19.008  1.00  0.00     0.222 C 
HETATM   33  C14 UNL     1      -0.204  51.001 -20.150  1.00  0.00     0.038 C 
HETATM   34  C15 UNL     1       0.386  51.401 -21.505  1.00  0.00     0.027 C 
BRANCH  32  35
HETATM   35  N6  UNL     1      -0.105  51.368 -17.702  1.00  0.00     0.084 N 
HETATM   36  C12 UNL     1       0.731  51.733 -16.561  1.00  0.00     0.309 C 
HETATM   37  C13 UNL     1      -0.330  49.923 -17.715  1.00  0.00     0.309 C 
ENDBRANCH  32  35
ENDBRANCH   8  29
TORSDOF 5
ENDMDL
