MODEL 1
REMARK minimizedAffinity -9.88228607
REMARK  5 active torsions:
REMARK  status: ('A' for Active; 'I' for Inactive)
REMARK    1  A    between atoms: C4_4  and  C5_5 
REMARK    2  A    between atoms: C8_11  and  N3_12 
REMARK       I    between atoms: N3_12  and  C9_13 
REMARK       I    between atoms: C9_13  and  N4_15 
REMARK    3  A    between atoms: N4_15  and  C10_16 
REMARK    4  A    between atoms: C10_16  and  C11_17 
REMARK    5  A    between atoms: C14_20  and  C15_21 
ROOT
HETATM    1  C5  UNL     1       0.249  52.928 -23.924  1.00  0.00     0.072 A 
HETATM    2  N1  UNL     1       1.040  53.629 -24.754  1.00  0.00    -0.299 N 
ATOM      3  H1  UNL     1       1.851  54.198 -24.512  1.00  0.00     0.187 HD
HETATM    4  N2  UNL     1       0.521  53.413 -25.973  1.00  0.00    -0.299 N 
HETATM    5  C6  UNL     1      -0.554  52.572 -25.981  1.00  0.00     0.065 A 
HETATM    6  C7  UNL     1      -1.349  52.088 -27.020  1.00  0.00     0.080 A 
HETATM    7  C8  UNL     1      -2.368  51.226 -26.635  1.00  0.00     0.111 A 
HETATM    8  N7  UNL     1      -2.587  50.854 -25.351  1.00  0.00    -0.351 N 
ATOM      9  H7  UNL     1      -3.349  50.212 -25.130  1.00  0.00     0.166 HD
HETATM   10  C20 UNL     1      -1.794  51.336 -24.358  1.00  0.00     0.105 A 
HETATM   11  C21 UNL     1      -0.758  52.223 -24.652  1.00  0.00     0.036 A 
HETATM   12  H5  UNL     1       0.955  53.868 -26.767  1.00  0.00     0.187 HD
ENDROOT
BRANCH   7  13
HETATM   13  N3  UNL     1      -3.263  50.642 -27.530  1.00  0.00    -0.295 N 
HETATM   14  C9  UNL     1      -3.670  49.336 -27.602  1.00  0.00     0.322 C 
HETATM   15  O1  UNL     1      -3.281  48.418 -26.891  1.00  0.00    -0.247 OA
HETATM   16  N4  UNL     1      -4.587  49.156 -28.614  1.00  0.00    -0.339 N 
HETATM   17  H8  UNL     1      -5.131  49.965 -28.873  1.00  0.00     0.164 HD
HETATM   18  H7  UNL     1      -3.554  51.279 -28.254  1.00  0.00     0.172 HD
BRANCH  16  19
HETATM   19  C10 UNL     1      -5.225  47.875 -28.826  1.00  0.00     0.162 C 
BRANCH  19  20
HETATM   20  C11 UNL     1      -5.796  47.781 -30.218  1.00  0.00    -0.040 A 
HETATM   21  C12 UNL     1      -7.074  48.271 -30.503  1.00  0.00     0.010 A 
HETATM   22  C13 UNL     1      -7.605  48.153 -31.792  1.00  0.00     0.016 A 
HETATM   23  C14 UNL     1      -6.880  47.542 -32.824  1.00  0.00     0.008 A 
HETATM   24  C18 UNL     1      -5.603  47.042 -32.531  1.00  0.00     0.016 A 
HETATM   25  C19 UNL     1      -5.069  47.159 -31.242  1.00  0.00     0.010 A 
BRANCH  23  26
HETATM   26  C15 UNL     1      -7.485  47.443 -34.159  1.00  0.00     0.115 A 
HETATM   27  N5  UNL     1      -8.703  47.000 -34.426  1.00  0.00    -0.350 N 
HETATM   28  C16 UNL     1      -8.859  47.081 -35.785  1.00  0.00     0.106 A 
ATOM     29  H5  UNL     1      -9.391  46.663 -33.753  1.00  0.00     0.166 HD
HETATM   30  C17 UNL     1      -7.726  47.586 -36.370  1.00  0.00     0.106 A 
HETATM   31  N6  UNL     1      -6.865  47.813 -35.333  1.00  0.00    -0.350 N 
HETATM   32  H15 UNL     1      -5.935  48.195 -35.409  1.00  0.00     0.166 HD
ENDBRANCH  23  26
ENDBRANCH  19  20
ENDBRANCH  16  19
ENDBRANCH   7  13
BRANCH   1  33
HETATM   33  C4  UNL     1       0.488  52.941 -22.482  1.00  0.00    -0.004 A 
HETATM   34  C3  UNL     1      -0.034  51.945 -21.652  1.00  0.00     0.038 A 
HETATM   35  C2  UNL     1       0.226  52.000 -20.287  1.00  0.00     0.005 A 
HETATM   36  C1  UNL     1      -0.328  50.949 -19.371  1.00  0.00     0.068 C 
HETATM   37  N8  UNL     1       0.967  52.982 -19.724  1.00  0.00    -0.369 N 
HETATM   38  C23 UNL     1       1.447  53.944 -20.541  1.00  0.00     0.089 A 
ATOM     39  H8  UNL     1       1.157  52.994 -18.722  1.00  0.00     0.165 HD
HETATM   40  C22 UNL     1       1.237  53.969 -21.907  1.00  0.00     0.031 A 
ENDBRANCH   1  33
TORSDOF 5
ENDMDL
