MODEL 1
REMARK minimizedAffinity -9.50537109
REMARK  5 active torsions:
REMARK  status: ('A' for Active; 'I' for Inactive)
REMARK    1  A    between atoms: C4_4  and  C5_5 
REMARK    2  A    between atoms: C8_11  and  N3_12 
REMARK       I    between atoms: N3_12  and  C9_13 
REMARK       I    between atoms: C9_13  and  N4_15 
REMARK    3  A    between atoms: N4_15  and  C10_16 
REMARK    4  A    between atoms: C10_16  and  C11_17 
REMARK    5  A    between atoms: C15_23  and  C16_24 
ROOT
HETATM    1  C5  UNL     1      -0.049  52.028 -23.456  1.00  0.00     0.072 A 
HETATM    2  N1  UNL     1       0.798  52.182 -24.489  1.00  0.00    -0.299 N 
ATOM      3  H1  UNL     1       1.714  52.630 -24.485  1.00  0.00     0.187 HD
HETATM    4  N2  UNL     1       0.165  51.613 -25.528  1.00  0.00    -0.299 N 
HETATM    5  C6  UNL     1      -1.074  51.124 -25.228  1.00  0.00     0.065 A 
HETATM    6  C7  UNL     1      -2.037  50.489 -26.011  1.00  0.00     0.080 A 
HETATM    7  C8  UNL     1      -3.202  50.135 -25.344  1.00  0.00     0.111 A 
HETATM    8  N6  UNL     1      -3.421  50.390 -24.032  1.00  0.00    -0.351 N 
ATOM      9  H6  UNL     1      -4.302  50.113 -23.598  1.00  0.00     0.166 HD
HETATM   10  C17 UNL     1      -2.466  51.014 -23.293  1.00  0.00     0.105 A 
HETATM   11  C18 UNL     1      -1.254  51.386 -23.877  1.00  0.00     0.036 A 
HETATM   12  H5  UNL     1       0.635  51.599 -26.426  1.00  0.00     0.187 HD
ENDROOT
BRANCH   7  13
HETATM   13  N3  UNL     1      -4.279  49.497 -25.959  1.00  0.00    -0.295 N 
HETATM   14  C9  UNL     1      -4.274  48.711 -27.079  1.00  0.00     0.322 C 
HETATM   15  O1  UNL     1      -3.295  48.384 -27.738  1.00  0.00    -0.247 OA
HETATM   16  N4  UNL     1      -5.550  48.292 -27.398  1.00  0.00    -0.339 N 
HETATM   17  H8  UNL     1      -6.271  48.960 -27.156  1.00  0.00     0.164 HD
HETATM   18  H7  UNL     1      -5.125  49.552 -25.414  1.00  0.00     0.172 HD
BRANCH  16  19
HETATM   19  C10 UNL     1      -5.756  47.529 -28.609  1.00  0.00     0.165 C 
BRANCH  19  20
HETATM   20  C11 UNL     1      -6.975  48.000 -29.356  1.00  0.00    -0.010 A 
HETATM   21  C12 UNL     1      -8.151  48.245 -28.650  1.00  0.00     0.097 A 
HETATM   22  N5  UNL     1      -9.304  48.667 -29.213  1.00  0.00    -0.375 N 
HETATM   23  C13 UNL     1      -9.298  48.867 -30.545  1.00  0.00     0.088 A 
ATOM     24  H5  UNL     1     -10.142  48.826 -28.655  1.00  0.00     0.164 HD
HETATM   25  C14 UNL     1      -8.185  48.668 -31.342  1.00  0.00     0.034 A 
HETATM   26  C15 UNL     1      -6.992  48.230 -30.746  1.00  0.00     0.058 A 
BRANCH  26  27
HETATM   27  C16 UNL     1      -5.764  48.028 -31.596  1.00  0.00     0.418 C 
HETATM   28  F1  UNL     1      -5.146  46.841 -31.352  1.00  0.00    -0.166 F 
HETATM   29  F2  UNL     1      -6.012  48.052 -32.934  1.00  0.00    -0.166 F 
HETATM   30  F3  UNL     1      -4.825  48.993 -31.377  1.00  0.00    -0.166 F 
ENDBRANCH  26  27
ENDBRANCH  19  20
ENDBRANCH  16  19
ENDBRANCH   7  13
BRANCH   1  31
HETATM   31  C4  UNL     1       0.310  52.507 -22.122  1.00  0.00    -0.004 A 
HETATM   32  C3  UNL     1      -0.058  51.799 -20.977  1.00  0.00     0.038 A 
HETATM   33  C2  UNL     1       0.304  52.300 -19.729  1.00  0.00     0.005 A 
HETATM   34  C1  UNL     1      -0.071  51.558 -18.481  1.00  0.00     0.068 C 
HETATM   35  N7  UNL     1       1.002  53.450 -19.580  1.00  0.00    -0.369 N 
HETATM   36  C20 UNL     1       1.364  54.107 -20.702  1.00  0.00     0.089 A 
ATOM     37  H7  UNL     1       1.246  53.805 -18.656  1.00  0.00     0.165 HD
HETATM   38  C19 UNL     1       1.048  53.682 -21.978  1.00  0.00     0.031 A 
ENDBRANCH   1  31
TORSDOF 5
ENDMDL
