MODEL 1
REMARK minimizedAffinity -8.20607853
REMARK CNNscore 0.421868712
REMARK CNNaffinity 7.0588975
REMARK  5 active torsions:
REMARK  status: ('A' for Active; 'I' for Inactive)
REMARK    1  A    between atoms: C4_5  and  C5_6 
REMARK    2  A    between atoms: C8_9  and  C9_10 
REMARK    3  A    between atoms: C12_16  and  N3_17 
REMARK       I    between atoms: N3_17  and  C13_18 
REMARK       I    between atoms: C13_18  and  N4_20 
REMARK    4  A    between atoms: N4_20  and  C14_21 
REMARK    5  A    between atoms: C14_21  and  C16_23 
ROOT
HETATM    1  C9  UNL     1       0.050  52.162 -21.496  1.00  0.00     0.073 A 
HETATM    2  N1  UNL     1       0.868  53.094 -22.015  1.00  0.00    -0.299 N 
ATOM      3  H1  UNL     1       0.955  53.374 -22.993  1.00  0.00     0.187 HD
HETATM    4  N2  UNL     1       1.545  53.572 -20.962  1.00  0.00    -0.299 N 
HETATM    5  C10 UNL     1       1.187  53.018 -19.767  1.00  0.00     0.065 A 
HETATM    6  C11 UNL     1       1.627  53.242 -18.463  1.00  0.00     0.080 A 
HETATM    7  C12 UNL     1       0.999  52.484 -17.476  1.00  0.00     0.111 A 
HETATM    8  N5  UNL     1       0.037  51.585 -17.749  1.00  0.00    -0.351 N 
ATOM      9  H5  UNL     1      -0.382  51.048 -16.989  1.00  0.00     0.166 HD
HETATM   10  C22 UNL     1      -0.383  51.382 -19.024  1.00  0.00     0.105 A 
HETATM   11  C23 UNL     1       0.197  52.093 -20.076  1.00  0.00     0.036 A 
HETATM   12  H7  UNL     1       2.241  54.291 -21.129  1.00  0.00     0.187 HD
ENDROOT
BRANCH   7  13
HETATM   13  N3  UNL     1       1.437  52.676 -16.160  1.00  0.00    -0.295 N 
HETATM   14  C13 UNL     1       0.823  52.182 -15.032  1.00  0.00     0.322 C 
HETATM   15  O1  UNL     1      -0.251  51.605 -14.956  1.00  0.00    -0.247 OA
HETATM   16  N4  UNL     1       1.600  52.453 -13.916  1.00  0.00    -0.335 N 
HETATM   17  H10 UNL     1       2.589  52.350 -14.092  1.00  0.00     0.165 HD
HETATM   18  H9  UNL     1       2.157  53.359 -16.002  1.00  0.00     0.172 HD
BRANCH  16  19
HETATM   19  C14 UNL     1       1.169  51.987 -12.602  1.00  0.00     0.115 C 
HETATM   20  C15 UNL     1       0.027  52.838 -12.038  1.00  0.00     0.037 C 
BRANCH  19  21
HETATM   21  C16 UNL     1       2.361  51.974 -11.657  1.00  0.00    -0.036 A 
HETATM   22  C17 UNL     1       2.834  53.179 -11.110  1.00  0.00     0.012 A 
HETATM   23  C18 UNL     1       3.919  53.182 -10.231  1.00  0.00     0.043 A 
HETATM   24  C19 UNL     1       4.532  51.983  -9.895  1.00  0.00     0.116 A 
HETATM   25  F1  UNL     1       5.571  51.987  -9.049  1.00  0.00    -0.206 F 
HETATM   26  C20 UNL     1       4.080  50.778 -10.417  1.00  0.00     0.043 A 
HETATM   27  C21 UNL     1       2.996  50.772 -11.295  1.00  0.00     0.012 A 
ENDBRANCH  19  21
ENDBRANCH  16  19
ENDBRANCH   7  13
BRANCH   1  28
HETATM   28  C8  UNL     1      -0.839  51.395 -22.363  1.00  0.00     0.008 A 
HETATM   29  C7  UNL     1      -1.339  50.153 -21.962  1.00  0.00     0.017 A 
HETATM   30  C6  UNL     1      -2.190  49.436 -22.807  1.00  0.00     0.033 A 
HETATM   31  C5  UNL     1      -2.528  49.975 -24.046  1.00  0.00     0.066 A 
HETATM   32  N6  UNL     1      -2.065  51.188 -24.448  1.00  0.00    -0.363 N 
HETATM   33  C24 UNL     1      -1.248  51.865 -23.603  1.00  0.00     0.102 A 
ATOM     34  H6  UNL     1      -2.323  51.577 -25.355  1.00  0.00     0.165 HD
BRANCH  31  35
HETATM   35  C4  UNL     1      -3.420  49.298 -25.011  1.00  0.00     0.101 A 
HETATM   36  S1  UNL     1      -2.939  49.082 -26.658  1.00  0.00    -0.080 SA
HETATM   37  C3  UNL     1      -4.432  48.322 -26.998  1.00  0.00     0.076 A 
HETATM   38  C2  UNL     1      -5.211  48.274 -25.860  1.00  0.00     0.012 A 
HETATM   39  C1  UNL     1      -6.578  47.706 -25.742  1.00  0.00     0.068 C 
HETATM   40  N7  UNL     1      -4.627  48.834 -24.738  1.00  0.00    -0.352 N 
ATOM     41  H7  UNL     1      -5.069  48.883 -23.821  1.00  0.00     0.166 HD
ENDBRANCH  31  35
ENDBRANCH   1  28
TORSDOF 5
ENDMDL
