MODEL 1
REMARK minimizedAffinity -8.779459
REMARK  5 active torsions:
REMARK  status: ('A' for Active; 'I' for Inactive)
REMARK    1  A    between atoms: C2_2  and  N1_3 
REMARK    2  A    between atoms: C2_2  and  C16_26 
REMARK       I    between atoms: N1_3  and  C3_4 
REMARK       I    between atoms: C3_4  and  N2_6 
REMARK    3  A    between atoms: N2_6  and  C4_7 
REMARK    4  A    between atoms: N5_14  and  C8_15 
REMARK    5  A    between atoms: C10_17  and  N6_18 
ROOT
HETATM    1  C4  UNL     1       0.896  53.025 -19.700  1.00  0.00     0.111 A 
HETATM    2  C5  UNL     1       1.388  54.079 -20.457  1.00  0.00     0.080 A 
HETATM    3  C6  UNL     1       1.192  53.968 -21.833  1.00  0.00     0.067 A 
HETATM    4  N3  UNL     1       1.538  54.789 -22.866  1.00  0.00    -0.298 N 
HETATM    5  N4  UNL     1       1.179  54.334 -24.074  1.00  0.00    -0.284 N 
ATOM      6  H4  UNL     1       1.349  54.765 -24.982  1.00  0.00     0.188 HD
HETATM    7  C7  UNL     1       0.548  53.184 -23.817  1.00  0.00     0.130 A 
HETATM    8  N5  UNL     1       0.015  52.466 -24.829  1.00  0.00    -0.370 N 
HETATM    9  C14 UNL     1       0.543  52.888 -22.422  1.00  0.00     0.052 A 
HETATM   10  C15 UNL     1       0.087  51.872 -21.582  1.00  0.00     0.107 A 
HETATM   11  N7  UNL     1       0.276  51.949 -20.235  1.00  0.00    -0.351 N 
ATOM     12  H7  UNL     1      -0.050  51.195 -19.630  1.00  0.00     0.166 HD
HETATM   13  H8  UNL     1       2.027  55.676 -22.814  1.00  0.00     0.187 HD
HETATM   14  H9  UNL     1       0.239  52.819 -25.754  1.00  0.00     0.161 HD
ENDROOT
BRANCH   1  15
HETATM   15  N2  UNL     1       1.011  52.955 -18.311  1.00  0.00    -0.295 N 
HETATM   16  C3  UNL     1       0.679  51.913 -17.487  1.00  0.00     0.322 C 
HETATM   17  N1  UNL     1       0.882  52.238 -16.167  1.00  0.00    -0.335 N 
HETATM   18  O1  UNL     1       0.268  50.815 -17.838  1.00  0.00    -0.247 OA
HETATM   19  H5  UNL     1       0.905  53.218 -15.926  1.00  0.00     0.165 HD
HETATM   20  H6  UNL     1       1.551  53.715 -17.930  1.00  0.00     0.172 HD
BRANCH  17  21
HETATM   21  C2  UNL     1       0.571  51.309 -15.091  1.00  0.00     0.115 C 
HETATM   22  C1  UNL     1      -0.206  52.004 -13.967  1.00  0.00     0.037 C 
BRANCH  21  23
HETATM   23  C16 UNL     1       1.858  50.638 -14.639  1.00  0.00    -0.036 A 
HETATM   24  C17 UNL     1       1.893  49.352 -14.079  1.00  0.00     0.009 A 
HETATM   25  C18 UNL     1       3.102  48.789 -13.655  1.00  0.00     0.001 A 
HETATM   26  C19 UNL     1       4.288  49.511 -13.772  1.00  0.00     0.000 A 
HETATM   27  C20 UNL     1       4.270  50.795 -14.310  1.00  0.00     0.001 A 
HETATM   28  C21 UNL     1       3.065  51.355 -14.737  1.00  0.00     0.009 A 
ENDBRANCH  21  23
ENDBRANCH  17  21
ENDBRANCH   1  15
BRANCH   8  29
HETATM   29  C8  UNL     1      -0.602  51.185 -24.780  1.00  0.00     0.087 C 
HETATM   30  C9  UNL     1      -0.899  50.588 -26.182  1.00  0.00     0.061 C 
HETATM   31  C10 UNL     1      -2.230  50.083 -25.572  1.00  0.00     0.226 C 
HETATM   32  C13 UNL     1      -2.142  51.264 -24.578  1.00  0.00     0.061 C 
BRANCH  31  33
HETATM   33  N6  UNL     1      -3.322  50.131 -26.557  1.00  0.00     0.084 N 
HETATM   34  C11 UNL     1      -2.844  50.799 -27.768  1.00  0.00     0.309 C 
HETATM   35  C12 UNL     1      -3.952  48.858 -26.902  1.00  0.00     0.309 C 
ENDBRANCH  31  33
ENDBRANCH   8  29
TORSDOF 5
ENDMDL
