MODEL 1
REMARK minimizedAffinity -8.60400867
REMARK CNNscore 0.659277856
REMARK CNNaffinity 6.8413887
REMARK  7 active torsions:
REMARK  status: ('A' for Active; 'I' for Inactive)
REMARK       I    between atoms: C1_2  and  N1_3 
REMARK    1  A    between atoms: C1_2  and  C8_12 
REMARK    2  A    between atoms: N1_3  and  C2_4 
REMARK    3  A    between atoms: C5_7  and  O2_8 
REMARK    4  A    between atoms: N2_15  and  C11_16 
REMARK    5  A    between atoms: C11_16  and  C12_17 
REMARK       I    between atoms: C12_17  and  N3_19 
REMARK    6  A    between atoms: N4_22  and  C15_23 
REMARK    7  A    between atoms: C18_26  and  C19_27 
ROOT
HETATM    1  C12 UNL     1      -3.355  48.708 -24.118  1.00  0.00     0.248 C 
HETATM    2  O3  UNL     1      -2.165  49.032 -24.176  1.00  0.00    -0.271 OA
HETATM    3  N3  UNL     1      -4.120  48.540 -25.272  1.00  0.00    -0.348 N 
HETATM    4  C13 UNL     1      -5.568  48.290 -25.262  1.00  0.00     0.140 C 
HETATM    5  C14 UNL     1      -6.072  47.612 -26.550  1.00  0.00     0.115 C 
HETATM    6  N4  UNL     1      -5.614  48.353 -27.738  1.00  0.00    -0.280 NA
HETATM    7  C25 UNL     1      -4.133  48.450 -27.792  1.00  0.00     0.115 C 
HETATM    8  C26 UNL     1      -3.591  49.121 -26.516  1.00  0.00     0.140 C 
ENDROOT
BRANCH   1   9
HETATM    9  C11 UNL     1      -4.058  48.455 -22.766  1.00  0.00     0.374 C 
BRANCH   9  10
HETATM   10  N2  UNL     1      -3.098  48.522 -21.652  1.00  0.00     0.098 N 
HETATM   11  C10 UNL     1      -2.745  47.205 -21.121  1.00  0.00     0.274 C 
HETATM   12  C9  UNL     1      -2.079  47.534 -19.787  1.00  0.00     0.046 C 
HETATM   13  C8  UNL     1      -2.561  48.942 -19.433  1.00  0.00     0.108 C 
HETATM   14  C27 UNL     1      -3.611  49.269 -20.490  1.00  0.00     0.287 C 
BRANCH  13  15
HETATM   15  C1  UNL     1      -1.400  49.939 -19.444  1.00  0.00     0.228 C 
HETATM   16  O1  UNL     1      -0.376  49.698 -18.808  1.00  0.00    -0.273 OA
HETATM   17  N1  UNL     1      -1.612  51.033 -20.264  1.00  0.00    -0.327 N 
HETATM   18  H1  UNL     1      -2.563  51.134 -20.625  1.00  0.00     0.169 HD
BRANCH  17  19
HETATM   19  C2  UNL     1      -0.699  52.039 -20.633  1.00  0.00     0.037 A 
HETATM   20  C3  UNL     1      -0.137  52.953 -19.739  1.00  0.00     0.032 A 
HETATM   21  C4  UNL     1       0.818  53.882 -20.171  1.00  0.00     0.042 A 
HETATM   22  C5  UNL     1       1.195  53.907 -21.509  1.00  0.00     0.104 A 
HETATM   23  C6  UNL     1       0.607  53.026 -22.413  1.00  0.00     0.151 A 
HETATM   24  F1  UNL     1       0.958  53.049 -23.709  1.00  0.00    -0.203 F 
HETATM   25  C7  UNL     1      -0.329  52.091 -21.982  1.00  0.00     0.074 A 
BRANCH  22  26
HETATM   26  O2  UNL     1       2.147  54.783 -21.949  1.00  0.00    -0.358 OA
HETATM   27  H4  UNL     1       2.515  55.260 -21.187  1.00  0.00     0.217 HD
ENDBRANCH  22  26
ENDBRANCH  17  19
ENDBRANCH  13  15
ENDBRANCH   9  10
ENDBRANCH   1   9
BRANCH   6  28
HETATM   28  C15 UNL     1      -6.183  48.012 -28.977  1.00  0.00     0.010 A 
HETATM   29  C16 UNL     1      -5.355  47.891 -30.101  1.00  0.00     0.024 A 
HETATM   30  C17 UNL     1      -5.866  47.551 -31.361  1.00  0.00     0.017 A 
HETATM   31  C18 UNL     1      -7.237  47.321 -31.559  1.00  0.00     0.008 A 
HETATM   32  C23 UNL     1      -8.067  47.461 -30.435  1.00  0.00     0.017 A 
HETATM   33  C24 UNL     1      -7.554  47.804 -29.174  1.00  0.00     0.024 A 
BRANCH  31  34
HETATM   34  C19 UNL     1      -7.783  46.957 -32.881  1.00  0.00     0.115 A 
HETATM   35  N5  UNL     1      -8.604  45.889 -32.952  1.00  0.00    -0.352 N 
HETATM   36  C20 UNL     1      -9.094  45.582 -34.168  1.00  0.00     0.091 A 
ATOM     37  H5  UNL     1      -8.841  45.341 -32.125  1.00  0.00     0.166 HD
HETATM   38  C21 UNL     1      -8.794  46.287 -35.308  1.00  0.00     0.034 A 
HETATM   39  C22 UNL     1      -7.949  47.356 -35.135  1.00  0.00     0.091 A 
HETATM   40  N6  UNL     1      -7.436  47.714 -33.943  1.00  0.00    -0.352 N 
ATOM     41  H6  UNL     1      -6.815  48.518 -33.847  1.00  0.00     0.166 HD
ENDBRANCH  31  34
ENDBRANCH   6  28
TORSDOF 7
ENDMDL
