MODEL 1
REMARK minimizedAffinity -8.66763592
REMARK  6 active torsions:
REMARK  status: ('A' for Active; 'I' for Inactive)
REMARK    1  A    between atoms: O1_2  and  C2_3 
REMARK    2  A    between atoms: C2_3  and  C3_4 
REMARK    3  A    between atoms: C3_4  and  N1_5 
REMARK    4  A    between atoms: C3_4  and  C16_27 
REMARK       I    between atoms: N1_5  and  C4_6 
REMARK       I    between atoms: C4_6  and  N2_8 
REMARK    5  A    between atoms: N2_8  and  C5_9 
REMARK    6  A    between atoms: N5_16  and  C9_17 
ROOT
HETATM    1  C5  UNL     1      -3.305  48.700 -24.301  1.00  0.00     0.111 A 
HETATM    2  C6  UNL     1      -4.676  48.487 -24.217  1.00  0.00     0.080 A 
HETATM    3  C7  UNL     1      -5.318  48.266 -25.435  1.00  0.00     0.067 A 
HETATM    4  N3  UNL     1      -6.623  48.018 -25.751  1.00  0.00    -0.298 N 
HETATM    5  N4  UNL     1      -6.852  47.870 -27.065  1.00  0.00    -0.284 N 
ATOM      6  H4  UNL     1      -7.744  47.696 -27.530  1.00  0.00     0.188 HD
HETATM    7  C8  UNL     1      -5.648  48.003 -27.625  1.00  0.00     0.130 A 
HETATM    8  N5  UNL     1      -5.387  47.919 -28.950  1.00  0.00    -0.370 N 
HETATM    9  C14 UNL     1      -4.645  48.256 -26.648  1.00  0.00     0.052 A 
HETATM   10  C15 UNL     1      -3.268  48.476 -26.640  1.00  0.00     0.107 A 
HETATM   11  N6  UNL     1      -2.616  48.701 -25.468  1.00  0.00    -0.351 N 
ATOM     12  H6  UNL     1      -1.610  48.871 -25.467  1.00  0.00     0.166 HD
HETATM   13  H10 UNL     1      -7.408  47.940 -25.114  1.00  0.00     0.187 HD
HETATM   14  H11 UNL     1      -4.501  48.267 -29.309  1.00  0.00     0.161 HD
ENDROOT
BRANCH   1  15
HETATM   15  N2  UNL     1      -2.497  48.952 -23.193  1.00  0.00    -0.295 N 
HETATM   16  C4  UNL     1      -2.591  49.970 -22.282  1.00  0.00     0.322 C 
HETATM   17  N1  UNL     1      -1.569  49.884 -21.356  1.00  0.00    -0.332 N 
HETATM   18  O2  UNL     1      -3.443  50.848 -22.259  1.00  0.00    -0.247 OA
HETATM   19  H7  UNL     1      -0.686  49.641 -21.784  1.00  0.00     0.165 HD
HETATM   20  H8  UNL     1      -1.860  48.198 -22.995  1.00  0.00     0.172 HD
BRANCH  17  21
HETATM   21  C3  UNL     1      -1.421  50.915 -20.329  1.00  0.00     0.143 C 
BRANCH  21  22
HETATM   22  C2  UNL     1      -2.802  51.515 -19.981  1.00  0.00     0.197 C 
BRANCH  22  23
HETATM   23  O1  UNL     1      -2.839  51.826 -18.580  1.00  0.00    -0.394 OA
HETATM   24  C1  UNL     1      -2.513  50.691 -17.787  1.00  0.00     0.201 C 
ENDBRANCH  22  23
ENDBRANCH  21  22
BRANCH  21  25
HETATM   25  C16 UNL     1      -0.472  52.022 -20.756  1.00  0.00    -0.033 A 
HETATM   26  C17 UNL     1      -0.073  52.125 -22.097  1.00  0.00     0.009 A 
HETATM   27  C18 UNL     1       0.821  53.120 -22.500  1.00  0.00     0.001 A 
HETATM   28  C19 UNL     1       1.327  54.022 -21.568  1.00  0.00     0.000 A 
HETATM   29  C20 UNL     1       0.938  53.935 -20.233  1.00  0.00     0.001 A 
HETATM   30  C21 UNL     1       0.045  52.941 -19.829  1.00  0.00     0.009 A 
ENDBRANCH  21  25
ENDBRANCH  17  21
ENDBRANCH   1  15
BRANCH   8  31
HETATM   31  C9  UNL     1      -6.462  47.951 -29.941  1.00  0.00     0.087 C 
HETATM   32  C10 UNL     1      -6.991  46.524 -30.157  1.00  0.00     0.051 C 
HETATM   33  C11 UNL     1      -6.317  45.827 -31.336  1.00  0.00     0.169 C 
HETATM   34  O3  UNL     1      -4.970  46.269 -31.468  1.00  0.00    -0.391 OA
HETATM   35  C12 UNL     1      -4.891  47.633 -31.897  1.00  0.00     0.169 C 
HETATM   36  C13 UNL     1      -5.953  48.529 -31.261  1.00  0.00     0.051 C 
ENDBRANCH   8  31
TORSDOF 6
ENDMDL
