MODEL 1
REMARK minimizedAffinity -8.53897667
REMARK  6 active torsions:
REMARK  status: ('A' for Active; 'I' for Inactive)
REMARK    1  A    between atoms: O1_2  and  C2_3 
REMARK    2  A    between atoms: C2_3  and  C3_4 
REMARK    3  A    between atoms: C3_4  and  N1_5 
REMARK    4  A    between atoms: C3_4  and  C15_26 
REMARK       I    between atoms: N1_5  and  C4_6 
REMARK       I    between atoms: C4_6  and  N2_8 
REMARK    5  A    between atoms: N2_8  and  C5_9 
REMARK    6  A    between atoms: N5_16  and  C9_17 
ROOT
HETATM    1  C5  UNL     1      -0.271  51.959 -20.473  1.00  0.00     0.111 A 
HETATM    2  C6  UNL     1       0.564  52.845 -19.792  1.00  0.00     0.080 A 
HETATM    3  C7  UNL     1       0.869  52.494 -18.477  1.00  0.00     0.067 A 
HETATM    4  N3  UNL     1       1.626  53.097 -17.513  1.00  0.00    -0.298 N 
HETATM    5  N4  UNL     1       1.681  52.424 -16.355  1.00  0.00    -0.284 N 
ATOM      6  H4  UNL     1       2.189  52.677 -15.507  1.00  0.00     0.188 HD
HETATM    7  C8  UNL     1       0.920  51.348 -16.562  1.00  0.00     0.130 A 
HETATM    8  N5  UNL     1       0.679  50.375 -15.654  1.00  0.00    -0.368 N 
HETATM    9  C13 UNL     1       0.383  51.338 -17.880  1.00  0.00     0.052 A 
HETATM   10  C14 UNL     1      -0.444  50.507 -18.634  1.00  0.00     0.107 A 
HETATM   11  N6  UNL     1      -0.746  50.827 -19.919  1.00  0.00    -0.351 N 
ATOM     12  H6  UNL     1      -1.338  50.205 -20.469  1.00  0.00     0.166 HD
HETATM   13  H10 UNL     1       2.134  53.971 -17.580  1.00  0.00     0.187 HD
HETATM   14  H11 UNL     1       0.300  49.488 -15.969  1.00  0.00     0.161 HD
ENDROOT
BRANCH   1  15
HETATM   15  N2  UNL     1      -0.573  52.277 -21.802  1.00  0.00    -0.295 N 
HETATM   16  C4  UNL     1      -0.833  51.369 -22.804  1.00  0.00     0.322 C 
HETATM   17  N1  UNL     1      -0.944  52.029 -24.018  1.00  0.00    -0.332 N 
HETATM   18  O2  UNL     1      -0.988  50.161 -22.690  1.00  0.00    -0.247 OA
HETATM   19  H7  UNL     1      -0.332  52.821 -24.118  1.00  0.00     0.165 HD
HETATM   20  H8  UNL     1      -0.815  53.230 -22.011  1.00  0.00     0.172 HD
BRANCH  17  21
HETATM   21  C3  UNL     1      -1.200  51.276 -25.246  1.00  0.00     0.143 C 
BRANCH  21  22
HETATM   22  C2  UNL     1      -2.527  51.723 -25.906  1.00  0.00     0.197 C 
BRANCH  22  23
HETATM   23  O1  UNL     1      -3.250  52.594 -25.026  1.00  0.00    -0.394 OA
HETATM   24  C1  UNL     1      -4.398  51.958 -24.481  1.00  0.00     0.201 C 
ENDBRANCH  22  23
ENDBRANCH  21  22
BRANCH  21  25
HETATM   25  C15 UNL     1      -0.008  51.407 -26.185  1.00  0.00    -0.033 A 
HETATM   26  C16 UNL     1      -0.157  51.595 -27.570  1.00  0.00     0.009 A 
HETATM   27  C17 UNL     1       0.963  51.730 -28.394  1.00  0.00     0.001 A 
HETATM   28  C18 UNL     1       2.244  51.692 -27.849  1.00  0.00     0.000 A 
HETATM   29  C19 UNL     1       2.408  51.527 -26.477  1.00  0.00     0.001 A 
HETATM   30  C20 UNL     1       1.290  51.390 -25.650  1.00  0.00     0.009 A 
ENDBRANCH  21  25
ENDBRANCH  17  21
ENDBRANCH   1  15
BRANCH   8  31
HETATM   31  C9  UNL     1       1.446  50.311 -14.418  1.00  0.00     0.109 C 
HETATM   32  C10 UNL     1       2.820  50.928 -14.569  1.00  0.00     0.053 C 
HETATM   33  C11 UNL     1       3.597  50.230 -13.479  1.00  0.00     0.169 C 
HETATM   34  O3  UNL     1       3.103  48.886 -13.428  1.00  0.00    -0.389 OA
HETATM   35  C12 UNL     1       1.790  48.874 -14.019  1.00  0.00     0.192 C 
ENDBRANCH   8  31
TORSDOF 6
ENDMDL
