MODEL 1
REMARK minimizedAffinity -7.96302271
REMARK CNNscore 0.553050399
REMARK CNNaffinity 6.03718424
REMARK  7 active torsions:
REMARK  status: ('A' for Active; 'I' for Inactive)
REMARK       I    between atoms: C1_2  and  N1_3 
REMARK    1  A    between atoms: C1_2  and  C8_12 
REMARK    2  A    between atoms: N1_3  and  C2_4 
REMARK    3  A    between atoms: C5_7  and  O2_8 
REMARK    4  A    between atoms: N2_15  and  C11_16 
REMARK    5  A    between atoms: C11_16  and  C12_17 
REMARK       I    between atoms: C12_17  and  N3_19 
REMARK    6  A    between atoms: N4_22  and  C15_23 
REMARK    7  A    between atoms: C18_26  and  C19_27 
ROOT
HETATM    1  C11 UNL     1      -8.563  48.105 -24.385  1.00  0.00     0.374 C 
ENDROOT
BRANCH   1   2
HETATM    2  N2  UNL     1      -9.230  46.974 -25.065  1.00  0.00     0.098 N 
HETATM    3  C10 UNL     1      -8.805  46.848 -26.463  1.00  0.00     0.274 C 
HETATM    4  C9  UNL     1      -9.712  47.767 -27.271  1.00  0.00     0.046 C 
HETATM    5  C8  UNL     1     -10.934  48.012 -26.384  1.00  0.00     0.108 C 
HETATM    6  C27 UNL     1     -10.695  47.134 -25.158  1.00  0.00     0.287 C 
BRANCH   5   7
HETATM    7  C1  UNL     1     -12.258  47.719 -27.082  1.00  0.00     0.228 C 
HETATM    8  O1  UNL     1     -12.682  48.418 -27.996  1.00  0.00    -0.273 OA
HETATM    9  N1  UNL     1     -12.864  46.573 -26.588  1.00  0.00    -0.327 N 
HETATM   10  H1  UNL     1     -12.367  46.073 -25.861  1.00  0.00     0.169 HD
BRANCH   9  11
HETATM   11  C2  UNL     1     -14.086  46.000 -27.001  1.00  0.00     0.036 A 
HETATM   12  C3  UNL     1     -14.285  45.388 -28.242  1.00  0.00     0.032 A 
HETATM   13  C4  UNL     1     -15.527  44.839 -28.578  1.00  0.00     0.040 A 
HETATM   14  C5  UNL     1     -16.583  44.901 -27.672  1.00  0.00     0.087 A 
HETATM   15  C6  UNL     1     -16.398  45.513 -26.431  1.00  0.00     0.069 A 
HETATM   16 CL1  UNL     1     -17.678  45.614 -25.278  1.00  0.00    -0.081 Cl
HETATM   17  C7  UNL     1     -15.156  46.061 -26.098  1.00  0.00     0.056 A 
BRANCH  14  18
HETATM   18  O2  UNL     1     -17.794  44.364 -28.000  1.00  0.00    -0.359 OA
HETATM   19  H4  UNL     1     -17.744  43.978 -28.890  1.00  0.00     0.217 HD
ENDBRANCH  14  18
ENDBRANCH   9  11
ENDBRANCH   5   7
ENDBRANCH   1   2
BRANCH   1  20
HETATM   20  C12 UNL     1      -7.643  47.657 -23.227  1.00  0.00     0.248 C 
HETATM   21  O3  UNL     1      -7.714  46.541 -22.707  1.00  0.00    -0.271 OA
HETATM   22  N3  UNL     1      -6.723  48.607 -22.769  1.00  0.00    -0.348 N 
HETATM   23  C13 UNL     1      -6.181  49.677 -23.621  1.00  0.00     0.145 C 
HETATM   24  C26 UNL     1      -5.773  48.182 -21.731  1.00  0.00     0.145 C 
HETATM   25  C14 UNL     1      -4.866  49.217 -24.294  1.00  0.00     0.143 C 
HETATM   26  N4  UNL     1      -3.890  48.752 -23.274  1.00  0.00    -0.378 N 
HETATM   27  C25 UNL     1      -4.448  47.712 -22.368  1.00  0.00     0.143 C 
BRANCH  26  28
HETATM   28  C15 UNL     1      -2.976  49.693 -22.802  1.00  0.00     0.030 A 
HETATM   29  C16 UNL     1      -2.018  50.241 -23.671  1.00  0.00     0.030 A 
HETATM   30  C17 UNL     1      -1.067  51.179 -23.241  1.00  0.00     0.014 A 
HETATM   31  C18 UNL     1      -1.037  51.601 -21.913  1.00  0.00    -0.024 A 
HETATM   32  C23 UNL     1      -1.967  51.052 -21.027  1.00  0.00     0.014 A 
HETATM   33  C24 UNL     1      -2.912  50.110 -21.466  1.00  0.00     0.030 A 
BRANCH  31  34
HETATM   34  C19 UNL     1      -0.044  52.567 -21.473  1.00  0.00    -0.002 A 
HETATM   35  C20 UNL     1       0.260  53.041 -20.165  1.00  0.00     0.038 A 
HETATM   36  C21 UNL     1       1.291  53.939 -20.301  1.00  0.00     0.142 A 
HETATM   37  O4  UNL     1       1.656  54.046 -21.603  1.00  0.00    -0.334 OA
HETATM   38  C22 UNL     1       0.846  53.213 -22.307  1.00  0.00     0.153 A 
ENDBRANCH  31  34
ENDBRANCH  26  28
ENDBRANCH   1  20
TORSDOF 7
ENDMDL
