MODEL 1
REMARK minimizedAffinity -8.59939194
REMARK  8 active torsions:
REMARK  status: ('A' for Active; 'I' for Inactive)
REMARK    1  A    between atoms: O1_2  and  C2_3 
REMARK    2  A    between atoms: C2_3  and  C3_4 
REMARK    3  A    between atoms: C3_4  and  N1_5 
REMARK    4  A    between atoms: C3_4  and  C19_30 
REMARK       I    between atoms: N1_5  and  C4_6 
REMARK       I    between atoms: C4_6  and  N2_8 
REMARK    5  A    between atoms: N2_8  and  C5_9 
REMARK    6  A    between atoms: C8_15  and  O3_16 
REMARK    7  A    between atoms: O3_16  and  C9_17 
REMARK    8  A    between atoms: C12_20  and  O4_22 
ROOT
HETATM    1  C5  UNL     1      -2.837  50.925 -26.631  1.00  0.00     0.111 A 
HETATM    2  C6  UNL     1      -1.474  50.898 -26.902  1.00  0.00     0.080 A 
HETATM    3  C7  UNL     1      -0.664  51.482 -25.928  1.00  0.00     0.067 A 
HETATM    4  N3  UNL     1       0.692  51.643 -25.835  1.00  0.00    -0.298 N 
HETATM    5  N4  UNL     1       1.096  52.272 -24.715  1.00  0.00    -0.279 N 
ATOM      6  H4  UNL     1       2.047  52.501 -24.423  1.00  0.00     0.189 HD
HETATM    7  C8  UNL     1      -0.050  52.523 -24.077  1.00  0.00     0.171 A 
HETATM    8  C17 UNL     1      -1.181  52.057 -24.775  1.00  0.00     0.060 A 
HETATM    9  C18 UNL     1      -2.559  52.049 -24.584  1.00  0.00     0.108 A 
HETATM   10  N5  UNL     1      -3.371  51.484 -25.517  1.00  0.00    -0.351 N 
ATOM     11  H5  UNL     1      -4.382  51.480 -25.379  1.00  0.00     0.166 HD
HETATM   12  H10 UNL     1       1.396  51.345 -26.502  1.00  0.00     0.187 HD
ENDROOT
BRANCH   1  13
HETATM   13  N2  UNL     1      -3.803  50.393 -27.485  1.00  0.00    -0.295 N 
HETATM   14  C4  UNL     1      -3.919  49.109 -27.945  1.00  0.00     0.322 C 
HETATM   15  N1  UNL     1      -5.000  48.983 -28.790  1.00  0.00    -0.332 N 
HETATM   16  O2  UNL     1      -3.202  48.164 -27.641  1.00  0.00    -0.247 OA
HETATM   17  H7  UNL     1      -5.358  49.828 -29.204  1.00  0.00     0.165 HD
HETATM   18  H8  UNL     1      -4.547  51.044 -27.671  1.00  0.00     0.172 HD
BRANCH  15  19
HETATM   19  C3  UNL     1      -5.283  47.738 -29.496  1.00  0.00     0.143 C 
BRANCH  19  20
HETATM   20  C2  UNL     1      -5.670  47.989 -30.978  1.00  0.00     0.197 C 
BRANCH  20  21
HETATM   21  O1  UNL     1      -4.599  47.767 -31.902  1.00  0.00    -0.394 OA
HETATM   22  C1  UNL     1      -4.546  46.432 -32.388  1.00  0.00     0.201 C 
ENDBRANCH  20  21
ENDBRANCH  19  20
BRANCH  19  23
HETATM   23  C19 UNL     1      -6.354  46.976 -28.728  1.00  0.00    -0.033 A 
HETATM   24  C20 UNL     1      -6.846  45.770 -29.254  1.00  0.00     0.009 A 
HETATM   25  C21 UNL     1      -7.807  45.028 -28.565  1.00  0.00     0.001 A 
HETATM   26  C22 UNL     1      -8.285  45.476 -27.336  1.00  0.00     0.000 A 
HETATM   27  C23 UNL     1      -7.798  46.661 -26.793  1.00  0.00     0.001 A 
HETATM   28  C24 UNL     1      -6.835  47.406 -27.480  1.00  0.00     0.009 A 
ENDBRANCH  19  23
ENDBRANCH  15  19
ENDBRANCH   1  13
BRANCH   7  29
HETATM   29  O3  UNL     1      -0.077  53.159 -22.884  1.00  0.00    -0.329 OA
BRANCH  29  30
HETATM   30  C9  UNL     1       0.627  52.520 -21.810  1.00  0.00     0.131 C 
HETATM   31  C10 UNL     1       0.368  53.378 -20.558  1.00  0.00     0.035 C 
HETATM   32  C11 UNL     1       0.443  52.543 -19.284  1.00  0.00     0.040 C 
HETATM   33  C12 UNL     1      -0.685  51.480 -19.240  1.00  0.00     0.057 C 
HETATM   34  C13 UNL     1      -0.213  50.319 -18.351  1.00  0.00     0.046 C 
HETATM   35  C15 UNL     1      -1.045  50.994 -20.666  1.00  0.00     0.040 C 
HETATM   36  C16 UNL     1       0.139  51.070 -21.627  1.00  0.00     0.035 C 
BRANCH  33  37
HETATM   37  O4  UNL     1      -1.817  52.148 -18.653  1.00  0.00    -0.385 OA
HETATM   38  C14 UNL     1      -3.066  51.472 -18.722  1.00  0.00     0.202 C 
ENDBRANCH  33  37
ENDBRANCH  29  30
ENDBRANCH   7  29
TORSDOF 8
ENDMDL
