MODEL 1
REMARK minimizedAffinity -10.1557264
REMARK  5 active torsions:
REMARK  status: ('A' for Active; 'I' for Inactive)
REMARK    1  A    between atoms: C4_4  and  C5_5 
REMARK    2  A    between atoms: C8_11  and  N3_12 
REMARK       I    between atoms: N3_12  and  C9_13 
REMARK       I    between atoms: C9_13  and  N4_15 
REMARK    3  A    between atoms: N4_15  and  C10_16 
REMARK    4  A    between atoms: C10_16  and  C12_18 
REMARK    5  A    between atoms: C15_21  and  N5_22 
ROOT
HETATM    1  N3  UNL     1      -3.334  50.463 -27.663  1.00  0.00    -0.295 N 
HETATM    2  C9  UNL     1      -3.828  49.188 -27.659  1.00  0.00     0.322 C 
HETATM    3  O1  UNL     1      -3.534  48.300 -26.869  1.00  0.00    -0.247 OA
HETATM    4  N4  UNL     1      -4.728  48.994 -28.680  1.00  0.00    -0.335 N 
HETATM    5  H7  UNL     1      -3.644  51.108 -28.371  1.00  0.00     0.172 HD
HETATM    6  H8  UNL     1      -4.976  49.769 -29.274  1.00  0.00     0.165 HD
ENDROOT
BRANCH   1   7
HETATM    7  C8  UNL     1      -2.417  51.045 -26.787  1.00  0.00     0.111 A 
HETATM    8  C7  UNL     1      -1.266  51.702 -27.202  1.00  0.00     0.080 A 
HETATM    9  C6  UNL     1      -0.467  52.205 -26.175  1.00  0.00     0.065 A 
HETATM   10  N2  UNL     1       0.708  52.901 -26.192  1.00  0.00    -0.299 N 
HETATM   11  C21 UNL     1      -0.786  52.059 -24.832  1.00  0.00     0.036 A 
HETATM   12  N1  UNL     1       1.174  53.223 -24.976  1.00  0.00    -0.299 N 
HETATM   13  H5  UNL     1       1.242  53.192 -27.004  1.00  0.00     0.187 HD
HETATM   14  C5  UNL     1       0.283  52.687 -24.123  1.00  0.00     0.072 A 
ATOM     15  H1  UNL     1       2.014  53.754 -24.750  1.00  0.00     0.187 HD
HETATM   16  C20 UNL     1      -1.974  51.401 -24.508  1.00  0.00     0.105 A 
HETATM   17  N8  UNL     1      -2.769  50.899 -25.489  1.00  0.00    -0.351 N 
ATOM     18  H8  UNL     1      -3.632  50.413 -25.246  1.00  0.00     0.166 HD
BRANCH  14  19
HETATM   19  C4  UNL     1       0.475  52.800 -22.678  1.00  0.00    -0.004 A 
HETATM   20  C3  UNL     1      -0.003  51.817 -21.808  1.00  0.00     0.038 A 
HETATM   21  C2  UNL     1       0.204  51.969 -20.440  1.00  0.00     0.005 A 
HETATM   22  C1  UNL     1      -0.297  50.929 -19.482  1.00  0.00     0.068 C 
HETATM   23  N9  UNL     1       0.850  53.033 -19.916  1.00  0.00    -0.369 N 
HETATM   24  C23 UNL     1       1.320  53.963 -20.776  1.00  0.00     0.089 A 
ATOM     25  H9  UNL     1       0.980  53.131 -18.908  1.00  0.00     0.165 HD
HETATM   26  C22 UNL     1       1.161  53.891 -22.147  1.00  0.00     0.031 A 
ENDBRANCH  14  19
ENDBRANCH   1   7
BRANCH   4  27
HETATM   27  C10 UNL     1      -5.426  47.733 -28.870  1.00  0.00     0.115 C 
HETATM   28  C11 UNL     1      -6.534  47.542 -27.828  1.00  0.00     0.037 C 
BRANCH  27  29
HETATM   29  C12 UNL     1      -5.955  47.656 -30.293  1.00  0.00    -0.036 A 
HETATM   30  C13 UNL     1      -7.228  48.137 -30.634  1.00  0.00     0.011 A 
HETATM   31  C14 UNL     1      -7.681  48.086 -31.956  1.00  0.00     0.032 A 
HETATM   32  C15 UNL     1      -6.865  47.552 -32.963  1.00  0.00     0.057 A 
HETATM   33  C18 UNL     1      -5.592  47.073 -32.634  1.00  0.00     0.032 A 
HETATM   34  C19 UNL     1      -5.143  47.132 -31.310  1.00  0.00     0.011 A 
BRANCH  32  35
HETATM   35  N5  UNL     1      -7.343  47.515 -34.299  1.00  0.00    -0.251 N 
HETATM   36  C16 UNL     1      -8.555  47.072 -34.774  1.00  0.00     0.208 A 
HETATM   37  N6  UNL     1      -8.612  47.194 -36.081  1.00  0.00    -0.346 N 
HETATM   38  C17 UNL     1      -7.397  47.727 -36.383  1.00  0.00     0.199 A 
ATOM     39  H6  UNL     1      -9.375  46.952 -36.712  1.00  0.00     0.167 HD
HETATM   40  N7  UNL     1      -6.589  47.945 -35.345  1.00  0.00    -0.288 N 
ATOM     41  H7  UNL     1      -5.647  48.336 -35.337  1.00  0.00     0.188 HD
ENDBRANCH  32  35
ENDBRANCH  27  29
ENDBRANCH   4  27
TORSDOF 5
ENDMDL
