MODEL 1
REMARK minimizedAffinity -8.37776566
REMARK  9 active torsions:
REMARK  status: ('A' for Active; 'I' for Inactive)
REMARK    1  A    between atoms: O1_2  and  C2_3 
REMARK    2  A    between atoms: C2_3  and  C3_4 
REMARK    3  A    between atoms: C3_4  and  O2_5 
REMARK    4  A    between atoms: O2_5  and  C4_6 
REMARK    5  A    between atoms: C7_12  and  N3_13 
REMARK       I    between atoms: N3_13  and  C8_14 
REMARK       I    between atoms: C8_14  and  N4_16 
REMARK    6  A    between atoms: N4_16  and  C9_17 
REMARK    7  A    between atoms: C9_17  and  C10_18 
REMARK    8  A    between atoms: C9_17  and  C16_25 
REMARK    9  A    between atoms: C16_25  and  O4_28 
ROOT
HETATM    1  N3  UNL     1      -0.728  52.230 -20.212  1.00  0.00    -0.295 N 
HETATM    2  C8  UNL     1      -1.081  51.332 -21.194  1.00  0.00     0.322 C 
HETATM    3  O3  UNL     1      -1.020  50.114 -21.148  1.00  0.00    -0.247 OA
HETATM    4  N4  UNL     1      -1.564  52.016 -22.300  1.00  0.00    -0.331 N 
HETATM    5  H10 UNL     1      -1.083  53.164 -20.320  1.00  0.00     0.172 HD
HETATM    6  H11 UNL     1      -1.007  52.836 -22.488  1.00  0.00     0.165 HD
ENDROOT
BRANCH   1   7
HETATM    7  C7  UNL     1      -0.110  51.909 -18.995  1.00  0.00     0.111 A 
HETATM    8  C6  UNL     1       0.755  52.866 -18.461  1.00  0.00     0.080 A 
HETATM    9  C5  UNL     1       1.368  52.519 -17.258  1.00  0.00     0.067 A 
HETATM   10  N2  UNL     1       2.251  53.176 -16.445  1.00  0.00    -0.298 N 
HETATM   11  C20 UNL     1       1.136  51.299 -16.634  1.00  0.00     0.060 A 
HETATM   12  N1  UNL     1       2.615  52.483 -15.349  1.00  0.00    -0.279 N 
HETATM   13  H8  UNL     1       2.648  54.100 -16.579  1.00  0.00     0.187 HD
HETATM   14  C4  UNL     1       1.927  51.344 -15.470  1.00  0.00     0.171 A 
ATOM     15  H1  UNL     1       3.259  52.760 -14.607  1.00  0.00     0.189 HD
HETATM   16  C19 UNL     1       0.265  50.395 -17.236  1.00  0.00     0.108 A 
HETATM   17  N5  UNL     1      -0.339  50.718 -18.409  1.00  0.00    -0.351 N 
ATOM     18  H5  UNL     1      -0.972  50.052 -18.851  1.00  0.00     0.166 HD
BRANCH  14  19
HETATM   19  O2  UNL     1       2.016  50.363 -14.546  1.00  0.00    -0.332 OA
BRANCH  19  20
HETATM   20  C3  UNL     1       3.003  50.557 -13.527  1.00  0.00     0.203 C 
BRANCH  20  21
HETATM   21  C2  UNL     1       4.299  49.805 -13.837  1.00  0.00     0.193 C 
BRANCH  21  22
HETATM   22  O1  UNL     1       5.066  49.662 -12.634  1.00  0.00    -0.394 OA
HETATM   23  C1  UNL     1       4.310  50.019 -11.486  1.00  0.00     0.201 C 
ENDBRANCH  21  22
ENDBRANCH  20  21
ENDBRANCH  19  20
ENDBRANCH  14  19
ENDBRANCH   1   7
BRANCH   4  24
HETATM   24  C9  UNL     1      -1.979  51.286 -23.508  1.00  0.00     0.153 C 
BRANCH  24  25
HETATM   25  C10 UNL     1      -0.870  51.385 -24.566  1.00  0.00    -0.032 A 
HETATM   26  C11 UNL     1       0.174  52.309 -24.382  1.00  0.00     0.011 A 
HETATM   27  C12 UNL     1       1.198  52.431 -25.325  1.00  0.00     0.024 A 
HETATM   28  C13 UNL     1       1.191  51.627 -26.461  1.00  0.00     0.034 A 
HETATM   29 CL1  UNL     1       2.450  51.776 -27.624  1.00  0.00    -0.084 Cl
HETATM   30  C14 UNL     1       0.171  50.701 -26.661  1.00  0.00     0.024 A 
HETATM   31  C15 UNL     1      -0.853  50.578 -25.719  1.00  0.00     0.011 A 
ENDBRANCH  24  25
BRANCH  24  32
HETATM   32  C16 UNL     1      -3.398  51.699 -24.067  1.00  0.00     0.075 C 
HETATM   33  C17 UNL     1      -4.128  50.519 -24.723  1.00  0.00     0.048 C 
HETATM   34  C18 UNL     1      -4.314  52.315 -23.002  1.00  0.00     0.048 C 
BRANCH  32  35
HETATM   35  O4  UNL     1      -3.219  52.682 -25.108  1.00  0.00    -0.388 OA
HETATM   36  H23 UNL     1      -4.097  52.913 -25.457  1.00  0.00     0.210 HD
ENDBRANCH  32  35
ENDBRANCH  24  32
ENDBRANCH   4  24
TORSDOF 9
ENDMDL
