MODEL 1
REMARK minimizedAffinity -8.95790291
REMARK CNNscore 0.384434104
REMARK CNNaffinity 6.82599115
REMARK  5 active torsions:
REMARK  status: ('A' for Active; 'I' for Inactive)
REMARK    1  A    between atoms: C2_2  and  N1_3 
REMARK    2  A    between atoms: C2_2  and  C20_31 
REMARK       I    between atoms: N1_3  and  C3_4 
REMARK       I    between atoms: C3_4  and  N2_6 
REMARK    3  A    between atoms: N2_6  and  C4_7 
REMARK    4  A    between atoms: C7_13  and  C8_14 
REMARK    5  A    between atoms: C11_17  and  N5_18 
ROOT
HETATM    1  C4  UNL     1       0.555  51.451 -16.549  1.00  0.00     0.111 A 
HETATM    2  C5  UNL     1       1.186  52.533 -17.163  1.00  0.00     0.080 A 
HETATM    3  C6  UNL     1       0.959  52.662 -18.533  1.00  0.00     0.065 A 
HETATM    4  N3  UNL     1       1.415  53.555 -19.459  1.00  0.00    -0.299 N 
HETATM    5  N4  UNL     1       0.975  53.330 -20.706  1.00  0.00    -0.299 N 
ATOM      6  H4  UNL     1       1.200  53.853 -21.552  1.00  0.00     0.187 HD
HETATM    7  C7  UNL     1       0.171  52.260 -20.588  1.00  0.00     0.073 A 
HETATM    8  C18 UNL     1       0.142  51.791 -19.241  1.00  0.00     0.036 A 
HETATM    9  C19 UNL     1      -0.457  50.740 -18.547  1.00  0.00     0.105 A 
HETATM   10  N7  UNL     1      -0.248  50.599 -17.213  1.00  0.00    -0.351 N 
ATOM     11  H7  UNL     1      -0.705  49.839 -16.709  1.00  0.00     0.166 HD
HETATM   12  H8  UNL     1       2.036  54.341 -19.310  1.00  0.00     0.187 HD
ENDROOT
BRANCH   1  13
HETATM   13  N2  UNL     1       0.765  51.294 -15.172  1.00  0.00    -0.295 N 
HETATM   14  C3  UNL     1       1.921  51.613 -14.503  1.00  0.00     0.322 C 
HETATM   15  N1  UNL     1       1.833  51.232 -13.178  1.00  0.00    -0.335 N 
HETATM   16  O1  UNL     1       2.903  52.190 -14.945  1.00  0.00    -0.247 OA
HETATM   17  H5  UNL     1       1.257  50.429 -12.983  1.00  0.00     0.165 HD
HETATM   18  H6  UNL     1      -0.046  51.153 -14.594  1.00  0.00     0.172 HD
BRANCH  15  19
HETATM   19  C2  UNL     1       2.932  51.468 -12.255  1.00  0.00     0.115 C 
HETATM   20  C1  UNL     1       3.255  50.209 -11.439  1.00  0.00     0.037 C 
BRANCH  19  21
HETATM   21  C20 UNL     1       2.609  52.693 -11.412  1.00  0.00    -0.036 A 
HETATM   22  C21 UNL     1       3.647  53.305 -10.684  1.00  0.00     0.012 A 
HETATM   23  C22 UNL     1       3.405  54.436  -9.904  1.00  0.00     0.043 A 
HETATM   24  C23 UNL     1       2.125  54.970  -9.853  1.00  0.00     0.116 A 
HETATM   25  F1  UNL     1       1.889  56.051  -9.097  1.00  0.00    -0.206 F 
HETATM   26  C24 UNL     1       1.086  54.398 -10.576  1.00  0.00     0.043 A 
HETATM   27  C25 UNL     1       1.327  53.266 -11.359  1.00  0.00     0.012 A 
ENDBRANCH  19  21
ENDBRANCH  15  19
ENDBRANCH   1  13
BRANCH   7  28
HETATM   28  C8  UNL     1      -0.526  51.718 -21.747  1.00  0.00     0.009 A 
HETATM   29  C9  UNL     1      -1.126  50.469 -21.713  1.00  0.00     0.019 A 
HETATM   30  C10 UNL     1      -1.805  49.997 -22.840  1.00  0.00     0.049 A 
HETATM   31  C11 UNL     1      -1.868  50.764 -24.004  1.00  0.00     0.102 A 
HETATM   32  N6  UNL     1      -1.280  51.981 -24.038  1.00  0.00    -0.352 N 
HETATM   33  C17 UNL     1      -0.627  52.425 -22.935  1.00  0.00     0.103 A 
ATOM     34  H6  UNL     1      -1.327  52.556 -24.880  1.00  0.00     0.166 HD
BRANCH  31  35
HETATM   35  N5  UNL     1      -2.559  50.323 -25.126  1.00  0.00    -0.367 N 
HETATM   36  C12 UNL     1      -1.953  50.612 -26.427  1.00  0.00     0.124 C 
HETATM   37  C13 UNL     1      -3.011  50.482 -27.519  1.00  0.00     0.020 C 
HETATM   38  C14 UNL     1      -3.640  49.090 -27.557  1.00  0.00     0.003 C 
HETATM   39  C15 UNL     1      -3.429  48.307 -26.266  1.00  0.00     0.020 C 
HETATM   40  C16 UNL     1      -3.488  49.195 -25.025  1.00  0.00     0.124 C 
ENDBRANCH  31  35
ENDBRANCH   7  28
TORSDOF 5
ENDMDL
