MODEL 1
REMARK minimizedAffinity -8.35195065
REMARK  5 active torsions:
REMARK  status: ('A' for Active; 'I' for Inactive)
REMARK    1  A    between atoms: C2_2  and  C3_3 
REMARK    2  A    between atoms: C2_2  and  N2_7 
REMARK    3  A    between atoms: C3_3  and  N1_4 
REMARK       I    between atoms: N2_7  and  C6_8 
REMARK       I    between atoms: C6_8  and  N3_10 
REMARK    4  A    between atoms: N3_10  and  C7_11 
REMARK    5  A    between atoms: C10_17  and  C11_18 
ROOT
HETATM    1  C7  UNL     1      -2.359  51.100 -26.734  1.00  0.00     0.111 A 
HETATM    2  C8  UNL     1      -1.274  51.864 -27.145  1.00  0.00     0.080 A 
HETATM    3  C9  UNL     1      -0.474  52.361 -26.117  1.00  0.00     0.065 A 
HETATM    4  N4  UNL     1       0.649  53.138 -26.132  1.00  0.00    -0.299 N 
HETATM    5  N5  UNL     1       1.132  53.427 -24.913  1.00  0.00    -0.299 N 
ATOM      6  H5  UNL     1       1.940  54.005 -24.683  1.00  0.00     0.187 HD
HETATM    7  C10 UNL     1       0.311  52.785 -24.066  1.00  0.00     0.072 A 
HETATM    8  C17 UNL     1      -0.732  52.114 -24.776  1.00  0.00     0.036 A 
HETATM    9  C18 UNL     1      -1.857  51.352 -24.454  1.00  0.00     0.105 A 
HETATM   10  N6  UNL     1      -2.652  50.854 -25.436  1.00  0.00    -0.351 N 
ATOM     11  H6  UNL     1      -3.470  50.293 -25.196  1.00  0.00     0.166 HD
HETATM   12  H16 UNL     1       1.132  53.511 -26.941  1.00  0.00     0.187 HD
ENDROOT
BRANCH   1  13
HETATM   13  N3  UNL     1      -3.274  50.524 -27.616  1.00  0.00    -0.295 N 
HETATM   14  C6  UNL     1      -3.773  49.250 -27.610  1.00  0.00     0.322 C 
HETATM   15  N2  UNL     1      -4.626  49.047 -28.677  1.00  0.00    -0.337 N 
HETATM   16  O1  UNL     1      -3.531  48.378 -26.784  1.00  0.00    -0.247 OA
HETATM   17  H13 UNL     1      -4.457  49.627 -29.486  1.00  0.00     0.164 HD
HETATM   18  H14 UNL     1      -3.685  51.200 -28.239  1.00  0.00     0.172 HD
BRANCH  15  19
HETATM   19  C2  UNL     1      -5.233  47.733 -28.928  1.00  0.00     0.110 C 
HETATM   20  C1  UNL     1      -5.281  47.474 -30.433  1.00  0.00     0.034 C 
BRANCH  19  21
HETATM   21  C3  UNL     1      -6.625  47.674 -28.238  1.00  0.00     0.296 C 
BRANCH  21  22
HETATM   22  N1  UNL     1      -7.849  47.459 -29.020  1.00  0.00     0.081 N 
HETATM   23  C4  UNL     1      -8.659  46.335 -28.572  1.00  0.00     0.309 C 
HETATM   24  C5  UNL     1      -8.646  48.666 -29.204  1.00  0.00     0.309 C 
ENDBRANCH  21  22
ENDBRANCH  19  21
ENDBRANCH  15  19
ENDBRANCH   1  13
BRANCH   7  25
HETATM   25  C11 UNL     1       0.536  52.843 -22.620  1.00  0.00    -0.007 A 
HETATM   26  C12 UNL     1       1.215  53.924 -22.038  1.00  0.00     0.017 A 
HETATM   27  C13 UNL     1       1.424  53.964 -20.656  1.00  0.00     0.043 A 
HETATM   28  C14 UNL     1       0.950  52.928 -19.859  1.00  0.00     0.116 A 
HETATM   29  F1  UNL     1       1.152  52.970 -18.536  1.00  0.00    -0.206 F 
HETATM   30  C15 UNL     1       0.265  51.855 -20.414  1.00  0.00     0.043 A 
HETATM   31  C16 UNL     1       0.055  51.814 -21.794  1.00  0.00     0.017 A 
ENDBRANCH   7  25
TORSDOF 5
ENDMDL
