MODEL 1
REMARK minimizedAffinity -8.87348366
REMARK CNNscore 0.528398395
REMARK CNNaffinity 6.52619505
REMARK  8 active torsions:
REMARK  status: ('A' for Active; 'I' for Inactive)
REMARK       I    between atoms: C1_2  and  N1_3 
REMARK    1  A    between atoms: C1_2  and  C9_15 
REMARK    2  A    between atoms: N1_3  and  C2_4 
REMARK    3  A    between atoms: C5_7  and  O2_8 
REMARK    4  A    between atoms: C6_9  and  C7_10 
REMARK    5  A    between atoms: N2_18  and  C12_19 
REMARK    6  A    between atoms: C12_19  and  C13_20 
REMARK       I    between atoms: C13_20  and  N3_22 
REMARK    7  A    between atoms: N4_25  and  C16_26 
REMARK    8  A    between atoms: C19_29  and  C20_30 
ROOT
HETATM    1  C12 UNL     1      -6.763  49.030 -24.111  1.00  0.00     0.374 C 
ENDROOT
BRANCH   1   2
HETATM    2  N2  UNL     1      -5.354  49.293 -24.469  1.00  0.00     0.098 N 
HETATM    3  C11 UNL     1      -4.897  48.504 -25.623  1.00  0.00     0.274 C 
HETATM    4  C10 UNL     1      -3.373  48.496 -25.492  1.00  0.00     0.046 C 
HETATM    5  C9  UNL     1      -3.089  48.956 -24.059  1.00  0.00     0.108 C 
HETATM    6  C28 UNL     1      -4.447  48.911 -23.376  1.00  0.00     0.287 C 
BRANCH   5   7
HETATM    7  C1  UNL     1      -2.482  50.358 -24.004  1.00  0.00     0.228 C 
HETATM    8  O1  UNL     1      -3.069  51.302 -24.527  1.00  0.00    -0.273 OA
HETATM    9  N1  UNL     1      -1.279  50.414 -23.324  1.00  0.00    -0.327 N 
HETATM   10  H1  UNL     1      -0.920  49.512 -23.009  1.00  0.00     0.169 HD
BRANCH   9  11
HETATM   11  C2  UNL     1      -0.493  51.542 -23.034  1.00  0.00     0.035 A 
HETATM   12  C3  UNL     1       0.133  52.329 -23.996  1.00  0.00     0.032 A 
HETATM   13  C4  UNL     1       0.888  53.442 -23.615  1.00  0.00     0.039 A 
HETATM   14  C5  UNL     1       1.016  53.781 -22.270  1.00  0.00     0.080 A 
HETATM   15  C6  UNL     1       0.409  53.004 -21.283  1.00  0.00     0.083 A 
HETATM   16  C8  UNL     1      -0.338  51.877 -21.683  1.00  0.00     0.048 A 
BRANCH  14  17
HETATM   17  O2  UNL     1       1.762  54.896 -22.007  1.00  0.00    -0.360 OA
HETATM   18  H4  UNL     1       1.666  55.166 -21.076  1.00  0.00     0.217 HD
ENDBRANCH  14  17
BRANCH  15  19
HETATM   19  C7  UNL     1       0.548  53.296 -19.818  1.00  0.00     0.420 C 
HETATM   20  F1  UNL     1      -0.007  52.337 -19.029  1.00  0.00    -0.166 F 
HETATM   21  F2  UNL     1      -0.053  54.467 -19.449  1.00  0.00    -0.166 F 
HETATM   22  F3  UNL     1       1.845  53.408 -19.426  1.00  0.00    -0.166 F 
ENDBRANCH  15  19
ENDBRANCH   9  11
ENDBRANCH   5   7
ENDBRANCH   1   2
BRANCH   1  23
HETATM   23  C13 UNL     1      -7.085  47.529 -23.970  1.00  0.00     0.248 C 
HETATM   24  O3  UNL     1      -6.488  46.792 -23.180  1.00  0.00    -0.271 OA
HETATM   25  N3  UNL     1      -8.105  47.038 -24.778  1.00  0.00    -0.348 N 
HETATM   26  C14 UNL     1      -8.561  45.661 -24.552  1.00  0.00     0.145 C 
HETATM   27  C27 UNL     1      -8.844  47.790 -25.795  1.00  0.00     0.145 C 
HETATM   28  C15 UNL     1      -9.644  45.181 -25.540  1.00  0.00     0.143 C 
HETATM   29  N4  UNL     1     -10.739  46.160 -25.652  1.00  0.00    -0.378 N 
HETATM   30  C26 UNL     1     -10.363  47.587 -25.662  1.00  0.00     0.143 C 
BRANCH  29  31
HETATM   31  C16 UNL     1     -12.009  45.798 -26.084  1.00  0.00     0.030 A 
HETATM   32  C17 UNL     1     -12.672  46.517 -27.093  1.00  0.00     0.030 A 
HETATM   33  C18 UNL     1     -13.957  46.172 -27.541  1.00  0.00     0.017 A 
HETATM   34  C19 UNL     1     -14.659  45.088 -26.995  1.00  0.00     0.008 A 
HETATM   35  C24 UNL     1     -14.003  44.369 -25.983  1.00  0.00     0.017 A 
HETATM   36  C25 UNL     1     -12.715  44.717 -25.539  1.00  0.00     0.030 A 
BRANCH  34  37
HETATM   37  C20 UNL     1     -16.015  44.734 -27.457  1.00  0.00     0.115 A 
HETATM   38  N5  UNL     1     -16.132  44.009 -28.589  1.00  0.00    -0.352 N 
HETATM   39  C21 UNL     1     -17.380  43.680 -28.970  1.00  0.00     0.091 A 
ATOM     40  H5  UNL     1     -15.316  43.725 -29.130  1.00  0.00     0.166 HD
HETATM   41  C22 UNL     1     -18.508  44.046 -28.277  1.00  0.00     0.034 A 
HETATM   42  C23 UNL     1     -18.287  44.788 -27.141  1.00  0.00     0.091 A 
HETATM   43  N6  UNL     1     -17.063  45.141 -26.708  1.00  0.00    -0.352 N 
ATOM     44  H6  UNL     1     -16.932  45.688 -25.857  1.00  0.00     0.166 HD
ENDBRANCH  34  37
ENDBRANCH  29  31
ENDBRANCH   1  23
TORSDOF 8
ENDMDL
