MODEL 1
REMARK minimizedAffinity -8.9171524
REMARK CNNscore 0.389171541
REMARK CNNaffinity 7.17778635
REMARK  8 active torsions:
REMARK  status: ('A' for Active; 'I' for Inactive)
REMARK    1  A    between atoms: S1_2  and  C2_3 
REMARK    2  A    between atoms: C2_3  and  C3_4 
REMARK       I    between atoms: C3_4  and  N1_6 
REMARK    3  A    between atoms: N1_6  and  C4_7 
REMARK    4  A    between atoms: C8_14  and  C9_15 
REMARK    5  A    between atoms: N4_26  and  C19_27 
REMARK    6  A    between atoms: C19_27  and  C20_28 
REMARK       I    between atoms: C20_28  and  N5_30 
REMARK    7  A    between atoms: N6_33  and  C23_34 
REMARK    8  A    between atoms: C26_37  and  C27_38 
ROOT
HETATM    1  C2  UNL     1      -3.086  49.480 -19.334  1.00  0.00     0.117 C 
HETATM    2  C17 UNL     1      -3.103  48.737 -20.685  1.00  0.00     0.062 C 
HETATM    3  C18 UNL     1      -4.565  48.722 -21.105  1.00  0.00     0.275 C 
HETATM    4  N4  UNL     1      -5.341  48.698 -19.864  1.00  0.00     0.099 N 
HETATM    5  C35 UNL     1      -4.583  49.591 -18.960  1.00  0.00     0.303 C 
ENDROOT
BRANCH   1   6
HETATM    6  S1  UNL     1      -2.129  48.458 -18.090  1.00  0.00    -0.152 SA
HETATM    7  C1  UNL     1      -3.078  48.822 -16.584  1.00  0.00     0.091 C 
ENDBRANCH   1   6
BRANCH   1   8
HETATM    8  C3  UNL     1      -2.399  50.867 -19.443  1.00  0.00     0.242 C 
HETATM    9  O1  UNL     1      -2.778  51.828 -18.779  1.00  0.00    -0.271 OA
HETATM   10  N1  UNL     1      -1.312  50.872 -20.308  1.00  0.00    -0.326 N 
HETATM   11  H4  UNL     1      -1.052  49.971 -20.695  1.00  0.00     0.169 HD
BRANCH  10  12
HETATM   12  C4  UNL     1      -0.499  51.960 -20.681  1.00  0.00     0.035 A 
HETATM   13  C5  UNL     1      -0.004  52.908 -19.785  1.00  0.00     0.032 A 
HETATM   14  C6  UNL     1       0.792  53.978 -20.215  1.00  0.00     0.034 A 
HETATM   15  C7  UNL     1       1.049  54.077 -21.585  1.00  0.00     0.060 A 
HETATM   16  N2  UNL     1       1.766  54.986 -22.310  1.00  0.00    -0.299 N 
HETATM   17  C15 UNL     1       0.561  53.171 -22.517  1.00  0.00     0.023 A 
HETATM   18  N3  UNL     1       1.780  54.753 -23.630  1.00  0.00    -0.299 N 
HETATM   19  H7  UNL     1       2.277  55.788 -21.961  1.00  0.00     0.187 HD
HETATM   20  C8  UNL     1       1.023  53.654 -23.787  1.00  0.00     0.070 A 
ATOM     21  H3  UNL     1       2.259  55.290 -24.353  1.00  0.00     0.187 HD
HETATM   22  C16 UNL     1      -0.205  52.081 -22.052  1.00  0.00     0.045 A 
BRANCH  20  23
HETATM   23  C9  UNL     1       0.768  53.118 -25.128  1.00  0.00    -0.007 A 
HETATM   24  C10 UNL     1       1.255  51.858 -25.512  1.00  0.00     0.017 A 
HETATM   25  C11 UNL     1       0.999  51.358 -26.792  1.00  0.00     0.043 A 
HETATM   26  C12 UNL     1       0.241  52.107 -27.682  1.00  0.00     0.116 A 
HETATM   27  F1  UNL     1      -0.007  51.628 -28.908  1.00  0.00    -0.206 F 
HETATM   28  C13 UNL     1      -0.268  53.347 -27.318  1.00  0.00     0.043 A 
HETATM   29  C14 UNL     1      -0.006  53.851 -26.041  1.00  0.00     0.017 A 
ENDBRANCH  20  23
ENDBRANCH  10  12
ENDBRANCH   1   8
BRANCH   4  30
HETATM   30  C19 UNL     1      -5.504  47.342 -19.295  1.00  0.00     0.374 C 
BRANCH  30  31
HETATM   31  C20 UNL     1      -6.322  46.391 -20.198  1.00  0.00     0.248 C 
HETATM   32  O2  UNL     1      -7.428  46.681 -20.657  1.00  0.00    -0.271 OA
HETATM   33  N5  UNL     1      -5.711  45.171 -20.517  1.00  0.00    -0.348 N 
HETATM   34  C21 UNL     1      -6.472  44.241 -21.360  1.00  0.00     0.145 C 
HETATM   35  C34 UNL     1      -4.811  44.473 -19.585  1.00  0.00     0.145 C 
HETATM   36  C22 UNL     1      -7.308  43.282 -20.485  1.00  0.00     0.143 C 
HETATM   37  N6  UNL     1      -6.428  42.568 -19.513  1.00  0.00    -0.378 N 
HETATM   38  C33 UNL     1      -5.618  43.499 -18.692  1.00  0.00     0.143 C 
BRANCH  37  39
HETATM   39  C23 UNL     1      -5.911  41.334 -19.913  1.00  0.00     0.030 A 
HETATM   40  C24 UNL     1      -6.345  40.642 -21.050  1.00  0.00     0.030 A 
HETATM   41  C25 UNL     1      -5.792  39.404 -21.428  1.00  0.00     0.017 A 
HETATM   42  C26 UNL     1      -4.762  38.799 -20.692  1.00  0.00     0.008 A 
HETATM   43  C31 UNL     1      -4.303  39.503 -19.570  1.00  0.00     0.017 A 
HETATM   44  C32 UNL     1      -4.856  40.741 -19.201  1.00  0.00     0.030 A 
BRANCH  42  45
HETATM   45  C27 UNL     1      -4.186  37.495 -21.080  1.00  0.00     0.115 A 
HETATM   46  N7  UNL     1      -4.826  36.774 -22.024  1.00  0.00    -0.352 N 
HETATM   47  C28 UNL     1      -4.269  35.597 -22.365  1.00  0.00     0.091 A 
ATOM     48  H7  UNL     1      -5.689  37.104 -22.458  1.00  0.00     0.166 HD
HETATM   49  C29 UNL     1      -3.108  35.116 -21.808  1.00  0.00     0.034 A 
HETATM   50  C30 UNL     1      -2.533  35.920 -20.856  1.00  0.00     0.091 A 
HETATM   51  N8  UNL     1      -3.044  37.105 -20.474  1.00  0.00    -0.352 N 
ATOM     52  H8  UNL     1      -2.592  37.678 -19.762  1.00  0.00     0.166 HD
ENDBRANCH  42  45
ENDBRANCH  37  39
ENDBRANCH  30  31
ENDBRANCH   4  30
TORSDOF 8
ENDMDL
