MODEL 1
REMARK minimizedAffinity -9.74740791
REMARK CNNscore 0.565703988
REMARK CNNaffinity 7.2951808
REMARK  8 active torsions:
REMARK  status: ('A' for Active; 'I' for Inactive)
REMARK       I    between atoms: C2_2  and  N1_4 
REMARK    1  A    between atoms: N1_4  and  C3_5 
REMARK    2  A    between atoms: N1_4  and  C24_34 
REMARK    3  A    between atoms: C3_5  and  C4_6 
REMARK    4  A    between atoms: N2_9  and  C7_10 
REMARK    5  A    between atoms: C7_10  and  C8_11 
REMARK       I    between atoms: C8_11  and  N3_13 
REMARK    6  A    between atoms: N4_16  and  C11_17 
REMARK    7  A    between atoms: C14_20  and  C15_21 
REMARK    8  A    between atoms: C28_41  and  C29_42 
ROOT
HETATM    1  C4  UNL     1      -4.308  48.369 -26.191  1.00  0.00     0.034 C 
HETATM    2  C5  UNL     1      -3.938  48.526 -27.675  1.00  0.00     0.038 C 
HETATM    3  C6  UNL     1      -5.257  48.418 -28.417  1.00  0.00     0.273 C 
HETATM    4  N2  UNL     1      -6.004  47.485 -27.576  1.00  0.00     0.097 N 
HETATM    5  C23 UNL     1      -5.793  47.993 -26.212  1.00  0.00     0.279 C 
ENDROOT
BRANCH   1   6
HETATM    6  C3  UNL     1      -3.980  49.652 -25.415  1.00  0.00     0.138 C 
BRANCH   6   7
HETATM    7  N1  UNL     1      -2.970  49.507 -24.357  1.00  0.00    -0.318 N 
HETATM    8  C2  UNL     1      -3.297  48.722 -23.245  1.00  0.00     0.220 C 
HETATM    9  C1  UNL     1      -2.204  48.456 -22.238  1.00  0.00     0.117 C 
HETATM   10  O1  UNL     1      -4.409  48.211 -23.085  1.00  0.00    -0.273 OA
BRANCH   7  11
HETATM   11  C24 UNL     1      -1.955  50.511 -24.323  1.00  0.00     0.038 A 
HETATM   12  C25 UNL     1      -1.598  51.189 -25.495  1.00  0.00     0.032 A 
HETATM   13  C26 UNL     1      -0.616  52.189 -25.496  1.00  0.00     0.034 A 
HETATM   14  C27 UNL     1      -0.028  52.503 -24.267  1.00  0.00     0.060 A 
HETATM   15  N7  UNL     1       0.948  53.398 -23.928  1.00  0.00    -0.299 N 
HETATM   16  C35 UNL     1      -0.385  51.888 -23.075  1.00  0.00     0.023 A 
HETATM   17  N8  UNL     1       1.241  53.426 -22.619  1.00  0.00    -0.299 N 
HETATM   18  H32 UNL     1       1.453  54.024 -24.545  1.00  0.00     0.187 HD
HETATM   19  C28 UNL     1       0.409  52.527 -22.071  1.00  0.00     0.070 A 
ATOM     20  H8  UNL     1       1.939  54.001 -22.147  1.00  0.00     0.187 HD
HETATM   21  C36 UNL     1      -1.358  50.870 -23.103  1.00  0.00     0.046 A 
BRANCH  19  22
HETATM   22  C29 UNL     1       0.393  52.293 -20.626  1.00  0.00    -0.007 A 
HETATM   23  C30 UNL     1       0.731  53.320 -19.728  1.00  0.00     0.017 A 
HETATM   24  C31 UNL     1       0.698  53.097 -18.350  1.00  0.00     0.043 A 
HETATM   25  C32 UNL     1       0.335  51.845 -17.867  1.00  0.00     0.116 A 
HETATM   26  F1  UNL     1       0.298  51.634 -16.545  1.00  0.00    -0.206 F 
HETATM   27  C33 UNL     1       0.011  50.810 -18.739  1.00  0.00     0.043 A 
HETATM   28  C34 UNL     1       0.043  51.033 -20.118  1.00  0.00     0.017 A 
ENDBRANCH  19  22
ENDBRANCH   7  11
ENDBRANCH   6   7
ENDBRANCH   1   6
BRANCH   4  29
HETATM   29  C7  UNL     1      -7.434  47.452 -27.930  1.00  0.00     0.374 C 
BRANCH  29  30
HETATM   30  C8  UNL     1      -7.735  46.274 -28.873  1.00  0.00     0.248 C 
HETATM   31  O2  UNL     1      -6.838  45.485 -29.190  1.00  0.00    -0.271 OA
HETATM   32  N3  UNL     1      -9.050  46.115 -29.300  1.00  0.00    -0.348 N 
HETATM   33  C9  UNL     1      -9.437  44.923 -30.059  1.00  0.00     0.145 C 
HETATM   34  C22 UNL     1     -10.155  46.966 -28.855  1.00  0.00     0.145 C 
HETATM   35  C10 UNL     1     -10.699  44.273 -29.459  1.00  0.00     0.143 C 
HETATM   36  N4  UNL     1     -11.839  45.216 -29.426  1.00  0.00    -0.378 N 
HETATM   37  C21 UNL     1     -11.506  46.652 -29.525  1.00  0.00     0.143 C 
BRANCH  36  38
HETATM   38  C11 UNL     1     -13.077  44.821 -28.931  1.00  0.00     0.030 A 
HETATM   39  C12 UNL     1     -13.316  43.502 -28.518  1.00  0.00     0.030 A 
HETATM   40  C13 UNL     1     -14.582  43.071 -28.084  1.00  0.00     0.017 A 
HETATM   41  C14 UNL     1     -15.676  43.946 -28.017  1.00  0.00     0.008 A 
HETATM   42  C19 UNL     1     -15.422  45.284 -28.354  1.00  0.00     0.017 A 
HETATM   43  C20 UNL     1     -14.155  45.709 -28.795  1.00  0.00     0.030 A 
BRANCH  41  44
HETATM   44  C15 UNL     1     -17.021  43.482 -27.625  1.00  0.00     0.115 A 
HETATM   45  N5  UNL     1     -17.520  42.396 -28.255  1.00  0.00    -0.352 N 
HETATM   46  C16 UNL     1     -18.768  42.023 -27.919  1.00  0.00     0.091 A 
ATOM     47  H5  UNL     1     -16.977  41.885 -28.950  1.00  0.00     0.166 HD
HETATM   48  C17 UNL     1     -19.532  42.679 -26.986  1.00  0.00     0.034 A 
HETATM   49  C18 UNL     1     -18.937  43.767 -26.397  1.00  0.00     0.091 A 
HETATM   50  N6  UNL     1     -17.694  44.189 -26.695  1.00  0.00    -0.352 N 
ATOM     51  H6  UNL     1     -17.281  45.003 -26.240  1.00  0.00     0.166 HD
ENDBRANCH  41  44
ENDBRANCH  36  38
ENDBRANCH  29  30
ENDBRANCH   4  29
TORSDOF 8
ENDMDL
