MODEL 1
REMARK minimizedAffinity -8.94876194
REMARK CNNscore 0.427482128
REMARK CNNaffinity 7.74184275
REMARK  7 active torsions:
REMARK  status: ('A' for Active; 'I' for Inactive)
REMARK       I    between atoms: C1_2  and  N1_3 
REMARK    1  A    between atoms: C1_2  and  C8_12 
REMARK    2  A    between atoms: N1_3  and  C2_4 
REMARK    3  A    between atoms: C5_7  and  O2_8 
REMARK    4  A    between atoms: N2_15  and  C11_16 
REMARK    5  A    between atoms: C11_16  and  C12_17 
REMARK       I    between atoms: C12_17  and  N3_19 
REMARK    6  A    between atoms: N4_22  and  C15_23 
REMARK    7  A    between atoms: C18_26  and  C19_27 
ROOT
HETATM    1  C12 UNL     1      -5.232  47.344 -19.568  1.00  0.00     0.248 C 
HETATM    2  O3  UNL     1      -5.068  46.158 -19.859  1.00  0.00    -0.271 OA
HETATM    3  N3  UNL     1      -5.766  48.246 -20.491  1.00  0.00    -0.348 N 
HETATM    4  C13 UNL     1      -5.641  49.704 -20.405  1.00  0.00     0.145 C 
HETATM    5  C14 UNL     1      -4.533  50.223 -21.351  1.00  0.00     0.143 C 
HETATM    6  N4  UNL     1      -4.762  49.732 -22.736  1.00  0.00    -0.378 N 
HETATM    7  C24 UNL     1      -4.907  48.255 -22.814  1.00  0.00     0.143 C 
HETATM    8  C25 UNL     1      -6.020  47.778 -21.859  1.00  0.00     0.145 C 
ENDROOT
BRANCH   1   9
HETATM    9  C11 UNL     1      -4.906  47.917 -18.170  1.00  0.00     0.374 C 
BRANCH   9  10
HETATM   10  N2  UNL     1      -3.471  47.816 -17.827  1.00  0.00     0.098 N 
HETATM   11  C10 UNL     1      -3.183  48.266 -16.458  1.00  0.00     0.274 C 
HETATM   12  C9  UNL     1      -2.875  49.761 -16.540  1.00  0.00     0.046 C 
HETATM   13  C8  UNL     1      -2.727  50.066 -18.030  1.00  0.00     0.108 C 
HETATM   14  C26 UNL     1      -2.638  48.687 -18.673  1.00  0.00     0.287 C 
BRANCH  13  15
HETATM   15  C1  UNL     1      -1.539  50.956 -18.369  1.00  0.00     0.228 C 
HETATM   16  O1  UNL     1      -0.611  51.120 -17.586  1.00  0.00    -0.273 OA
HETATM   17  N1  UNL     1      -1.623  51.472 -19.654  1.00  0.00    -0.327 N 
HETATM   18  H1  UNL     1      -2.436  51.210 -20.197  1.00  0.00     0.169 HD
BRANCH  17  19
HETATM   19  C2  UNL     1      -0.671  52.272 -20.321  1.00  0.00     0.036 A 
HETATM   20  C3  UNL     1       0.080  53.155 -19.529  1.00  0.00     0.032 A 
HETATM   21  C4  UNL     1       1.039  53.991 -20.104  1.00  0.00     0.040 A 
HETATM   22  C5  UNL     1       1.258  53.940 -21.473  1.00  0.00     0.087 A 
HETATM   23  C6  UNL     1       0.520  53.067 -22.272  1.00  0.00     0.069 A 
HETATM   24 CL1  UNL     1       0.800  53.003 -23.972  1.00  0.00    -0.081 Cl
HETATM   25  C7  UNL     1      -0.440  52.230 -21.698  1.00  0.00     0.056 A 
BRANCH  22  26
HETATM   26  O2  UNL     1       2.212  54.773 -21.991  1.00  0.00    -0.359 OA
HETATM   27  H4  UNL     1       2.253  54.598 -22.950  1.00  0.00     0.217 HD
ENDBRANCH  22  26
ENDBRANCH  17  19
ENDBRANCH  13  15
ENDBRANCH   9  10
ENDBRANCH   1   9
BRANCH   6  28
HETATM   28  C15 UNL     1      -3.967  50.365 -23.703  1.00  0.00     0.030 A 
HETATM   29  C16 UNL     1      -3.443  49.617 -24.769  1.00  0.00     0.030 A 
HETATM   30  C17 UNL     1      -2.619  50.192 -25.750  1.00  0.00     0.016 A 
HETATM   31  C18 UNL     1      -2.283  51.549 -25.699  1.00  0.00    -0.002 A 
HETATM   32  C22 UNL     1      -2.791  52.300 -24.630  1.00  0.00     0.016 A 
HETATM   33  C23 UNL     1      -3.615  51.719 -23.653  1.00  0.00     0.030 A 
BRANCH  31  34
HETATM   34  C19 UNL     1      -1.405  52.209 -26.685  1.00  0.00     0.084 A 
HETATM   35  N5  UNL     1      -1.617  53.422 -27.166  1.00  0.00    -0.359 N 
HETATM   36  C20 UNL     1      -0.621  53.771 -28.057  1.00  0.00     0.096 A 
ATOM     37  H5  UNL     1      -2.405  54.018 -26.914  1.00  0.00     0.166 HD
HETATM   38  C21 UNL     1       0.344  52.813 -28.270  1.00  0.00     0.069 A 
HETATM   39  S1  UNL     1      -0.006  51.425 -27.331  1.00  0.00    -0.082 SA
ENDBRANCH  31  34
ENDBRANCH   6  28
TORSDOF 7
ENDMDL
