MODEL 1
REMARK minimizedAffinity -8.52532101
REMARK  6 active torsions:
REMARK  status: ('A' for Active; 'I' for Inactive)
REMARK    1  A    between atoms: O1_2  and  C2_3 
REMARK    2  A    between atoms: C2_3  and  C3_4 
REMARK    3  A    between atoms: C3_4  and  N1_5 
REMARK    4  A    between atoms: C3_4  and  C15_26 
REMARK       I    between atoms: N1_5  and  C4_6 
REMARK       I    between atoms: C4_6  and  N2_8 
REMARK    5  A    between atoms: N2_8  and  C5_9 
REMARK    6  A    between atoms: N5_16  and  C9_17 
ROOT
HETATM    1  C5  UNL     1      -3.278  48.713 -24.444  1.00  0.00     0.111 A 
HETATM    2  C6  UNL     1      -4.650  48.494 -24.421  1.00  0.00     0.080 A 
HETATM    3  C7  UNL     1      -5.238  48.288 -25.668  1.00  0.00     0.067 A 
HETATM    4  N3  UNL     1      -6.529  48.050 -26.045  1.00  0.00    -0.298 N 
HETATM    5  N4  UNL     1      -6.696  47.895 -27.367  1.00  0.00    -0.284 N 
ATOM      6  H4  UNL     1      -7.565  47.712 -27.869  1.00  0.00     0.188 HD
HETATM    7  C8  UNL     1      -5.472  48.035 -27.877  1.00  0.00     0.130 A 
HETATM    8  N5  UNL     1      -5.143  47.948 -29.184  1.00  0.00    -0.368 N 
HETATM    9  C13 UNL     1      -4.513  48.294 -26.853  1.00  0.00     0.052 A 
HETATM   10  C14 UNL     1      -3.139  48.523 -26.781  1.00  0.00     0.107 A 
HETATM   11  N6  UNL     1      -2.539  48.730 -25.579  1.00  0.00    -0.351 N 
ATOM     12  H6  UNL     1      -1.534  48.898 -25.532  1.00  0.00     0.166 HD
HETATM   13  H10 UNL     1      -7.345  47.980 -25.447  1.00  0.00     0.187 HD
HETATM   14  H11 UNL     1      -4.173  48.013 -29.471  1.00  0.00     0.161 HD
ENDROOT
BRANCH   1  15
HETATM   15  N2  UNL     1      -2.512  48.928 -23.297  1.00  0.00    -0.295 N 
HETATM   16  C4  UNL     1      -2.530  50.001 -22.448  1.00  0.00     0.322 C 
HETATM   17  N1  UNL     1      -1.643  49.819 -21.407  1.00  0.00    -0.332 N 
HETATM   18  O2  UNL     1      -3.212  51.009 -22.567  1.00  0.00    -0.247 OA
HETATM   19  H7  UNL     1      -1.549  48.858 -21.116  1.00  0.00     0.165 HD
HETATM   20  H8  UNL     1      -1.816  48.213 -23.160  1.00  0.00     0.172 HD
BRANCH  17  21
HETATM   21  C3  UNL     1      -1.572  50.789 -20.312  1.00  0.00     0.143 C 
BRANCH  21  22
HETATM   22  C2  UNL     1      -2.946  51.399 -19.940  1.00  0.00     0.197 C 
BRANCH  22  23
HETATM   23  O1  UNL     1      -2.977  51.715 -18.540  1.00  0.00    -0.394 OA
HETATM   24  C1  UNL     1      -2.881  50.546 -17.740  1.00  0.00     0.201 C 
ENDBRANCH  22  23
ENDBRANCH  21  22
BRANCH  21  25
HETATM   25  C15 UNL     1      -0.571  51.878 -20.684  1.00  0.00    -0.033 A 
HETATM   26  C16 UNL     1      -0.093  52.014 -21.999  1.00  0.00     0.009 A 
HETATM   27  C17 UNL     1       0.829  53.011 -22.321  1.00  0.00     0.001 A 
HETATM   28  C18 UNL     1       1.285  53.885 -21.336  1.00  0.00     0.000 A 
HETATM   29  C19 UNL     1       0.815  53.766 -20.029  1.00  0.00     0.001 A 
HETATM   30  C20 UNL     1      -0.107  52.769 -19.704  1.00  0.00     0.009 A 
ENDBRANCH  21  25
ENDBRANCH  17  21
ENDBRANCH   1  15
BRANCH   8  31
HETATM   31  C9  UNL     1      -6.064  47.624 -30.262  1.00  0.00     0.109 C 
HETATM   32  C10 UNL     1      -6.360  46.154 -30.435  1.00  0.00     0.053 C 
HETATM   33  C11 UNL     1      -6.980  46.125 -31.819  1.00  0.00     0.169 C 
HETATM   34  O3  UNL     1      -6.465  47.244 -32.560  1.00  0.00    -0.389 OA
HETATM   35  C12 UNL     1      -5.659  48.038 -31.668  1.00  0.00     0.192 C 
ENDBRANCH   8  31
TORSDOF 6
ENDMDL
