MODEL 1
REMARK minimizedAffinity -9.88607311
REMARK  3 active torsions:
REMARK  status: ('A' for Active; 'I' for Inactive)
REMARK    1  A    between atoms: C4_4  and  C5_5 
REMARK    2  A    between atoms: C8_11  and  N3_12 
REMARK       I    between atoms: N3_12  and  C9_13 
REMARK       I    between atoms: C9_13  and  N4_15 
REMARK    3  A    between atoms: N4_15  and  C10_16 
ROOT
HETATM    1  C5  UNL     1       0.153  52.716 -24.171  1.00  0.00     0.072 A 
HETATM    2  N1  UNL     1       1.012  53.313 -25.013  1.00  0.00    -0.299 N 
ATOM      3  H1  UNL     1       1.869  53.816 -24.780  1.00  0.00     0.187 HD
HETATM    4  N2  UNL     1       0.490  53.097 -26.231  1.00  0.00    -0.299 N 
HETATM    5  C6  UNL     1      -0.661  52.365 -26.222  1.00  0.00     0.065 A 
HETATM    6  C7  UNL     1      -1.486  51.923 -27.254  1.00  0.00     0.080 A 
HETATM    7  C8  UNL     1      -2.568  51.146 -26.858  1.00  0.00     0.111 A 
HETATM    8  N6  UNL     1      -2.839  50.846 -25.565  1.00  0.00    -0.351 N 
ATOM      9  H6  UNL     1      -3.654  50.279 -25.333  1.00  0.00     0.166 HD
HETATM   10  C19 UNL     1      -2.023  51.300 -24.577  1.00  0.00     0.105 A 
HETATM   11  C20 UNL     1      -0.908  52.082 -24.885  1.00  0.00     0.036 A 
HETATM   12  H5  UNL     1       0.981  53.465 -27.038  1.00  0.00     0.187 HD
ENDROOT
BRANCH   7  13
HETATM   13  N3  UNL     1      -3.498  50.617 -27.759  1.00  0.00    -0.295 N 
HETATM   14  C9  UNL     1      -3.927  49.321 -27.846  1.00  0.00     0.322 C 
HETATM   15  O1  UNL     1      -3.610  48.394 -27.107  1.00  0.00    -0.247 OA
HETATM   16  N4  UNL     1      -4.804  49.151 -28.906  1.00  0.00    -0.338 N 
HETATM   17  H8  UNL     1      -4.625  49.751 -29.702  1.00  0.00     0.164 HD
HETATM   18  H7  UNL     1      -4.024  51.331 -28.237  1.00  0.00     0.172 HD
BRANCH  16  19
HETATM   19  C10 UNL     1      -5.345  47.815 -29.176  1.00  0.00     0.090 C 
HETATM   20  C11 UNL     1      -6.823  47.731 -28.787  1.00  0.00     0.030 C 
HETATM   21  C12 UNL     1      -7.730  48.395 -29.821  1.00  0.00     0.041 C 
HETATM   22  C13 UNL     1      -7.523  47.766 -31.174  1.00  0.00    -0.049 A 
HETATM   23  C14 UNL     1      -8.576  47.691 -32.100  1.00  0.00     0.024 A 
HETATM   24  C17 UNL     1      -6.270  47.261 -31.534  1.00  0.00    -0.035 A 
HETATM   25  C15 UNL     1      -8.346  47.082 -33.325  1.00  0.00     0.088 A 
HETATM   26  N5  UNL     1      -7.154  46.570 -33.695  1.00  0.00    -0.375 N 
HETATM   27  C16 UNL     1      -6.145  46.677 -32.797  1.00  0.00     0.095 A 
ATOM     28  H5  UNL     1      -7.019  46.127 -34.604  1.00  0.00     0.164 HD
HETATM   29  C18 UNL     1      -5.063  47.364 -30.631  1.00  0.00     0.065 C 
ENDBRANCH  16  19
ENDBRANCH   7  13
BRANCH   1  30
HETATM   30  C4  UNL     1       0.386  52.746 -22.730  1.00  0.00    -0.004 A 
HETATM   31  C3  UNL     1      -0.109  51.741 -21.898  1.00  0.00     0.038 A 
HETATM   32  C2  UNL     1       0.156  51.813 -20.535  1.00  0.00     0.005 A 
HETATM   33  C1  UNL     1      -0.329  50.736 -19.606  1.00  0.00     0.068 C 
HETATM   34  N7  UNL     1       0.869  52.819 -19.979  1.00  0.00    -0.369 N 
HETATM   35  C22 UNL     1       1.324  53.786 -20.799  1.00  0.00     0.089 A 
ATOM     36  H7  UNL     1       1.057  52.844 -18.977  1.00  0.00     0.165 HD
HETATM   37  C21 UNL     1       1.108  53.797 -22.164  1.00  0.00     0.031 A 
ENDBRANCH   1  30
TORSDOF 3
ENDMDL
