MODEL 1
REMARK minimizedAffinity -9.18200874
REMARK  6 active torsions:
REMARK  status: ('A' for Active; 'I' for Inactive)
REMARK    1  A    between atoms: N1_2  and  C2_3 
REMARK    2  A    between atoms: C2_3  and  C3_4 
REMARK    3  A    between atoms: C3_4  and  N2_5 
REMARK    4  A    between atoms: C3_4  and  C18_28 
REMARK       I    between atoms: N2_5  and  C4_6 
REMARK       I    between atoms: C4_6  and  N3_8 
REMARK    5  A    between atoms: C9_15  and  N5_16 
REMARK    6  A    between atoms: N5_16  and  C10_17 
ROOT
HETATM    1  N2  UNL     1      -0.542  51.311 -24.956  1.00  0.00    -0.333 N 
HETATM    2  C4  UNL     1      -0.012  52.559 -24.755  1.00  0.00     0.319 C 
HETATM    3  O1  UNL     1       0.154  53.356 -25.674  1.00  0.00    -0.247 OA
HETATM    4  N3  UNL     1       0.318  52.842 -23.436  1.00  0.00    -0.328 N 
HETATM    5  C5  UNL     1       0.795  54.194 -23.149  1.00  0.00     0.132 C 
HETATM    6  C6  UNL     1       1.745  54.210 -21.953  1.00  0.00     0.062 C 
HETATM    7  C7  UNL     1       1.172  53.470 -20.788  1.00  0.00    -0.016 A 
HETATM    8  C8  UNL     1       1.598  53.669 -19.497  1.00  0.00     0.115 A 
HETATM    9  N4  UNL     1       1.118  52.991 -18.440  1.00  0.00    -0.201 N 
ATOM     10  H4  UNL     1       1.454  53.176 -17.495  1.00  0.00     0.183 HD
HETATM   11  C9  UNL     1       0.182  52.062 -18.674  1.00  0.00     0.682 A 
HETATM   12  N6  UNL     1      -0.285  51.786 -19.904  1.00  0.00    -0.193 N 
ATOM     13  H6  UNL     1      -0.998  51.070 -20.046  1.00  0.00     0.184 HD
HETATM   14  C16 UNL     1       0.216  52.484 -20.948  1.00  0.00     0.052 A 
HETATM   15  C17 UNL     1      -0.335  52.150 -22.317  1.00  0.00     0.185 C 
HETATM   16  H8  UNL     1      -0.064  50.599 -24.424  1.00  0.00     0.165 HD
ENDROOT
BRANCH   1  17
HETATM   17  C3  UNL     1      -0.932  50.884 -26.301  1.00  0.00     0.147 C 
BRANCH  17  18
HETATM   18  C2  UNL     1      -1.136  52.094 -27.268  1.00  0.00     0.298 C 
BRANCH  18  19
HETATM   19  N1  UNL     1      -0.355  51.973 -28.514  1.00  0.00     0.081 N 
HETATM   20  C1  UNL     1       1.029  51.620 -28.225  1.00  0.00     0.306 C 
HETATM   21  H4  UNL     1      -0.769  51.239 -29.091  1.00  0.00     0.315 HD
ENDBRANCH  18  19
ENDBRANCH  17  18
BRANCH  17  22
HETATM   22  C18 UNL     1      -2.179  50.011 -26.191  1.00  0.00    -0.032 A 
HETATM   23  C19 UNL     1      -2.635  49.591 -24.930  1.00  0.00     0.012 A 
HETATM   24  C20 UNL     1      -3.781  48.802 -24.816  1.00  0.00     0.044 A 
HETATM   25  C21 UNL     1      -4.480  48.429 -25.960  1.00  0.00     0.138 A 
HETATM   26  F2  UNL     1      -5.580  47.673 -25.824  1.00  0.00    -0.204 F 
HETATM   27  C22 UNL     1      -4.047  48.837 -27.218  1.00  0.00     0.073 A 
HETATM   28 CL1  UNL     1      -4.913  48.388 -28.636  1.00  0.00    -0.081 Cl
HETATM   29  C23 UNL     1      -2.902  49.627 -27.336  1.00  0.00     0.036 A 
ENDBRANCH  17  22
ENDBRANCH   1  17
BRANCH  11  30
HETATM   30  N5  UNL     1      -0.384  51.304 -17.653  1.00  0.00    -0.192 N 
HETATM   31  H14 UNL     1      -1.389  51.361 -17.728  1.00  0.00     0.184 HD
BRANCH  30  32
HETATM   32  C10 UNL     1       0.134  50.495 -16.637  1.00  0.00     0.049 A 
HETATM   33  C11 UNL     1       0.876  51.106 -15.609  1.00  0.00     0.033 A 
HETATM   34  C12 UNL     1       1.431  50.356 -14.568  1.00  0.00     0.044 A 
HETATM   35  C13 UNL     1       1.250  48.981 -14.549  1.00  0.00     0.116 A 
HETATM   36  F1  UNL     1       1.782  48.258 -13.555  1.00  0.00    -0.206 F 
HETATM   37  C14 UNL     1       0.526  48.349 -15.548  1.00  0.00     0.044 A 
HETATM   38  C15 UNL     1      -0.027  49.105 -16.587  1.00  0.00     0.033 A 
ENDBRANCH  30  32
ENDBRANCH  11  30
TORSDOF 6
ENDMDL
