MODEL 1
REMARK minimizedAffinity -10.2444925
REMARK CNNscore 0.721841514
REMARK CNNaffinity 7.7481842
REMARK  7 active torsions:
REMARK  status: ('A' for Active; 'I' for Inactive)
REMARK       I    between atoms: C1_2  and  N1_3 
REMARK    1  A    between atoms: C1_2  and  C15_21 
REMARK    2  A    between atoms: N1_3  and  C2_4 
REMARK    3  A    between atoms: C6_11  and  C7_12 
REMARK    4  A    between atoms: N4_24  and  C18_25 
REMARK    5  A    between atoms: C18_25  and  C19_26 
REMARK       I    between atoms: C19_26  and  N5_28 
REMARK    6  A    between atoms: N6_31  and  C22_32 
REMARK    7  A    between atoms: C25_35  and  C26_36 
ROOT
HETATM    1  C15 UNL     1       1.234  52.201 -15.818  1.00  0.00     0.108 C 
HETATM    2  C16 UNL     1       2.741  52.208 -15.550  1.00  0.00     0.046 C 
HETATM    3  C17 UNL     1       2.930  51.405 -14.267  1.00  0.00     0.274 C 
HETATM    4  N4  UNL     1       1.609  51.333 -13.624  1.00  0.00     0.098 N 
HETATM    5  C34 UNL     1       0.678  51.255 -14.761  1.00  0.00     0.287 C 
ENDROOT
BRANCH   4   6
HETATM    6  C18 UNL     1       1.379  52.505 -12.747  1.00  0.00     0.374 C 
BRANCH   6   7
HETATM    7  C19 UNL     1       1.696  52.233 -11.260  1.00  0.00     0.248 C 
HETATM    8  O2  UNL     1       1.833  51.098 -10.799  1.00  0.00    -0.271 OA
HETATM    9  N5  UNL     1       1.800  53.352 -10.437  1.00  0.00    -0.348 N 
HETATM   10  C20 UNL     1       2.050  53.136  -9.005  1.00  0.00     0.145 C 
HETATM   11  C33 UNL     1       1.733  54.755 -10.873  1.00  0.00     0.145 C 
HETATM   12  C21 UNL     1       1.844  54.409  -8.168  1.00  0.00     0.143 C 
HETATM   13  N6  UNL     1       2.680  55.521  -8.664  1.00  0.00    -0.378 N 
HETATM   14  C32 UNL     1       2.758  55.647 -10.141  1.00  0.00     0.143 C 
BRANCH  13  15
HETATM   15  C22 UNL     1       3.850  55.889  -7.990  1.00  0.00     0.030 A 
HETATM   16  C23 UNL     1       3.972  57.055  -7.226  1.00  0.00     0.030 A 
HETATM   17  C24 UNL     1       5.164  57.382  -6.560  1.00  0.00     0.017 A 
HETATM   18  C25 UNL     1       6.300  56.559  -6.624  1.00  0.00     0.008 A 
HETATM   19  C30 UNL     1       6.183  55.397  -7.399  1.00  0.00     0.017 A 
HETATM   20  C31 UNL     1       4.991  55.074  -8.066  1.00  0.00     0.030 A 
BRANCH  18  21
HETATM   21  C26 UNL     1       7.547  56.900  -5.911  1.00  0.00     0.115 A 
HETATM   22  N7  UNL     1       7.612  58.093  -5.283  1.00  0.00    -0.352 N 
HETATM   23  C27 UNL     1       8.765  58.380  -4.651  1.00  0.00     0.091 A 
ATOM     24  H7  UNL     1       6.827  58.744  -5.287  1.00  0.00     0.166 HD
HETATM   25  C28 UNL     1       9.844  57.532  -4.617  1.00  0.00     0.034 A 
HETATM   26  C29 UNL     1       9.682  56.342  -5.284  1.00  0.00     0.091 A 
HETATM   27  N8  UNL     1       8.555  56.002  -5.935  1.00  0.00    -0.352 N 
ATOM     28  H8  UNL     1       8.466  55.110  -6.423  1.00  0.00     0.166 HD
ENDBRANCH  18  21
ENDBRANCH  13  15
ENDBRANCH   6   7
ENDBRANCH   4   6
BRANCH   1  29
HETATM   29  C1  UNL     1       0.937  51.949 -17.296  1.00  0.00     0.228 C 
HETATM   30  O1  UNL     1       0.449  50.865 -17.613  1.00  0.00    -0.273 OA
HETATM   31  N1  UNL     1       1.246  52.963 -18.177  1.00  0.00    -0.327 N 
HETATM   32  H1  UNL     1       1.754  53.762 -17.825  1.00  0.00     0.169 HD
BRANCH  31  33
HETATM   33  C2  UNL     1       1.005  53.001 -19.571  1.00  0.00     0.035 A 
HETATM   34  C3  UNL     1       1.446  54.025 -20.412  1.00  0.00     0.032 A 
HETATM   35  C4  UNL     1       1.179  54.016 -21.789  1.00  0.00     0.034 A 
HETATM   36  C5  UNL     1       0.458  52.933 -22.294  1.00  0.00     0.060 A 
HETATM   37  N2  UNL     1       0.032  52.633 -23.557  1.00  0.00    -0.299 N 
HETATM   38  C13 UNL     1       0.014  51.883 -21.502  1.00  0.00     0.023 A 
HETATM   39  N3  UNL     1      -0.659  51.489 -23.651  1.00  0.00    -0.299 N 
HETATM   40  H4  UNL     1       0.172  53.179 -24.400  1.00  0.00     0.187 HD
HETATM   41  C6  UNL     1      -0.659  50.997 -22.401  1.00  0.00     0.070 A 
ATOM     42  H3  UNL     1      -1.088  51.083 -24.483  1.00  0.00     0.187 HD
HETATM   43  C14 UNL     1       0.287  51.922 -20.116  1.00  0.00     0.045 A 
BRANCH  41  44
HETATM   44  C7  UNL     1      -1.306  49.720 -22.100  1.00  0.00    -0.007 A 
HETATM   45  C8  UNL     1      -0.851  48.913 -21.047  1.00  0.00     0.017 A 
HETATM   46  C9  UNL     1      -1.484  47.699 -20.767  1.00  0.00     0.043 A 
HETATM   47  C10 UNL     1      -2.567  47.295 -21.537  1.00  0.00     0.116 A 
HETATM   48  F1  UNL     1      -3.174  46.134 -21.262  1.00  0.00    -0.206 F 
HETATM   49  C11 UNL     1      -3.025  48.074 -22.592  1.00  0.00     0.043 A 
HETATM   50  C12 UNL     1      -2.391  49.285 -22.876  1.00  0.00     0.017 A 
ENDBRANCH  41  44
ENDBRANCH  31  33
ENDBRANCH   1  29
TORSDOF 7
ENDMDL
