MODEL 1
REMARK minimizedAffinity -9.87379837
REMARK  6 active torsions:
REMARK  status: ('A' for Active; 'I' for Inactive)
REMARK    1  A    between atoms: O1_2  and  C2_3 
REMARK    2  A    between atoms: C7_9  and  C8_10 
REMARK    3  A    between atoms: C8_10  and  N1_11 
REMARK    4  A    between atoms: C12_15  and  N2_16 
REMARK       I    between atoms: N2_16  and  C13_17 
REMARK       I    between atoms: C13_17  and  N3_19 
REMARK    5  A    between atoms: N3_19  and  C14_20 
REMARK    6  A    between atoms: C17_26  and  C18_27 
ROOT
HETATM    1  N2  UNL     1      -1.197  50.643 -27.006  1.00  0.00    -0.337 N 
HETATM    2  C13 UNL     1      -2.521  50.380 -27.296  1.00  0.00     0.322 C 
HETATM    3  O2  UNL     1      -3.188  51.080 -28.049  1.00  0.00    -0.247 OA
HETATM    4  N3  UNL     1      -2.941  49.241 -26.660  1.00  0.00    -0.295 N 
HETATM    5  H16 UNL     1      -0.957  50.437 -26.044  1.00  0.00     0.164 HD
HETATM    6  H17 UNL     1      -2.237  48.647 -26.251  1.00  0.00     0.172 HD
ENDROOT
BRANCH   4   7
HETATM    7  C14 UNL     1      -4.205  48.651 -26.690  1.00  0.00     0.111 A 
HETATM    8  C15 UNL     1      -4.958  48.408 -25.547  1.00  0.00     0.080 A 
HETATM    9  C16 UNL     1      -6.200  47.815 -25.768  1.00  0.00     0.065 A 
HETATM   10  N4  UNL     1      -7.197  47.451 -24.910  1.00  0.00    -0.299 N 
HETATM   11  C24 UNL     1      -6.660  47.475 -27.033  1.00  0.00     0.036 A 
HETATM   12  N5  UNL     1      -8.262  46.900 -25.509  1.00  0.00    -0.299 N 
HETATM   13  H19 UNL     1      -7.203  47.534 -23.898  1.00  0.00     0.187 HD
HETATM   14  C17 UNL     1      -7.947  46.890 -26.816  1.00  0.00     0.072 A 
ATOM     15  H5  UNL     1      -9.120  46.564 -25.071  1.00  0.00     0.187 HD
HETATM   16  C25 UNL     1      -5.838  47.759 -28.126  1.00  0.00     0.105 A 
HETATM   17  N7  UNL     1      -4.620  48.333 -27.939  1.00  0.00    -0.351 N 
ATOM     18  H7  UNL     1      -4.018  48.523 -28.740  1.00  0.00     0.166 HD
BRANCH  14  19
HETATM   19  C18 UNL     1      -8.875  46.328 -27.796  1.00  0.00    -0.004 A 
HETATM   20  C19 UNL     1      -9.450  45.071 -27.613  1.00  0.00     0.031 A 
HETATM   21  C20 UNL     1     -10.335  44.609 -28.570  1.00  0.00     0.089 A 
HETATM   22  N6  UNL     1     -10.680  45.302 -29.676  1.00  0.00    -0.369 N 
HETATM   23  C21 UNL     1     -10.123  46.525 -29.842  1.00  0.00     0.005 A 
ATOM     24  H6  UNL     1     -11.333  44.920 -30.359  1.00  0.00     0.165 HD
HETATM   25  C22 UNL     1     -10.530  47.310 -31.052  1.00  0.00     0.068 C 
HETATM   26  C23 UNL     1      -9.228  47.070 -28.927  1.00  0.00     0.038 A 
ENDBRANCH  14  19
ENDBRANCH   4   7
BRANCH   1  27
HETATM   27  C12 UNL     1      -0.571  51.874 -27.498  1.00  0.00     0.114 C 
HETATM   28  C11 UNL     1       0.803  51.566 -28.108  1.00  0.00     0.029 C 
HETATM   29  C10 UNL     1       1.961  51.969 -27.197  1.00  0.00     0.032 C 
HETATM   30  C9  UNL     1       1.642  51.741 -25.721  1.00  0.00     0.273 C 
HETATM   31  N1  UNL     1       0.408  52.391 -25.251  1.00  0.00     0.094 N 
HETATM   32  C26 UNL     1      -0.443  52.900 -26.352  1.00  0.00     0.297 C 
BRANCH  31  33
HETATM   33  C8  UNL     1       0.708  53.441 -24.255  1.00  0.00     0.317 C 
BRANCH  33  34
HETATM   34  C7  UNL     1       0.541  53.008 -22.816  1.00  0.00     0.042 A 
HETATM   35  C2  UNL     1      -0.264  51.912 -22.449  1.00  0.00     0.079 A 
HETATM   36  C3  UNL     1      -0.381  51.563 -21.095  1.00  0.00     0.037 A 
HETATM   37  C4  UNL     1       0.289  52.294 -20.109  1.00  0.00     0.006 A 
HETATM   38  C5  UNL     1       1.083  53.377 -20.467  1.00  0.00     0.043 A 
HETATM   39  C6  UNL     1       1.206  53.720 -21.809  1.00  0.00     0.127 A 
HETATM   40  F1  UNL     1       1.976  54.772 -22.129  1.00  0.00    -0.205 F 
BRANCH  35  41
HETATM   41  O1  UNL     1      -0.878  51.240 -23.476  1.00  0.00    -0.355 OA
HETATM   42  C1  UNL     1      -2.169  50.700 -23.228  1.00  0.00     0.210 C 
ENDBRANCH  35  41
ENDBRANCH  33  34
ENDBRANCH  31  33
ENDBRANCH   1  27
TORSDOF 6
ENDMDL
