MODEL 1
REMARK minimizedAffinity -9.0685997
REMARK  4 active torsions:
REMARK  status: ('A' for Active; 'I' for Inactive)
REMARK    1  A    between atoms: C4_5  and  C5_6 
REMARK    2  A    between atoms: C5_6  and  N2_7 
REMARK       I    between atoms: N2_7  and  C6_8 
REMARK       I    between atoms: C6_8  and  N3_10 
REMARK    3  A    between atoms: N3_10  and  C7_11 
REMARK    4  A    between atoms: C10_17  and  C11_18 
ROOT
HETATM    1  C7  UNL     1      -2.326  51.130 -26.737  1.00  0.00     0.111 A 
HETATM    2  C8  UNL     1      -1.305  51.986 -27.132  1.00  0.00     0.080 A 
HETATM    3  C9  UNL     1      -0.510  52.480 -26.097  1.00  0.00     0.065 A 
HETATM    4  N4  UNL     1       0.571  53.312 -26.099  1.00  0.00    -0.299 N 
HETATM    5  N5  UNL     1       1.082  53.551 -24.881  1.00  0.00    -0.299 N 
ATOM      6  H5  UNL     1       1.893  54.123 -24.645  1.00  0.00     0.187 HD
HETATM    7  C10 UNL     1       0.285  52.867 -24.042  1.00  0.00     0.072 A 
HETATM    8  C17 UNL     1      -0.724  52.158 -24.764  1.00  0.00     0.036 A 
HETATM    9  C18 UNL     1      -1.769  51.284 -24.460  1.00  0.00     0.105 A 
HETATM   10  N6  UNL     1      -2.559  50.788 -25.448  1.00  0.00    -0.351 N 
ATOM     11  H6  UNL     1      -3.329  50.160 -25.219  1.00  0.00     0.166 HD
HETATM   12  H14 UNL     1       1.017  53.745 -26.900  1.00  0.00     0.187 HD
ENDROOT
BRANCH   1  13
HETATM   13  N3  UNL     1      -3.225  50.543 -27.627  1.00  0.00    -0.295 N 
HETATM   14  C6  UNL     1      -3.811  49.308 -27.554  1.00  0.00     0.321 C 
HETATM   15  N2  UNL     1      -4.616  49.079 -28.655  1.00  0.00    -0.342 N 
HETATM   16  O1  UNL     1      -3.679  48.491 -26.653  1.00  0.00    -0.247 OA
HETATM   17  H11 UNL     1      -4.294  49.533 -29.498  1.00  0.00     0.164 HD
HETATM   18  H12 UNL     1      -3.554  51.190 -28.326  1.00  0.00     0.172 HD
BRANCH  15  19
HETATM   19  C5  UNL     1      -5.273  47.793 -28.807  1.00  0.00     0.130 C 
BRANCH  19  20
HETATM   20  C4  UNL     1      -5.526  47.392 -30.259  1.00  0.00     0.033 C 
HETATM   21  C3  UNL     1      -6.511  46.235 -30.442  1.00  0.00     0.038 C 
HETATM   22  C2  UNL     1      -7.551  46.752 -31.428  1.00  0.00     0.272 C 
HETATM   23  N1  UNL     1      -6.923  47.874 -32.142  1.00  0.00     0.084 N 
HETATM   24  C1  UNL     1      -6.139  47.408 -33.286  1.00  0.00     0.309 C 
HETATM   25  C19 UNL     1      -6.077  48.523 -31.129  1.00  0.00     0.278 C 
ENDBRANCH  19  20
ENDBRANCH  15  19
ENDBRANCH   1  13
BRANCH   7  26
HETATM   26  C11 UNL     1       0.516  52.902 -22.598  1.00  0.00    -0.007 A 
HETATM   27  C12 UNL     1       0.063  51.846 -21.790  1.00  0.00     0.017 A 
HETATM   28  C13 UNL     1       0.273  51.868 -20.410  1.00  0.00     0.043 A 
HETATM   29  C14 UNL     1       0.943  52.942 -19.837  1.00  0.00     0.116 A 
HETATM   30  F1  UNL     1       1.147  52.964 -18.515  1.00  0.00    -0.206 F 
HETATM   31  C15 UNL     1       1.413  53.991 -20.620  1.00  0.00     0.043 A 
HETATM   32  C16 UNL     1       1.203  53.971 -22.001  1.00  0.00     0.017 A 
ENDBRANCH   7  26
TORSDOF 4
ENDMDL
