MODEL 1
REMARK minimizedAffinity -10.2528534
REMARK  5 active torsions:
REMARK  status: ('A' for Active; 'I' for Inactive)
REMARK    1  A    between atoms: C2_2  and  N1_3 
REMARK    2  A    between atoms: C2_2  and  C18_30 
REMARK       I    between atoms: N1_3  and  C3_4 
REMARK       I    between atoms: C3_4  and  N2_6 
REMARK    3  A    between atoms: N2_6  and  C4_7 
REMARK    4  A    between atoms: C7_13  and  C8_14 
REMARK    5  A    between atoms: C11_17  and  N5_18 
ROOT
HETATM    1  C4  UNL     1       0.799  52.108 -16.679  1.00  0.00     0.111 A 
HETATM    2  C5  UNL     1       0.221  50.889 -17.006  1.00  0.00     0.080 A 
HETATM    3  C6  UNL     1      -0.080  50.717 -18.356  1.00  0.00     0.065 A 
HETATM    4  N3  UNL     1      -0.636  49.674 -19.039  1.00  0.00    -0.299 N 
HETATM    5  N4  UNL     1      -0.750  49.881 -20.359  1.00  0.00    -0.299 N 
ATOM      6  H4  UNL     1      -1.110  49.237 -21.063  1.00  0.00     0.187 HD
HETATM    7  C7  UNL     1      -0.283  51.128 -20.546  1.00  0.00     0.072 A 
HETATM    8  C16 UNL     1       0.173  51.690 -19.314  1.00  0.00     0.036 A 
HETATM    9  C17 UNL     1       0.775  52.878 -18.898  1.00  0.00     0.105 A 
HETATM   10  N8  UNL     1       1.076  53.073 -17.586  1.00  0.00    -0.351 N 
ATOM     11  H8  UNL     1       1.510  53.945 -17.287  1.00  0.00     0.166 HD
HETATM   12  H8  UNL     1      -0.952  48.787 -18.662  1.00  0.00     0.187 HD
ENDROOT
BRANCH   1  13
HETATM   13  N2  UNL     1       1.171  52.462 -15.381  1.00  0.00    -0.295 N 
HETATM   14  C3  UNL     1       0.669  51.998 -14.195  1.00  0.00     0.322 C 
HETATM   15  N1  UNL     1       1.326  52.569 -13.124  1.00  0.00    -0.335 N 
HETATM   16  O1  UNL     1      -0.242  51.193 -14.057  1.00  0.00    -0.247 OA
HETATM   17  H5  UNL     1       2.296  52.789 -13.299  1.00  0.00     0.165 HD
HETATM   18  H6  UNL     1       1.805  53.245 -15.361  1.00  0.00     0.172 HD
BRANCH  15  19
HETATM   19  C2  UNL     1       1.005  52.177 -11.760  1.00  0.00     0.115 C 
HETATM   20  C1  UNL     1       0.930  50.654 -11.606  1.00  0.00     0.037 C 
BRANCH  19  21
HETATM   21  C18 UNL     1      -0.296  52.838 -11.332  1.00  0.00    -0.036 A 
HETATM   22  C19 UNL     1      -0.330  54.178 -10.903  1.00  0.00     0.012 A 
HETATM   23  C20 UNL     1      -1.531  54.766 -10.503  1.00  0.00     0.043 A 
HETATM   24  C21 UNL     1      -2.701  54.017 -10.525  1.00  0.00     0.116 A 
HETATM   25  F1  UNL     1      -3.853  54.581 -10.139  1.00  0.00    -0.206 F 
HETATM   26  C22 UNL     1      -2.693  52.690 -10.939  1.00  0.00     0.043 A 
HETATM   27  C23 UNL     1      -1.493  52.100 -11.340  1.00  0.00     0.012 A 
ENDBRANCH  19  21
ENDBRANCH  15  19
ENDBRANCH   1  13
BRANCH   7  28
HETATM   28  C8  UNL     1      -0.271  51.727 -21.881  1.00  0.00    -0.007 A 
HETATM   29  C9  UNL     1       0.703  52.663 -22.247  1.00  0.00     0.016 A 
HETATM   30  C10 UNL     1       0.703  53.225 -23.529  1.00  0.00     0.032 A 
HETATM   31  C11 UNL     1      -0.279  52.863 -24.463  1.00  0.00     0.054 A 
HETATM   32  C14 UNL     1      -1.264  51.937 -24.098  1.00  0.00     0.032 A 
HETATM   33  C15 UNL     1      -1.258  51.379 -22.815  1.00  0.00     0.016 A 
BRANCH  31  34
HETATM   34  N5  UNL     1      -0.262  53.444 -25.757  1.00  0.00    -0.250 N 
HETATM   35  C12 UNL     1      -0.549  52.863 -26.971  1.00  0.00     0.132 A 
HETATM   36  C13 UNL     1      -0.376  53.868 -27.891  1.00  0.00     0.123 A 
HETATM   37  N6  UNL     1       0.002  55.008 -27.253  1.00  0.00    -0.294 N 
HETATM   38  N7  UNL     1       0.070  54.745 -25.954  1.00  0.00    -0.016 NA
ATOM     39  H6  UNL     1       0.200  55.906 -27.694  1.00  0.00     0.183 HD
ENDBRANCH  31  34
ENDBRANCH   7  28
TORSDOF 5
ENDMDL
