MODEL 1
REMARK minimizedAffinity -8.79038334
REMARK CNNscore 0.555466115
REMARK CNNaffinity 6.94949341
REMARK  8 active torsions:
REMARK  status: ('A' for Active; 'I' for Inactive)
REMARK       I    between atoms: C1_2  and  N1_3 
REMARK    1  A    between atoms: C1_2  and  C11_14 
REMARK    2  A    between atoms: N1_3  and  C2_4 
REMARK    3  A    between atoms: C5_7  and  O2_8 
REMARK    4  A    between atoms: C6_9  and  C7_10 
REMARK    5  A    between atoms: N2_17  and  C14_18 
REMARK    6  A    between atoms: C14_18  and  C15_19 
REMARK       I    between atoms: C15_19  and  N3_21 
REMARK    7  A    between atoms: N4_24  and  C18_25 
REMARK    8  A    between atoms: C21_28  and  C22_29 
ROOT
HETATM    1  C15 UNL     1      -5.189  47.952 -28.589  1.00  0.00     0.248 C 
HETATM    2  O3  UNL     1      -4.562  48.068 -29.646  1.00  0.00    -0.271 OA
HETATM    3  N3  UNL     1      -6.545  47.634 -28.561  1.00  0.00    -0.348 N 
HETATM    4  C16 UNL     1      -7.404  47.861 -27.389  1.00  0.00     0.140 C 
HETATM    5  C17 UNL     1      -8.642  46.944 -27.367  1.00  0.00     0.115 C 
HETATM    6  N4  UNL     1      -9.363  46.973 -28.665  1.00  0.00    -0.280 NA
HETATM    7  C28 UNL     1      -8.475  46.661 -29.808  1.00  0.00     0.115 C 
HETATM    8  C29 UNL     1      -7.266  47.610 -29.837  1.00  0.00     0.140 C 
ENDROOT
BRANCH   1   9
HETATM    9  C14 UNL     1      -4.454  48.118 -27.249  1.00  0.00     0.374 C 
BRANCH   9  10
HETATM   10  N2  UNL     1      -4.278  49.548 -26.910  1.00  0.00     0.098 N 
HETATM   11  C13 UNL     1      -3.079  50.127 -27.538  1.00  0.00     0.274 C 
HETATM   12  C12 UNL     1      -1.908  49.779 -26.623  1.00  0.00     0.046 C 
HETATM   13  C11 UNL     1      -2.541  49.448 -25.269  1.00  0.00     0.108 C 
HETATM   14  C30 UNL     1      -4.027  49.736 -25.469  1.00  0.00     0.287 C 
BRANCH  13  15
HETATM   15  C1  UNL     1      -1.933  50.236 -24.116  1.00  0.00     0.228 C 
HETATM   16  O1  UNL     1      -2.168  49.957 -22.948  1.00  0.00    -0.273 OA
HETATM   17  N1  UNL     1      -1.097  51.247 -24.567  1.00  0.00    -0.327 N 
HETATM   18  H1  UNL     1      -0.983  51.330 -25.570  1.00  0.00     0.169 HD
BRANCH  17  19
HETATM   19  C2  UNL     1      -0.339  52.148 -23.788  1.00  0.00     0.035 A 
HETATM   20  C3  UNL     1       0.254  53.224 -24.458  1.00  0.00     0.032 A 
HETATM   21  C4  UNL     1       1.044  54.144 -23.766  1.00  0.00     0.039 A 
HETATM   22  C5  UNL     1       1.235  53.992 -22.393  1.00  0.00     0.072 A 
HETATM   23  C6  UNL     1       0.636  52.944 -21.674  1.00  0.00    -0.019 A 
HETATM   24  C10 UNL     1      -0.143  52.023 -22.409  1.00  0.00     0.039 A 
BRANCH  22  25
HETATM   25  O2  UNL     1       2.029  54.879 -21.719  1.00  0.00    -0.360 OA
HETATM   26  H4  UNL     1       2.406  55.513 -22.350  1.00  0.00     0.217 HD
ENDBRANCH  22  25
BRANCH  23  27
HETATM   27  C7  UNL     1       0.843  52.757 -20.186  1.00  0.00     0.021 A 
HETATM   28  C8  UNL     1      -0.294  52.270 -19.313  1.00  0.00     0.010 A 
HETATM   29  C9  UNL     1       0.180  53.688 -19.197  1.00  0.00     0.010 A 
ENDBRANCH  23  27
ENDBRANCH  17  19
ENDBRANCH  13  15
ENDBRANCH   9  10
ENDBRANCH   1   9
BRANCH   6  30
HETATM   30  C18 UNL     1     -10.608  46.318 -28.610  1.00  0.00     0.010 A 
HETATM   31  C19 UNL     1     -10.663  44.971 -28.220  1.00  0.00     0.024 A 
HETATM   32  C20 UNL     1     -11.874  44.266 -28.162  1.00  0.00     0.017 A 
HETATM   33  C21 UNL     1     -13.096  44.877 -28.485  1.00  0.00     0.008 A 
HETATM   34  C26 UNL     1     -13.041  46.231 -28.853  1.00  0.00     0.017 A 
HETATM   35  C27 UNL     1     -11.826  46.936 -28.906  1.00  0.00     0.024 A 
BRANCH  33  36
HETATM   36  C22 UNL     1     -14.373  44.134 -28.442  1.00  0.00     0.115 A 
HETATM   37  N5  UNL     1     -15.515  44.829 -28.620  1.00  0.00    -0.352 N 
HETATM   38  C23 UNL     1     -16.663  44.128 -28.565  1.00  0.00     0.091 A 
ATOM     39  H5  UNL     1     -15.509  45.835 -28.786  1.00  0.00     0.166 HD
HETATM   40  C24 UNL     1     -16.717  42.776 -28.341  1.00  0.00     0.034 A 
HETATM   41  C25 UNL     1     -15.503  42.156 -28.173  1.00  0.00     0.091 A 
HETATM   42  N6  UNL     1     -14.325  42.805 -28.217  1.00  0.00    -0.352 N 
ATOM     43  H6  UNL     1     -13.439  42.316 -28.085  1.00  0.00     0.166 HD
ENDBRANCH  33  36
ENDBRANCH   6  30
TORSDOF 8
ENDMDL
