MODEL 1
REMARK minimizedAffinity -9.24265671
REMARK  8 active torsions:
REMARK  status: ('A' for Active; 'I' for Inactive)
REMARK    1  A    between atoms: C2_2  and  C3_3 
REMARK       I    between atoms: C3_3  and  N1_5 
REMARK    2  A    between atoms: N1_5  and  C4_6 
REMARK    3  A    between atoms: C10_12  and  N2_13 
REMARK    4  A    between atoms: N2_13  and  C11_14 
REMARK    5  A    between atoms: C12_17  and  N4_18 
REMARK    6  A    between atoms: N4_18  and  C13_19 
REMARK    7  A    between atoms: C15_21  and  O2_22 
REMARK    8  A    between atoms: C21_32  and  C22_33 
ROOT
HETATM    1  C11 UNL     1      -3.062  51.209 -22.906  1.00  0.00     0.138 A 
HETATM    2  N3  UNL     1      -2.059  51.131 -22.010  1.00  0.00    -0.176 N 
ATOM      3  H3  UNL     1      -1.120  51.434 -22.268  1.00  0.00     0.186 HD
HETATM    4  C12 UNL     1      -2.294  50.657 -20.784  1.00  0.00     0.684 A 
HETATM    5  N6  UNL     1      -3.505  50.245 -20.392  1.00  0.00    -0.201 N 
ATOM      6  H6  UNL     1      -3.669  49.896 -19.448  1.00  0.00     0.183 HD
HETATM    7  C20 UNL     1      -4.497  50.312 -21.298  1.00  0.00     0.126 A 
HETATM    8  C21 UNL     1      -4.334  50.788 -22.580  1.00  0.00     0.108 A 
ENDROOT
BRANCH   1   9
HETATM    9  N2  UNL     1      -2.771  51.686 -24.199  1.00  0.00    -0.339 N 
HETATM   10  H11 UNL     1      -3.392  52.409 -24.543  1.00  0.00     0.167 HD
BRANCH   9  11
HETATM   11  C10 UNL     1      -1.515  51.656 -24.857  1.00  0.00     0.060 A 
HETATM   12  C4  UNL     1      -1.168  50.605 -25.738  1.00  0.00     0.062 A 
HETATM   13  C5  UNL     1       0.104  50.597 -26.327  1.00  0.00     0.038 A 
HETATM   14  C6  UNL     1       1.024  51.628 -26.088  1.00  0.00    -0.060 A 
HETATM   15  C7  UNL     1       2.356  51.630 -26.780  1.00  0.00     0.048 C 
HETATM   16  C8  UNL     1       0.654  52.694 -25.271  1.00  0.00     0.009 A 
HETATM   17  C9  UNL     1      -0.601  52.705 -24.662  1.00  0.00     0.032 A 
BRANCH  12  18
HETATM   18  N1  UNL     1      -2.153  49.637 -26.063  1.00  0.00    -0.322 N 
HETATM   19  C3  UNL     1      -2.972  49.621 -27.167  1.00  0.00     0.244 C 
HETATM   20  O1  UNL     1      -2.881  50.321 -28.170  1.00  0.00    -0.268 OA
HETATM   21  H4  UNL     1      -2.289  48.906 -25.383  1.00  0.00     0.169 HD
BRANCH  19  22
HETATM   22  C2  UNL     1      -4.018  48.559 -27.138  1.00  0.00     0.064 C 
HETATM   23  C1  UNL     1      -4.835  48.241 -28.149  1.00  0.00     0.017 C 
ENDBRANCH  19  22
ENDBRANCH  12  18
ENDBRANCH   9  11
ENDBRANCH   1   9
BRANCH   8  24
HETATM   24  C22 UNL     1      -5.461  50.814 -23.539  1.00  0.00     0.422 C 
HETATM   25  F1  UNL     1      -5.575  51.996 -24.207  1.00  0.00    -0.166 F 
HETATM   26  F2  UNL     1      -6.668  50.603 -22.950  1.00  0.00    -0.166 F 
HETATM   27  F3  UNL     1      -5.343  49.857 -24.507  1.00  0.00    -0.166 F 
ENDBRANCH   8  24
BRANCH   4  28
HETATM   28  N4  UNL     1      -1.290  50.551 -19.826  1.00  0.00    -0.191 N 
HETATM   29  H12 UNL     1      -1.353  49.641 -19.398  1.00  0.00     0.184 HD
BRANCH  28  30
HETATM   30  C13 UNL     1      -0.341  51.447 -19.309  1.00  0.00     0.060 A 
HETATM   31  C14 UNL     1       0.184  52.506 -20.056  1.00  0.00     0.086 A 
HETATM   32  C15 UNL     1       1.138  53.339 -19.492  1.00  0.00     0.143 A 
HETATM   33  N5  UNL     1       1.613  53.198 -18.240  1.00  0.00    -0.346 N 
HETATM   34  C17 UNL     1       1.113  52.169 -17.531  1.00  0.00     0.099 A 
ATOM     35  H5  UNL     1       2.312  53.832 -17.853  1.00  0.00     0.167 HD
HETATM   36  C18 UNL     1       0.150  51.273 -18.000  1.00  0.00    -0.019 A 
HETATM   37  C19 UNL     1      -0.303  50.155 -17.104  1.00  0.00     0.052 C 
BRANCH  32  38
HETATM   38  O2  UNL     1       1.612  54.357 -20.296  1.00  0.00    -0.341 OA
HETATM   39  C16 UNL     1       1.514  54.067 -21.686  1.00  0.00     0.211 C 
ENDBRANCH  32  38
ENDBRANCH  28  30
ENDBRANCH   4  28
TORSDOF 8
ENDMDL
