MODEL 1
REMARK minimizedAffinity -9.24864578
REMARK CNNscore 0.630165815
REMARK CNNaffinity 7.84750509
REMARK  8 active torsions:
REMARK  status: ('A' for Active; 'I' for Inactive)
REMARK    1  A    between atoms: C2_2  and  C3_3 
REMARK       I    between atoms: C3_3  and  N1_5 
REMARK    2  A    between atoms: N1_5  and  C4_6 
REMARK    3  A    between atoms: C10_12  and  N2_13 
REMARK    4  A    between atoms: N2_13  and  C11_14 
REMARK    5  A    between atoms: C12_17  and  N4_18 
REMARK    6  A    between atoms: N4_18  and  C13_19 
REMARK    7  A    between atoms: C15_21  and  O2_22 
REMARK    8  A    between atoms: C21_32  and  C22_33 
ROOT
HETATM    1  C11 UNL     1      -3.083  51.229 -22.871  1.00  0.00     0.138 A 
HETATM    2  N3  UNL     1      -2.100  51.156 -21.953  1.00  0.00    -0.176 N 
ATOM      3  H3  UNL     1      -1.160  51.475 -22.186  1.00  0.00     0.186 HD
HETATM    4  C12 UNL     1      -2.356  50.664 -20.739  1.00  0.00     0.684 A 
HETATM    5  N6  UNL     1      -3.569  50.230 -20.379  1.00  0.00    -0.201 N 
ATOM      6  H6  UNL     1      -3.750  49.868 -19.443  1.00  0.00     0.183 HD
HETATM    7  C20 UNL     1      -4.541  50.293 -21.307  1.00  0.00     0.126 A 
HETATM    8  C21 UNL     1      -4.355  50.786 -22.579  1.00  0.00     0.108 A 
ENDROOT
BRANCH   1   9
HETATM    9  N2  UNL     1      -2.769  51.726 -24.151  1.00  0.00    -0.339 N 
HETATM   10  H11 UNL     1      -3.370  52.471 -24.486  1.00  0.00     0.167 HD
BRANCH   9  11
HETATM   11  C10 UNL     1      -1.509  51.678 -24.800  1.00  0.00     0.060 A 
HETATM   12  C4  UNL     1      -1.181  50.638 -25.702  1.00  0.00     0.062 A 
HETATM   13  C5  UNL     1       0.095  50.611 -26.280  1.00  0.00     0.038 A 
HETATM   14  C6  UNL     1       1.039  51.613 -26.011  1.00  0.00    -0.060 A 
HETATM   15  C7  UNL     1       2.377  51.597 -26.692  1.00  0.00     0.048 C 
HETATM   16  C8  UNL     1       0.689  52.670 -25.173  1.00  0.00     0.009 A 
HETATM   17  C9  UNL     1      -0.570  52.699 -24.575  1.00  0.00     0.032 A 
BRANCH  12  18
HETATM   18  N1  UNL     1      -2.187  49.703 -26.056  1.00  0.00    -0.322 N 
HETATM   19  C3  UNL     1      -2.976  49.715 -27.182  1.00  0.00     0.244 C 
HETATM   20  O1  UNL     1      -2.835  50.413 -28.181  1.00  0.00    -0.268 OA
HETATM   21  H4  UNL     1      -2.366  48.976 -25.381  1.00  0.00     0.169 HD
BRANCH  19  22
HETATM   22  C2  UNL     1      -4.055  48.687 -27.184  1.00  0.00     0.064 C 
HETATM   23  C1  UNL     1      -4.730  48.266 -28.261  1.00  0.00     0.017 C 
ENDBRANCH  19  22
ENDBRANCH  12  18
ENDBRANCH   9  11
ENDBRANCH   1   9
BRANCH   8  24
HETATM   24  C22 UNL     1      -5.461  50.807 -23.564  1.00  0.00     0.422 C 
HETATM   25  F1  UNL     1      -6.686  50.609 -23.004  1.00  0.00    -0.166 F 
HETATM   26  F2  UNL     1      -5.335  49.857 -24.528  1.00  0.00    -0.166 F 
HETATM   27  F3  UNL     1      -5.548  52.001 -24.223  1.00  0.00    -0.166 F 
ENDBRANCH   8  24
BRANCH   4  28
HETATM   28  N4  UNL     1      -1.372  50.562 -19.759  1.00  0.00    -0.191 N 
HETATM   29  H12 UNL     1      -1.474  49.672 -19.296  1.00  0.00     0.184 HD
BRANCH  28  30
HETATM   30  C13 UNL     1      -0.402  51.444 -19.259  1.00  0.00     0.060 A 
HETATM   31  C14 UNL     1       0.107  52.510 -20.008  1.00  0.00     0.086 A 
HETATM   32  C15 UNL     1       1.084  53.329 -19.462  1.00  0.00     0.143 A 
HETATM   33  N5  UNL     1       1.597  53.168 -18.228  1.00  0.00    -0.346 N 
HETATM   34  C17 UNL     1       1.111  52.133 -17.518  1.00  0.00     0.099 A 
ATOM     35  H5  UNL     1       2.311  53.793 -17.854  1.00  0.00     0.167 HD
HETATM   36  C18 UNL     1       0.128  51.250 -17.968  1.00  0.00    -0.019 A 
HETATM   37  C19 UNL     1      -0.305  50.123 -17.074  1.00  0.00     0.052 C 
BRANCH  32  38
HETATM   38  O2  UNL     1       1.540  54.355 -20.268  1.00  0.00    -0.341 OA
HETATM   39  C16 UNL     1       1.522  54.031 -21.654  1.00  0.00     0.211 C 
ENDBRANCH  32  38
ENDBRANCH  28  30
ENDBRANCH   4  28
TORSDOF 8
ENDMDL
