MODEL 1
REMARK minimizedAffinity -9.19323826
REMARK  5 active torsions:
REMARK  status: ('A' for Active; 'I' for Inactive)
REMARK    1  A    between atoms: C3_5  and  C4_6 
REMARK    2  A    between atoms: C7_9  and  C8_10 
REMARK       I    between atoms: C8_10  and  N2_12 
REMARK    3  A    between atoms: N2_12  and  N3_13 
REMARK       I    between atoms: N3_13  and  C9_14 
REMARK    4  A    between atoms: C9_14  and  C10_16 
REMARK    5  A    between atoms: C10_16  and  C11_18 
ROOT
HETATM    1  C8  UNL     1      -3.069  49.199 -24.895  1.00  0.00     0.270 C 
HETATM    2  O1  UNL     1      -2.775  48.545 -23.898  1.00  0.00    -0.266 OA
HETATM    3  N2  UNL     1      -2.470  50.413 -25.188  1.00  0.00    -0.263 N 
HETATM    4  H6  UNL     1      -2.460  50.772 -26.141  1.00  0.00     0.190 HD
ENDROOT
BRANCH   3   5
HETATM    5  N3  UNL     1      -1.352  50.762 -24.406  1.00  0.00    -0.260 N 
HETATM    6  C9  UNL     1      -1.081  52.110 -24.251  1.00  0.00     0.311 C 
HETATM    7  O2  UNL     1      -1.867  53.013 -24.504  1.00  0.00    -0.262 OA
HETATM    8  H7  UNL     1      -0.595  50.078 -24.380  1.00  0.00     0.190 HD
BRANCH   6   9
HETATM    9  C10 UNL     1       0.326  52.396 -23.739  1.00  0.00     0.253 C 
HETATM   10  O3  UNL     1       1.233  52.324 -24.568  1.00  0.00    -0.281 OA
BRANCH   9  11
HETATM   11  C11 UNL     1       0.562  52.783 -22.352  1.00  0.00     0.048 A 
HETATM   12  C12 UNL     1       1.132  53.993 -21.992  1.00  0.00     0.105 A 
HETATM   13  N4  UNL     1       1.208  54.058 -20.631  1.00  0.00    -0.364 N 
HETATM   14  C13 UNL     1       0.680  52.917 -20.075  1.00  0.00     0.043 A 
HETATM   15  H9  UNL     1       1.584  54.833 -20.102  1.00  0.00     0.165 HD
HETATM   16  C14 UNL     1       0.542  52.566 -18.726  1.00  0.00     0.030 A 
HETATM   17  C18 UNL     1       0.266  52.092 -21.126  1.00  0.00     0.006 A 
HETATM   18  C15 UNL     1      -0.043  51.334 -18.431  1.00  0.00     0.002 A 
HETATM   19  C16 UNL     1      -0.471  50.488 -19.447  1.00  0.00     0.001 A 
HETATM   20  C17 UNL     1      -0.325  50.853 -20.791  1.00  0.00     0.015 A 
ENDBRANCH   9  11
ENDBRANCH   6   9
ENDBRANCH   3   5
BRANCH   1  21
HETATM   21  C7  UNL     1      -4.068  48.694 -25.876  1.00  0.00     0.033 A 
HETATM   22  C6  UNL     1      -5.339  48.251 -25.492  1.00  0.00     0.018 A 
HETATM   23  C5  UNL     1      -6.241  47.788 -26.458  1.00  0.00     0.016 A 
HETATM   24  C4  UNL     1      -5.889  47.751 -27.815  1.00  0.00     0.010 A 
HETATM   25  C20 UNL     1      -4.608  48.183 -28.189  1.00  0.00     0.016 A 
HETATM   26  C19 UNL     1      -3.703  48.646 -27.227  1.00  0.00     0.018 A 
BRANCH  24  27
HETATM   27  C3  UNL     1      -6.844  47.271 -28.809  1.00  0.00     0.137 A 
HETATM   28  N1  UNL     1      -7.745  48.110 -29.431  1.00  0.00    -0.323 N 
HETATM   29  C2  UNL     1      -8.388  47.295 -30.231  1.00  0.00     0.144 A 
ATOM     30  H1  UNL     1      -7.877  49.113 -29.300  1.00  0.00     0.169 HD
HETATM   31  C1  UNL     1      -9.482  47.571 -31.178  1.00  0.00     0.100 C 
HETATM   32  O4  UNL     1      -7.953  46.007 -30.156  1.00  0.00    -0.223 OA
HETATM   33  N5  UNL     1      -6.931  45.991 -29.212  1.00  0.00    -0.242 N 
ATOM     34  H5  UNL     1      -6.377  45.194 -28.899  1.00  0.00     0.196 HD
ENDBRANCH  24  27
ENDBRANCH   1  21
TORSDOF 5
ENDMDL
