MODEL 1
REMARK minimizedAffinity -9.03357792
REMARK  6 active torsions:
REMARK  status: ('A' for Active; 'I' for Inactive)
REMARK    1  A    between atoms: O1_2  and  C2_3 
REMARK    2  A    between atoms: C5_6  and  N1_7 
REMARK    3  A    between atoms: N1_7  and  C6_8 
REMARK    4  A    between atoms: C16_25  and  O4_26 
REMARK    5  A    between atoms: O4_26  and  C17_27 
REMARK    6  A    between atoms: C17_27  and  C18_28 
ROOT
HETATM    1  C18 UNL     1       0.864  52.258 -17.669  1.00  0.00    -0.030 A 
HETATM    2  C19 UNL     1       2.012  52.736 -17.031  1.00  0.00     0.026 A 
HETATM    3  C20 UNL     1       2.467  52.082 -15.896  1.00  0.00     0.089 A 
HETATM    4  N4  UNL     1       1.870  50.994 -15.366  1.00  0.00    -0.357 N 
ATOM      5  H4  UNL     1       2.236  50.536 -14.531  1.00  0.00     0.166 HD
HETATM    6  C21 UNL     1       0.760  50.536 -15.997  1.00  0.00     0.114 A 
HETATM    7  C22 UNL     1       0.140  49.374 -15.421  1.00  0.00     0.117 C 
HETATM    8  N5  UNL     1      -0.382  48.429 -14.988  1.00  0.00    -0.190 NA
HETATM    9  C23 UNL     1       0.233  51.125 -17.140  1.00  0.00     0.050 A 
ENDROOT
BRANCH   1  10
HETATM   10  C17 UNL     1       0.353  52.916 -18.930  1.00  0.00     0.214 C 
BRANCH  10  11
HETATM   11  O4  UNL     1       0.254  51.932 -19.956  1.00  0.00    -0.344 OA
BRANCH  11  12
HETATM   12  C16 UNL     1      -0.964  51.749 -20.561  1.00  0.00     0.104 A 
HETATM   13  C2  UNL     1      -1.027  52.073 -21.925  1.00  0.00     0.102 A 
HETATM   14  C3  UNL     1      -2.231  51.901 -22.609  1.00  0.00     0.056 A 
HETATM   15  C4  UNL     1      -3.383  51.407 -21.945  1.00  0.00     0.032 A 
HETATM   16  C5  UNL     1      -4.636  51.193 -22.550  1.00  0.00     0.098 A 
HETATM   17  C14 UNL     1      -3.317  51.107 -20.579  1.00  0.00     0.049 A 
HETATM   18  N2  UNL     1      -5.697  50.734 -21.860  1.00  0.00    -0.342 N 
HETATM   19  C13 UNL     1      -5.510  50.500 -20.559  1.00  0.00     0.182 A 
ATOM     20  H2  UNL     1      -6.599  50.574 -22.308  1.00  0.00     0.167 HD
HETATM   21  N3  UNL     1      -4.365  50.657 -19.885  1.00  0.00    -0.351 N 
ATOM     22  H3  UNL     1      -4.296  50.444 -18.889  1.00  0.00     0.166 HD
HETATM   23  C15 UNL     1      -2.111  51.279 -19.911  1.00  0.00     0.070 A 
BRANCH  13  24
HETATM   24  O1  UNL     1       0.130  52.542 -22.489  1.00  0.00    -0.353 OA
HETATM   25  C1  UNL     1       0.129  52.808 -23.885  1.00  0.00     0.210 C 
ENDBRANCH  13  24
BRANCH  16  26
HETATM   26  N1  UNL     1      -4.771  51.415 -23.949  1.00  0.00    -0.241 NA
HETATM   27  H5  UNL     1      -4.605  52.405 -24.126  1.00  0.00     0.135 HD
BRANCH  26  28
HETATM   28  C6  UNL     1      -4.158  50.633 -24.959  1.00  0.00     0.072 A 
HETATM   29  C7  UNL     1      -4.325  49.233 -25.000  1.00  0.00     0.058 A 
HETATM   30 CL1  UNL     1      -5.307  48.435 -23.817  1.00  0.00    -0.082 Cl
HETATM   31  C8  UNL     1      -3.713  48.444 -25.994  1.00  0.00     0.028 A 
HETATM   32  C9  UNL     1      -2.905  49.037 -26.966  1.00  0.00     0.041 A 
HETATM   33  C10 UNL     1      -2.728  50.403 -26.903  1.00  0.00     0.106 A 
HETATM   34  C11 UNL     1      -3.326  51.178 -25.931  1.00  0.00     0.128 A 
HETATM   35  O3  UNL     1      -1.951  51.130 -27.752  1.00  0.00    -0.323 OA
HETATM   36  O2  UNL     1      -2.957  52.490 -26.041  1.00  0.00    -0.321 OA
HETATM   37  C12 UNL     1      -2.128  52.455 -27.215  1.00  0.00     0.352 A 
ENDBRANCH  26  28
ENDBRANCH  16  26
ENDBRANCH  11  12
ENDBRANCH  10  11
ENDBRANCH   1  10
TORSDOF 6
ENDMDL
