MODEL 1
REMARK minimizedAffinity -10.4701214
REMARK CNNscore 0.653625131
REMARK CNNaffinity 8.01672649
REMARK  5 active torsions:
REMARK  status: ('A' for Active; 'I' for Inactive)
REMARK    1  A    between atoms: O1_2  and  C2_3 
REMARK    2  A    between atoms: C7_9  and  N1_10 
REMARK    3  A    between atoms: C11_17  and  N3_18 
REMARK    4  A    between atoms: N3_18  and  C12_19 
REMARK    5  A    between atoms: C15_22  and  N4_23 
ROOT
HETATM    1  N1  UNL     1      -0.083  52.046 -23.494  1.00  0.00    -0.107 N 
HETATM    2  C8  UNL     1       0.558  52.909 -22.600  1.00  0.00     0.282 A 
HETATM    3  O2  UNL     1       1.168  53.934 -22.897  1.00  0.00    -0.266 OA
HETATM    4  C9  UNL     1       0.425  52.606 -21.165  1.00  0.00     0.095 A 
HETATM    5  C10 UNL     1       1.021  53.379 -20.200  1.00  0.00     0.127 A 
HETATM    6  N2  UNL     1       0.882  53.148 -18.876  1.00  0.00    -0.201 N 
ATOM      7  H2  UNL     1       1.338  53.748 -18.188  1.00  0.00     0.183 HD
HETATM    8  C11 UNL     1       0.128  52.107 -18.493  1.00  0.00     0.684 A 
HETATM    9  N6  UNL     1      -0.477  51.289 -19.371  1.00  0.00    -0.174 N 
ATOM     10  H6  UNL     1      -1.031  50.493 -19.056  1.00  0.00     0.186 HD
HETATM   11  C23 UNL     1      -0.325  51.561 -20.689  1.00  0.00     0.162 A 
HETATM   12  N7  UNL     1      -0.972  50.762 -21.649  1.00  0.00    -0.128 N 
HETATM   13  C24 UNL     1      -1.790  49.663 -21.471  1.00  0.00     0.086 A 
HETATM   14  C25 UNL     1      -2.264  48.970 -20.347  1.00  0.00     0.033 A 
HETATM   15  C26 UNL     1      -3.104  47.872 -20.571  1.00  0.00     0.002 A 
HETATM   16  C27 UNL     1      -3.453  47.481 -21.863  1.00  0.00     0.002 A 
HETATM   17  C28 UNL     1      -2.967  48.179 -22.974  1.00  0.00     0.032 A 
HETATM   18  C29 UNL     1      -2.126  49.282 -22.769  1.00  0.00     0.077 A 
HETATM   19  N8  UNL     1      -1.542  50.105 -23.694  1.00  0.00    -0.188 N 
ATOM     20  H8  UNL     1      -1.618  50.039 -24.710  1.00  0.00     0.184 HD
HETATM   21  C30 UNL     1      -0.862  50.999 -23.006  1.00  0.00     0.701 A 
ENDROOT
BRANCH   8  22
HETATM   22  N3  UNL     1      -0.094  51.800 -17.156  1.00  0.00    -0.192 N 
HETATM   23  H8  UNL     1      -1.077  51.903 -16.952  1.00  0.00     0.184 HD
BRANCH  22  24
HETATM   24  C12 UNL     1       0.748  51.650 -16.048  1.00  0.00     0.049 A 
HETATM   25  C13 UNL     1       0.234  51.055 -14.892  1.00  0.00     0.032 A 
HETATM   26  C14 UNL     1       1.023  50.878 -13.743  1.00  0.00     0.031 A 
HETATM   27  C15 UNL     1       2.366  51.271 -13.697  1.00  0.00     0.030 A 
HETATM   28  C21 UNL     1       2.877  51.840 -14.871  1.00  0.00     0.031 A 
HETATM   29  C22 UNL     1       2.089  52.023 -16.022  1.00  0.00     0.032 A 
BRANCH  27  30
HETATM   30  N4  UNL     1       3.139  51.108 -12.562  1.00  0.00    -0.378 N 
HETATM   31  C16 UNL     1       3.861  49.853 -12.292  1.00  0.00     0.153 C 
HETATM   32  C17 UNL     1       5.010  50.072 -11.280  1.00  0.00     0.291 C 
HETATM   33  N5  UNL     1       4.615  50.665  -9.985  1.00  0.00     0.087 N 
HETATM   34  C18 UNL     1       4.384  49.639  -8.972  1.00  0.00     0.310 C 
HETATM   35  C19 UNL     1       3.419  51.524 -10.132  1.00  0.00     0.291 C 
HETATM   36  C20 UNL     1       3.244  52.157 -11.533  1.00  0.00     0.153 C 
ENDBRANCH  27  30
ENDBRANCH  22  24
ENDBRANCH   8  22
BRANCH   1  37
HETATM   37  C7  UNL     1       0.022  52.205 -24.909  1.00  0.00     0.095 A 
HETATM   38  C2  UNL     1      -1.096  52.592 -25.684  1.00  0.00     0.096 A 
HETATM   39  C3  UNL     1      -0.976  52.688 -27.077  1.00  0.00     0.041 A 
HETATM   40  C4  UNL     1       0.238  52.403 -27.705  1.00  0.00     0.026 A 
HETATM   41  C5  UNL     1       1.343  52.039 -26.942  1.00  0.00     0.036 A 
HETATM   42 CL1  UNL     1       2.840  51.696 -27.719  1.00  0.00    -0.084 Cl
HETATM   43  C6  UNL     1       1.243  51.943 -25.556  1.00  0.00     0.057 A 
BRANCH  38  44
HETATM   44  O1  UNL     1      -2.224  52.977 -25.002  1.00  0.00    -0.354 OA
HETATM   45  C1  UNL     1      -3.443  52.354 -25.395  1.00  0.00     0.210 C 
ENDBRANCH  38  44
ENDBRANCH   1  37
TORSDOF 5
ENDMDL
