MODEL 1
REMARK minimizedAffinity -11.581995
REMARK  5 active torsions:
REMARK  status: ('A' for Active; 'I' for Inactive)
REMARK    1  A    between atoms: N2_8  and  C7_9 
REMARK    2  A    between atoms: C10_12  and  C11_13 
REMARK    3  A    between atoms: C15_19  and  C16_20 
REMARK    4  A    between atoms: C20_24  and  O1_25 
REMARK    5  A    between atoms: C22_27  and  C23_28 
ROOT
HETATM    1  C11 UNL     1      -3.105  48.887 -24.168  1.00  0.00     0.070 A 
HETATM    2  C12 UNL     1      -3.230  48.081 -23.097  1.00  0.00     0.049 A 
HETATM    3  C13 UNL     1      -2.475  48.489 -21.886  1.00  0.00     0.092 A 
HETATM    4  N3  UNL     1      -1.723  49.538 -21.768  1.00  0.00    -0.350 N 
ATOM      5  H3  UNL     1      -1.235  49.757 -20.901  1.00  0.00     0.166 HD
HETATM    6  C14 UNL     1      -1.622  50.336 -22.879  1.00  0.00     0.141 A 
HETATM    7  C15 UNL     1      -0.945  51.519 -23.108  1.00  0.00     0.049 A 
HETATM    8  C22 UNL     1      -1.218  51.859 -24.465  1.00  0.00     0.073 A 
HETATM    9  N5  UNL     1      -2.050  50.970 -25.024  1.00  0.00    -0.290 N 
ATOM     10  H5  UNL     1      -2.424  50.993 -25.973  1.00  0.00     0.187 HD
HETATM   11  N6  UNL     1      -2.292  50.035 -24.072  1.00  0.00    -0.238 N 
ENDROOT
BRANCH   1  12
HETATM   12  C10 UNL     1      -3.856  48.560 -25.396  1.00  0.00    -0.007 A 
HETATM   13  C9  UNL     1      -5.223  48.272 -25.356  1.00  0.00     0.016 A 
HETATM   14  C8  UNL     1      -5.930  47.989 -26.535  1.00  0.00     0.030 A 
HETATM   15  C7  UNL     1      -5.306  47.965 -27.790  1.00  0.00     0.030 A 
HETATM   16  C29 UNL     1      -3.936  48.269 -27.808  1.00  0.00     0.030 A 
HETATM   17  C28 UNL     1      -3.219  48.555 -26.639  1.00  0.00     0.016 A 
BRANCH  15  18
HETATM   18  N2  UNL     1      -5.998  47.715 -28.952  1.00  0.00    -0.372 N 
HETATM   19  C3  UNL     1      -7.313  47.038 -29.025  1.00  0.00     0.115 C 
HETATM   20  C2  UNL     1      -7.114  45.500 -29.002  1.00  0.00     0.297 C 
HETATM   21  C4  UNL     1      -7.668  47.246 -30.497  1.00  0.00     0.064 C 
HETATM   22  N1  UNL     1      -6.477  45.200 -30.322  1.00  0.00     0.092 N 
HETATM   23  C1  UNL     1      -7.243  44.237 -31.102  1.00  0.00     0.310 C 
HETATM   24  C5  UNL     1      -6.399  46.543 -30.971  1.00  0.00     0.242 C 
HETATM   25  C6  UNL     1      -5.312  47.389 -30.226  1.00  0.00     0.159 C 
ENDBRANCH  15  18
ENDBRANCH   1  12
BRANCH   7  26
HETATM   26  C16 UNL     1      -0.184  52.213 -22.083  1.00  0.00    -0.017 A 
HETATM   27  C17 UNL     1      -0.425  51.944 -20.729  1.00  0.00     0.012 A 
HETATM   28  C18 UNL     1       0.286  52.623 -19.736  1.00  0.00     0.004 A 
HETATM   29  C19 UNL     1       1.242  53.576 -20.089  1.00  0.00     0.036 A 
HETATM   30  C20 UNL     1       1.481  53.837 -21.434  1.00  0.00     0.066 A 
HETATM   31  C21 UNL     1       0.781  53.165 -22.431  1.00  0.00     0.049 A 
BRANCH  30  32
HETATM   32  O1  UNL     1       2.406  54.764 -21.821  1.00  0.00    -0.361 OA
HETATM   33  H19 UNL     1       2.831  55.128 -21.027  1.00  0.00     0.217 HD
ENDBRANCH  30  32
ENDBRANCH   7  26
BRANCH   8  34
HETATM   34  C23 UNL     1      -0.729  52.992 -25.257  1.00  0.00    -0.004 A 
HETATM   35  C24 UNL     1      -0.290  54.171 -24.653  1.00  0.00     0.030 A 
HETATM   36  C25 UNL     1       0.162  55.201 -25.462  1.00  0.00     0.088 A 
HETATM   37  N4  UNL     1       0.212  55.134 -26.809  1.00  0.00    -0.375 N 
HETATM   38  C26 UNL     1      -0.195  53.978 -27.372  1.00  0.00     0.088 A 
ATOM     39  H4  UNL     1       0.543  55.917 -27.372  1.00  0.00     0.164 HD
HETATM   40  C27 UNL     1      -0.668  52.895 -26.650  1.00  0.00     0.030 A 
ENDBRANCH   8  34
TORSDOF 5
ENDMDL
