MODEL 1
REMARK minimizedAffinity -7.49333429
REMARK  9 active torsions:
REMARK  status: ('A' for Active; 'I' for Inactive)
REMARK       I    between atoms: N1_1  and  C1_2 
REMARK    1  A    between atoms: C1_2  and  C2_4 
REMARK    2  A    between atoms: C2_4  and  C3_5 
REMARK    3  A    between atoms: C3_5  and  C4_6 
REMARK    4  A    between atoms: C5_7  and  S1_8 
REMARK    5  A    between atoms: S1_8  and  S2_9 
REMARK    6  A    between atoms: S2_9  and  C6_10 
REMARK    7  A    between atoms: C13_18  and  C14_19 
REMARK    8  A    between atoms: C14_19  and  C15_20 
REMARK    9  A    between atoms: C15_20  and  C16_21 
REMARK       I    between atoms: C16_21  and  N3_22 
ROOT
HETATM    1  S1  UNL     1      13.206  34.555  17.710  1.00  0.00    -0.032 SA
ENDROOT
BRANCH   1   2
HETATM    2  C5  UNL     1      11.639  34.886  18.372  1.00  0.00     0.088 A 
HETATM    3  C4  UNL     1      11.074  34.692  19.616  1.00  0.00    -0.011 A 
HETATM    4  C22 UNL     1       9.753  35.252  19.546  1.00  0.00    -0.000 A 
HETATM    5  C17 UNL     1       9.568  35.747  18.254  1.00  0.00     0.043 A 
HETATM    6  C21 UNL     1       8.699  35.395  20.471  1.00  0.00     0.014 A 
HETATM    7  N4  UNL     1      10.720  35.481  17.554  1.00  0.00    -0.349 N 
HETATM    8  C18 UNL     1       8.392  36.385  17.842  1.00  0.00     0.030 A 
HETATM    9  H18 UNL     1      10.893  35.752  16.596  1.00  0.00     0.166 HD
HETATM   10  C19 UNL     1       7.366  36.517  18.782  1.00  0.00     0.002 A 
HETATM   11  C20 UNL     1       7.514  36.027  20.076  1.00  0.00     0.001 A 
BRANCH   3  12
HETATM   12  C3  UNL     1      11.708  34.048  20.814  1.00  0.00     0.051 C 
BRANCH  12  13
HETATM   13  C2  UNL     1      12.521  35.034  21.647  1.00  0.00     0.107 C 
BRANCH  13  14
HETATM   14  C1  UNL     1      11.660  35.706  22.691  1.00  0.00     0.215 C 
HETATM   15  N1  UNL     1      11.425  37.036  22.488  1.00  0.00    -0.370 N 
HETATM   16  H1  UNL     1      12.076  37.592  21.950  1.00  0.00     0.159 HD
HETATM   17  H2  UNL     1      10.939  37.508  23.240  1.00  0.00     0.159 HD
HETATM   18  O1  UNL     1      11.164  35.114  23.646  1.00  0.00    -0.274 OA
ENDBRANCH  13  14
ENDBRANCH  12  13
ENDBRANCH   3  12
ENDBRANCH   1   2
BRANCH   1  19
HETATM   19  S2  UNL     1      13.457  36.275  16.601  1.00  0.00    -0.032 SA
BRANCH  19  20
HETATM   20  C6  UNL     1      14.852  35.803  15.686  1.00  0.00     0.088 A 
HETATM   21  N2  UNL     1      14.671  35.453  14.379  1.00  0.00    -0.349 N 
HETATM   22  C7  UNL     1      15.857  35.026  13.836  1.00  0.00     0.043 A 
HETATM   23  H7  UNL     1      13.777  35.448  13.905  1.00  0.00     0.166 HD
HETATM   24  C8  UNL     1      16.135  34.521  12.560  1.00  0.00     0.030 A 
HETATM   25  C12 UNL     1      16.837  35.188  14.819  1.00  0.00    -0.000 A 
HETATM   26  C9  UNL     1      17.459  34.179  12.274  1.00  0.00     0.002 A 
HETATM   27  C10 UNL     1      18.462  34.336  13.228  1.00  0.00     0.001 A 
HETATM   28  C11 UNL     1      18.165  34.838  14.501  1.00  0.00     0.014 A 
HETATM   29  C13 UNL     1      16.193  35.702  15.996  1.00  0.00    -0.011 A 
BRANCH  29  30
HETATM   30  C14 UNL     1      16.859  36.040  17.296  1.00  0.00     0.051 C 
BRANCH  30  31
HETATM   31  C15 UNL     1      17.186  34.795  18.116  1.00  0.00     0.107 C 
BRANCH  31  32
HETATM   32  C16 UNL     1      16.637  34.901  19.519  1.00  0.00     0.215 C 
HETATM   33  N3  UNL     1      15.962  33.791  19.943  1.00  0.00    -0.370 N 
HETATM   34  H16 UNL     1      15.544  33.819  20.864  1.00  0.00     0.159 HD
HETATM   35  H17 UNL     1      15.761  33.005  19.341  1.00  0.00     0.159 HD
HETATM   36  O2  UNL     1      16.778  35.869  20.255  1.00  0.00    -0.274 OA
ENDBRANCH  31  32
ENDBRANCH  30  31
ENDBRANCH  29  30
ENDBRANCH  19  20
ENDBRANCH   1  19
TORSDOF 9
ENDMDL
