MODEL 1
REMARK minimizedAffinity -6.46269941
REMARK CNNscore 0.63044697
REMARK CNNaffinity 6.53854179
REMARK  9 active torsions:
REMARK  status: ('A' for Active; 'I' for Inactive)
REMARK    1  A    between atoms: C2_2  and  C3_3 
REMARK       I    between atoms: C3_3  and  N1_5 
REMARK    2  A    between atoms: C7_9  and  C8_10 
REMARK       I    between atoms: C8_10  and  N2_12 
REMARK    3  A    between atoms: N2_12  and  C9_13 
REMARK    4  A    between atoms: C12_16  and  N3_17 
REMARK    5  A    between atoms: N3_17  and  C13_18 
REMARK    6  A    between atoms: C22_33  and  O3_34 
REMARK    7  A    between atoms: O3_34  and  C23_35 
REMARK    8  A    between atoms: C23_35  and  C24_36 
REMARK    9  A    between atoms: C24_36  and  O4_37 
ROOT
HETATM    1  C9  UNL     1      13.586  59.873   4.411  1.00  0.00     0.069 A 
HETATM    2  C10 UNL     1      14.040  59.021   3.404  1.00  0.00     0.050 A 
HETATM    3  C11 UNL     1      14.537  57.727   3.708  1.00  0.00     0.037 A 
HETATM    4  C12 UNL     1      15.025  56.801   2.761  1.00  0.00     0.119 A 
HETATM    5  N4  UNL     1      15.444  55.573   3.121  1.00  0.00    -0.338 N 
ATOM      6  H4  UNL     1      15.779  54.901   2.431  1.00  0.00     0.168 HD
HETATM    7  C19 UNL     1      15.402  55.277   4.421  1.00  0.00     0.182 A 
HETATM    8  N5  UNL     1      14.980  56.083   5.402  1.00  0.00    -0.351 N 
ATOM      9  H5  UNL     1      14.985  55.786   6.378  1.00  0.00     0.166 HD
HETATM   10  C20 UNL     1      14.550  57.293   5.039  1.00  0.00     0.049 A 
HETATM   11  C21 UNL     1      14.094  58.149   6.033  1.00  0.00     0.069 A 
HETATM   12  C22 UNL     1      13.623  59.431   5.744  1.00  0.00     0.097 A 
ENDROOT
BRANCH   1  13
HETATM   13  N2  UNL     1      13.078  61.168   4.172  1.00  0.00    -0.323 N 
HETATM   14  C8  UNL     1      13.775  62.333   3.902  1.00  0.00     0.245 C 
HETATM   15  O2  UNL     1      14.999  62.432   3.851  1.00  0.00    -0.271 OA
HETATM   16  H11 UNL     1      12.058  61.247   4.257  1.00  0.00     0.169 HD
BRANCH  14  17
HETATM   17  C7  UNL     1      12.841  63.540   3.634  1.00  0.00     0.180 C 
HETATM   18  N1  UNL     1      12.714  64.383   4.830  1.00  0.00    -0.335 N 
HETATM   19  C3  UNL     1      11.801  64.072   5.807  1.00  0.00     0.243 C 
HETATM   20  C4  UNL     1      13.394  65.658   4.645  1.00  0.00     0.127 C 
HETATM   21  O1  UNL     1      11.116  63.051   5.772  1.00  0.00    -0.268 OA
HETATM   22  C5  UNL     1      14.217  65.483   3.379  1.00  0.00     0.022 C 
HETATM   23  C6  UNL     1      13.391  64.492   2.569  1.00  0.00     0.037 C 
BRANCH  19  24
HETATM   24  C2  UNL     1      11.626  65.021   6.928  1.00  0.00     0.064 C 
HETATM   25  C1  UNL     1      12.196  64.816   8.123  1.00  0.00     0.017 C 
ENDBRANCH  19  24
ENDBRANCH  14  17
ENDBRANCH   1  13
BRANCH  12  26
HETATM   26  O3  UNL     1      13.149  60.322   6.673  1.00  0.00    -0.347 OA
BRANCH  26  27
HETATM   27  C23 UNL     1      12.475  59.824   7.828  1.00  0.00     0.201 C 
BRANCH  27  28
HETATM   28  C24 UNL     1      10.968  60.055   7.725  1.00  0.00     0.193 C 
BRANCH  28  29
HETATM   29  O4  UNL     1      10.288  59.682   8.922  1.00  0.00    -0.394 OA
HETATM   30  C25 UNL     1      10.261  60.721   9.891  1.00  0.00     0.201 C 
ENDBRANCH  28  29
ENDBRANCH  27  28
ENDBRANCH  26  27
ENDBRANCH  12  26
BRANCH   4  31
HETATM   31  N3  UNL     1      15.069  57.171   1.393  1.00  0.00    -0.339 N 
HETATM   32  H13 UNL     1      16.004  57.497   1.148  1.00  0.00     0.167 HD
BRANCH  31  33
HETATM   33  C13 UNL     1      14.469  56.519   0.288  1.00  0.00     0.074 A 
HETATM   34  C14 UNL     1      15.163  55.620  -0.530  1.00  0.00     0.033 A 
HETATM   35  C15 UNL     1      14.518  54.960  -1.583  1.00  0.00     0.004 A 
HETATM   36  C16 UNL     1      13.163  55.178  -1.822  1.00  0.00     0.027 A 
HETATM   37  C17 UNL     1      12.450  56.049  -1.001  1.00  0.00     0.074 A 
HETATM   38 CL1  UNL     1      10.774  56.308  -1.297  1.00  0.00    -0.081 Cl
HETATM   39  C18 UNL     1      13.097  56.702   0.047  1.00  0.00     0.164 A 
HETATM   40  F1  UNL     1      12.413  57.541   0.846  1.00  0.00    -0.202 F 
ENDBRANCH  31  33
ENDBRANCH   4  31
TORSDOF 9
ENDMDL
