MODEL 1
REMARK minimizedAffinity -8.73609829
REMARK  10 active torsions:
REMARK  status: ('A' for Active; 'I' for Inactive)
REMARK    1  A    between atoms: N1_2  and  C3_4 
REMARK    2  A    between atoms: C3_4  and  C4_5 
REMARK    3  A    between atoms: C4_5  and  N2_6 
REMARK    4  A    between atoms: N2_6  and  C5_7 
REMARK    5  A    between atoms: C7_12  and  C8_13 
REMARK       I    between atoms: C8_13  and  N4_15 
REMARK    6  A    between atoms: N4_15  and  N5_16 
REMARK    7  A    between atoms: C9_18  and  C10_19 
REMARK    8  A    between atoms: C15_25  and  N7_26 
REMARK    9  A    between atoms: C18_29  and  C19_30 
REMARK   10  A    between atoms: C19_30  and  C20_31 
ROOT
HETATM    1  C5  UNL     1      -1.208  51.034 -23.600  1.00  0.00     0.087 A 
HETATM    2  N3  UNL     1      -1.283  50.403 -22.414  1.00  0.00    -0.340 N 
ATOM      3  H3  UNL     1      -1.731  49.492 -22.317  1.00  0.00     0.167 HD
HETATM    4  C6  UNL     1      -0.735  51.037 -21.365  1.00  0.00     0.088 A 
HETATM    5  S1  UNL     1      -0.736  50.304 -19.833  1.00  0.00    -0.064 SA
HETATM    6  C7  UNL     1       0.098  51.627 -19.116  1.00  0.00     0.103 A 
HETATM    7  C15 UNL     1       0.357  52.612 -20.057  1.00  0.00     0.061 A 
HETATM    8  C16 UNL     1      -0.120  52.279 -21.369  1.00  0.00     0.026 A 
HETATM    9  C17 UNL     1      -0.085  52.941 -22.611  1.00  0.00     0.027 A 
HETATM   10  C18 UNL     1      -0.646  52.314 -23.744  1.00  0.00    -0.015 A 
ENDROOT
BRANCH   6  11
HETATM   11  C8  UNL     1       0.432  51.629 -17.693  1.00  0.00     0.279 C 
HETATM   12  O1  UNL     1       0.063  50.736 -16.925  1.00  0.00    -0.265 OA
HETATM   13  N4  UNL     1       1.191  52.718 -17.272  1.00  0.00    -0.266 N 
HETATM   14  H12 UNL     1       1.442  53.431 -17.951  1.00  0.00     0.190 HD
BRANCH  13  15
HETATM   15  N5  UNL     1       1.502  52.895 -15.955  1.00  0.00    -0.307 N 
HETATM   16  C9  UNL     1       0.985  52.034 -15.140  1.00  0.00     0.136 C 
ATOM     17  H5  UNL     1       2.102  53.656 -15.634  1.00  0.00     0.186 HD
BRANCH  16  18
HETATM   18  C10 UNL     1       1.249  52.064 -13.722  1.00  0.00     0.050 A 
HETATM   19  C11 UNL     1       0.480  52.706 -12.761  1.00  0.00     0.032 A 
HETATM   20  C12 UNL     1       1.083  52.500 -11.500  1.00  0.00     0.019 A 
HETATM   21  C13 UNL     1       2.193  51.717 -11.705  1.00  0.00     0.091 A 
HETATM   22  N6  UNL     1       2.302  51.470 -13.051  1.00  0.00    -0.360 N 
HETATM   23  C14 UNL     1       3.397  50.731 -13.647  1.00  0.00     0.155 C 
ENDBRANCH  16  18
ENDBRANCH  13  15
ENDBRANCH   6  11
BRANCH   7  24
HETATM   24  N7  UNL     1       0.998  53.776 -19.772  1.00  0.00    -0.397 N 
HETATM   25  H20 UNL     1       0.782  54.601 -20.322  1.00  0.00     0.156 HD
HETATM   26  H21 UNL     1       1.123  54.014 -18.783  1.00  0.00     0.156 HD
ENDBRANCH   7  24
BRANCH   1  27
HETATM   27  N2  UNL     1      -1.736  50.381 -24.734  1.00  0.00    -0.277 NA
HETATM   28  H11 UNL     1      -1.707  49.371 -24.567  1.00  0.00     0.129 HD
BRANCH  27  29
HETATM   29  C4  UNL     1      -3.139  50.711 -25.052  1.00  0.00     0.124 C 
BRANCH  29  30
HETATM   30  C3  UNL     1      -3.832  49.521 -25.767  1.00  0.00     0.286 C 
BRANCH  30  31
HETATM   31  N1  UNL     1      -3.269  49.303 -27.126  1.00  0.00     0.081 N 
HETATM   32  C1  UNL     1      -3.154  50.580 -27.846  1.00  0.00     0.309 C 
HETATM   33  C2  UNL     1      -4.127  48.383 -27.885  1.00  0.00     0.309 C 
ENDBRANCH  30  31
ENDBRANCH  29  30
ENDBRANCH  27  29
ENDBRANCH   1  27
BRANCH  10  34
HETATM   34  C19 UNL     1      -0.636  53.070 -25.056  1.00  0.00     0.080 C 
BRANCH  34  35
HETATM   35  C20 UNL     1       0.350  52.514 -26.062  1.00  0.00    -0.054 A 
HETATM   36  C21 UNL     1       0.046  52.525 -27.430  1.00  0.00     0.007 A 
HETATM   37  C22 UNL     1       0.954  52.017 -28.360  1.00  0.00     0.001 A 
HETATM   38  C23 UNL     1       2.178  51.504 -27.935  1.00  0.00     0.000 A 
HETATM   39  C24 UNL     1       2.496  51.497 -26.576  1.00  0.00     0.001 A 
HETATM   40  C25 UNL     1       1.585  51.996 -25.642  1.00  0.00     0.007 A 
ENDBRANCH  34  35
ENDBRANCH  10  34
TORSDOF 10
ENDMDL
