MODEL 1
REMARK minimizedAffinity -10.1865473
REMARK  8 active torsions:
REMARK  status: ('A' for Active; 'I' for Inactive)
REMARK    1  A    between atoms: C4_4  and  C5_5 
REMARK    2  A    between atoms: C7_7  and  O1_8 
REMARK    3  A    between atoms: C13_19  and  N3_20 
REMARK    4  A    between atoms: N3_20  and  C14_21 
REMARK    5  A    between atoms: C18_25  and  C19_26 
REMARK       I    between atoms: C19_26  and  N4_28 
REMARK    6  A    between atoms: N4_28  and  C20_29 
REMARK    7  A    between atoms: C20_29  and  C21_30 
REMARK    8  A    between atoms: C21_30  and  N5_31 
ROOT
HETATM    1  C1  UNL     1      -1.298  50.036 -21.626  1.00  0.00     0.050 C 
HETATM    2  C2  UNL     1      -0.562  51.187 -22.255  1.00  0.00    -0.032 A 
HETATM    3  C3  UNL     1      -0.524  51.299 -23.656  1.00  0.00     0.021 A 
HETATM    4  C4  UNL     1       0.155  52.353 -24.274  1.00  0.00    -0.021 A 
HETATM    5  C11 UNL     1       0.788  53.294 -23.457  1.00  0.00     0.045 A 
HETATM    6  C12 UNL     1       0.759  53.193 -22.069  1.00  0.00     0.077 A 
HETATM    7  N1  UNL     1       1.376  54.103 -21.310  1.00  0.00    -0.284 N 
ATOM      8  H1  UNL     1       1.872  54.882 -21.742  1.00  0.00     0.187 HD
HETATM    9  N2  UNL     1       1.336  53.981 -19.950  1.00  0.00    -0.131 N 
ATOM     10  H2  UNL     1       1.807  54.670 -19.364  1.00  0.00     0.205 HD
HETATM   11  C13 UNL     1       0.679  52.956 -19.379  1.00  0.00     0.697 A 
HETATM   12  N6  UNL     1       0.046  52.021 -20.104  1.00  0.00    -0.188 N 
ATOM     13  H6  UNL     1      -0.447  51.249 -19.654  1.00  0.00     0.184 HD
HETATM   14  C25 UNL     1       0.082  52.133 -21.447  1.00  0.00     0.083 A 
ENDROOT
BRANCH  11  15
HETATM   15  N3  UNL     1       0.614  52.771 -17.999  1.00  0.00    -0.190 N 
HETATM   16  H10 UNL     1      -0.342  52.902 -17.701  1.00  0.00     0.184 HD
BRANCH  15  17
HETATM   17  C14 UNL     1       1.573  52.548 -17.005  1.00  0.00     0.050 A 
HETATM   18  C15 UNL     1       2.953  52.524 -17.244  1.00  0.00     0.030 A 
HETATM   19  C16 UNL     1       3.866  52.286 -16.210  1.00  0.00     0.003 A 
HETATM   20  C17 UNL     1       3.411  52.047 -14.917  1.00  0.00     0.017 A 
HETATM   21  C18 UNL     1       2.039  52.034 -14.657  1.00  0.00     0.034 A 
HETATM   22  C24 UNL     1       1.131  52.294 -15.695  1.00  0.00     0.047 A 
BRANCH  21  23
HETATM   23  C19 UNL     1       1.585  51.757 -13.267  1.00  0.00     0.251 C 
HETATM   24  O2  UNL     1       1.718  50.638 -12.784  1.00  0.00    -0.268 OA
HETATM   25  N4  UNL     1       0.982  52.804 -12.603  1.00  0.00    -0.355 N 
HETATM   26  H14 UNL     1       0.658  53.602 -13.132  1.00  0.00     0.162 HD
BRANCH  25  27
HETATM   27  C20 UNL     1       0.367  52.609 -11.305  1.00  0.00     0.153 C 
BRANCH  27  28
HETATM   28  C21 UNL     1      -1.169  52.748 -11.295  1.00  0.00     0.291 C 
BRANCH  28  29
HETATM   29  N5  UNL     1      -1.668  53.721 -10.294  1.00  0.00     0.081 N 
HETATM   30  C22 UNL     1      -0.906  54.974 -10.343  1.00  0.00     0.309 C 
HETATM   31  C23 UNL     1      -3.080  54.020 -10.551  1.00  0.00     0.309 C 
ENDBRANCH  28  29
ENDBRANCH  27  28
ENDBRANCH  25  27
ENDBRANCH  21  23
ENDBRANCH  15  17
ENDBRANCH  11  15
BRANCH   4  32
HETATM   32  C5  UNL     1       0.196  52.474 -25.736  1.00  0.00    -0.001 A 
HETATM   33  C6  UNL     1      -0.799  53.223 -26.388  1.00  0.00     0.050 A 
HETATM   34  C7  UNL     1      -0.795  53.360 -27.774  1.00  0.00     0.066 A 
HETATM   35  C8  UNL     1       0.191  52.763 -28.548  1.00  0.00     0.038 A 
HETATM   36  C9  UNL     1       1.189  52.018 -27.922  1.00  0.00     0.027 A 
HETATM   37  C10 UNL     1       1.194  51.874 -26.529  1.00  0.00     0.045 A 
HETATM   38 CL1  UNL     1       2.476  50.946 -25.829  1.00  0.00    -0.083 Cl
BRANCH  34  39
HETATM   39  O1  UNL     1      -1.792  54.099 -28.337  1.00  0.00    -0.361 OA
HETATM   40  H6  UNL     1      -1.665  54.121 -29.301  1.00  0.00     0.217 HD
ENDBRANCH  34  39
ENDBRANCH   4  32
TORSDOF 8
ENDMDL
