MODEL 1
REMARK minimizedAffinity -8.43179607
REMARK  8 active torsions:
REMARK  status: ('A' for Active; 'I' for Inactive)
REMARK    1  A    between atoms: O1_2  and  C2_3 
REMARK    2  A    between atoms: C6_11  and  N3_12 
REMARK    3  A    between atoms: N3_12  and  C7_13 
REMARK    4  A    between atoms: C15_23  and  O2_24 
REMARK    5  A    between atoms: O2_24  and  C16_25 
REMARK    6  A    between atoms: C16_25  and  C17_26 
REMARK    7  A    between atoms: C17_26  and  C18_27 
REMARK    8  A    between atoms: C18_27  and  N4_28 
ROOT
HETATM    1  C2  UNL     1       0.441  52.817 -23.211  1.00  0.00     0.103 A 
HETATM    2  C3  UNL     1       0.621  53.781 -24.208  1.00  0.00     0.070 A 
HETATM    3  C4  UNL     1       0.014  53.678 -25.456  1.00  0.00     0.050 A 
HETATM    4  N1  UNL     1       0.243  54.639 -26.354  1.00  0.00    -0.351 N 
ATOM      5  H1  UNL     1       0.846  55.435 -26.143  1.00  0.00     0.166 HD
HETATM    6  C5  UNL     1      -0.354  54.509 -27.543  1.00  0.00     0.182 A 
HETATM    7  N2  UNL     1      -1.164  53.514 -27.913  1.00  0.00    -0.338 N 
ATOM      8  H2  UNL     1      -1.583  53.485 -28.842  1.00  0.00     0.168 HD
HETATM    9  C6  UNL     1      -1.403  52.553 -27.003  1.00  0.00     0.119 A 
HETATM   10  C13 UNL     1      -0.812  52.578 -25.723  1.00  0.00     0.038 A 
HETATM   11  C14 UNL     1      -0.991  51.589 -24.725  1.00  0.00     0.057 A 
HETATM   12  C15 UNL     1      -0.356  51.702 -23.488  1.00  0.00     0.103 A 
ENDROOT
BRANCH   9  13
HETATM   13  N3  UNL     1      -2.278  51.483 -27.334  1.00  0.00    -0.342 N 
HETATM   14  H6  UNL     1      -1.891  50.980 -28.127  1.00  0.00     0.167 HD
BRANCH  13  15
HETATM   15  C7  UNL     1      -2.985  50.622 -26.465  1.00  0.00     0.035 A 
HETATM   16  C8  UNL     1      -2.881  49.232 -26.657  1.00  0.00     0.032 A 
HETATM   17  C9  UNL     1      -3.608  48.338 -25.868  1.00  0.00     0.046 A 
HETATM   18  C10 UNL     1      -4.468  48.828 -24.892  1.00  0.00     0.138 A 
HETATM   19  F1  UNL     1      -5.158  47.955 -24.145  1.00  0.00    -0.204 F 
HETATM   20  C11 UNL     1      -4.614  50.200 -24.708  1.00  0.00     0.074 A 
HETATM   21 CL1  UNL     1      -5.696  50.814 -23.515  1.00  0.00    -0.081 Cl
HETATM   22  C12 UNL     1      -3.887  51.091 -25.500  1.00  0.00     0.056 A 
ENDBRANCH  13  15
ENDBRANCH   9  13
BRANCH  12  23
HETATM   23  O2  UNL     1      -0.565  50.786 -22.490  1.00  0.00    -0.348 OA
BRANCH  23  24
HETATM   24  C16 UNL     1      -1.674  49.907 -22.711  1.00  0.00     0.177 C 
BRANCH  24  25
HETATM   25  C17 UNL     1      -1.618  48.772 -21.693  1.00  0.00     0.057 C 
BRANCH  25  26
HETATM   26  C18 UNL     1      -0.597  49.063 -20.588  1.00  0.00     0.274 C 
BRANCH  26  27
HETATM   27  N4  UNL     1      -1.259  49.359 -19.312  1.00  0.00     0.092 N 
HETATM   28  C19 UNL     1      -2.724  49.539 -19.430  1.00  0.00     0.298 C 
HETATM   29  C20 UNL     1      -3.192  50.994 -19.251  1.00  0.00     0.198 C 
HETATM   30  O3  UNL     1      -2.797  51.564 -17.998  1.00  0.00    -0.388 OA
HETATM   31  C21 UNL     1      -1.538  51.068 -17.525  1.00  0.00     0.198 C 
HETATM   32  C22 UNL     1      -0.642  50.528 -18.650  1.00  0.00     0.298 C 
ENDBRANCH  26  27
ENDBRANCH  25  26
ENDBRANCH  24  25
ENDBRANCH  23  24
ENDBRANCH  12  23
BRANCH   1  33
HETATM   33  O1  UNL     1       1.009  52.862 -21.965  1.00  0.00    -0.353 OA
HETATM   34  C1  UNL     1       1.493  54.118 -21.509  1.00  0.00     0.210 C 
ENDBRANCH   1  33
TORSDOF 8
ENDMDL
