MODEL 1
REMARK minimizedAffinity -9.17665482
REMARK  7 active torsions:
REMARK  status: ('A' for Active; 'I' for Inactive)
REMARK    1  A    between atoms: N1_2  and  C3_4 
REMARK    2  A    between atoms: C3_4  and  C4_5 
REMARK    3  A    between atoms: C4_5  and  C5_6 
REMARK    4  A    between atoms: C5_6  and  C6_7 
REMARK    5  A    between atoms: C7_8  and  C8_9 
REMARK    6  A    between atoms: C14_17  and  S1_18 
REMARK    7  A    between atoms: S1_18  and  N3_19 
ROOT
HETATM    1  C8  UNL     1      -1.908   5.700  12.771  1.00  0.00     0.048 C 
HETATM    2  C9  UNL     1      -2.318   4.552  12.205  1.00  0.00     0.047 A 
HETATM    3  C10 UNL     1      -1.555   3.478  11.465  1.00  0.00     0.257 A 
HETATM    4  O1  UNL     1      -0.366   3.429  11.214  1.00  0.00    -0.267 OA
HETATM    5  N2  UNL     1      -2.499   2.529  11.111  1.00  0.00    -0.322 N 
HETATM    6  C11 UNL     1      -3.768   2.886  11.545  1.00  0.00     0.046 A 
HETATM    7  C12 UNL     1      -4.933   2.164  11.366  1.00  0.00     0.032 A 
HETATM    8  C13 UNL     1      -6.110   2.705  11.884  1.00  0.00     0.027 A 
HETATM    9  C14 UNL     1      -6.084   3.945  12.554  1.00  0.00     0.075 A 
HETATM   10  C15 UNL     1      -4.891   4.659  12.737  1.00  0.00     0.039 A 
HETATM   11  C16 UNL     1      -3.729   4.112  12.218  1.00  0.00     0.008 A 
HETATM   12  H14 UNL     1      -2.259   1.689  10.607  1.00  0.00     0.169 HD
ENDROOT
BRANCH   1  13
HETATM   13  C7  UNL     1      -0.603   6.265  12.845  1.00  0.00     0.040 A 
HETATM   14  C6  UNL     1       0.229   6.765  11.839  1.00  0.00    -0.023 A 
HETATM   15  C18 UNL     1       1.432   7.201  12.464  1.00  0.00    -0.027 A 
HETATM   16  C17 UNL     1       1.297   6.969  13.813  1.00  0.00     0.016 A 
HETATM   17  C19 UNL     1       2.657   7.828  11.882  1.00  0.00     0.041 C 
HETATM   18  N4  UNL     1       0.074   6.406  14.036  1.00  0.00    -0.359 N 
HETATM   19  C22 UNL     1       2.309   7.249  14.865  1.00  0.00     0.057 C 
HETATM   20  H20 UNL     1      -0.273   6.132  14.950  1.00  0.00     0.166 HD
HETATM   21  C21 UNL     1       3.392   8.190  14.305  1.00  0.00     0.006 C 
HETATM   22  C20 UNL     1       3.828   7.794  12.883  1.00  0.00     0.005 C 
BRANCH  14  23
HETATM   23  C5  UNL     1      -0.065   6.838  10.370  1.00  0.00     0.043 C 
BRANCH  23  24
HETATM   24  C4  UNL     1       0.185   8.240   9.803  1.00  0.00     0.035 C 
BRANCH  24  25
HETATM   25  C3  UNL     1       0.455   8.173   8.294  1.00  0.00     0.271 C 
BRANCH  25  26
HETATM   26  N1  UNL     1       1.737   7.585   7.879  1.00  0.00     0.080 N 
HETATM   27  C1  UNL     1       1.741   7.168   6.479  1.00  0.00     0.309 C 
HETATM   28  C2  UNL     1       2.880   8.444   8.172  1.00  0.00     0.309 C 
ENDBRANCH  25  26
ENDBRANCH  24  25
ENDBRANCH  23  24
ENDBRANCH  14  23
ENDBRANCH   1  13
BRANCH   9  29
HETATM   29  S1  UNL     1      -7.601   4.593  13.216  1.00  0.00     0.239 S 
HETATM   30  O2  UNL     1      -8.115   5.579  12.294  1.00  0.00    -0.206 OA
HETATM   31  O3  UNL     1      -7.401   4.865  14.619  1.00  0.00    -0.206 OA
BRANCH  29  32
HETATM   32  N3  UNL     1      -8.624   3.265  13.078  1.00  0.00    -0.225 NA
HETATM   33  H17 UNL     1      -9.384   3.497  12.435  1.00  0.00     0.136 HD
HETATM   34  H18 UNL     1      -8.149   2.402  12.816  1.00  0.00     0.136 HD
ENDBRANCH  29  32
ENDBRANCH   9  29
TORSDOF 7
ENDMDL
