MODEL 1
REMARK minimizedAffinity -8.85007
REMARK  7 active torsions:
REMARK  status: ('A' for Active; 'I' for Inactive)
REMARK    1  A    between atoms: N1_2  and  C3_4 
REMARK    2  A    between atoms: C3_4  and  C4_5 
REMARK    3  A    between atoms: C4_5  and  C5_6 
REMARK    4  A    between atoms: C5_6  and  C6_7 
REMARK    5  A    between atoms: C7_8  and  C8_9 
REMARK    6  A    between atoms: C14_17  and  C15_18 
REMARK    7  A    between atoms: C15_18  and  O3_20 
ROOT
HETATM    1  C6  UNL     1      -0.229   6.393  12.869  1.00  0.00    -0.023 A 
HETATM    2  C7  UNL     1      -0.918   5.560  11.984  1.00  0.00     0.040 A 
HETATM    3  N3  UNL     1      -0.066   5.285  10.939  1.00  0.00    -0.359 N 
HETATM    4  C18 UNL     1       1.132   5.907  11.139  1.00  0.00     0.016 A 
HETATM    5  C19 UNL     1       1.073   6.597  12.328  1.00  0.00    -0.027 A 
HETATM    6  C20 UNL     1       2.223   7.400  12.839  1.00  0.00     0.041 C 
HETATM    7  C21 UNL     1       3.530   7.029  12.110  1.00  0.00     0.005 C 
HETATM    8  C22 UNL     1       3.329   6.900  10.588  1.00  0.00     0.006 C 
HETATM    9  C23 UNL     1       2.301   5.812  10.227  1.00  0.00     0.057 C 
HETATM   10  H19 UNL     1      -0.285   4.705  10.135  1.00  0.00     0.166 HD
ENDROOT
BRANCH   2  11
HETATM   11  C8  UNL     1      -2.239   5.030  12.054  1.00  0.00     0.048 C 
HETATM   12  C9  UNL     1      -2.686   3.793  11.777  1.00  0.00     0.047 A 
HETATM   13  C10 UNL     1      -1.961   2.556  11.300  1.00  0.00     0.257 A 
HETATM   14  C17 UNL     1      -4.106   3.407  11.907  1.00  0.00     0.007 A 
HETATM   15  O1  UNL     1      -0.775   2.414  11.066  1.00  0.00    -0.267 OA
HETATM   16  N2  UNL     1      -2.935   1.580  11.178  1.00  0.00    -0.322 N 
HETATM   17  C11 UNL     1      -4.187   2.063  11.531  1.00  0.00     0.046 A 
HETATM   18  H14 UNL     1      -2.727   0.640  10.875  1.00  0.00     0.169 HD
HETATM   19  C12 UNL     1      -5.373   1.357  11.528  1.00  0.00     0.031 A 
HETATM   20  C13 UNL     1      -6.527   2.039  11.923  1.00  0.00     0.020 A 
HETATM   21  C14 UNL     1      -6.469   3.397  12.309  1.00  0.00     0.038 A 
HETATM   22  C16 UNL     1      -5.247   4.090  12.302  1.00  0.00     0.033 A 
BRANCH  21  23
HETATM   23  C15 UNL     1      -7.734   4.055  12.718  1.00  0.00     0.176 C 
HETATM   24  O2  UNL     1      -7.953   5.252  12.696  1.00  0.00    -0.646 OA
BRANCH  23  25
HETATM   25  O3  UNL     1      -8.664   3.180  13.136  1.00  0.00    -0.773 OA
HETATM   26  H17 UNL     1      -9.435   3.741  13.365  1.00  0.00     0.167 HD
ENDBRANCH  23  25
ENDBRANCH  21  23
ENDBRANCH   2  11
BRANCH   1  27
HETATM   27  C5  UNL     1      -0.742   6.974  14.153  1.00  0.00     0.043 C 
BRANCH  27  28
HETATM   28  C4  UNL     1      -1.967   6.223  14.684  1.00  0.00     0.035 C 
BRANCH  28  29
HETATM   29  C3  UNL     1      -3.111   7.196  14.990  1.00  0.00     0.271 C 
BRANCH  29  30
HETATM   30  N1  UNL     1      -4.380   6.827  14.341  1.00  0.00     0.080 N 
HETATM   31  C1  UNL     1      -4.887   7.956  13.556  1.00  0.00     0.309 C 
HETATM   32  C2  UNL     1      -5.395   6.406  15.310  1.00  0.00     0.309 C 
ENDBRANCH  29  30
ENDBRANCH  28  29
ENDBRANCH  27  28
ENDBRANCH   1  27
TORSDOF 7
ENDMDL
