MODEL 1
REMARK minimizedAffinity -8.98586369
REMARK CNNscore 0.723021746
REMARK CNNaffinity 7.82430601
REMARK  8 active torsions:
REMARK  status: ('A' for Active; 'I' for Inactive)
REMARK    1  A    between atoms: C2_2  and  C3_3 
REMARK       I    between atoms: C3_3  and  N1_5 
REMARK    2  A    between atoms: N2_8  and  C6_9 
REMARK    3  A    between atoms: C6_9  and  C7_10 
REMARK    4  A    between atoms: C7_10  and  C8_11 
REMARK    5  A    between atoms: C8_11  and  C9_12 
REMARK    6  A    between atoms: C10_13  and  C11_14 
REMARK    7  A    between atoms: C17_22  and  S1_23 
REMARK    8  A    between atoms: S1_23  and  C18_26 
ROOT
HETATM    1  C9  UNL     1      -7.634   7.013  14.951  1.00  0.00    -0.023 A 
HETATM    2  C10 UNL     1      -7.492   6.122  13.884  1.00  0.00     0.040 A 
HETATM    3  N4  UNL     1      -8.734   5.976  13.309  1.00  0.00    -0.359 N 
HETATM    4  C22 UNL     1      -9.651   6.728  13.983  1.00  0.00     0.016 A 
HETATM    5  C23 UNL     1      -9.007   7.401  14.996  1.00  0.00    -0.027 A 
HETATM    6  C24 UNL     1      -9.733   8.314  15.930  1.00  0.00     0.041 C 
HETATM    7  C25 UNL     1     -11.136   8.664  15.399  1.00  0.00     0.005 C 
HETATM    8  C26 UNL     1     -11.863   7.435  14.821  1.00  0.00     0.006 C 
HETATM    9  C27 UNL     1     -11.096   6.815  13.639  1.00  0.00     0.057 C 
HETATM   10  H26 UNL     1      -8.942   5.416  12.488  1.00  0.00     0.166 HD
ENDROOT
BRANCH   2  11
HETATM   11  C11 UNL     1      -6.347   5.422  13.407  1.00  0.00     0.048 C 
HETATM   12  C12 UNL     1      -6.245   4.170  12.931  1.00  0.00     0.047 A 
HETATM   13  C13 UNL     1      -7.287   3.093  12.740  1.00  0.00     0.257 A 
HETATM   14  C21 UNL     1      -4.974   3.597  12.443  1.00  0.00     0.008 A 
HETATM   15  O2  UNL     1      -8.466   3.115  13.040  1.00  0.00    -0.267 OA
HETATM   16  N3  UNL     1      -6.619   2.030  12.156  1.00  0.00    -0.322 N 
HETATM   17  C14 UNL     1      -5.270   2.311  11.980  1.00  0.00     0.046 A 
HETATM   18  H17 UNL     1      -7.084   1.170  11.906  1.00  0.00     0.169 HD
HETATM   19  C15 UNL     1      -4.320   1.473  11.429  1.00  0.00     0.032 A 
HETATM   20  C16 UNL     1      -3.010   1.950  11.353  1.00  0.00     0.026 A 
HETATM   21  C17 UNL     1      -2.696   3.236  11.840  1.00  0.00     0.060 A 
HETATM   22  C20 UNL     1      -3.677   4.079  12.380  1.00  0.00     0.038 A 
BRANCH  21  23
HETATM   23  S1  UNL     1      -1.015   3.814  11.720  1.00  0.00     0.175 S 
HETATM   24  O3  UNL     1      -0.927   4.635  10.528  1.00  0.00    -0.223 OA
HETATM   25  O4  UNL     1      -0.159   2.655  11.897  1.00  0.00    -0.223 OA
BRANCH  23  26
HETATM   26  C18 UNL     1      -0.850   4.873  13.147  1.00  0.00     0.141 C 
HETATM   27  C19 UNL     1      -1.000   6.334  12.776  1.00  0.00     0.021 C 
ENDBRANCH  23  26
ENDBRANCH  21  23
ENDBRANCH   2  11
BRANCH   1  28
HETATM   28  C8  UNL     1      -6.555   7.497  15.876  1.00  0.00     0.043 C 
BRANCH  28  29
HETATM   29  C7  UNL     1      -5.845   8.772  15.410  1.00  0.00     0.035 C 
BRANCH  29  30
HETATM   30  C6  UNL     1      -4.446   8.496  14.840  1.00  0.00     0.273 C 
BRANCH  30  31
HETATM   31  N2  UNL     1      -3.366   9.131  15.617  1.00  0.00     0.091 N 
HETATM   32  C5  UNL     1      -2.671  10.163  14.811  1.00  0.00     0.292 C 
HETATM   33  C4  UNL     1      -1.377   9.692  14.124  1.00  0.00     0.156 C 
HETATM   34  N1  UNL     1      -0.413   9.143  15.080  1.00  0.00    -0.349 N 
HETATM   35  C3  UNL     1       0.932   9.151  14.748  1.00  0.00     0.219 C 
HETATM   36  C29 UNL     1      -0.975   8.650  16.342  1.00  0.00     0.156 C 
HETATM   37  O1  UNL     1       1.329   9.557  13.654  1.00  0.00    -0.273 OA
HETATM   38  C28 UNL     1      -2.416   8.132  16.158  1.00  0.00     0.292 C 
BRANCH  35  39
HETATM   39  C2  UNL     1       1.898   8.632  15.801  1.00  0.00     0.098 C 
HETATM   40  C1  UNL     1       3.205   9.410  15.825  1.00  0.00     0.014 C 
ENDBRANCH  35  39
ENDBRANCH  30  31
ENDBRANCH  29  30
ENDBRANCH  28  29
ENDBRANCH   1  28
TORSDOF 8
ENDMDL
