MODEL 1
REMARK minimizedAffinity -10.1791067
REMARK CNNscore 0.25151217
REMARK CNNaffinity 7.90479326
REMARK  6 active torsions:
REMARK  status: ('A' for Active; 'I' for Inactive)
REMARK    1  A    between atoms: C2_2  and  C3_3 
REMARK       I    between atoms: C3_3  and  N1_5 
REMARK    2  A    between atoms: C7_9  and  C8_10 
REMARK    3  A    between atoms: C13_17  and  C14_18 
REMARK       I    between atoms: C14_18  and  N3_20 
REMARK    4  A    between atoms: N3_20  and  C15_21 
REMARK    5  A    between atoms: C17_23  and  C18_24 
REMARK    6  A    between atoms: C24_36  and  N5_37 
ROOT
HETATM    1  C8  UNL     1      -0.129  52.211 -19.818  1.00  0.00     0.094 A 
HETATM    2  N2  UNL     1      -0.998  51.357 -20.328  1.00  0.00    -0.342 N 
ATOM      3  H2  UNL     1      -1.520  50.640 -19.824  1.00  0.00     0.167 HD
HETATM    4  C9  UNL     1      -1.057  51.628 -21.672  1.00  0.00     0.077 A 
HETATM    5  C10 UNL     1      -1.949  50.910 -22.547  1.00  0.00     0.032 A 
HETATM    6  C11 UNL     1      -1.682  49.573 -22.861  1.00  0.00     0.018 A 
HETATM    7  C12 UNL     1      -2.572  48.844 -23.657  1.00  0.00     0.018 A 
HETATM    8  C13 UNL     1      -3.756  49.440 -24.123  1.00  0.00     0.035 A 
HETATM    9  C21 UNL     1      -4.010  50.785 -23.823  1.00  0.00     0.060 A 
HETATM   10  C22 UNL     1      -3.111  51.506 -23.040  1.00  0.00     0.130 A 
HETATM   11  F4  UNL     1      -3.395  52.785 -22.758  1.00  0.00    -0.205 F 
HETATM   12  C23 UNL     1      -0.150  52.604 -22.013  1.00  0.00     0.106 A 
HETATM   13  C24 UNL     1       0.264  53.249 -23.235  1.00  0.00     0.107 A 
HETATM   14  N6  UNL     1       1.200  54.170 -23.205  1.00  0.00    -0.354 N 
ATOM     15  H6  UNL     1       1.505  54.627 -24.065  1.00  0.00     0.166 HD
HETATM   16  C25 UNL     1       1.766  54.511 -21.995  1.00  0.00     0.107 A 
HETATM   17  C26 UNL     1       1.427  53.949 -20.825  1.00  0.00     0.116 A 
HETATM   18  N7  UNL     1       0.444  52.975 -20.823  1.00  0.00    -0.305 N 
ENDROOT
BRANCH   1  19
HETATM   19  C7  UNL     1       0.168  52.297 -18.348  1.00  0.00     0.072 C 
HETATM   20  C6  UNL     1       1.664  52.362 -18.022  1.00  0.00     0.015 C 
HETATM   21  C5  UNL     1       1.934  52.467 -16.516  1.00  0.00     0.021 C 
HETATM   22  C4  UNL     1       0.699  52.218 -15.653  1.00  0.00     0.126 C 
HETATM   23  N1  UNL     1      -0.074  51.087 -16.161  1.00  0.00    -0.351 N 
HETATM   24  C3  UNL     1      -0.396  50.038 -15.289  1.00  0.00     0.232 C 
HETATM   25  C27 UNL     1      -0.558  51.208 -17.540  1.00  0.00     0.138 C 
HETATM   26  O1  UNL     1       0.071  50.022 -14.140  1.00  0.00    -0.272 OA
BRANCH  24  27
HETATM   27  C2  UNL     1      -1.309  48.879 -15.784  1.00  0.00     0.080 C 
HETATM   28  C1  UNL     1      -1.048  48.507 -17.248  1.00  0.00     0.030 C 
HETATM   29  C28 UNL     1      -1.254  47.604 -14.899  1.00  0.00     0.188 C 
HETATM   30  O3  UNL     1      -2.701  47.490 -14.920  1.00  0.00    -0.389 OA
HETATM   31  C29 UNL     1      -2.793  48.866 -15.361  1.00  0.00     0.188 C 
ENDBRANCH  24  27
ENDBRANCH   1  19
BRANCH  13  32
HETATM   32  N5  UNL     1      -0.239  52.954 -24.468  1.00  0.00    -0.287 NA
HETATM   33  H18 UNL     1      -0.524  51.997 -24.626  1.00  0.00     0.125 HD
HETATM   34  H19 UNL     1       0.338  53.334 -25.210  1.00  0.00     0.125 HD
ENDBRANCH  13  32
BRANCH   8  35
HETATM   35  C14 UNL     1      -4.764  48.704 -24.945  1.00  0.00     0.257 C 
HETATM   36  O2  UNL     1      -5.668  48.111 -24.364  1.00  0.00    -0.267 OA
HETATM   37  N3  UNL     1      -4.561  48.726 -26.303  1.00  0.00    -0.309 N 
HETATM   38  H13 UNL     1      -3.732  49.145 -26.696  1.00  0.00     0.170 HD
BRANCH  37  39
HETATM   39  C15 UNL     1      -5.360  48.172 -27.305  1.00  0.00     0.108 A 
HETATM   40  C16 UNL     1      -4.985  48.049 -28.634  1.00  0.00     0.064 A 
HETATM   41  C17 UNL     1      -5.876  47.463 -29.545  1.00  0.00     0.052 A 
HETATM   42  C19 UNL     1      -7.117  47.027 -29.079  1.00  0.00     0.033 A 
HETATM   43  C20 UNL     1      -7.407  47.190 -27.737  1.00  0.00     0.090 A 
HETATM   44  N4  UNL     1      -6.558  47.749 -26.848  1.00  0.00    -0.352 N 
ATOM     45  H4  UNL     1      -6.813  47.848 -25.865  1.00  0.00     0.166 HD
BRANCH  41  46
HETATM   46  C18 UNL     1      -5.499  47.344 -30.998  1.00  0.00     0.417 C 
HETATM   47  F1  UNL     1      -4.561  46.382 -31.211  1.00  0.00    -0.166 F 
HETATM   48  F2  UNL     1      -4.979  48.494 -31.512  1.00  0.00    -0.166 F 
HETATM   49  F3  UNL     1      -6.555  47.028 -31.797  1.00  0.00    -0.166 F 
ENDBRANCH  41  46
ENDBRANCH  37  39
ENDBRANCH   8  35
TORSDOF 6
ENDMDL
