MODEL 1
REMARK minimizedAffinity -9.32252121
REMARK  7 active torsions:
REMARK  status: ('A' for Active; 'I' for Inactive)
REMARK    1  A    between atoms: C2_2  and  S1_4 
REMARK    2  A    between atoms: S1_4  and  C4_7 
REMARK    3  A    between atoms: C11_14  and  C12_15 
REMARK    4  A    between atoms: C15_19  and  C16_20 
REMARK    5  A    between atoms: C16_20  and  C17_21 
REMARK    6  A    between atoms: C17_21  and  C18_22 
REMARK    7  A    between atoms: C18_22  and  N2_23 
ROOT
HETATM    1  C4  UNL     1       2.701   6.952  11.710  1.00  0.00     0.060 A 
HETATM    2  C5  UNL     1       3.125   7.451  12.958  1.00  0.00     0.026 A 
HETATM    3  C6  UNL     1       2.327   7.277  14.093  1.00  0.00     0.032 A 
HETATM    4  C7  UNL     1       1.123   6.621  13.929  1.00  0.00     0.046 A 
HETATM    5  C8  UNL     1       0.682   6.141  12.692  1.00  0.00     0.008 A 
HETATM    6  C9  UNL     1       1.462   6.310  11.561  1.00  0.00     0.038 A 
HETATM    7  C10 UNL     1      -0.640   5.526  12.928  1.00  0.00     0.047 A 
HETATM    8  C11 UNL     1      -1.359   4.954  11.948  1.00  0.00     0.048 C 
HETATM    9  C25 UNL     1      -0.921   5.696  14.402  1.00  0.00     0.257 A 
HETATM   10  O3  UNL     1      -1.899   5.339  15.033  1.00  0.00    -0.267 OA
HETATM   11  N3  UNL     1       0.183   6.354  14.916  1.00  0.00    -0.322 N 
HETATM   12  H33 UNL     1       0.260   6.603  15.890  1.00  0.00     0.169 HD
ENDROOT
BRANCH   8  13
HETATM   13  C12 UNL     1      -2.641   4.337  11.995  1.00  0.00     0.040 A 
HETATM   14  N1  UNL     1      -2.844   3.028  11.617  1.00  0.00    -0.359 N 
HETATM   15  C13 UNL     1      -4.158   2.698  11.771  1.00  0.00     0.016 A 
HETATM   16  H12 UNL     1      -2.128   2.393  11.276  1.00  0.00     0.166 HD
HETATM   17  C14 UNL     1      -4.834   3.797  12.251  1.00  0.00    -0.027 A 
HETATM   18  C24 UNL     1      -4.735   1.357  11.490  1.00  0.00     0.057 C 
HETATM   19  C15 UNL     1      -3.878   4.844  12.404  1.00  0.00    -0.023 A 
HETATM   20  C21 UNL     1      -6.304   3.775  12.508  1.00  0.00     0.041 C 
HETATM   21  C22 UNL     1      -6.842   2.330  12.557  1.00  0.00     0.005 C 
HETATM   22  C23 UNL     1      -6.271   1.457  11.425  1.00  0.00     0.006 C 
BRANCH  19  23
HETATM   23  C16 UNL     1      -4.168   6.229  12.904  1.00  0.00     0.043 C 
BRANCH  23  24
HETATM   24  C17 UNL     1      -5.626   6.442  13.330  1.00  0.00     0.035 C 
BRANCH  24  25
HETATM   25  C18 UNL     1      -5.795   6.493  14.856  1.00  0.00     0.271 C 
BRANCH  25  26
HETATM   26  N2  UNL     1      -7.148   6.235  15.376  1.00  0.00     0.080 N 
HETATM   27  C19 UNL     1      -7.410   6.943  16.627  1.00  0.00     0.309 C 
HETATM   28  C20 UNL     1      -8.200   6.490  14.399  1.00  0.00     0.309 C 
ENDBRANCH  25  26
ENDBRANCH  24  25
ENDBRANCH  23  24
ENDBRANCH  19  23
ENDBRANCH   8  13
BRANCH   1  29
HETATM   29  S1  UNL     1       3.715   7.222  10.268  1.00  0.00     0.178 S 
HETATM   30  O1  UNL     1       4.305   8.541  10.417  1.00  0.00    -0.222 OA
HETATM   31  O2  UNL     1       4.572   6.059  10.132  1.00  0.00    -0.222 OA
BRANCH  29  32
HETATM   32  C2  UNL     1       2.591   7.259   8.872  1.00  0.00     0.105 C 
HETATM   33  C1  UNL     1       2.681   5.997   8.020  1.00  0.00     0.026 C 
HETATM   34  C3  UNL     1       2.770   8.509   8.017  1.00  0.00     0.026 C 
ENDBRANCH  29  32
ENDBRANCH   1  29
TORSDOF 7
ENDMDL
