MODEL 1
REMARK minimizedAffinity -9.59991646
REMARK  4 active torsions:
REMARK  status: ('A' for Active; 'I' for Inactive)
REMARK    1  A    between atoms: O1_1  and  C1_2 
REMARK    2  A    between atoms: C5_6  and  N1_7 
REMARK    3  A    between atoms: C9_18  and  N6_19 
REMARK    4  A    between atoms: N6_19  and  C10_20 
ROOT
HETATM    1  N1  UNL     1      -0.157  53.211 -24.429  1.00  0.00    -0.340 N 
HETATM    2  C6  UNL     1      -0.012  52.574 -23.235  1.00  0.00     0.138 A 
HETATM    3  N2  UNL     1       0.756  53.128 -22.238  1.00  0.00    -0.283 N 
HETATM    4  N3  UNL     1       0.858  52.382 -21.123  1.00  0.00    -0.283 N 
ATOM      5  H3  UNL     1       1.396  52.578 -20.279  1.00  0.00     0.188 HD
HETATM    6  C7  UNL     1       0.087  51.324 -21.385  1.00  0.00     0.139 A 
HETATM    7  N4  UNL     1      -0.156  50.287 -20.553  1.00  0.00    -0.337 N 
ATOM      8  H4  UNL     1       0.244  50.185 -19.621  1.00  0.00     0.168 HD
HETATM    9  C8  UNL     1      -1.006  49.402 -21.128  1.00  0.00     0.183 A 
HETATM   10  N5  UNL     1      -1.614  49.428 -22.354  1.00  0.00    -0.338 N 
ATOM     11  H5  UNL     1      -2.236  48.667 -22.630  1.00  0.00     0.168 HD
HETATM   12  C9  UNL     1      -1.393  50.470 -23.211  1.00  0.00     0.124 A 
HETATM   13  C16 UNL     1      -0.495  51.408 -22.680  1.00  0.00     0.099 A 
HETATM   14  H5  UNL     1      -0.046  54.227 -24.451  1.00  0.00     0.167 HD
HETATM   15  H6  UNL     1       1.275  53.998 -22.274  1.00  0.00     0.188 HD
ENDROOT
BRANCH   1  16
HETATM   16  C5  UNL     1       0.273  52.695 -25.684  1.00  0.00     0.036 A 
HETATM   17  C4  UNL     1      -0.497  52.754 -26.853  1.00  0.00     0.029 A 
HETATM   18  C3  UNL     1       0.013  52.298 -28.073  1.00  0.00     0.005 A 
HETATM   19  C2  UNL     1       1.306  51.786 -28.147  1.00  0.00     0.036 A 
HETATM   20  C1  UNL     1       2.080  51.739 -26.994  1.00  0.00     0.067 A 
HETATM   21  C17 UNL     1       1.579  52.191 -25.777  1.00  0.00     0.066 A 
BRANCH  20  22
HETATM   22  O1  UNL     1       3.356  51.259 -27.016  1.00  0.00    -0.361 OA
HETATM   23  H1  UNL     1       3.567  50.972 -27.920  1.00  0.00     0.217 HD
ENDBRANCH  20  22
ENDBRANCH   1  16
BRANCH  12  24
HETATM   24  N6  UNL     1      -2.007  50.587 -24.460  1.00  0.00    -0.342 N 
HETATM   25  H8  UNL     1      -1.725  51.432 -24.944  1.00  0.00     0.167 HD
BRANCH  24  26
HETATM   26  C10 UNL     1      -2.914  49.781 -25.164  1.00  0.00     0.035 A 
HETATM   27  C11 UNL     1      -2.589  49.409 -26.481  1.00  0.00     0.029 A 
HETATM   28  C12 UNL     1      -3.436  48.598 -27.241  1.00  0.00     0.004 A 
HETATM   29  C13 UNL     1      -4.628  48.139 -26.693  1.00  0.00     0.024 A 
HETATM   30  C14 UNL     1      -4.962  48.494 -25.388  1.00  0.00     0.036 A 
HETATM   31 CL1  UNL     1      -6.437  47.923 -24.706  1.00  0.00    -0.084 Cl
HETATM   32  C15 UNL     1      -4.114  49.305 -24.629  1.00  0.00     0.053 A 
ENDBRANCH  24  26
ENDBRANCH  12  24
TORSDOF 4
ENDMDL
