MODEL 1
REMARK minimizedAffinity -10.0208769
REMARK CNNscore 0.644753397
REMARK CNNaffinity 7.92917871
REMARK  4 active torsions:
REMARK  status: ('A' for Active; 'I' for Inactive)
REMARK    1  A    between atoms: C6_6  and  N1_7 
REMARK    2  A    between atoms: C10_14  and  N3_15 
REMARK    3  A    between atoms: N3_15  and  C11_16 
REMARK    4  A    between atoms: C14_19  and  N4_20 
ROOT
HETATM    1  N1  UNL     1      -0.111  52.221 -23.770  1.00  0.00    -0.110 N 
HETATM    2  C7  UNL     1       0.546  53.035 -22.831  1.00  0.00     0.282 A 
HETATM    3  O1  UNL     1       1.351  53.933 -23.082  1.00  0.00    -0.266 OA
HETATM    4  C8  UNL     1       0.304  52.773 -21.406  1.00  0.00     0.095 A 
HETATM    5  C9  UNL     1       0.869  53.541 -20.419  1.00  0.00     0.127 A 
HETATM    6  N2  UNL     1       0.678  53.314 -19.100  1.00  0.00    -0.201 N 
ATOM      7  H2  UNL     1       1.109  53.915 -18.397  1.00  0.00     0.183 HD
HETATM    8  C10 UNL     1      -0.094  52.278 -18.743  1.00  0.00     0.684 A 
HETATM    9  N6  UNL     1      -0.680  51.469 -19.643  1.00  0.00    -0.174 N 
ATOM     10  H6  UNL     1      -1.258  50.682 -19.348  1.00  0.00     0.186 HD
HETATM   11  C22 UNL     1      -0.475  51.738 -20.956  1.00  0.00     0.162 A 
HETATM   12  N7  UNL     1      -1.072  50.936 -21.940  1.00  0.00    -0.128 N 
HETATM   13  C23 UNL     1      -1.888  49.833 -21.785  1.00  0.00     0.086 A 
HETATM   14  C24 UNL     1      -2.371  49.121 -20.676  1.00  0.00     0.033 A 
HETATM   15  C25 UNL     1      -3.199  48.021 -20.927  1.00  0.00     0.002 A 
HETATM   16  C26 UNL     1      -3.536  47.650 -22.227  1.00  0.00     0.002 A 
HETATM   17  C27 UNL     1      -3.051  48.374 -23.321  1.00  0.00     0.032 A 
HETATM   18  C28 UNL     1      -2.220  49.479 -23.088  1.00  0.00     0.077 A 
HETATM   19  N8  UNL     1      -1.639  50.321 -23.993  1.00  0.00    -0.188 N 
ATOM     20  H8  UNL     1      -1.745  50.294 -25.008  1.00  0.00     0.184 HD
HETATM   21  C29 UNL     1      -0.913  51.174 -23.299  1.00  0.00     0.701 A 
ENDROOT
BRANCH   8  22
HETATM   22  N3  UNL     1      -0.317  51.946 -17.411  1.00  0.00    -0.192 N 
HETATM   23  H8  UNL     1      -1.301  52.016 -17.204  1.00  0.00     0.184 HD
BRANCH  22  24
HETATM   24  C11 UNL     1       0.529  51.694 -16.327  1.00  0.00     0.049 A 
HETATM   25  C12 UNL     1       0.086  50.846 -15.307  1.00  0.00     0.032 A 
HETATM   26  C13 UNL     1       0.897  50.538 -14.200  1.00  0.00     0.031 A 
HETATM   27  C14 UNL     1       2.188  51.055 -14.058  1.00  0.00     0.030 A 
HETATM   28  C20 UNL     1       2.632  51.878 -15.102  1.00  0.00     0.031 A 
HETATM   29  C21 UNL     1       1.826  52.190 -16.212  1.00  0.00     0.032 A 
BRANCH  27  30
HETATM   30  N4  UNL     1       2.982  50.741 -12.966  1.00  0.00    -0.378 N 
HETATM   31  C15 UNL     1       3.520  49.376 -12.793  1.00  0.00     0.153 C 
HETATM   32  C16 UNL     1       3.411  48.913 -11.320  1.00  0.00     0.291 C 
HETATM   33  N5  UNL     1       4.054  49.790 -10.323  1.00  0.00     0.087 N 
HETATM   34  C17 UNL     1       5.367  49.299  -9.918  1.00  0.00     0.310 C 
HETATM   35  C18 UNL     1       4.138  51.187 -10.807  1.00  0.00     0.291 C 
HETATM   36  C19 UNL     1       2.988  51.590 -11.760  1.00  0.00     0.153 C 
ENDBRANCH  27  30
ENDBRANCH  22  24
ENDBRANCH   8  22
BRANCH   1  37
HETATM   37  C6  UNL     1       0.024  52.424 -25.190  1.00  0.00     0.061 A 
HETATM   38  C5  UNL     1      -0.976  53.031 -25.967  1.00  0.00     0.030 A 
HETATM   39  C4  UNL     1      -0.830  53.203 -27.349  1.00  0.00     0.003 A 
HETATM   40  C3  UNL     1       0.324  52.767 -27.992  1.00  0.00     0.007 A 
HETATM   41  C2  UNL     1       1.347  52.174 -27.255  1.00  0.00    -0.060 A 
HETATM   42  C1  UNL     1       2.584  51.665 -27.936  1.00  0.00     0.048 C 
HETATM   43  C30 UNL     1       1.181  51.996 -25.869  1.00  0.00     0.037 A 
ENDBRANCH   1  37
TORSDOF 4
ENDMDL
