MODEL 1
REMARK minimizedAffinity -11.261117
REMARK CNNscore 0.72543031
REMARK CNNaffinity 8.0499506
REMARK  5 active torsions:
REMARK  status: ('A' for Active; 'I' for Inactive)
REMARK    1  A    between atoms: C3_3  and  C4_4 
REMARK    2  A    between atoms: C7_8  and  C8_9 
REMARK       I    between atoms: C8_9  and  N1_10 
REMARK    3  A    between atoms: C15_19  and  C16_20 
REMARK    4  A    between atoms: C16_20  and  O2_23 
REMARK    5  A    between atoms: C23_28  and  N3_29 
ROOT
HETATM    1  C4  UNL     1      -4.481   5.595  12.738  1.00  0.00     0.026 A 
HETATM    2  C5  UNL     1      -4.014   4.422  12.118  1.00  0.00     0.129 A 
HETATM    3  F1  UNL     1      -2.767   4.383  11.621  1.00  0.00    -0.205 F 
HETATM    4  C6  UNL     1      -4.793   3.278  11.996  1.00  0.00     0.062 A 
HETATM    5  C7  UNL     1      -6.099   3.257  12.491  1.00  0.00     0.062 A 
HETATM    6  C9  UNL     1      -6.563   4.419  13.136  1.00  0.00     0.060 A 
HETATM    7  N2  UNL     1      -7.789   4.654  13.729  1.00  0.00    -0.358 N 
HETATM    8  C10 UNL     1      -7.837   5.926  14.213  1.00  0.00     0.017 A 
HETATM    9  C11 UNL     1      -6.622   6.532  13.969  1.00  0.00    -0.022 A 
HETATM   10  C12 UNL     1      -5.796   5.586  13.276  1.00  0.00     0.014 A 
HETATM   11  C13 UNL     1      -6.356   7.945  14.374  1.00  0.00     0.042 C 
HETATM   12  C14 UNL     1      -7.402   8.445  15.392  1.00  0.00     0.013 C 
HETATM   13  C15 UNL     1      -8.856   8.067  14.984  1.00  0.00     0.025 C 
HETATM   14  C19 UNL     1      -9.011   6.524  14.908  1.00  0.00     0.065 C 
HETATM   15  H7  UNL     1      -8.523   3.954  13.779  1.00  0.00     0.166 HD
ENDROOT
BRANCH   1  16
HETATM   16  C3  UNL     1      -3.633   6.788  12.849  1.00  0.00    -0.014 A 
HETATM   17  C2  UNL     1      -2.213   6.724  12.823  1.00  0.00    -0.023 A 
HETATM   18  C1  UNL     1      -1.538   5.387  12.618  1.00  0.00     0.051 C 
HETATM   19  C23 UNL     1      -1.461   7.919  12.973  1.00  0.00     0.054 A 
HETATM   20  C22 UNL     1      -2.135   9.148  13.087  1.00  0.00     0.031 A 
HETATM   21  C21 UNL     1      -3.525   9.208  13.098  1.00  0.00     0.003 A 
HETATM   22  C20 UNL     1      -4.265   8.037  12.994  1.00  0.00     0.013 A 
BRANCH  19  23
HETATM   23  N3  UNL     1      -0.020   7.917  13.030  1.00  0.00    -0.229 N 
HETATM   24  C24 UNL     1       0.570   7.934  14.294  1.00  0.00     0.269 C 
HETATM   25  O3  UNL     1      -0.030   8.040  15.363  1.00  0.00    -0.267 OA
HETATM   26  C25 UNL     1       2.038   7.860  14.346  1.00  0.00     0.063 A 
HETATM   27  C26 UNL     1       2.672   7.727  15.597  1.00  0.00     0.020 A 
HETATM   28  C30 UNL     1       2.773   7.937  13.169  1.00  0.00     0.092 A 
HETATM   29  C27 UNL     1       4.059   7.664  15.682  1.00  0.00     0.004 A 
HETATM   30  C28 UNL     1       4.811   7.738  14.517  1.00  0.00     0.045 A 
HETATM   31  C29 UNL     1       4.173   7.873  13.282  1.00  0.00     0.144 A 
HETATM   32  F2  UNL     1       4.965   7.933  12.202  1.00  0.00    -0.204 F 
HETATM   33  N4  UNL     1       2.087   8.080  11.931  1.00  0.00    -0.300 N 
HETATM   34  C31 UNL     1       2.856   8.209  10.697  1.00  0.00     0.161 C 
HETATM   35  C32 UNL     1       0.694   8.064  11.834  1.00  0.00     0.336 C 
HETATM   36  O4  UNL     1       0.145   8.151  10.731  1.00  0.00    -0.246 OA
ENDBRANCH  19  23
ENDBRANCH   1  16
BRANCH   5  37
HETATM   37  C8  UNL     1      -6.993   2.074  12.381  1.00  0.00     0.251 C 
HETATM   38  N1  UNL     1      -6.620   1.062  11.541  1.00  0.00    -0.366 N 
HETATM   39  H5  UNL     1      -7.299   0.323  11.405  1.00  0.00     0.159 HD
HETATM   40  H6  UNL     1      -5.904   1.163  10.837  1.00  0.00     0.159 HD
HETATM   41  O1  UNL     1      -8.054   2.014  12.992  1.00  0.00    -0.268 OA
ENDBRANCH   5  37
BRANCH  13  42
HETATM   42  C16 UNL     1      -9.930   8.754  15.876  1.00  0.00     0.054 C 
HETATM   43  C17 UNL     1     -11.371   8.499  15.421  1.00  0.00     0.045 C 
HETATM   44  C18 UNL     1      -9.684  10.264  15.993  1.00  0.00     0.045 C 
BRANCH  42  45
HETATM   45  O2  UNL     1      -9.793   8.208  17.198  1.00  0.00    -0.390 OA
HETATM   46  H19 UNL     1     -10.472   8.613  17.766  1.00  0.00     0.210 HD
ENDBRANCH  42  45
ENDBRANCH  13  42
TORSDOF 5
ENDMDL
