MODEL 1
REMARK minimizedAffinity -8.22228146
REMARK  8 active torsions:
REMARK  status: ('A' for Active; 'I' for Inactive)
REMARK    1  A    between atoms: O1_2  and  C2_3 
REMARK    2  A    between atoms: C5_6  and  N1_7 
REMARK    3  A    between atoms: N1_7  and  C6_8 
REMARK    4  A    between atoms: C16_25  and  O4_26 
REMARK    5  A    between atoms: O4_26  and  C17_27 
REMARK    6  A    between atoms: C17_27  and  C18_28 
REMARK    7  A    between atoms: C18_28  and  C19_29 
REMARK    8  A    between atoms: C19_29  and  N4_30 
ROOT
HETATM    1  C2  UNL     1      -2.484  49.766 -24.880  1.00  0.00     0.102 A 
HETATM    2  C3  UNL     1      -1.407  50.459 -24.324  1.00  0.00     0.056 A 
HETATM    3  C4  UNL     1      -0.880  51.615 -24.952  1.00  0.00     0.032 A 
HETATM    4  C5  UNL     1       0.203  52.377 -24.468  1.00  0.00     0.098 A 
HETATM    5  N2  UNL     1       0.647  53.477 -25.104  1.00  0.00    -0.342 N 
ATOM      6  H2  UNL     1       1.437  54.018 -24.751  1.00  0.00     0.167 HD
HETATM    7  C13 UNL     1       0.002  53.824 -26.218  1.00  0.00     0.182 A 
HETATM    8  N3  UNL     1      -1.026  53.173 -26.774  1.00  0.00    -0.351 N 
ATOM      9  H3  UNL     1      -1.458  53.495 -27.639  1.00  0.00     0.166 HD
HETATM   10  C14 UNL     1      -1.457  52.080 -26.139  1.00  0.00     0.049 A 
HETATM   11  C15 UNL     1      -2.526  51.379 -26.684  1.00  0.00     0.070 A 
HETATM   12  C16 UNL     1      -3.046  50.230 -26.079  1.00  0.00     0.104 A 
ENDROOT
BRANCH   4  13
HETATM   13  N1  UNL     1       0.883  51.939 -23.298  1.00  0.00    -0.240 NA
HETATM   14  H5  UNL     1       1.885  52.009 -23.469  1.00  0.00     0.135 HD
BRANCH  13  15
HETATM   15  C6  UNL     1       0.584  52.353 -21.980  1.00  0.00     0.089 A 
HETATM   16  C7  UNL     1       0.966  53.631 -21.539  1.00  0.00     0.140 A 
HETATM   17  F1  UNL     1       1.598  54.453 -22.393  1.00  0.00    -0.204 F 
HETATM   18  C8  UNL     1       0.705  54.087 -20.238  1.00  0.00     0.047 A 
HETATM   19  C9  UNL     1       0.057  53.254 -19.327  1.00  0.00     0.043 A 
HETATM   20  C10 UNL     1      -0.294  51.990 -19.754  1.00  0.00     0.107 A 
HETATM   21  C11 UNL     1      -0.036  51.546 -21.037  1.00  0.00     0.129 A 
HETATM   22  O3  UNL     1      -0.901  51.046 -18.985  1.00  0.00    -0.323 OA
HETATM   23  O2  UNL     1      -0.422  50.247 -21.204  1.00  0.00    -0.321 OA
HETATM   24  C12 UNL     1      -1.013  49.959 -19.925  1.00  0.00     0.352 A 
ENDBRANCH  13  15
ENDBRANCH   4  13
BRANCH   1  25
HETATM   25  O1  UNL     1      -3.048  48.638 -24.342  1.00  0.00    -0.353 OA
HETATM   26  C1  UNL     1      -4.028  48.807 -23.326  1.00  0.00     0.210 C 
ENDBRANCH   1  25
BRANCH  12  27
HETATM   27  O4  UNL     1      -4.105  49.506 -26.569  1.00  0.00    -0.348 OA
BRANCH  27  28
HETATM   28  C17 UNL     1      -3.826  48.462 -27.498  1.00  0.00     0.177 C 
BRANCH  28  29
HETATM   29  C18 UNL     1      -4.981  48.346 -28.492  1.00  0.00     0.057 C 
BRANCH  29  30
HETATM   30  C19 UNL     1      -6.211  47.671 -27.868  1.00  0.00     0.274 C 
BRANCH  30  31
HETATM   31  N4  UNL     1      -7.269  47.400 -28.857  1.00  0.00     0.092 N 
HETATM   32  C20 UNL     1      -6.713  47.235 -30.219  1.00  0.00     0.298 C 
HETATM   33  C21 UNL     1      -6.825  48.501 -31.081  1.00  0.00     0.198 C 
HETATM   34  O5  UNL     1      -8.177  48.944 -31.265  1.00  0.00    -0.388 OA
HETATM   35  C22 UNL     1      -9.049  48.538 -30.201  1.00  0.00     0.198 C 
HETATM   36  C23 UNL     1      -8.322  48.439 -28.850  1.00  0.00     0.298 C 
ENDBRANCH  30  31
ENDBRANCH  29  30
ENDBRANCH  28  29
ENDBRANCH  27  28
ENDBRANCH  12  27
TORSDOF 8
ENDMDL
