MODEL 1
REMARK minimizedAffinity -10.6574106
REMARK  8 active torsions:
REMARK  status: ('A' for Active; 'I' for Inactive)
REMARK    1  A    between atoms: C6_9  and  C7_10 
REMARK    2  A    between atoms: C9_12  and  N3_13 
REMARK    3  A    between atoms: N3_13  and  C10_14 
REMARK    4  A    between atoms: C10_14  and  C11_15 
REMARK    5  A    between atoms: C10_14  and  C12_17 
REMARK    6  A    between atoms: C11_15  and  O1_16 
REMARK    7  A    between atoms: C19_26  and  C20_27 
REMARK    8  A    between atoms: C25_33  and  O2_34 
ROOT
HETATM    1  C7  UNL     1      -1.598  50.605 -24.161  1.00  0.00     0.004 A 
HETATM    2  C8  UNL     1      -2.586  49.893 -23.453  1.00  0.00     0.045 A 
HETATM    3  C9  UNL     1      -3.444  48.986 -24.082  1.00  0.00     0.045 A 
HETATM    4  C18 UNL     1      -3.214  48.792 -25.440  1.00  0.00     0.117 A 
HETATM    5  N4  UNL     1      -2.290  49.453 -26.179  1.00  0.00    -0.362 N 
ATOM      6  H4  UNL     1      -2.206  49.294 -27.184  1.00  0.00     0.165 HD
HETATM    7  C19 UNL     1      -1.478  50.334 -25.535  1.00  0.00     0.056 A 
ENDROOT
BRANCH   1   8
HETATM    8  C6  UNL     1      -0.775  51.597 -23.449  1.00  0.00    -0.023 A 
HETATM    9  C5  UNL     1      -0.134  52.634 -24.148  1.00  0.00     0.014 A 
HETATM   10  C4  UNL     1       0.655  53.592 -23.498  1.00  0.00     0.033 A 
HETATM   11  C3  UNL     1       0.778  53.477 -22.113  1.00  0.00     0.060 A 
HETATM   12  N2  UNL     1       1.462  54.226 -21.194  1.00  0.00    -0.300 N 
HETATM   13  C27 UNL     1       0.159  52.475 -21.377  1.00  0.00     0.016 A 
HETATM   14  N1  UNL     1       1.342  53.792 -19.927  1.00  0.00    -0.304 N 
HETATM   15  H4  UNL     1       2.031  55.045 -21.366  1.00  0.00     0.187 HD
HETATM   16  C2  UNL     1       0.543  52.721 -20.032  1.00  0.00     0.034 A 
ATOM     17  H1  UNL     1       1.761  54.185 -19.084  1.00  0.00     0.186 HD
HETATM   18  C1  UNL     1       0.160  51.949 -18.826  1.00  0.00     0.070 C 
HETATM   19  C26 UNL     1      -0.633  51.526 -22.049  1.00  0.00     0.028 A 
ENDBRANCH   1   8
BRANCH   7  20
HETATM   20  C20 UNL     1      -0.496  50.985 -26.419  1.00  0.00     0.028 A 
HETATM   21  C21 UNL     1       0.876  50.772 -26.198  1.00  0.00     0.058 A 
HETATM   22  C22 UNL     1       1.825  51.361 -27.027  1.00  0.00     0.117 A 
HETATM   23  F1  UNL     1       3.126  51.134 -26.805  1.00  0.00    -0.206 F 
HETATM   24  C23 UNL     1       1.446  52.177 -28.084  1.00  0.00     0.045 A 
HETATM   25  C24 UNL     1       0.093  52.420 -28.314  1.00  0.00     0.040 A 
HETATM   26  C25 UNL     1      -0.866  51.831 -27.482  1.00  0.00     0.078 A 
BRANCH  26  27
HETATM   27  O2  UNL     1      -2.191  52.101 -27.697  1.00  0.00    -0.360 OA
HETATM   28  H22 UNL     1      -2.278  52.669 -28.481  1.00  0.00     0.217 HD
ENDBRANCH  26  27
ENDBRANCH   7  20
BRANCH   3  29
HETATM   29  N3  UNL     1      -4.349  48.266 -23.300  1.00  0.00    -0.378 N 
HETATM   30  H8  UNL     1      -3.949  48.010 -22.396  1.00  0.00     0.160 HD
BRANCH  29  31
HETATM   31  C10 UNL     1      -5.757  48.693 -23.173  1.00  0.00     0.138 C 
BRANCH  31  32
HETATM   32  C11 UNL     1      -5.879  50.179 -23.600  1.00  0.00     0.194 C 
BRANCH  32  33
HETATM   33  O1  UNL     1      -6.993  50.818 -22.965  1.00  0.00    -0.399 OA
HETATM   34  H12 UNL     1      -7.685  50.125 -22.945  1.00  0.00     0.209 HD
ENDBRANCH  32  33
ENDBRANCH  31  32
BRANCH  31  35
HETATM   35  C12 UNL     1      -6.612  47.730 -23.990  1.00  0.00    -0.034 A 
HETATM   36  C13 UNL     1      -7.237  46.652 -23.336  1.00  0.00     0.009 A 
HETATM   37  C14 UNL     1      -8.005  45.728 -24.048  1.00  0.00     0.001 A 
HETATM   38  C15 UNL     1      -8.152  45.860 -25.426  1.00  0.00     0.000 A 
HETATM   39  C16 UNL     1      -7.527  46.912 -26.093  1.00  0.00     0.001 A 
HETATM   40  C17 UNL     1      -6.758  47.837 -25.382  1.00  0.00     0.009 A 
ENDBRANCH  31  35
ENDBRANCH  29  31
ENDBRANCH   3  29
TORSDOF 8
ENDMDL
