MODEL 1
REMARK minimizedAffinity -10.2499533
REMARK CNNscore 0.686081171
REMARK CNNaffinity 8.01898289
REMARK  4 active torsions:
REMARK  status: ('A' for Active; 'I' for Inactive)
REMARK    1  A    between atoms: C8_8  and  N1_9 
REMARK    2  A    between atoms: C12_16  and  N3_17 
REMARK    3  A    between atoms: N3_17  and  C13_18 
REMARK    4  A    between atoms: C16_21  and  N4_22 
ROOT
HETATM    1  N1  UNL     1      -0.569  51.907 -23.886  1.00  0.00    -0.108 N 
HETATM    2  C9  UNL     1       0.081  53.026 -23.377  1.00  0.00     0.282 A 
HETATM    3  O1  UNL     1       0.424  54.013 -24.024  1.00  0.00    -0.266 OA
HETATM    4  C10 UNL     1       0.426  52.998 -21.945  1.00  0.00     0.095 A 
HETATM    5  C11 UNL     1       1.095  54.032 -21.340  1.00  0.00     0.127 A 
HETATM    6  N2  UNL     1       1.451  54.019 -20.033  1.00  0.00    -0.201 N 
ATOM      7  H2  UNL     1       1.921  54.817 -19.607  1.00  0.00     0.183 HD
HETATM    8  C12 UNL     1       1.163  52.919 -19.317  1.00  0.00     0.684 A 
HETATM    9  N6  UNL     1       0.484  51.878 -19.823  1.00  0.00    -0.174 N 
ATOM     10  H6  UNL     1       0.251  51.069 -19.247  1.00  0.00     0.186 HD
HETATM   11  C24 UNL     1       0.120  51.940 -21.125  1.00  0.00     0.162 A 
HETATM   12  N7  UNL     1      -0.606  50.883 -21.704  1.00  0.00    -0.128 N 
HETATM   13  C25 UNL     1      -1.122  49.743 -21.122  1.00  0.00     0.086 A 
HETATM   14  C26 UNL     1      -1.151  49.243 -19.811  1.00  0.00     0.033 A 
HETATM   15  C27 UNL     1      -1.788  48.016 -19.601  1.00  0.00     0.002 A 
HETATM   16  C28 UNL     1      -2.379  47.318 -20.655  1.00  0.00     0.002 A 
HETATM   17  C29 UNL     1      -2.356  47.836 -21.953  1.00  0.00     0.032 A 
HETATM   18  C30 UNL     1      -1.723  49.068 -22.182  1.00  0.00     0.077 A 
HETATM   19  N8  UNL     1      -1.598  49.768 -23.353  1.00  0.00    -0.188 N 
ATOM     20  H8  UNL     1      -1.949  49.498 -24.271  1.00  0.00     0.184 HD
HETATM   21  C31 UNL     1      -0.931  50.860 -23.047  1.00  0.00     0.701 A 
ENDROOT
BRANCH   8  22
HETATM   22  N3  UNL     1       1.599  52.937 -17.998  1.00  0.00    -0.192 N 
HETATM   23  H11 UNL     1       2.525  53.340 -17.960  1.00  0.00     0.184 HD
BRANCH  22  24
HETATM   24  C13 UNL     1       1.216  52.204 -16.868  1.00  0.00     0.049 A 
HETATM   25  C14 UNL     1       1.616  52.507 -15.568  1.00  0.00     0.032 A 
HETATM   26  C15 UNL     1       1.238  51.700 -14.483  1.00  0.00     0.031 A 
HETATM   27  C16 UNL     1       0.449  50.554 -14.643  1.00  0.00     0.030 A 
HETATM   28  C22 UNL     1       0.071  50.246 -15.954  1.00  0.00     0.031 A 
HETATM   29  C23 UNL     1       0.448  51.048 -17.044  1.00  0.00     0.032 A 
BRANCH  27  30
HETATM   30  N4  UNL     1       0.087  49.766 -13.564  1.00  0.00    -0.378 N 
HETATM   31  C17 UNL     1       0.785  48.509 -13.250  1.00  0.00     0.153 C 
HETATM   32  C18 UNL     1       0.515  48.094 -11.785  1.00  0.00     0.291 C 
HETATM   33  N5  UNL     1      -0.914  47.853 -11.477  1.00  0.00     0.087 N 
HETATM   34  C19 UNL     1      -1.174  48.070 -10.056  1.00  0.00     0.310 C 
HETATM   35  C20 UNL     1      -1.791  48.684 -12.328  1.00  0.00     0.291 C 
HETATM   36  C21 UNL     1      -1.174  50.010 -12.838  1.00  0.00     0.153 C 
ENDBRANCH  27  30
ENDBRANCH  22  24
ENDBRANCH   8  22
BRANCH   1  37
HETATM   37  C8  UNL     1      -0.954  51.817 -25.251  1.00  0.00     0.072 A 
HETATM   38  C2  UNL     1      -0.008  51.431 -26.234  1.00  0.00    -0.034 A 
HETATM   39  C1  UNL     1       1.420  51.093 -25.899  1.00  0.00     0.050 C 
HETATM   40  C3  UNL     1      -0.405  51.359 -27.579  1.00  0.00     0.009 A 
HETATM   41  C4  UNL     1      -1.701  51.698 -27.960  1.00  0.00     0.001 A 
HETATM   42  C5  UNL     1      -2.624  52.096 -26.998  1.00  0.00     0.009 A 
HETATM   43  C6  UNL     1      -2.273  52.148 -25.639  1.00  0.00    -0.034 A 
HETATM   44  C7  UNL     1      -3.332  52.573 -24.655  1.00  0.00     0.050 C 
ENDBRANCH   1  37
TORSDOF 4
ENDMDL
