MODEL 1
REMARK minimizedAffinity -8.20049953
REMARK  6 active torsions:
REMARK  status: ('A' for Active; 'I' for Inactive)
REMARK    1  A    between atoms: O1_2  and  C2_3 
REMARK    2  A    between atoms: C9_10  and  C10_11 
REMARK    3  A    between atoms: C13_15  and  C14_16 
REMARK    4  A    between atoms: C14_16  and  C15_17 
REMARK    5  A    between atoms: C15_17  and  C16_18 
REMARK    6  A    between atoms: C16_18  and  N2_19 
ROOT
HETATM    1  C10 UNL     1      -1.435   5.348  12.285  1.00  0.00     0.040 A 
HETATM    2  N1  UNL     1      -0.674   5.251  11.142  1.00  0.00    -0.359 N 
HETATM    3  C11 UNL     1       0.558   5.799  11.355  1.00  0.00     0.016 A 
HETATM    4  C12 UNL     1       0.611   6.265  12.647  1.00  0.00    -0.027 A 
HETATM    5  C13 UNL     1      -0.646   5.975  13.253  1.00  0.00    -0.023 A 
HETATM    6  C19 UNL     1       1.831   6.918  13.209  1.00  0.00     0.041 C 
HETATM    7  C20 UNL     1       2.799   7.345  12.088  1.00  0.00     0.005 C 
HETATM    8  C21 UNL     1       2.967   6.251  11.015  1.00  0.00     0.006 C 
HETATM    9  C22 UNL     1       1.633   5.898  10.332  1.00  0.00     0.057 C 
HETATM   10  H8  UNL     1      -0.976   4.840  10.264  1.00  0.00     0.166 HD
ENDROOT
BRANCH   1  11
HETATM   11  C9  UNL     1      -2.776   4.869  12.351  1.00  0.00     0.048 C 
HETATM   12  C8  UNL     1      -3.282   3.675  12.002  1.00  0.00     0.047 A 
HETATM   13  C6  UNL     1      -4.715   3.343  12.139  1.00  0.00     0.009 A 
HETATM   14  C23 UNL     1      -2.623   2.442  11.428  1.00  0.00     0.257 A 
HETATM   15  C5  UNL     1      -4.863   2.033  11.683  1.00  0.00     0.046 A 
HETATM   16  C7  UNL     1      -5.818   4.045  12.595  1.00  0.00     0.051 A 
HETATM   17  C4  UNL     1      -6.081   1.385  11.665  1.00  0.00     0.033 A 
HETATM   18  N3  UNL     1      -3.641   1.516  11.274  1.00  0.00    -0.322 N 
HETATM   19  C3  UNL     1      -7.197   2.092  12.126  1.00  0.00     0.039 A 
HETATM   20  C2  UNL     1      -7.071   3.416  12.589  1.00  0.00     0.069 A 
HETATM   21  H29 UNL     1      -3.483   0.592  10.905  1.00  0.00     0.169 HD
HETATM   22  O2  UNL     1      -1.452   2.268  11.149  1.00  0.00    -0.267 OA
BRANCH  20  23
HETATM   23  O1  UNL     1      -8.094   4.196  13.059  1.00  0.00    -0.356 OA
HETATM   24  C1  UNL     1      -8.427   5.353  12.303  1.00  0.00     0.210 C 
ENDBRANCH  20  23
ENDBRANCH   1  11
BRANCH   5  25
HETATM   25  C14 UNL     1      -1.028   6.297  14.667  1.00  0.00     0.043 C 
BRANCH  25  26
HETATM   26  C15 UNL     1      -2.508   6.021  14.944  1.00  0.00     0.035 C 
BRANCH  26  27
HETATM   27  C16 UNL     1      -3.198   7.271  15.504  1.00  0.00     0.271 C 
BRANCH  27  28
HETATM   28  N2  UNL     1      -4.578   7.444  15.018  1.00  0.00     0.080 N 
HETATM   29  C17 UNL     1      -5.465   6.372  15.473  1.00  0.00     0.309 C 
HETATM   30  C18 UNL     1      -5.105   8.739  15.457  1.00  0.00     0.309 C 
ENDBRANCH  27  28
ENDBRANCH  26  27
ENDBRANCH  25  26
ENDBRANCH   5  25
TORSDOF 6
ENDMDL
