MODEL 1
REMARK minimizedAffinity -8.22408199
REMARK  5 active torsions:
REMARK  status: ('A' for Active; 'I' for Inactive)
REMARK    1  A    between atoms: O1_1  and  C1_2 
REMARK    2  A    between atoms: C5_6  and  N1_7 
REMARK    3  A    between atoms: N1_7  and  C6_8 
REMARK    4  A    between atoms: C7_11  and  C8_12 
REMARK    5  A    between atoms: C9_13  and  C10_14 
ROOT
HETATM    1  C6  UNL     1      15.839  35.735  15.178  1.00  0.00     0.119 A 
HETATM    2  N2  UNL     1      14.547  35.712  15.548  1.00  0.00    -0.328 N 
ATOM      3  H2  UNL     1      13.800  35.872  14.872  1.00  0.00     0.169 HD
HETATM    4  C7  UNL     1      14.278  35.471  16.837  1.00  0.00     0.107 A 
HETATM    5  N3  UNL     1      15.191  35.249  17.791  1.00  0.00    -0.342 N 
ATOM      6  H3  UNL     1      14.918  35.077  18.759  1.00  0.00     0.167 HD
HETATM    7  C17 UNL     1      16.472  35.264  17.420  1.00  0.00     0.047 A 
HETATM    8  C18 UNL     1      17.444  35.033  18.387  1.00  0.00     0.030 A 
HETATM    9  C19 UNL     1      18.807  35.021  18.079  1.00  0.00     0.002 A 
HETATM   10  C20 UNL     1      19.219  35.236  16.771  1.00  0.00     0.001 A 
HETATM   11  C21 UNL     1      18.264  35.470  15.783  1.00  0.00     0.017 A 
HETATM   12  C22 UNL     1      16.880  35.497  16.098  1.00  0.00     0.035 A 
ENDROOT
BRANCH   4  13
HETATM   13  C8  UNL     1      12.879  35.430  17.262  1.00  0.00     0.049 C 
HETATM   14  C9  UNL     1      12.472  35.473  18.540  1.00  0.00     0.016 C 
BRANCH  14  15
HETATM   15  C10 UNL     1      11.053  35.423  18.921  1.00  0.00    -0.016 A 
HETATM   16  C11 UNL     1      10.155  36.302  18.287  1.00  0.00     0.052 A 
HETATM   17  C12 UNL     1       8.827  36.266  18.658  1.00  0.00     0.105 A 
HETATM   18  C13 UNL     1       8.368  35.400  19.621  1.00  0.00     0.106 A 
HETATM   19  O3  UNL     1       7.839  37.047  18.147  1.00  0.00    -0.323 OA
HETATM   20  C14 UNL     1       9.209  34.526  20.274  1.00  0.00     0.059 A 
HETATM   21  O2  UNL     1       7.031  35.526  19.833  1.00  0.00    -0.323 OA
HETATM   22  C15 UNL     1      10.566  34.543  19.920  1.00  0.00     0.024 A 
HETATM   23 BR1  UNL     1      11.710  33.326  20.833  1.00  0.00    -0.050 Br
HETATM   24  C16 UNL     1       6.701  36.574  18.897  1.00  0.00     0.352 A 
ENDBRANCH  14  15
ENDBRANCH   4  13
BRANCH   1  25
HETATM   25  N1  UNL     1      16.172  36.028  13.826  1.00  0.00    -0.342 N 
HETATM   26  H5  UNL     1      15.391  36.521  13.405  1.00  0.00     0.167 HD
BRANCH  25  27
HETATM   27  C5  UNL     1      16.825  35.196  12.886  1.00  0.00     0.036 A 
HETATM   28  C4  UNL     1      16.487  33.847  12.709  1.00  0.00     0.029 A 
HETATM   29  C3  UNL     1      17.195  33.033  11.818  1.00  0.00     0.005 A 
HETATM   30  C2  UNL     1      18.270  33.555  11.104  1.00  0.00     0.036 A 
HETATM   31  C1  UNL     1      18.639  34.878  11.301  1.00  0.00     0.067 A 
HETATM   32  C23 UNL     1      17.939  35.695  12.189  1.00  0.00     0.066 A 
BRANCH  31  33
HETATM   33  O1  UNL     1      19.712  35.348  10.598  1.00  0.00    -0.361 OA
HETATM   34  H1  UNL     1      19.857  36.277  10.833  1.00  0.00     0.217 HD
ENDBRANCH  31  33
ENDBRANCH  25  27
ENDBRANCH   1  25
TORSDOF 5
ENDMDL
