MODEL 1
REMARK minimizedAffinity -10.4797621
REMARK  5 active torsions:
REMARK  status: ('A' for Active; 'I' for Inactive)
REMARK    1  A    between atoms: C8_8  and  C9_9 
REMARK    2  A    between atoms: C14_16  and  N2_17 
REMARK    3  A    between atoms: N2_17  and  C15_18 
REMARK    4  A    between atoms: C19_22  and  C20_23 
REMARK       I    between atoms: C20_23  and  N3_25 
REMARK    5  A    between atoms: N3_25  and  C21_26 
ROOT
HETATM    1  C9  UNL     1      -1.226  50.768 -23.407  1.00  0.00    -0.022 A 
HETATM    2  C10 UNL     1      -0.440  51.897 -23.653  1.00  0.00     0.021 A 
HETATM    3  C11 UNL     1       0.215  52.561 -22.602  1.00  0.00    -0.032 A 
HETATM    4  C12 UNL     1       1.055  53.774 -22.903  1.00  0.00     0.050 C 
HETATM    5  C13 UNL     1       0.093  52.102 -21.284  1.00  0.00     0.083 A 
HETATM    6  N1  UNL     1       0.724  52.742 -20.279  1.00  0.00    -0.188 N 
ATOM      7  H1  UNL     1       1.298  53.567 -20.458  1.00  0.00     0.184 HD
HETATM    8  C14 UNL     1       0.574  52.261 -19.035  1.00  0.00     0.697 A 
HETATM    9  N5  UNL     1      -0.179  51.178 -18.774  1.00  0.00    -0.131 N 
ATOM     10  H5  UNL     1      -0.271  50.844 -17.815  1.00  0.00     0.205 HD
HETATM   11  N6  UNL     1      -0.821  50.523 -19.787  1.00  0.00    -0.284 N 
ATOM     12  H6  UNL     1      -1.391  49.701 -19.587  1.00  0.00     0.187 HD
HETATM   13  C26 UNL     1      -0.696  50.969 -21.040  1.00  0.00     0.077 A 
HETATM   14  C27 UNL     1      -1.341  50.319 -22.087  1.00  0.00     0.045 A 
ENDROOT
BRANCH   8  15
HETATM   15  N2  UNL     1       1.251  52.968 -18.044  1.00  0.00    -0.190 N 
HETATM   16  H14 UNL     1       1.240  53.951 -18.277  1.00  0.00     0.184 HD
BRANCH  15  17
HETATM   17  C15 UNL     1       1.971  52.594 -16.905  1.00  0.00     0.050 A 
HETATM   18  C16 UNL     1       3.368  52.601 -16.825  1.00  0.00     0.030 A 
HETATM   19  C17 UNL     1       4.033  52.211 -15.657  1.00  0.00     0.003 A 
HETATM   20  C18 UNL     1       3.310  51.789 -14.544  1.00  0.00     0.017 A 
HETATM   21  C19 UNL     1       1.915  51.747 -14.605  1.00  0.00     0.034 A 
HETATM   22  C25 UNL     1       1.259  52.158 -15.776  1.00  0.00     0.047 A 
BRANCH  21  23
HETATM   23  C20 UNL     1       1.082  51.304 -13.455  1.00  0.00     0.252 C 
HETATM   24  O1  UNL     1       1.308  50.230 -12.912  1.00  0.00    -0.268 OA
HETATM   25  N3  UNL     1       0.092  52.170 -13.041  1.00  0.00    -0.351 N 
HETATM   26  H18 UNL     1      -0.033  53.059 -13.504  1.00  0.00     0.163 HD
BRANCH  25  27
HETATM   27  C21 UNL     1      -0.838  51.812 -11.973  1.00  0.00     0.114 C 
HETATM   28  C22 UNL     1      -2.050  51.080 -12.531  1.00  0.00     0.057 C 
HETATM   29  C23 UNL     1      -2.956  52.218 -12.964  1.00  0.00     0.272 C 
HETATM   30  N4  UNL     1      -2.789  53.244 -11.933  1.00  0.00     0.085 N 
HETATM   31  C24 UNL     1      -1.464  53.053 -11.323  1.00  0.00     0.294 C 
HETATM   32  H24 UNL     1      -2.884  54.177 -12.331  1.00  0.00     0.315 HD
ENDBRANCH  25  27
ENDBRANCH  21  23
ENDBRANCH  15  17
ENDBRANCH   8  15
BRANCH   1  33
HETATM   33  C8  UNL     1      -1.913  50.069 -24.505  1.00  0.00    -0.014 A 
HETATM   34  C2  UNL     1      -1.559  50.325 -25.854  1.00  0.00    -0.050 A 
HETATM   35  C1  UNL     1      -0.480  51.314 -26.214  1.00  0.00     0.049 C 
HETATM   36  C3  UNL     1      -2.226  49.652 -26.890  1.00  0.00     0.007 A 
HETATM   37  C4  UNL     1      -3.231  48.733 -26.609  1.00  0.00     0.001 A 
HETATM   38  C5  UNL     1      -3.586  48.473 -25.288  1.00  0.00     0.007 A 
HETATM   39  C6  UNL     1      -2.940  49.131 -24.230  1.00  0.00    -0.050 A 
HETATM   40  C7  UNL     1      -3.363  48.813 -22.818  1.00  0.00     0.049 C 
ENDBRANCH   1  33
TORSDOF 5
ENDMDL
