MODEL 1
REMARK minimizedAffinity -8.64374447
REMARK CNNscore 0.831923306
REMARK CNNaffinity 8.03760147
REMARK  10 active torsions:
REMARK  status: ('A' for Active; 'I' for Inactive)
REMARK    1  A    between atoms: C2_2  and  C3_3 
REMARK    2  A    between atoms: C2_2  and  O1_9 
REMARK    3  A    between atoms: C4_4  and  C5_5 
REMARK    4  A    between atoms: O1_9  and  C6_10 
REMARK    5  A    between atoms: C8_12  and  C9_13 
REMARK    6  A    between atoms: C11_15  and  C12_16 
REMARK    7  A    between atoms: C14_18  and  C15_19 
REMARK    8  A    between atoms: C15_19  and  N1_20 
REMARK    9  A    between atoms: C20_28  and  N3_29 
REMARK   10  A    between atoms: C23_32  and  C24_33 
REMARK       I    between atoms: C24_33  and  N4_34 
ROOT
HETATM    1  C6  UNL     1      -1.540  51.568 -24.831  1.00  0.00     0.086 A 
HETATM    2  C7  UNL     1      -1.247  51.817 -23.484  1.00  0.00     0.050 A 
HETATM    3  C8  UNL     1      -0.076  52.493 -23.111  1.00  0.00    -0.020 A 
HETATM    4  C21 UNL     1       0.769  52.964 -24.126  1.00  0.00     0.013 A 
HETATM    5  C22 UNL     1       0.458  52.761 -25.475  1.00  0.00     0.021 A 
HETATM    6  C23 UNL     1      -0.697  52.055 -25.838  1.00  0.00     0.065 A 
ENDROOT
BRANCH   3   7
HETATM    7  C9  UNL     1       0.257  52.689 -21.692  1.00  0.00     0.013 A 
HETATM    8  C10 UNL     1      -0.241  51.799 -20.724  1.00  0.00     0.029 A 
HETATM    9  C11 UNL     1       0.060  51.968 -19.371  1.00  0.00    -0.003 A 
HETATM   10  C19 UNL     1       0.861  53.056 -19.044  1.00  0.00     0.102 A 
HETATM   11  N2  UNL     1       1.367  53.938 -19.939  1.00  0.00    -0.355 N 
HETATM   12  C20 UNL     1       1.070  53.740 -21.238  1.00  0.00     0.088 A 
ATOM     13  H2  UNL     1       1.949  54.721 -19.641  1.00  0.00     0.166 HD
BRANCH   9  14
HETATM   14  C12 UNL     1      -0.451  51.071 -18.330  1.00  0.00     0.017 A 
HETATM   15  C13 UNL     1       0.258  50.358 -17.381  1.00  0.00     0.029 A 
HETATM   16  C14 UNL     1      -0.571  49.541 -16.538  1.00  0.00    -0.022 A 
HETATM   17  C18 UNL     1      -1.902  49.702 -16.876  1.00  0.00     0.059 A 
HETATM   18  S1  UNL     1      -2.131  50.762 -18.194  1.00  0.00    -0.101 SA
BRANCH  16  19
HETATM   19  C15 UNL     1      -0.066  48.679 -15.412  1.00  0.00     0.310 C 
BRANCH  19  20
HETATM   20  N1  UNL     1       0.385  49.431 -14.235  1.00  0.00     0.084 N 
HETATM   21  C16 UNL     1       1.784  49.839 -14.299  1.00  0.00     0.309 C 
HETATM   22  C17 UNL     1      -0.483  50.546 -13.878  1.00  0.00     0.309 C 
ENDBRANCH  19  20
ENDBRANCH  16  19
ENDBRANCH   9  14
BRANCH  12  23
HETATM   23  N3  UNL     1       1.615  54.686 -22.110  1.00  0.00    -0.288 NA
HETATM   24  H20 UNL     1       2.214  55.290 -21.554  1.00  0.00     0.125 HD
HETATM   25  H21 UNL     1       2.127  54.238 -22.867  1.00  0.00     0.125 HD
ENDBRANCH  12  23
ENDBRANCH   3   7
BRANCH   1  26
HETATM   26  O1  UNL     1      -2.681  50.845 -25.071  1.00  0.00    -0.341 OA
BRANCH  26  27
HETATM   27  C2  UNL     1      -2.597  49.504 -24.555  1.00  0.00     0.147 C 
HETATM   28  C1  UNL     1      -3.058  48.559 -25.664  1.00  0.00     0.044 C 
BRANCH  27  29
HETATM   29  C3  UNL     1      -3.520  49.388 -23.363  1.00  0.00     0.009 C 
HETATM   30  C4  UNL     1      -3.254  48.838 -22.163  1.00  0.00     0.087 C 
BRANCH  30  31
HETATM   31  C5  UNL     1      -2.004  48.208 -21.646  1.00  0.00     0.407 C 
HETATM   32  F1  UNL     1      -2.108  47.944 -20.317  1.00  0.00    -0.167 F 
HETATM   33  F2  UNL     1      -1.772  47.021 -22.260  1.00  0.00    -0.167 F 
HETATM   34  F3  UNL     1      -0.889  48.958 -21.810  1.00  0.00    -0.167 F 
ENDBRANCH  30  31
ENDBRANCH  27  29
ENDBRANCH  26  27
ENDBRANCH   1  26
BRANCH   6  35
HETATM   35  C24 UNL     1      -1.007  51.859 -27.278  1.00  0.00     0.252 C 
HETATM   36  N4  UNL     1      -0.371  52.694 -28.157  1.00  0.00    -0.366 N 
HETATM   37  H24 UNL     1      -0.488  52.478 -29.140  1.00  0.00     0.159 HD
HETATM   38  H25 UNL     1       0.439  53.236 -27.889  1.00  0.00     0.159 HD
HETATM   39  O2  UNL     1      -1.758  50.984 -27.685  1.00  0.00    -0.268 OA
ENDBRANCH   6  35
TORSDOF 10
ENDMDL
