MODEL 1
REMARK minimizedAffinity -9.5171833
REMARK  10 active torsions:
REMARK  status: ('A' for Active; 'I' for Inactive)
REMARK       I    between atoms: N1_2  and  C2_3 
REMARK    1  A    between atoms: C2_3  and  C3_5 
REMARK    2  A    between atoms: C3_5  and  N2_6 
REMARK    3  A    between atoms: N2_6  and  C4_7 
REMARK    4  A    between atoms: C4_7  and  C5_8 
REMARK    5  A    between atoms: C5_8  and  O2_9 
REMARK    6  A    between atoms: O2_9  and  C6_10 
REMARK    7  A    between atoms: C9_13  and  N3_14 
REMARK    8  A    between atoms: C11_16  and  C12_17 
REMARK    9  A    between atoms: C16_21  and  O3_22 
REMARK   10  A    between atoms: C20_26  and  N4_27 
ROOT
HETATM    1  N3  UNL     1      -1.651  51.352 -25.329  1.00  0.00    -0.307 N 
HETATM    2  C10 UNL     1      -1.378  51.304 -23.971  1.00  0.00     0.112 A 
HETATM    3  C11 UNL     1      -0.602  52.384 -23.603  1.00  0.00     0.007 A 
HETATM    4  C19 UNL     1      -0.363  53.145 -24.783  1.00  0.00     0.059 A 
HETATM    5  C20 UNL     1       0.309  54.338 -25.101  1.00  0.00     0.093 A 
HETATM    6  N5  UNL     1       0.346  54.756 -26.377  1.00  0.00    -0.343 N 
ATOM      7  H5  UNL     1       0.837  55.613 -26.633  1.00  0.00     0.167 HD
HETATM    8  C21 UNL     1      -0.278  54.018 -27.306  1.00  0.00     0.183 A 
HETATM    9  N6  UNL     1      -0.972  52.893 -27.124  1.00  0.00    -0.337 N 
ATOM     10  H6  UNL     1      -1.440  52.394 -27.880  1.00  0.00     0.168 HD
HETATM   11  C22 UNL     1      -0.993  52.480 -25.836  1.00  0.00     0.127 A 
ENDROOT
BRANCH   1  12
HETATM   12  C9  UNL     1      -2.474  50.404 -26.038  1.00  0.00     0.040 A 
HETATM   13  C8  UNL     1      -2.940  49.238 -25.400  1.00  0.00     0.033 A 
HETATM   14  C7  UNL     1      -3.763  48.315 -26.070  1.00  0.00     0.039 A 
HETATM   15  C6  UNL     1      -4.137  48.542 -27.388  1.00  0.00     0.069 A 
HETATM   16  C24 UNL     1      -3.666  49.685 -28.032  1.00  0.00     0.039 A 
HETATM   17  C23 UNL     1      -2.847  50.608 -27.369  1.00  0.00     0.033 A 
BRANCH  15  18
HETATM   18  O2  UNL     1      -4.927  47.748 -28.164  1.00  0.00    -0.349 OA
BRANCH  18  19
HETATM   19  C5  UNL     1      -6.332  47.668 -27.900  1.00  0.00     0.205 C 
BRANCH  19  20
HETATM   20  C4  UNL     1      -7.169  48.024 -29.144  1.00  0.00     0.296 C 
BRANCH  20  21
HETATM   21  N2  UNL     1      -6.459  48.740 -30.217  1.00  0.00     0.094 N 
HETATM   22  H7  UNL     1      -6.936  49.640 -30.349  1.00  0.00     0.316 HD
BRANCH  21  23
HETATM   23  C3  UNL     1      -6.538  48.029 -31.515  1.00  0.00     0.371 C 
BRANCH  23  24
HETATM   24  C2  UNL     1      -5.125  47.615 -31.945  1.00  0.00     0.245 C 
HETATM   25  N1  UNL     1      -4.774  48.114 -33.185  1.00  0.00    -0.364 N 
HETATM   26  C1  UNL     1      -3.554  47.732 -33.844  1.00  0.00     0.149 C 
HETATM   27  H4  UNL     1      -5.563  48.438 -33.739  1.00  0.00     0.161 HD
HETATM   28  O1  UNL     1      -4.393  46.920 -31.244  1.00  0.00    -0.272 OA
ENDBRANCH  23  24
ENDBRANCH  21  23
ENDBRANCH  20  21
ENDBRANCH  19  20
ENDBRANCH  18  19
ENDBRANCH  15  18
ENDBRANCH   1  12
BRANCH   3  29
HETATM   29  C12 UNL     1      -0.141  52.580 -22.235  1.00  0.00    -0.021 A 
HETATM   30  C13 UNL     1       1.030  53.297 -21.974  1.00  0.00     0.012 A 
HETATM   31  C14 UNL     1       1.470  53.471 -20.664  1.00  0.00     0.004 A 
HETATM   32  C15 UNL     1       0.744  52.919 -19.610  1.00  0.00     0.037 A 
HETATM   33  C16 UNL     1      -0.427  52.201 -19.852  1.00  0.00     0.069 A 
HETATM   34  C18 UNL     1      -0.874  52.047 -21.165  1.00  0.00     0.049 A 
BRANCH  33  35
HETATM   35  O3  UNL     1      -1.036  51.705 -18.733  1.00  0.00    -0.356 OA
HETATM   36  C17 UNL     1      -2.454  51.582 -18.777  1.00  0.00     0.210 C 
ENDBRANCH  33  35
ENDBRANCH   3  29
BRANCH   5  37
HETATM   37  N4  UNL     1       0.929  55.162 -24.166  1.00  0.00    -0.288 NA
HETATM   38  H22 UNL     1       0.467  55.168 -23.267  1.00  0.00     0.125 HD
HETATM   39  H23 UNL     1       1.078  56.079 -24.575  1.00  0.00     0.125 HD
ENDBRANCH   5  37
TORSDOF 10
ENDMDL
