MODEL 1
REMARK minimizedAffinity -9.41772747
REMARK CNNscore 0.514182866
REMARK CNNaffinity 7.36409616
REMARK  14 active torsions:
REMARK  status: ('A' for Active; 'I' for Inactive)
REMARK    1  A    between atoms: O1_2  and  C2_3 
REMARK    2  A    between atoms: C6_7  and  C7_8 
REMARK    3  A    between atoms: N1_10  and  C9_11 
REMARK    4  A    between atoms: C13_15  and  C14_16 
REMARK       I    between atoms: C14_16  and  N2_18 
REMARK    5  A    between atoms: N2_18  and  C15_19 
REMARK    6  A    between atoms: C15_19  and  C16_20 
REMARK    7  A    between atoms: C16_20  and  C17_21 
REMARK    8  A    between atoms: C17_21  and  P1_22 
REMARK    9  A    between atoms: P1_22  and  O4_24 
REMARK   10  A    between atoms: P1_22  and  C18_25 
REMARK   11  A    between atoms: C18_25  and  P2_26 
REMARK   12  A    between atoms: P2_26  and  O6_28 
REMARK   13  A    between atoms: P2_26  and  O7_29 
REMARK   14  A    between atoms: C22_37  and  N5_38 
ROOT
HETATM    1  C9  UNL     1      -1.131  50.936 -24.456  1.00  0.00     0.041 A 
HETATM    2  C10 UNL     1      -0.507  51.228 -25.681  1.00  0.00     0.030 A 
HETATM    3  C11 UNL     1      -1.012  50.728 -26.887  1.00  0.00     0.003 A 
HETATM    4  C12 UNL     1      -2.156  49.934 -26.892  1.00  0.00     0.017 A 
HETATM    5  C13 UNL     1      -2.803  49.645 -25.688  1.00  0.00     0.034 A 
HETATM    6  C19 UNL     1      -2.280  50.131 -24.475  1.00  0.00     0.047 A 
ENDROOT
BRANCH   1   7
HETATM    7  N1  UNL     1      -0.593  51.451 -23.225  1.00  0.00    -0.307 N 
HETATM    8  C8  UNL     1      -0.737  50.842 -21.984  1.00  0.00     0.112 A 
HETATM    9  C7  UNL     1      -0.115  51.608 -21.020  1.00  0.00     0.007 A 
HETATM   10  C23 UNL     1       0.451  52.736 -21.669  1.00  0.00     0.059 A 
HETATM   11  C20 UNL     1       0.159  52.615 -23.026  1.00  0.00     0.127 A 
HETATM   12  C22 UNL     1       1.195  53.861 -21.271  1.00  0.00     0.093 A 
HETATM   13  N3  UNL     1       0.564  53.484 -23.974  1.00  0.00    -0.337 N 
HETATM   14  C21 UNL     1       1.269  54.512 -23.481  1.00  0.00     0.183 A 
ATOM     15  H3  UNL     1       0.356  53.371 -24.966  1.00  0.00     0.168 HD
HETATM   16  N4  UNL     1       1.606  54.741 -22.203  1.00  0.00    -0.343 N 
ATOM     17  H4  UNL     1       2.158  55.559 -21.945  1.00  0.00     0.167 HD
BRANCH   9  18
HETATM   18  C6  UNL     1      -0.106  51.229 -19.623  1.00  0.00    -0.021 A 
HETATM   19  C5  UNL     1      -0.619  49.989 -19.228  1.00  0.00     0.012 A 
HETATM   20  C4  UNL     1      -0.595  49.624 -17.882  1.00  0.00     0.004 A 
HETATM   21  C3  UNL     1      -0.070  50.498 -16.926  1.00  0.00     0.037 A 
HETATM   22  C2  UNL     1       0.436  51.741 -17.313  1.00  0.00     0.069 A 
HETATM   23  C24 UNL     1       0.430  52.096 -18.666  1.00  0.00     0.049 A 
BRANCH  22  24
HETATM   24  O1  UNL     1       0.979  52.676 -16.474  1.00  0.00    -0.356 OA
HETATM   25  C1  UNL     1       1.692  52.184 -15.348  1.00  0.00     0.210 C 
ENDBRANCH  22  24
ENDBRANCH   9  18
BRANCH  12  26
HETATM   26  N5  UNL     1       1.559  54.124 -19.958  1.00  0.00    -0.288 NA
HETATM   27  H25 UNL     1       2.302  54.812 -19.920  1.00  0.00     0.125 HD
HETATM   28  H26 UNL     1       1.673  53.308 -19.374  1.00  0.00     0.125 HD
ENDBRANCH  12  26
ENDBRANCH   1   7
BRANCH   5  29
HETATM   29  C14 UNL     1      -4.043  48.819 -25.645  1.00  0.00     0.251 C 
HETATM   30  O2  UNL     1      -4.551  48.516 -24.571  1.00  0.00    -0.268 OA
HETATM   31  N2  UNL     1      -4.590  48.476 -26.869  1.00  0.00    -0.357 N 
HETATM   32  H11 UNL     1      -4.288  49.013 -27.673  1.00  0.00     0.162 HD
BRANCH  31  33
HETATM   33  C15 UNL     1      -5.919  47.906 -26.929  1.00  0.00     0.123 C 
BRANCH  33  34
HETATM   34  C16 UNL     1      -6.173  47.227 -28.269  1.00  0.00     0.029 C 
BRANCH  34  35
HETATM   35  C17 UNL     1      -7.184  46.097 -28.124  1.00  0.00     0.096 C 
BRANCH  35  36
HETATM   36  P1  UNL     1      -8.526  46.102 -29.308  1.00  0.00     0.109 P 
HETATM   37  O3  UNL     1      -8.769  44.762 -29.921  1.00  0.00    -0.673 OA
BRANCH  36  38
HETATM   38  O4  UNL     1      -9.804  46.572 -28.446  1.00  0.00    -0.349 OA
HETATM   39  H18 UNL     1     -10.662  46.309 -28.863  1.00  0.00     0.217 HD
ENDBRANCH  36  38
BRANCH  36  40
HETATM   40  C18 UNL     1      -8.244  47.437 -30.459  1.00  0.00     0.218 C 
BRANCH  40  41
HETATM   41  P2  UNL     1      -9.032  49.005 -30.189  1.00  0.00     0.244 P 
HETATM   42  O5  UNL     1      -8.695  50.091 -31.152  1.00  0.00    -0.653 OA
BRANCH  41  43
HETATM   43  O6  UNL     1      -8.758  49.396 -28.661  1.00  0.00    -0.329 OA
HETATM   44  H21 UNL     1      -9.079  50.291 -28.451  1.00  0.00     0.220 HD
ENDBRANCH  41  43
BRANCH  41  45
HETATM   45  O7  UNL     1     -10.604  48.683 -30.097  1.00  0.00    -0.329 OA
HETATM   46  H22 UNL     1     -10.844  47.814 -29.729  1.00  0.00     0.220 HD
ENDBRANCH  41  45
ENDBRANCH  40  41
ENDBRANCH  36  40
ENDBRANCH  35  36
ENDBRANCH  34  35
ENDBRANCH  33  34
ENDBRANCH  31  33
ENDBRANCH   5  29
TORSDOF 14
ENDMDL
