MODEL 1
REMARK minimizedAffinity -8.04412651
REMARK  10 active torsions:
REMARK  status: ('A' for Active; 'I' for Inactive)
REMARK    1  A    between atoms: C2_2  and  O1_3 
REMARK    2  A    between atoms: O1_3  and  C3_4 
REMARK    3  A    between atoms: C7_9  and  N1_10 
REMARK    4  A    between atoms: N1_10  and  C8_11 
REMARK    5  A    between atoms: C12_19  and  O2_20 
REMARK    6  A    between atoms: O2_20  and  C13_21 
REMARK    7  A    between atoms: C13_21  and  C14_22 
REMARK    8  A    between atoms: C14_22  and  C15_23 
REMARK    9  A    between atoms: C15_23  and  N4_24 
REMARK   10  A    between atoms: C20_30  and  O4_31 
ROOT
HETATM    1  C8  UNL     1      -1.630  52.397 -26.963  1.00  0.00     0.098 A 
HETATM    2  N2  UNL     1      -1.452  53.317 -27.928  1.00  0.00    -0.342 N 
ATOM      3  H2  UNL     1      -1.954  53.269 -28.815  1.00  0.00     0.167 HD
HETATM    4  C9  UNL     1      -0.587  54.298 -27.666  1.00  0.00     0.182 A 
HETATM    5  N3  UNL     1       0.132  54.439 -26.545  1.00  0.00    -0.351 N 
ATOM      6  H3  UNL     1       0.792  55.208 -26.427  1.00  0.00     0.166 HD
HETATM    7  C10 UNL     1      -0.056  53.524 -25.590  1.00  0.00     0.049 A 
HETATM    8  C11 UNL     1       0.667  53.646 -24.410  1.00  0.00     0.070 A 
HETATM    9  C12 UNL     1       0.526  52.737 -23.356  1.00  0.00     0.104 A 
HETATM   10  C20 UNL     1      -0.382  51.674 -23.482  1.00  0.00     0.102 A 
HETATM   11  C22 UNL     1      -1.110  51.536 -24.665  1.00  0.00     0.056 A 
HETATM   12  C23 UNL     1      -0.947  52.455 -25.733  1.00  0.00     0.032 A 
ENDROOT
BRANCH   1  13
HETATM   13  N1  UNL     1      -2.520  51.311 -27.209  1.00  0.00    -0.243 NA
HETATM   14  H8  UNL     1      -3.023  51.520 -28.067  1.00  0.00     0.135 HD
BRANCH  13  15
HETATM   15  C7  UNL     1      -3.386  50.761 -26.228  1.00  0.00     0.038 A 
HETATM   16  C6  UNL     1      -3.702  49.391 -26.168  1.00  0.00     0.055 A 
HETATM   17  C5  UNL     1      -4.528  48.900 -25.152  1.00  0.00     0.028 A 
HETATM   18 CL1  UNL     1      -3.166  48.266 -27.369  1.00  0.00    -0.082 Cl
HETATM   19  C4  UNL     1      -5.055  49.762 -24.185  1.00  0.00     0.038 A 
HETATM   20  C3  UNL     1      -4.761  51.122 -24.232  1.00  0.00     0.070 A 
HETATM   21  C24 UNL     1      -3.928  51.610 -25.248  1.00  0.00     0.062 A 
BRANCH  20  22
HETATM   22  O1  UNL     1      -5.198  52.078 -23.358  1.00  0.00    -0.351 OA
BRANCH  22  23
HETATM   23  C2  UNL     1      -4.362  52.452 -22.264  1.00  0.00     0.171 C 
HETATM   24  C1  UNL     1      -4.529  51.488 -21.102  1.00  0.00     0.034 C 
ENDBRANCH  22  23
ENDBRANCH  20  22
ENDBRANCH  13  15
ENDBRANCH   1  13
BRANCH  10  25
HETATM   25  O4  UNL     1      -0.474  50.823 -22.410  1.00  0.00    -0.353 OA
HETATM   26  C21 UNL     1      -1.483  49.823 -22.445  1.00  0.00     0.210 C 
ENDBRANCH  10  25
BRANCH   9  27
HETATM   27  O2  UNL     1       1.207  52.798 -22.170  1.00  0.00    -0.348 OA
BRANCH  27  28
HETATM   28  C13 UNL     1       1.289  54.023 -21.449  1.00  0.00     0.177 C 
BRANCH  28  29
HETATM   29  C14 UNL     1       0.582  53.954 -20.097  1.00  0.00     0.046 C 
BRANCH  29  30
HETATM   30  C15 UNL     1       0.825  52.684 -19.264  1.00  0.00     0.119 C 
BRANCH  30  31
HETATM   31  N4  UNL     1      -0.216  52.206 -18.360  1.00  0.00    -0.408 N 
HETATM   32  C16 UNL     1      -1.487  51.798 -18.963  1.00  0.00     0.143 C 
HETATM   33  C17 UNL     1      -1.802  50.310 -18.750  1.00  0.00     0.187 C 
HETATM   34  O3  UNL     1      -1.822  49.917 -17.371  1.00  0.00    -0.388 OA
HETATM   35  C18 UNL     1      -0.964  50.713 -16.538  1.00  0.00     0.187 C 
HETATM   36  C19 UNL     1       0.235  51.304 -17.296  1.00  0.00     0.143 C 
ENDBRANCH  30  31
ENDBRANCH  29  30
ENDBRANCH  28  29
ENDBRANCH  27  28
ENDBRANCH   9  27
TORSDOF 10
ENDMDL
