MODEL 1
REMARK minimizedAffinity -10.0429544
REMARK CNNscore 0.303968161
REMARK CNNaffinity 6.90154219
REMARK  5 active torsions:
REMARK  status: ('A' for Active; 'I' for Inactive)
REMARK    1  A    between atoms: O1_1  and  C1_2 
REMARK    2  A    between atoms: C5_6  and  N1_7 
REMARK    3  A    between atoms: N1_7  and  C6_8 
REMARK    4  A    between atoms: C7_11  and  C8_12 
REMARK    5  A    between atoms: C9_13  and  C10_14 
ROOT
HETATM    1  C6  UNL     1      -0.154  52.112 -23.224  1.00  0.00     0.119 A 
HETATM    2  N2  UNL     1      -1.255  51.437 -23.595  1.00  0.00    -0.328 N 
ATOM      3  H2  UNL     1      -1.434  51.213 -24.573  1.00  0.00     0.169 HD
HETATM    4  C7  UNL     1      -2.108  51.071 -22.630  1.00  0.00     0.107 A 
HETATM    5  N3  UNL     1      -1.955  51.320 -21.324  1.00  0.00    -0.342 N 
ATOM      6  H3  UNL     1      -2.648  51.016 -20.640  1.00  0.00     0.167 HD
HETATM    7  C17 UNL     1      -0.856  51.982 -20.957  1.00  0.00     0.047 A 
HETATM    8  C18 UNL     1      -0.666  52.252 -19.606  1.00  0.00     0.030 A 
HETATM    9  C19 UNL     1       0.462  52.931 -19.139  1.00  0.00     0.002 A 
HETATM   10  C20 UNL     1       1.436  53.348 -20.036  1.00  0.00     0.001 A 
HETATM   11  C21 UNL     1       1.269  53.088 -21.396  1.00  0.00     0.017 A 
HETATM   12  C22 UNL     1       0.115  52.412 -21.873  1.00  0.00     0.035 A 
ENDROOT
BRANCH   4  13
HETATM   13  C8  UNL     1      -3.310  50.326 -23.008  1.00  0.00     0.049 C 
HETATM   14  C9  UNL     1      -3.394  49.511 -24.071  1.00  0.00     0.016 C 
BRANCH  14  15
HETATM   15  C10 UNL     1      -4.627  48.786 -24.415  1.00  0.00    -0.016 A 
HETATM   16  C11 UNL     1      -5.503  48.419 -23.378  1.00  0.00     0.052 A 
HETATM   17  C12 UNL     1      -6.650  47.724 -23.701  1.00  0.00     0.105 A 
HETATM   18  C13 UNL     1      -6.951  47.387 -25.000  1.00  0.00     0.106 A 
HETATM   19  O3  UNL     1      -7.594  47.295 -22.821  1.00  0.00    -0.323 OA
HETATM   20  C14 UNL     1      -6.120  47.719 -26.048  1.00  0.00     0.059 A 
HETATM   21  O2  UNL     1      -8.124  46.707 -25.098  1.00  0.00    -0.323 OA
HETATM   22  C15 UNL     1      -4.945  48.422 -25.748  1.00  0.00     0.024 A 
HETATM   23 BR1  UNL     1      -3.814  48.872 -27.211  1.00  0.00    -0.050 Br
HETATM   24  C16 UNL     1      -8.527  46.651 -23.712  1.00  0.00     0.352 A 
ENDBRANCH  14  15
ENDBRANCH   4  13
BRANCH   1  25
HETATM   25  N1  UNL     1       0.760  52.557 -24.221  1.00  0.00    -0.342 N 
HETATM   26  H5  UNL     1       1.159  53.439 -23.916  1.00  0.00     0.167 HD
BRANCH  25  27
HETATM   27  C5  UNL     1       0.608  52.517 -25.627  1.00  0.00     0.036 A 
HETATM   28  C4  UNL     1       1.484  51.810 -26.462  1.00  0.00     0.029 A 
HETATM   29  C3  UNL     1       1.344  51.843 -27.854  1.00  0.00     0.005 A 
HETATM   30  C2  UNL     1       0.334  52.606 -28.433  1.00  0.00     0.036 A 
HETATM   31  C1  UNL     1      -0.514  53.343 -27.619  1.00  0.00     0.067 A 
HETATM   32  C23 UNL     1      -0.380  53.315 -26.230  1.00  0.00     0.066 A 
BRANCH  31  33
HETATM   33  O1  UNL     1      -1.479  54.095 -28.225  1.00  0.00    -0.361 OA
HETATM   34  H1  UNL     1      -1.993  54.554 -27.543  1.00  0.00     0.217 HD
ENDBRANCH  31  33
ENDBRANCH  25  27
ENDBRANCH   1  25
TORSDOF 5
ENDMDL
