MODEL 1
REMARK minimizedAffinity -8.98466492
REMARK  9 active torsions:
REMARK  status: ('A' for Active; 'I' for Inactive)
REMARK    1  A    between atoms: C2_2  and  C4_4 
REMARK    2  A    between atoms: C4_4  and  N1_5 
REMARK    3  A    between atoms: N1_5  and  S1_6 
REMARK    4  A    between atoms: S1_6  and  C5_9 
REMARK    5  A    between atoms: C12_16  and  C13_17 
REMARK    6  A    between atoms: C16_21  and  C17_22 
REMARK    7  A    between atoms: C17_22  and  C18_23 
REMARK    8  A    between atoms: C18_23  and  C19_24 
REMARK    9  A    between atoms: C19_24  and  N3_25 
ROOT
HETATM    1  C5  UNL     1       2.557   6.991  12.444  1.00  0.00     0.080 A 
HETATM    2  C6  UNL     1       2.880   7.465  13.732  1.00  0.00     0.027 A 
HETATM    3  C7  UNL     1       1.970   7.320  14.781  1.00  0.00     0.032 A 
HETATM    4  C8  UNL     1       0.774   6.690  14.503  1.00  0.00     0.046 A 
HETATM    5  C9  UNL     1       0.450   6.196  13.233  1.00  0.00     0.008 A 
HETATM    6  C10 UNL     1       1.342   6.338  12.184  1.00  0.00     0.040 A 
HETATM    7  C11 UNL     1      -0.891   5.587  13.350  1.00  0.00     0.047 A 
HETATM    8  C12 UNL     1      -1.511   4.990  12.318  1.00  0.00     0.048 C 
HETATM    9  C26 UNL     1      -1.315   5.787  14.786  1.00  0.00     0.257 A 
HETATM   10  O3  UNL     1      -2.353   5.452  15.324  1.00  0.00    -0.267 OA
HETATM   11  N4  UNL     1      -0.263   6.449  15.395  1.00  0.00    -0.322 N 
HETATM   12  H36 UNL     1      -0.274   6.704  16.370  1.00  0.00     0.169 HD
ENDROOT
BRANCH   8  13
HETATM   13  C13 UNL     1      -2.781   4.348  12.264  1.00  0.00     0.040 A 
HETATM   14  N2  UNL     1      -2.925   3.027  11.905  1.00  0.00    -0.359 N 
HETATM   15  C14 UNL     1      -4.246   2.684  11.909  1.00  0.00     0.016 A 
HETATM   16  H15 UNL     1      -2.169   2.394  11.660  1.00  0.00     0.166 HD
HETATM   17  C15 UNL     1      -4.983   3.782  12.289  1.00  0.00    -0.027 A 
HETATM   18  C25 UNL     1      -4.776   1.336  11.572  1.00  0.00     0.057 C 
HETATM   19  C16 UNL     1      -4.062   4.845  12.520  1.00  0.00    -0.023 A 
HETATM   20  C22 UNL     1      -6.474   3.753  12.367  1.00  0.00     0.041 C 
HETATM   21  C23 UNL     1      -7.006   2.306  12.357  1.00  0.00     0.005 C 
HETATM   22  C24 UNL     1      -6.291   1.429  11.311  1.00  0.00     0.006 C 
BRANCH  19  23
HETATM   23  C17 UNL     1      -4.432   6.239  12.936  1.00  0.00     0.043 C 
BRANCH  23  24
HETATM   24  C18 UNL     1      -5.893   6.335  13.384  1.00  0.00     0.035 C 
BRANCH  24  25
HETATM   25  C19 UNL     1      -5.991   6.953  14.785  1.00  0.00     0.271 C 
BRANCH  25  26
HETATM   26  N3  UNL     1      -7.244   6.734  15.519  1.00  0.00     0.080 N 
HETATM   27  C20 UNL     1      -7.447   5.335  15.885  1.00  0.00     0.309 C 
HETATM   28  C21 UNL     1      -8.411   7.268  14.825  1.00  0.00     0.309 C 
ENDBRANCH  25  26
ENDBRANCH  24  25
ENDBRANCH  23  24
ENDBRANCH  19  23
ENDBRANCH   8  13
BRANCH   1  29
HETATM   29  S1  UNL     1       3.731   7.179  11.119  1.00  0.00     0.258 S 
HETATM   30  O1  UNL     1       4.882   7.883  11.639  1.00  0.00    -0.201 OA
HETATM   31  O2  UNL     1       3.848   5.901  10.454  1.00  0.00    -0.201 OA
BRANCH  29  32
HETATM   32  N1  UNL     1       2.920   8.194  10.065  1.00  0.00    -0.315 N 
HETATM   33  H10 UNL     1       2.698   9.112  10.444  1.00  0.00     0.172 HD
BRANCH  32  34
HETATM   34  C4  UNL     1       3.038   8.007   8.620  1.00  0.00     0.136 C 
BRANCH  34  35
HETATM   35  C2  UNL     1       1.756   7.403   8.027  1.00  0.00    -0.004 C 
HETATM   36  C1  UNL     1       0.515   8.221   8.388  1.00  0.00     0.011 C 
HETATM   37  C3  UNL     1       1.852   7.205   6.513  1.00  0.00     0.011 C 
ENDBRANCH  34  35
ENDBRANCH  32  34
ENDBRANCH  29  32
ENDBRANCH   1  29
TORSDOF 9
ENDMDL
