MODEL 1
REMARK minimizedAffinity -9.59682846
REMARK CNNscore 0.760019422
REMARK CNNaffinity 7.84611845
REMARK  7 active torsions:
REMARK  status: ('A' for Active; 'I' for Inactive)
REMARK    1  A    between atoms: C2_2  and  S1_3 
REMARK    2  A    between atoms: S1_3  and  C3_6 
REMARK    3  A    between atoms: C10_13  and  C11_14 
REMARK    4  A    between atoms: C14_18  and  C15_19 
REMARK    5  A    between atoms: C15_19  and  C16_20 
REMARK    6  A    between atoms: C16_20  and  C17_21 
REMARK    7  A    between atoms: C17_21  and  N2_22 
REMARK       I    between atoms: N3_25  and  C20_26 
ROOT
HETATM    1  C11 UNL     1      -7.471   6.205  13.760  1.00  0.00     0.040 A 
HETATM    2  N1  UNL     1      -8.718   6.044  13.199  1.00  0.00    -0.359 N 
HETATM    3  C12 UNL     1      -9.625   6.830  13.848  1.00  0.00     0.016 A 
HETATM    4  C13 UNL     1      -8.972   7.524  14.842  1.00  0.00    -0.027 A 
HETATM    5  C14 UNL     1      -7.602   7.133  14.797  1.00  0.00    -0.023 A 
HETATM    6  C24 UNL     1      -9.682   8.466  15.756  1.00  0.00     0.041 C 
HETATM    7  C25 UNL     1     -11.078   8.826  15.215  1.00  0.00     0.005 C 
HETATM    8  C26 UNL     1     -11.830   7.600  14.661  1.00  0.00     0.006 C 
HETATM    9  C27 UNL     1     -11.068   6.929  13.504  1.00  0.00     0.057 C 
HETATM   10  H10 UNL     1      -8.938   5.439  12.413  1.00  0.00     0.166 HD
ENDROOT
BRANCH   1  11
HETATM   11  C10 UNL     1      -6.325   5.498  13.297  1.00  0.00     0.048 C 
HETATM   12  C9  UNL     1      -6.214   4.238  12.844  1.00  0.00     0.047 A 
HETATM   13  C7  UNL     1      -4.931   3.665  12.387  1.00  0.00     0.008 A 
HETATM   14  C28 UNL     1      -7.244   3.145  12.682  1.00  0.00     0.257 A 
HETATM   15  C6  UNL     1      -5.204   2.350  11.997  1.00  0.00     0.046 A 
HETATM   16  C8  UNL     1      -3.642   4.163  12.304  1.00  0.00     0.038 A 
HETATM   17  C5  UNL     1      -4.232   1.491  11.523  1.00  0.00     0.032 A 
HETATM   18  N4  UNL     1      -6.551   2.061  12.170  1.00  0.00    -0.322 N 
HETATM   19  C4  UNL     1      -2.927   1.982  11.433  1.00  0.00     0.026 A 
HETATM   20  C3  UNL     1      -2.644   3.310  11.811  1.00  0.00     0.060 A 
HETATM   21  H36 UNL     1      -6.994   1.176  11.977  1.00  0.00     0.169 HD
HETATM   22  O4  UNL     1      -8.430   3.176  12.948  1.00  0.00    -0.267 OA
BRANCH  20  23
HETATM   23  S1  UNL     1      -0.959   3.898  11.751  1.00  0.00     0.175 S 
HETATM   24  O1  UNL     1      -0.878   4.841  10.650  1.00  0.00    -0.223 OA
HETATM   25  O2  UNL     1      -0.112   2.720  11.795  1.00  0.00    -0.223 OA
BRANCH  23  26
HETATM   26  C2  UNL     1      -0.783   4.800  13.278  1.00  0.00     0.141 C 
HETATM   27  C1  UNL     1      -2.090   5.436  13.699  1.00  0.00     0.021 C 
ENDBRANCH  23  26
ENDBRANCH  20  23
ENDBRANCH   1  11
BRANCH   5  28
HETATM   28  C15 UNL     1      -6.513   7.636  15.699  1.00  0.00     0.043 C 
BRANCH  28  29
HETATM   29  C16 UNL     1      -5.808   8.861  15.106  1.00  0.00     0.035 C 
BRANCH  29  30
HETATM   30  C17 UNL     1      -4.429   8.525  14.521  1.00  0.00     0.273 C 
BRANCH  30  31
HETATM   31  N2  UNL     1      -3.306   9.188  15.205  1.00  0.00     0.091 N 
HETATM   32  C18 UNL     1      -2.690   8.317  16.231  1.00  0.00     0.292 C 
HETATM   33  C19 UNL     1      -1.195   8.589  16.477  1.00  0.00     0.156 C 
HETATM   34  N3  UNL     1      -0.413   8.424  15.254  1.00  0.00    -0.349 N 
HETATM   35  C20 UNL     1       0.882   7.948  15.338  1.00  0.00     0.215 C 
HETATM   36  C22 UNL     1      -1.090   8.792  14.007  1.00  0.00     0.156 C 
HETATM   37  C21 UNL     1       1.628   7.761  14.041  1.00  0.00     0.117 C 
HETATM   38  O3  UNL     1       1.422   7.686  16.413  1.00  0.00    -0.274 OA
HETATM   39  C23 UNL     1      -2.307   9.708  14.247  1.00  0.00     0.292 C 
ENDBRANCH  30  31
ENDBRANCH  29  30
ENDBRANCH  28  29
ENDBRANCH   5  28
TORSDOF 7
ENDMDL
