MODEL 1
REMARK minimizedAffinity -8.57331657
REMARK  8 active torsions:
REMARK  status: ('A' for Active; 'I' for Inactive)
REMARK    1  A    between atoms: O1_2  and  C2_3 
REMARK    2  A    between atoms: C5_6  and  N1_7 
REMARK    3  A    between atoms: N1_7  and  C6_8 
REMARK    4  A    between atoms: C17_24  and  O2_25 
REMARK    5  A    between atoms: O2_25  and  C18_26 
REMARK    6  A    between atoms: C18_26  and  C19_27 
REMARK    7  A    between atoms: C19_27  and  C20_28 
REMARK    8  A    between atoms: C20_28  and  N5_29 
ROOT
HETATM    1  C2  UNL     1      -1.564  50.081 -21.021  1.00  0.00     0.102 A 
HETATM    2  C3  UNL     1      -0.992  50.779 -19.956  1.00  0.00     0.056 A 
HETATM    3  C4  UNL     1      -0.138  51.888 -20.185  1.00  0.00     0.032 A 
HETATM    4  C5  UNL     1       0.481  52.651 -19.175  1.00  0.00     0.098 A 
HETATM    5  N3  UNL     1       1.271  53.700 -19.459  1.00  0.00    -0.342 N 
ATOM      6  H3  UNL     1       1.725  54.242 -18.723  1.00  0.00     0.167 HD
HETATM    7  C14 UNL     1       1.434  54.001 -20.747  1.00  0.00     0.182 A 
HETATM    8  N4  UNL     1       0.901  53.345 -21.784  1.00  0.00    -0.351 N 
ATOM      9  H4  UNL     1       1.079  53.631 -22.747  1.00  0.00     0.166 HD
HETATM   10  C15 UNL     1       0.124  52.297 -21.497  1.00  0.00     0.049 A 
HETATM   11  C16 UNL     1      -0.447  51.589 -22.547  1.00  0.00     0.070 A 
HETATM   12  C17 UNL     1      -1.276  50.482 -22.335  1.00  0.00     0.104 A 
ENDROOT
BRANCH   4  13
HETATM   13  N1  UNL     1       0.323  52.246 -17.819  1.00  0.00    -0.244 NA
HETATM   14  H5  UNL     1      -0.280  51.428 -17.831  1.00  0.00     0.135 HD
BRANCH  13  15
HETATM   15  C6  UNL     1       1.363  52.087 -16.860  1.00  0.00     0.026 A 
HETATM   16  C7  UNL     1       2.549  52.835 -17.042  1.00  0.00     0.025 A 
HETATM   17  C8  UNL     1       3.640  52.722 -16.181  1.00  0.00     0.004 A 
HETATM   18  C9  UNL     1       3.613  51.834 -15.108  1.00  0.00     0.030 A 
HETATM   19  C10 UNL     1       2.465  51.051 -14.950  1.00  0.00     0.044 A 
HETATM   20  N2  UNL     1       2.190  50.083 -14.008  1.00  0.00    -0.365 N 
HETATM   21  C13 UNL     1       1.353  51.145 -15.794  1.00  0.00     0.013 A 
HETATM   22  C11 UNL     1       0.967  49.524 -14.244  1.00  0.00     0.089 A 
HETATM   23  H9  UNL     1       2.821  49.814 -13.266  1.00  0.00     0.165 HD
HETATM   24  C12 UNL     1       0.429  50.153 -15.342  1.00  0.00     0.032 A 
ENDBRANCH  13  15
ENDBRANCH   4  13
BRANCH   1  25
HETATM   25  O1  UNL     1      -2.396  49.000 -20.883  1.00  0.00    -0.353 OA
HETATM   26  C1  UNL     1      -1.856  47.816 -20.313  1.00  0.00     0.210 C 
ENDBRANCH   1  25
BRANCH  12  27
HETATM   27  O2  UNL     1      -1.874  49.752 -23.330  1.00  0.00    -0.348 OA
BRANCH  27  28
HETATM   28  C18 UNL     1      -2.460  50.429 -24.444  1.00  0.00     0.177 C 
BRANCH  28  29
HETATM   29  C19 UNL     1      -1.909  49.866 -25.753  1.00  0.00     0.057 C 
BRANCH  29  30
HETATM   30  C20 UNL     1      -1.975  50.870 -26.908  1.00  0.00     0.274 C 
BRANCH  30  31
HETATM   31  N5  UNL     1      -0.689  51.504 -27.218  1.00  0.00     0.092 N 
HETATM   32  C21 UNL     1       0.409  50.847 -26.472  1.00  0.00     0.298 C 
HETATM   33  C22 UNL     1       1.650  51.745 -26.377  1.00  0.00     0.198 C 
HETATM   34  O3  UNL     1       1.407  52.944 -25.628  1.00  0.00    -0.388 OA
HETATM   35  C23 UNL     1       0.041  53.373 -25.682  1.00  0.00     0.198 C 
HETATM   36  C24 UNL     1      -0.676  52.965 -26.980  1.00  0.00     0.298 C 
ENDBRANCH  30  31
ENDBRANCH  29  30
ENDBRANCH  28  29
ENDBRANCH  27  28
ENDBRANCH  12  27
TORSDOF 8
ENDMDL
