MODEL 1
REMARK minimizedAffinity -7.65934896
REMARK  8 active torsions:
REMARK  status: ('A' for Active; 'I' for Inactive)
REMARK    1  A    between atoms: C4_4  and  N1_5 
REMARK    2  A    between atoms: N1_5  and  C5_6 
REMARK    3  A    between atoms: C5_6  and  C6_7 
REMARK    4  A    between atoms: C6_7  and  N2_8 
REMARK    5  A    between atoms: C10_15  and  C11_16 
REMARK       I    between atoms: C11_16  and  N4_18 
REMARK    6  A    between atoms: N4_18  and  N5_19 
REMARK    7  A    between atoms: C12_21  and  C13_22 
REMARK    8  A    between atoms: C18_28  and  N7_29 
ROOT
HETATM    1  C1  UNL     1      -3.594  48.676 -27.263  1.00  0.00     0.049 C 
HETATM    2  C2  UNL     1      -3.337  50.062 -26.744  1.00  0.00    -0.044 A 
HETATM    3  C3  UNL     1      -2.783  51.020 -27.612  1.00  0.00     0.050 A 
HETATM    4  C4  UNL     1      -2.515  52.311 -27.174  1.00  0.00     0.081 A 
HETATM    5  N3  UNL     1      -2.740  52.721 -25.922  1.00  0.00    -0.341 N 
ATOM      6  H3  UNL     1      -2.518  53.667 -25.609  1.00  0.00     0.167 HD
HETATM    7  C9  UNL     1      -3.280  51.798 -25.104  1.00  0.00     0.089 A 
HETATM    8  S1  UNL     1      -3.609  52.213 -23.489  1.00  0.00    -0.064 SA
HETATM    9  C10 UNL     1      -4.245  50.662 -23.141  1.00  0.00     0.103 A 
HETATM   10  C18 UNL     1      -4.195  49.846 -24.259  1.00  0.00     0.062 A 
HETATM   11  C19 UNL     1      -3.621  50.487 -25.417  1.00  0.00     0.032 A 
ENDROOT
BRANCH   9  12
HETATM   12  C11 UNL     1      -4.775  50.336 -21.817  1.00  0.00     0.279 C 
HETATM   13  O1  UNL     1      -4.063  49.893 -20.914  1.00  0.00    -0.265 OA
HETATM   14  N4  UNL     1      -6.139  50.564 -21.654  1.00  0.00    -0.266 N 
HETATM   15  H16 UNL     1      -6.675  50.937 -22.429  1.00  0.00     0.190 HD
BRANCH  14  16
HETATM   16  N5  UNL     1      -6.749  50.294 -20.463  1.00  0.00    -0.307 N 
HETATM   17  C12 UNL     1      -7.169  49.080 -20.305  1.00  0.00     0.136 C 
ATOM     18  H5  UNL     1      -6.867  51.006 -19.743  1.00  0.00     0.186 HD
BRANCH  17  19
HETATM   19  C13 UNL     1      -7.832  48.659 -19.094  1.00  0.00     0.050 A 
HETATM   20  C14 UNL     1      -9.025  49.161 -18.592  1.00  0.00     0.032 A 
HETATM   21  C15 UNL     1      -9.325  48.482 -17.389  1.00  0.00     0.019 A 
HETATM   22  C16 UNL     1      -8.314  47.576 -17.175  1.00  0.00     0.091 A 
HETATM   23  N6  UNL     1      -7.413  47.684 -18.207  1.00  0.00    -0.360 N 
HETATM   24  C17 UNL     1      -6.214  46.879 -18.318  1.00  0.00     0.155 C 
ENDBRANCH  17  19
ENDBRANCH  14  16
ENDBRANCH   9  12
BRANCH  10  25
HETATM   25  N7  UNL     1      -4.646  48.567 -24.240  1.00  0.00    -0.397 N 
HETATM   26  H24 UNL     1      -4.923  48.084 -25.087  1.00  0.00     0.156 HD
HETATM   27  H25 UNL     1      -5.170  48.241 -23.421  1.00  0.00     0.156 HD
ENDBRANCH  10  25
BRANCH   4  28
HETATM   28  N1  UNL     1      -1.954  53.258 -28.034  1.00  0.00    -0.277 NA
HETATM   29  H5  UNL     1      -1.909  52.800 -28.950  1.00  0.00     0.129 HD
BRANCH  28  30
HETATM   30  C5  UNL     1      -0.602  53.680 -27.656  1.00  0.00     0.124 C 
BRANCH  30  31
HETATM   31  C6  UNL     1       0.373  52.487 -27.799  1.00  0.00     0.286 C 
BRANCH  31  32
HETATM   32  N2  UNL     1       1.372  52.389 -26.709  1.00  0.00     0.081 N 
HETATM   33  C7  UNL     1       2.568  51.655 -27.126  1.00  0.00     0.309 C 
HETATM   34  C8  UNL     1       0.772  51.740 -25.541  1.00  0.00     0.309 C 
ENDBRANCH  31  32
ENDBRANCH  30  31
ENDBRANCH  28  30
ENDBRANCH   4  28
TORSDOF 8
ENDMDL
