MODEL 1
REMARK minimizedAffinity -9.49960327
REMARK  4 active torsions:
REMARK  status: ('A' for Active; 'I' for Inactive)
REMARK    1  A    between atoms: C5_6  and  C6_7 
REMARK    2  A    between atoms: C6_7  and  N1_8 
REMARK    3  A    between atoms: C10_19  and  N6_20 
REMARK    4  A    between atoms: N6_20  and  C11_21 
ROOT
HETATM    1  N1  UNL     1      -1.263  50.627 -25.881  1.00  0.00    -0.370 N 
HETATM    2  C7  UNL     1      -0.927  51.771 -26.545  1.00  0.00     0.134 A 
HETATM    3  N2  UNL     1      -1.102  51.960 -27.899  1.00  0.00    -0.283 N 
HETATM    4  N3  UNL     1      -0.817  53.202 -28.337  1.00  0.00    -0.283 N 
ATOM      5  H3  UNL     1      -0.912  53.576 -29.282  1.00  0.00     0.188 HD
HETATM    6  C8  UNL     1      -0.381  53.828 -27.241  1.00  0.00     0.138 A 
HETATM    7  N4  UNL     1       0.037  55.110 -27.156  1.00  0.00    -0.337 N 
ATOM      8  H4  UNL     1       0.063  55.765 -27.937  1.00  0.00     0.168 HD
HETATM    9  C9  UNL     1       0.417  55.406 -25.888  1.00  0.00     0.183 A 
HETATM   10  N5  UNL     1       0.448  54.621 -24.764  1.00  0.00    -0.338 N 
ATOM     11  H5  UNL     1       0.770  55.011 -23.878  1.00  0.00     0.168 HD
HETATM   12  C10 UNL     1       0.048  53.316 -24.832  1.00  0.00     0.124 A 
HETATM   13  C17 UNL     1      -0.393  52.965 -26.114  1.00  0.00     0.098 A 
HETATM   14  H6  UNL     1      -1.573  50.740 -24.912  1.00  0.00     0.161 HD
HETATM   15  H7  UNL     1      -1.449  51.293 -28.577  1.00  0.00     0.188 HD
ENDROOT
BRANCH   1  16
HETATM   16  C6  UNL     1      -1.959  49.521 -26.527  1.00  0.00     0.160 C 
BRANCH  16  17
HETATM   17  C5  UNL     1      -3.067  49.048 -25.618  1.00  0.00    -0.039 A 
HETATM   18  C4  UNL     1      -2.908  49.093 -24.225  1.00  0.00     0.009 A 
HETATM   19  C3  UNL     1      -3.938  48.683 -23.377  1.00  0.00     0.002 A 
HETATM   20  C2  UNL     1      -5.142  48.226 -23.913  1.00  0.00     0.024 A 
HETATM   21  C1  UNL     1      -5.311  48.187 -25.295  1.00  0.00     0.034 A 
HETATM   22 CL1  UNL     1      -6.798  47.631 -25.958  1.00  0.00    -0.084 Cl
HETATM   23  C18 UNL     1      -4.285  48.597 -26.148  1.00  0.00     0.032 A 
ENDBRANCH  16  17
ENDBRANCH   1  16
BRANCH  12  24
HETATM   24  N6  UNL     1       0.131  52.413 -23.765  1.00  0.00    -0.342 N 
HETATM   25  H9  UNL     1       0.304  51.473 -24.104  1.00  0.00     0.167 HD
BRANCH  24  26
HETATM   26  C11 UNL     1       0.386  52.595 -22.396  1.00  0.00     0.035 A 
HETATM   27  C12 UNL     1       1.082  53.694 -21.876  1.00  0.00     0.029 A 
HETATM   28  C13 UNL     1       1.276  53.846 -20.499  1.00  0.00     0.004 A 
HETATM   29  C14 UNL     1       0.762  52.905 -19.612  1.00  0.00     0.024 A 
HETATM   30  C15 UNL     1       0.050  51.819 -20.110  1.00  0.00     0.036 A 
HETATM   31 CL2  UNL     1      -0.604  50.654 -19.024  1.00  0.00    -0.084 Cl
HETATM   32  C16 UNL     1      -0.144  51.667 -21.485  1.00  0.00     0.053 A 
ENDBRANCH  24  26
ENDBRANCH  12  24
TORSDOF 4
ENDMDL
