MODEL 1
REMARK minimizedAffinity -8.83941364
REMARK  8 active torsions:
REMARK  status: ('A' for Active; 'I' for Inactive)
REMARK    1  A    between atoms: N1_2  and  O1_3 
REMARK    2  A    between atoms: O1_3  and  C2_4 
REMARK    3  A    between atoms: C2_4  and  C3_6 
REMARK    4  A    between atoms: C10_13  and  C11_14 
REMARK    5  A    between atoms: C14_18  and  C15_19 
REMARK    6  A    between atoms: C15_19  and  C16_20 
REMARK    7  A    between atoms: C16_20  and  C17_21 
REMARK    8  A    between atoms: C17_21  and  N3_22 
ROOT
HETATM    1  C3  UNL     1      -3.122   3.006  11.786  1.00  0.00     0.042 A 
HETATM    2  C4  UNL     1      -3.502   1.688  11.434  1.00  0.00     0.020 A 
HETATM    3  C5  UNL     1      -4.830   1.269  11.542  1.00  0.00     0.031 A 
HETATM    4  C6  UNL     1      -5.748   2.188  12.009  1.00  0.00     0.046 A 
HETATM    5  C7  UNL     1      -5.397   3.492  12.371  1.00  0.00     0.007 A 
HETATM    6  C8  UNL     1      -4.081   3.918  12.265  1.00  0.00     0.032 A 
HETATM    7  C9  UNL     1      -6.644   4.150  12.820  1.00  0.00     0.047 A 
HETATM    8  C10 UNL     1      -6.679   5.416  13.271  1.00  0.00     0.048 C 
HETATM    9  C24 UNL     1      -7.737   3.117  12.666  1.00  0.00     0.257 A 
HETATM   10  O3  UNL     1      -8.926   3.230  12.898  1.00  0.00    -0.267 OA
HETATM   11  N4  UNL     1      -7.108   1.981  12.186  1.00  0.00    -0.322 N 
HETATM   12  H30 UNL     1      -7.608   1.124  11.994  1.00  0.00     0.169 HD
ENDROOT
BRANCH   8  13
HETATM   13  C11 UNL     1      -7.780   6.183  13.750  1.00  0.00     0.040 A 
HETATM   14  N2  UNL     1      -9.024   6.124  13.163  1.00  0.00    -0.359 N 
HETATM   15  C12 UNL     1      -9.884   6.964  13.808  1.00  0.00     0.016 A 
HETATM   16  H9  UNL     1      -9.280   5.538  12.373  1.00  0.00     0.166 HD
HETATM   17  C13 UNL     1      -9.206   7.586  14.830  1.00  0.00    -0.027 A 
HETATM   18  C23 UNL     1     -11.308   7.175  13.431  1.00  0.00     0.057 C 
HETATM   19  C14 UNL     1      -7.868   7.092  14.809  1.00  0.00    -0.023 A 
HETATM   20  C20 UNL     1      -9.871   8.556  15.750  1.00  0.00     0.041 C 
HETATM   21  C21 UNL     1     -11.213   9.045  15.171  1.00  0.00     0.005 C 
HETATM   22  C22 UNL     1     -12.045   7.892  14.577  1.00  0.00     0.006 C 
BRANCH  19  23
HETATM   23  C15 UNL     1      -6.782   7.491  15.766  1.00  0.00     0.043 C 
BRANCH  23  24
HETATM   24  C16 UNL     1      -5.994   8.729  15.320  1.00  0.00     0.035 C 
BRANCH  24  25
HETATM   25  C17 UNL     1      -4.748   8.376  14.494  1.00  0.00     0.271 C 
BRANCH  25  26
HETATM   26  N3  UNL     1      -3.489   8.725  15.178  1.00  0.00     0.080 N 
HETATM   27  C18 UNL     1      -3.703   9.707  16.244  1.00  0.00     0.309 C 
HETATM   28  C19 UNL     1      -2.879   7.517  15.743  1.00  0.00     0.309 C 
ENDBRANCH  25  26
ENDBRANCH  24  25
ENDBRANCH  23  24
ENDBRANCH  19  23
ENDBRANCH   8  13
BRANCH   1  29
HETATM   29  C2  UNL     1      -1.687   3.371  11.636  1.00  0.00     0.310 C 
HETATM   30  O2  UNL     1      -1.089   4.117  12.400  1.00  0.00    -0.258 OA
BRANCH  29  31
HETATM   31  O1  UNL     1      -1.136   2.737  10.553  1.00  0.00    -0.223 OA
BRANCH  31  32
HETATM   32  N1  UNL     1      -0.046   1.831  10.946  1.00  0.00    -0.201 NA
HETATM   33  C1  UNL     1      -0.484   0.508  10.516  1.00  0.00     0.141 C 
HETATM   34  H4  UNL     1      -0.071   1.873  11.974  1.00  0.00     0.153 HD
ENDBRANCH  31  32
ENDBRANCH  29  31
ENDBRANCH   1  29
TORSDOF 8
ENDMDL
