MODEL 1
REMARK minimizedAffinity -9.502738
REMARK  6 active torsions:
REMARK  status: ('A' for Active; 'I' for Inactive)
REMARK    1  A    between atoms: N1_2  and  C3_4 
REMARK    2  A    between atoms: C3_4  and  C4_5 
REMARK    3  A    between atoms: C4_5  and  C5_6 
REMARK    4  A    between atoms: C5_6  and  C6_7 
REMARK    5  A    between atoms: C7_8  and  C8_9 
REMARK    6  A    between atoms: C14_17  and  C15_18 
ROOT
HETATM    1  C8  UNL     1      -3.604   6.527  12.807  1.00  0.00     0.048 C 
HETATM    2  C9  UNL     1      -2.462   6.356  13.488  1.00  0.00     0.047 A 
HETATM    3  C10 UNL     1      -2.271   6.080  14.962  1.00  0.00     0.257 A 
HETATM    4  O1  UNL     1      -3.101   5.940  15.838  1.00  0.00    -0.267 OA
HETATM    5  N2  UNL     1      -0.895   5.995  15.131  1.00  0.00    -0.322 N 
HETATM    6  C11 UNL     1      -0.219   6.174  13.930  1.00  0.00     0.046 A 
HETATM    7  C12 UNL     1       1.144   6.144  13.737  1.00  0.00     0.031 A 
HETATM    8  C13 UNL     1       1.612   6.350  12.434  1.00  0.00     0.014 A 
HETATM    9  C14 UNL     1       0.727   6.581  11.351  1.00  0.00    -0.025 A 
HETATM   10  C21 UNL     1      -0.662   6.603  11.596  1.00  0.00     0.027 A 
HETATM   11  C22 UNL     1      -1.121   6.396  12.888  1.00  0.00     0.007 A 
HETATM   12  H14 UNL     1      -0.474   5.813  16.028  1.00  0.00     0.169 HD
ENDROOT
BRANCH   1  13
HETATM   13  C7  UNL     1      -4.883   6.531  13.409  1.00  0.00     0.040 A 
HETATM   14  C6  UNL     1      -5.839   5.553  13.649  1.00  0.00    -0.023 A 
HETATM   15  C24 UNL     1      -6.913   6.197  14.335  1.00  0.00    -0.027 A 
HETATM   16  C23 UNL     1      -6.562   7.521  14.500  1.00  0.00     0.016 A 
HETATM   17  C25 UNL     1      -8.204   5.646  14.846  1.00  0.00     0.041 C 
HETATM   18  N3  UNL     1      -5.338   7.719  13.930  1.00  0.00    -0.359 N 
HETATM   19  C28 UNL     1      -7.388   8.579  15.141  1.00  0.00     0.057 C 
HETATM   20  H23 UNL     1      -4.854   8.604  13.876  1.00  0.00     0.166 HD
HETATM   21  C27 UNL     1      -8.524   7.930  15.952  1.00  0.00     0.006 C 
HETATM   22  C26 UNL     1      -9.197   6.775  15.187  1.00  0.00     0.005 C 
BRANCH  14  23
HETATM   23  C5  UNL     1      -5.764   4.104  13.270  1.00  0.00     0.043 C 
BRANCH  23  24
HETATM   24  C4  UNL     1      -6.353   3.800  11.888  1.00  0.00     0.035 C 
BRANCH  24  25
HETATM   25  C3  UNL     1      -5.399   2.974  11.013  1.00  0.00     0.271 C 
BRANCH  25  26
HETATM   26  N1  UNL     1      -4.014   2.970  11.526  1.00  0.00     0.080 N 
HETATM   27  C1  UNL     1      -3.519   1.609  11.743  1.00  0.00     0.309 C 
HETATM   28  C2  UNL     1      -3.135   3.667  10.582  1.00  0.00     0.309 C 
ENDBRANCH  25  26
ENDBRANCH  24  25
ENDBRANCH  23  24
ENDBRANCH  14  23
ENDBRANCH   1  13
BRANCH   9  29
HETATM   29  C15 UNL     1       1.250   6.798   9.992  1.00  0.00    -0.026 A 
HETATM   30  C16 UNL     1       2.259   5.975   9.466  1.00  0.00     0.012 A 
HETATM   31  C17 UNL     1       2.756   6.180   8.176  1.00  0.00     0.001 A 
HETATM   32  C18 UNL     1       2.252   7.214   7.391  1.00  0.00     0.000 A 
HETATM   33  C19 UNL     1       1.251   8.041   7.894  1.00  0.00     0.001 A 
HETATM   34  C20 UNL     1       0.754   7.835   9.183  1.00  0.00     0.012 A 
ENDBRANCH   9  29
TORSDOF 6
ENDMDL
