MODEL 1
REMARK minimizedAffinity -9.94478226
REMARK CNNscore 0.358210564
REMARK CNNaffinity 8.02788067
REMARK  7 active torsions:
REMARK  status: ('A' for Active; 'I' for Inactive)
REMARK    1  A    between atoms: O1_2  and  C2_3 
REMARK    2  A    between atoms: C2_3  and  C3_4 
REMARK       I    between atoms: C3_4  and  N1_6 
REMARK    3  A    between atoms: C7_10  and  C8_11 
REMARK    4  A    between atoms: C13_18  and  C14_19 
REMARK       I    between atoms: C14_19  and  N3_21 
REMARK    5  A    between atoms: N3_21  and  C15_22 
REMARK    6  A    between atoms: C17_24  and  C18_25 
REMARK    7  A    between atoms: C24_37  and  N5_38 
ROOT
HETATM    1  C8  UNL     1      -3.929   4.857  13.235  1.00  0.00     0.094 A 
HETATM    2  N2  UNL     1      -4.902   5.611  13.718  1.00  0.00    -0.342 N 
ATOM      3  H2  UNL     1      -4.807   6.505  14.199  1.00  0.00     0.167 HD
HETATM    4  C9  UNL     1      -6.069   4.941  13.438  1.00  0.00     0.077 A 
HETATM    5  C10 UNL     1      -7.363   5.476  13.785  1.00  0.00     0.032 A 
HETATM    6  C11 UNL     1      -7.733   5.575  15.131  1.00  0.00     0.018 A 
HETATM    7  C12 UNL     1      -8.981   6.103  15.480  1.00  0.00     0.018 A 
HETATM    8  C13 UNL     1      -9.859   6.563  14.485  1.00  0.00     0.035 A 
HETATM    9  C21 UNL     1      -9.486   6.457  13.139  1.00  0.00     0.060 A 
HETATM   10  C22 UNL     1      -8.246   5.922  12.800  1.00  0.00     0.130 A 
HETATM   11  F4  UNL     1      -7.909   5.856  11.501  1.00  0.00    -0.205 F 
HETATM   12  C23 UNL     1      -5.807   3.733  12.832  1.00  0.00     0.106 A 
HETATM   13  C24 UNL     1      -6.589   2.616  12.356  1.00  0.00     0.107 A 
HETATM   14  N6  UNL     1      -5.994   1.601  11.772  1.00  0.00    -0.354 N 
ATOM     15  H6  UNL     1      -6.539   0.806  11.437  1.00  0.00     0.166 HD
HETATM   16  C25 UNL     1      -4.623   1.624  11.618  1.00  0.00     0.107 A 
HETATM   17  C26 UNL     1      -3.838   2.622  12.054  1.00  0.00     0.116 A 
HETATM   18  N7  UNL     1      -4.438   3.698  12.681  1.00  0.00    -0.305 N 
ENDROOT
BRANCH   1  19
HETATM   19  C7  UNL     1      -2.465   5.212  13.225  1.00  0.00     0.072 C 
HETATM   20  C6  UNL     1      -2.219   6.657  13.720  1.00  0.00     0.015 C 
HETATM   21  C5  UNL     1      -1.911   7.611  12.567  1.00  0.00     0.021 C 
HETATM   22  C4  UNL     1      -0.671   7.144  11.804  1.00  0.00     0.126 C 
HETATM   23  N1  UNL     1      -0.643   5.695  11.601  1.00  0.00    -0.350 N 
HETATM   24  C3  UNL     1       0.468   4.993  11.135  1.00  0.00     0.243 C 
HETATM   25  C27 UNL     1      -1.901   4.984  11.809  1.00  0.00     0.138 C 
HETATM   26  O2  UNL     1       0.458   3.767  11.022  1.00  0.00    -0.271 OA
BRANCH  24  27
HETATM   27  C2  UNL     1       1.713   5.832  10.766  1.00  0.00     0.269 C 
BRANCH  27  28
HETATM   28  O1  UNL     1       2.413   5.477   9.583  1.00  0.00    -0.387 OA
HETATM   29  C1  UNL     1       2.359   6.489   8.587  1.00  0.00     0.202 C 
ENDBRANCH  27  28
ENDBRANCH  24  27
ENDBRANCH   1  19
BRANCH  13  30
HETATM   30  N5  UNL     1      -7.944   2.519  12.489  1.00  0.00    -0.287 NA
HETATM   31  H20 UNL     1      -8.269   1.575  12.309  1.00  0.00     0.125 HD
HETATM   32  H21 UNL     1      -8.342   2.930  13.324  1.00  0.00     0.125 HD
ENDBRANCH  13  30
BRANCH   8  33
HETATM   33  C14 UNL     1     -11.194   7.158  14.797  1.00  0.00     0.257 C 
HETATM   34  O3  UNL     1     -11.231   8.274  15.308  1.00  0.00    -0.267 OA
HETATM   35  N3  UNL     1     -12.282   6.366  14.520  1.00  0.00    -0.309 N 
HETATM   36  H15 UNL     1     -12.159   5.405  14.234  1.00  0.00     0.170 HD
BRANCH  35  37
HETATM   37  C15 UNL     1     -13.635   6.668  14.684  1.00  0.00     0.108 A 
HETATM   38  C16 UNL     1     -14.593   6.561  13.686  1.00  0.00     0.064 A 
HETATM   39  C17 UNL     1     -15.924   6.888  13.981  1.00  0.00     0.052 A 
HETATM   40  C19 UNL     1     -16.237   7.319  15.271  1.00  0.00     0.033 A 
HETATM   41  C20 UNL     1     -15.218   7.398  16.204  1.00  0.00     0.090 A 
HETATM   42  N4  UNL     1     -13.935   7.076  15.936  1.00  0.00    -0.352 N 
ATOM     43  H4  UNL     1     -13.215   7.138  16.656  1.00  0.00     0.166 HD
BRANCH  39  44
HETATM   44  C18 UNL     1     -16.994   6.821  12.924  1.00  0.00     0.417 C 
HETATM   45  F1  UNL     1     -18.230   7.088  13.430  1.00  0.00    -0.166 F 
HETATM   46  F2  UNL     1     -17.084   5.586  12.354  1.00  0.00    -0.166 F 
HETATM   47  F3  UNL     1     -16.810   7.693  11.896  1.00  0.00    -0.166 F 
ENDBRANCH  39  44
ENDBRANCH  35  37
ENDBRANCH   8  33
TORSDOF 7
ENDMDL
