MODEL 1
REMARK minimizedAffinity -10.547513
REMARK  8 active torsions:
REMARK  status: ('A' for Active; 'I' for Inactive)
REMARK    1  A    between atoms: O1_2  and  C2_3 
REMARK    2  A    between atoms: C6_7  and  C7_8 
REMARK    3  A    between atoms: N1_10  and  C9_11 
REMARK    4  A    between atoms: C12_14  and  C13_15 
REMARK    5  A    between atoms: C13_15  and  C14_16 
REMARK    6  A    between atoms: C14_16  and  N2_17 
REMARK    7  A    between atoms: C17_20  and  O2_21 
REMARK    8  A    between atoms: C24_32  and  N5_33 
ROOT
HETATM    1  C7  UNL     1      -0.456  52.404 -23.643  1.00  0.00     0.007 A 
HETATM    2  C8  UNL     1      -1.219  51.336 -24.063  1.00  0.00     0.112 A 
HETATM    3  N1  UNL     1      -1.550  51.491 -25.402  1.00  0.00    -0.307 N 
HETATM    4  C22 UNL     1      -0.939  52.675 -25.836  1.00  0.00     0.127 A 
HETATM    5  N3  UNL     1      -0.980  53.200 -27.078  1.00  0.00    -0.337 N 
ATOM      6  H3  UNL     1      -1.480  52.767 -27.855  1.00  0.00     0.168 HD
HETATM    7  C23 UNL     1      -0.298  54.347 -27.186  1.00  0.00     0.183 A 
HETATM    8  N4  UNL     1       0.392  54.992 -26.234  1.00  0.00    -0.343 N 
ATOM      9  H4  UNL     1       0.887  55.859 -26.442  1.00  0.00     0.167 HD
HETATM   10  C24 UNL     1       0.413  54.463 -24.999  1.00  0.00     0.093 A 
HETATM   11  C25 UNL     1      -0.266  53.256 -24.760  1.00  0.00     0.059 A 
ENDROOT
BRANCH   3  12
HETATM   12  C9  UNL     1      -2.374  50.580 -26.154  1.00  0.00     0.040 A 
HETATM   13  C10 UNL     1      -2.785  50.902 -27.459  1.00  0.00     0.030 A 
HETATM   14  C11 UNL     1      -3.574  50.020 -28.207  1.00  0.00     0.009 A 
HETATM   15  C12 UNL     1      -3.973  48.793 -27.675  1.00  0.00    -0.056 A 
HETATM   16  C20 UNL     1      -3.581  48.470 -26.375  1.00  0.00     0.009 A 
HETATM   17  C21 UNL     1      -2.788  49.350 -25.625  1.00  0.00     0.030 A 
BRANCH  15  18
HETATM   18  C13 UNL     1      -4.828  47.847 -28.485  1.00  0.00     0.068 C 
BRANCH  18  19
HETATM   19  C14 UNL     1      -5.301  48.485 -29.800  1.00  0.00     0.277 C 
BRANCH  19  20
HETATM   20  N2  UNL     1      -6.270  47.665 -30.549  1.00  0.00     0.088 N 
HETATM   21  C15 UNL     1      -7.342  48.460 -31.166  1.00  0.00     0.275 C 
HETATM   22  C16 UNL     1      -8.025  47.711 -32.302  1.00  0.00     0.062 C 
HETATM   23  C17 UNL     1      -7.035  47.457 -33.437  1.00  0.00     0.121 C 
HETATM   24  C18 UNL     1      -5.616  47.205 -32.932  1.00  0.00     0.062 C 
HETATM   25  C19 UNL     1      -5.610  46.735 -31.477  1.00  0.00     0.275 C 
BRANCH  23  26
HETATM   26  O2  UNL     1      -7.501  46.351 -34.205  1.00  0.00    -0.395 OA
HETATM   27  H19 UNL     1      -6.901  46.245 -34.964  1.00  0.00     0.210 HD
ENDBRANCH  23  26
ENDBRANCH  19  20
ENDBRANCH  18  19
ENDBRANCH  15  18
ENDBRANCH   3  12
BRANCH   1  28
HETATM   28  C6  UNL     1      -0.006  52.531 -22.274  1.00  0.00    -0.021 A 
HETATM   29  C5  UNL     1       1.027  53.419 -21.961  1.00  0.00     0.012 A 
HETATM   30  C4  UNL     1       1.449  53.559 -20.639  1.00  0.00     0.004 A 
HETATM   31  C3  UNL     1       0.841  52.813 -19.626  1.00  0.00     0.037 A 
HETATM   32  C2  UNL     1      -0.188  51.917 -19.932  1.00  0.00     0.069 A 
HETATM   33  C26 UNL     1      -0.609  51.781 -21.259  1.00  0.00     0.049 A 
BRANCH  32  34
HETATM   34  O1  UNL     1      -0.861  51.132 -19.039  1.00  0.00    -0.356 OA
HETATM   35  C1  UNL     1      -2.124  51.609 -18.588  1.00  0.00     0.210 C 
ENDBRANCH  32  34
ENDBRANCH   1  28
BRANCH  10  36
HETATM   36  N5  UNL     1       1.144  55.148 -24.037  1.00  0.00    -0.288 NA
HETATM   37  H27 UNL     1       1.522  54.559 -23.307  1.00  0.00     0.125 HD
HETATM   38  H28 UNL     1       1.808  55.776 -24.482  1.00  0.00     0.125 HD
ENDBRANCH  10  36
TORSDOF 8
ENDMDL
