MODEL 1
REMARK minimizedAffinity -8.82240105
REMARK CNNscore 0.706202567
REMARK CNNaffinity 7.73560476
REMARK  13 active torsions:
REMARK  status: ('A' for Active; 'I' for Inactive)
REMARK    1  A    between atoms: N1_2  and  C3_4 
REMARK    2  A    between atoms: C3_4  and  C4_5 
REMARK    3  A    between atoms: C4_5  and  C5_6 
REMARK    4  A    between atoms: C5_6  and  N2_7 
REMARK    5  A    between atoms: C7_10  and  C8_11 
REMARK    6  A    between atoms: C17_24  and  N4_25 
REMARK    7  A    between atoms: N4_25  and  C18_26 
REMARK    8  A    between atoms: C21_29  and  P1_30 
REMARK    9  A    between atoms: P1_30  and  O3_32 
REMARK   10  A    between atoms: P1_30  and  C22_33 
REMARK   11  A    between atoms: C22_33  and  P2_34 
REMARK   12  A    between atoms: P2_34  and  O5_36 
REMARK   13  A    between atoms: P2_34  and  O6_37 
ROOT
HETATM    1  N2  UNL     1      -0.872  51.132 -21.979  1.00  0.00    -0.298 N 
HETATM    2  C6  UNL     1      -0.952  51.020 -23.360  1.00  0.00     0.260 A 
HETATM    3  O1  UNL     1      -1.602  50.149 -23.937  1.00  0.00    -0.267 OA
HETATM    4  C7  UNL     1      -0.192  52.028 -24.174  1.00  0.00     0.047 A 
HETATM    5  C14 UNL     1       0.526  52.991 -23.575  1.00  0.00     0.034 A 
HETATM    6  C15 UNL     1       0.592  53.038 -22.127  1.00  0.00     0.026 A 
HETATM    7  C16 UNL     1       1.323  53.978 -21.441  1.00  0.00     0.121 A 
HETATM    8  N3  UNL     1       1.416  54.014 -20.100  1.00  0.00    -0.201 N 
ATOM      9  H3  UNL     1       1.963  54.732 -19.626  1.00  0.00     0.183 HD
HETATM   10  C17 UNL     1       0.763  53.070 -19.411  1.00  0.00     0.684 A 
HETATM   11  N5  UNL     1       0.019  52.116 -19.994  1.00  0.00    -0.175 N 
ATOM     12  H5  UNL     1      -0.463  51.412 -19.436  1.00  0.00     0.186 HD
HETATM   13  C25 UNL     1      -0.071  52.116 -21.342  1.00  0.00     0.137 A 
ENDROOT
BRANCH  10  14
HETATM   14  N4  UNL     1       0.858  52.986 -18.025  1.00  0.00    -0.192 N 
HETATM   15  H18 UNL     1       0.970  53.909 -17.634  1.00  0.00     0.184 HD
BRANCH  14  16
HETATM   16  C18 UNL     1       0.851  51.913 -17.129  1.00  0.00     0.049 A 
HETATM   17  C19 UNL     1       0.185  50.734 -17.494  1.00  0.00     0.031 A 
HETATM   18  C20 UNL     1       0.193  49.608 -16.666  1.00  0.00     0.019 A 
HETATM   19  C21 UNL     1       0.869  49.625 -15.441  1.00  0.00     0.023 A 
HETATM   20  C23 UNL     1       1.530  50.796 -15.067  1.00  0.00     0.019 A 
HETATM   21  C24 UNL     1       1.532  51.916 -15.909  1.00  0.00     0.031 A 
BRANCH  19  22
HETATM   22  P1  UNL     1       0.861  48.191 -14.422  1.00  0.00     0.142 P 
HETATM   23  O2  UNL     1       1.588  46.985 -14.951  1.00  0.00    -0.670 OA
BRANCH  22  24
HETATM   24  O3  UNL     1      -0.710  47.794 -14.313  1.00  0.00    -0.345 OA
HETATM   25  H21 UNL     1      -1.039  47.406 -15.149  1.00  0.00     0.218 HD
ENDBRANCH  22  24
BRANCH  22  26
HETATM   26  C22 UNL     1       1.269  48.534 -12.714  1.00  0.00     0.223 C 
BRANCH  26  27
HETATM   27  P2  UNL     1       2.951  48.831 -12.243  1.00  0.00     0.245 P 
HETATM   28  O4  UNL     1       3.271  50.107 -11.540  1.00  0.00    -0.653 OA
BRANCH  27  29
HETATM   29  O5  UNL     1       3.380  47.566 -11.352  1.00  0.00    -0.329 OA
HETATM   30  H24 UNL     1       4.215  47.710 -10.870  1.00  0.00     0.220 HD
ENDBRANCH  27  29
BRANCH  27  31
HETATM   31  O6  UNL     1       3.858  48.599 -13.538  1.00  0.00    -0.329 OA
HETATM   32  H25 UNL     1       4.781  48.896 -13.433  1.00  0.00     0.220 HD
ENDBRANCH  27  31
ENDBRANCH  26  27
ENDBRANCH  22  26
ENDBRANCH  19  22
ENDBRANCH  14  16
ENDBRANCH  10  14
BRANCH   1  33
HETATM   33  C5  UNL     1      -1.616  50.186 -21.145  1.00  0.00     0.135 C 
BRANCH  33  34
HETATM   34  C4  UNL     1      -0.817  48.908 -20.878  1.00  0.00     0.050 C 
BRANCH  34  35
HETATM   35  C3  UNL     1      -1.533  47.648 -21.385  1.00  0.00     0.273 C 
BRANCH  35  36
HETATM   36  N1  UNL     1      -2.492  47.064 -20.437  1.00  0.00     0.080 N 
HETATM   37  C1  UNL     1      -2.286  47.553 -19.072  1.00  0.00     0.309 C 
HETATM   38  C2  UNL     1      -3.865  47.345 -20.862  1.00  0.00     0.309 C 
ENDBRANCH  35  36
ENDBRANCH  34  35
ENDBRANCH  33  34
ENDBRANCH   1  33
BRANCH   4  39
HETATM   39  C8  UNL     1      -0.219  51.955 -25.647  1.00  0.00     0.023 A 
HETATM   40  C9  UNL     1      -1.395  52.253 -26.360  1.00  0.00     0.046 A 
HETATM   41 CL1  UNL     1      -2.861  52.712 -25.558  1.00  0.00    -0.083 Cl
HETATM   42  C10 UNL     1      -1.427  52.173 -27.756  1.00  0.00     0.025 A 
HETATM   43  C11 UNL     1      -0.287  51.796 -28.462  1.00  0.00     0.003 A 
HETATM   44  C12 UNL     1       0.887  51.499 -27.774  1.00  0.00     0.025 A 
HETATM   45  C13 UNL     1       0.924  51.580 -26.378  1.00  0.00     0.046 A 
HETATM   46 CL2  UNL     1       2.420  51.182 -25.598  1.00  0.00    -0.083 Cl
ENDBRANCH   4  39
TORSDOF 13
ENDMDL
