MODEL 1
REMARK minimizedAffinity -7.20385313
REMARK CNNscore 0.62575376
REMARK CNNaffinity 6.53311205
REMARK  5 active torsions:
REMARK  status: ('A' for Active; 'I' for Inactive)
REMARK    1  A    between atoms: O1_1  and  C1_2 
REMARK    2  A    between atoms: C5_6  and  N1_7 
REMARK    3  A    between atoms: N1_7  and  C6_8 
REMARK    4  A    between atoms: C7_11  and  C8_12 
REMARK    5  A    between atoms: C9_13  and  C10_14 
ROOT
HETATM    1  C6  UNL     1      13.309  58.572   1.937  1.00  0.00     0.119 A 
HETATM    2  N2  UNL     1      13.278  59.145   3.152  1.00  0.00    -0.328 N 
ATOM      3  H2  UNL     1      13.542  58.626   3.989  1.00  0.00     0.169 HD
HETATM    4  C7  UNL     1      12.885  60.423   3.221  1.00  0.00     0.107 A 
HETATM    5  N3  UNL     1      12.522  61.181   2.179  1.00  0.00    -0.342 N 
ATOM      6  H3  UNL     1      12.228  62.149   2.302  1.00  0.00     0.167 HD
HETATM    7  C17 UNL     1      12.563  60.612   0.972  1.00  0.00     0.047 A 
HETATM    8  C18 UNL     1      12.196  61.374  -0.131  1.00  0.00     0.030 A 
HETATM    9  C19 UNL     1      12.221  60.857  -1.429  1.00  0.00     0.002 A 
HETATM   10  C20 UNL     1      12.630  59.547  -1.641  1.00  0.00     0.001 A 
HETATM   11  C21 UNL     1      13.004  58.763  -0.550  1.00  0.00     0.017 A 
HETATM   12  C22 UNL     1      12.964  59.283   0.770  1.00  0.00     0.035 A 
ENDROOT
BRANCH   4  13
HETATM   13  C8  UNL     1      12.853  61.073   4.532  1.00  0.00     0.049 C 
HETATM   14  C9  UNL     1      11.815  61.781   5.002  1.00  0.00     0.016 C 
BRANCH  14  15
HETATM   15  C10 UNL     1      11.830  62.422   6.326  1.00  0.00    -0.016 A 
HETATM   16  C11 UNL     1      11.489  61.650   7.451  1.00  0.00     0.052 A 
HETATM   17  C12 UNL     1      11.487  62.258   8.689  1.00  0.00     0.105 A 
HETATM   18  C13 UNL     1      11.807  63.585   8.845  1.00  0.00     0.106 A 
HETATM   19  O3  UNL     1      11.180  61.655   9.869  1.00  0.00    -0.323 OA
HETATM   20  C14 UNL     1      12.140  64.384   7.772  1.00  0.00     0.059 A 
HETATM   21  O2  UNL     1      11.745  63.982  10.144  1.00  0.00    -0.323 OA
HETATM   22  C15 UNL     1      12.148  63.793   6.501  1.00  0.00     0.024 A 
HETATM   23 BR1  UNL     1      12.613  64.913   5.034  1.00  0.00    -0.050 Br
HETATM   24  C16 UNL     1      11.344  62.754  10.789  1.00  0.00     0.352 A 
ENDBRANCH  14  15
ENDBRANCH   4  13
BRANCH   1  25
HETATM   25  N1  UNL     1      13.680  57.202   1.822  1.00  0.00    -0.342 N 
HETATM   26  H5  UNL     1      12.959  56.720   1.295  1.00  0.00     0.167 HD
BRANCH  25  27
HETATM   27  C5  UNL     1      14.247  56.364   2.811  1.00  0.00     0.036 A 
HETATM   28  C4  UNL     1      13.468  55.632   3.717  1.00  0.00     0.029 A 
HETATM   29  C3  UNL     1      14.059  54.863   4.725  1.00  0.00     0.005 A 
HETATM   30  C2  UNL     1      15.445  54.833   4.854  1.00  0.00     0.036 A 
HETATM   31  C1  UNL     1      16.225  55.586   3.989  1.00  0.00     0.067 A 
HETATM   32  C23 UNL     1      15.642  56.356   2.982  1.00  0.00     0.066 A 
BRANCH  31  33
HETATM   33  O1  UNL     1      17.579  55.547   4.160  1.00  0.00    -0.361 OA
HETATM   34  H1  UNL     1      17.996  56.115   3.494  1.00  0.00     0.217 HD
ENDBRANCH  31  33
ENDBRANCH  25  27
ENDBRANCH   1  25
TORSDOF 5
ENDMDL
