MODEL 1
REMARK minimizedAffinity -7.67066622
REMARK  10 active torsions:
REMARK  status: ('A' for Active; 'I' for Inactive)
REMARK    1  A    between atoms: C2_2  and  C3_3 
REMARK    2  A    between atoms: C3_3  and  C4_4 
REMARK    3  A    between atoms: C6_6  and  N1_7 
REMARK    4  A    between atoms: N1_7  and  C7_8 
REMARK    5  A    between atoms: C7_8  and  C8_9 
REMARK    6  A    between atoms: C8_9  and  N2_10 
REMARK    7  A    between atoms: C12_17  and  C13_18 
REMARK       I    between atoms: C13_18  and  N4_20 
REMARK    8  A    between atoms: N4_20  and  N5_21 
REMARK    9  A    between atoms: C14_23  and  C15_24 
REMARK   10  A    between atoms: C20_30  and  N7_31 
ROOT
HETATM    1  C4  UNL     1      -0.401  52.067 -22.622  1.00  0.00    -0.040 A 
HETATM    2  C5  UNL     1       0.237  52.889 -23.578  1.00  0.00     0.050 A 
HETATM    3  C6  UNL     1      -0.433  53.356 -24.703  1.00  0.00     0.081 A 
HETATM    4  N3  UNL     1      -1.717  53.076 -24.935  1.00  0.00    -0.341 N 
ATOM      5  H3  UNL     1      -2.209  53.431 -25.755  1.00  0.00     0.167 HD
HETATM    6  C11 UNL     1      -2.323  52.298 -24.021  1.00  0.00     0.089 A 
HETATM    7  S1  UNL     1      -3.953  51.891 -24.259  1.00  0.00    -0.064 SA
HETATM    8  C12 UNL     1      -4.013  50.972 -22.819  1.00  0.00     0.103 A 
HETATM    9  C20 UNL     1      -2.785  50.985 -22.174  1.00  0.00     0.062 A 
HETATM   10  C21 UNL     1      -1.770  51.755 -22.862  1.00  0.00     0.032 A 
ENDROOT
BRANCH   8  11
HETATM   11  C13 UNL     1      -5.245  50.301 -22.397  1.00  0.00     0.279 C 
HETATM   12  O1  UNL     1      -5.648  49.273 -22.943  1.00  0.00    -0.265 OA
HETATM   13  N4  UNL     1      -5.913  50.907 -21.331  1.00  0.00    -0.266 N 
HETATM   14  H20 UNL     1      -5.399  51.617 -20.816  1.00  0.00     0.190 HD
BRANCH  13  15
HETATM   15  N5  UNL     1      -6.981  50.392 -20.637  1.00  0.00    -0.307 N 
HETATM   16  C14 UNL     1      -6.825  49.282 -19.988  1.00  0.00     0.136 C 
ATOM     17  H5  UNL     1      -7.880  50.874 -20.633  1.00  0.00     0.186 HD
BRANCH  16  18
HETATM   18  C15 UNL     1      -7.912  48.737 -19.206  1.00  0.00     0.050 A 
HETATM   19  C16 UNL     1      -8.169  48.915 -17.857  1.00  0.00     0.032 A 
HETATM   20  C17 UNL     1      -9.346  48.207 -17.527  1.00  0.00     0.019 A 
HETATM   21  C18 UNL     1      -9.785  47.596 -18.680  1.00  0.00     0.091 A 
HETATM   22  N6  UNL     1      -8.910  47.912 -19.685  1.00  0.00    -0.360 N 
HETATM   23  C19 UNL     1      -9.025  47.424 -21.044  1.00  0.00     0.155 C 
ENDBRANCH  16  18
ENDBRANCH  13  15
ENDBRANCH   8  11
BRANCH   9  24
HETATM   24  N7  UNL     1      -2.601  50.321 -21.010  1.00  0.00    -0.397 N 
HETATM   25  H28 UNL     1      -3.398  49.888 -20.532  1.00  0.00     0.156 HD
HETATM   26  H29 UNL     1      -1.784  50.402 -20.420  1.00  0.00     0.156 HD
ENDBRANCH   9  24
BRANCH   1  27
HETATM   27  C3  UNL     1       0.432  51.620 -21.440  1.00  0.00     0.039 C 
BRANCH  27  28
HETATM   28  C2  UNL     1       0.146  52.403 -20.154  1.00  0.00     0.000 C 
HETATM   29  C1  UNL     1       0.656  53.836 -20.175  1.00  0.00     0.005 C 
ENDBRANCH  27  28
ENDBRANCH   1  27
BRANCH   3  30
HETATM   30  N1  UNL     1       0.285  54.187 -25.588  1.00  0.00    -0.277 NA
HETATM   31  H9  UNL     1       1.279  54.012 -25.465  1.00  0.00     0.129 HD
BRANCH  30  32
HETATM   32  C7  UNL     1      -0.123  54.063 -26.995  1.00  0.00     0.124 C 
BRANCH  32  33
HETATM   33  C8  UNL     1       0.649  52.902 -27.666  1.00  0.00     0.286 C 
BRANCH  33  34
HETATM   34  N2  UNL     1       1.327  51.927 -26.792  1.00  0.00     0.081 N 
HETATM   35  C9  UNL     1       0.568  50.690 -26.634  1.00  0.00     0.309 C 
HETATM   36  C10 UNL     1       2.691  51.647 -27.230  1.00  0.00     0.309 C 
ENDBRANCH  33  34
ENDBRANCH  32  33
ENDBRANCH  30  32
ENDBRANCH   3  30
TORSDOF 10
ENDMDL
