MODEL 1
REMARK minimizedAffinity -9.63401031
REMARK  7 active torsions:
REMARK  status: ('A' for Active; 'I' for Inactive)
REMARK    1  A    between atoms: N1_2  and  S1_3 
REMARK    2  A    between atoms: S1_3  and  C2_6 
REMARK    3  A    between atoms: C9_13  and  C10_14 
REMARK    4  A    between atoms: C13_18  and  C14_19 
REMARK    5  A    between atoms: C14_19  and  C15_20 
REMARK    6  A    between atoms: C15_20  and  C16_21 
REMARK    7  A    between atoms: C16_21  and  N3_22 
ROOT
HETATM    1  C10 UNL     1      -0.888   5.723  12.106  1.00  0.00     0.040 A 
HETATM    2  N2  UNL     1      -0.315   5.658  10.855  1.00  0.00    -0.359 N 
HETATM    3  C11 UNL     1       0.965   6.126  10.917  1.00  0.00     0.016 A 
HETATM    4  C12 UNL     1       1.228   6.507  12.216  1.00  0.00    -0.027 A 
HETATM    5  C13 UNL     1       0.056   6.242  12.985  1.00  0.00    -0.023 A 
HETATM    6  C22 UNL     1       2.551   7.059  12.633  1.00  0.00     0.041 C 
HETATM    7  C23 UNL     1       3.373   7.514  11.411  1.00  0.00     0.005 C 
HETATM    8  C24 UNL     1       3.327   6.486  10.266  1.00  0.00     0.006 C 
HETATM    9  C25 UNL     1       1.892   6.242   9.760  1.00  0.00     0.057 C 
HETATM   10  H9  UNL     1      -0.777   5.334  10.017  1.00  0.00     0.166 HD
ENDROOT
BRANCH   1  11
HETATM   11  C9  UNL     1      -2.209   5.240  12.237  1.00  0.00     0.048 C 
HETATM   12  C8  UNL     1      -2.603   4.010  11.875  1.00  0.00     0.047 A 
HETATM   13  C6  UNL     1      -3.983   3.516  11.992  1.00  0.00     0.008 A 
HETATM   14  C26 UNL     1      -1.781   2.873  11.308  1.00  0.00     0.257 A 
HETATM   15  C5  UNL     1      -3.969   2.198  11.523  1.00  0.00     0.046 A 
HETATM   16  C7  UNL     1      -5.160   4.086  12.445  1.00  0.00     0.040 A 
HETATM   17  C4  UNL     1      -5.100   1.404  11.485  1.00  0.00     0.032 A 
HETATM   18  N5  UNL     1      -2.689   1.837  11.125  1.00  0.00    -0.322 N 
HETATM   19  C3  UNL     1      -6.295   1.966  11.940  1.00  0.00     0.027 A 
HETATM   20  C2  UNL     1      -6.319   3.297  12.407  1.00  0.00     0.080 A 
HETATM   21  H35 UNL     1      -2.408   0.939  10.762  1.00  0.00     0.169 HD
HETATM   22  O3  UNL     1      -0.595   2.821  11.057  1.00  0.00    -0.267 OA
BRANCH  20  23
HETATM   23  S1  UNL     1      -7.840   3.990  13.009  1.00  0.00     0.258 S 
HETATM   24  O1  UNL     1      -7.899   5.386  12.640  1.00  0.00    -0.201 OA
HETATM   25  O2  UNL     1      -8.897   3.063  12.672  1.00  0.00    -0.201 OA
BRANCH  23  26
HETATM   26  N1  UNL     1      -7.634   3.892  14.672  1.00  0.00    -0.320 N 
HETATM   27  C1  UNL     1      -7.502   5.128  15.430  1.00  0.00     0.159 C 
HETATM   28  H4  UNL     1      -8.162   3.124  15.087  1.00  0.00     0.171 HD
ENDBRANCH  23  26
ENDBRANCH  20  23
ENDBRANCH   1  11
BRANCH   5  29
HETATM   29  C14 UNL     1      -0.103   6.476  14.458  1.00  0.00     0.043 C 
BRANCH  29  30
HETATM   30  C15 UNL     1      -0.224   7.963  14.795  1.00  0.00     0.035 C 
BRANCH  30  31
HETATM   31  C16 UNL     1      -1.287   8.714  13.978  1.00  0.00     0.273 C 
BRANCH  31  32
HETATM   32  N3  UNL     1      -2.681   8.430  14.343  1.00  0.00     0.091 N 
HETATM   33  C17 UNL     1      -3.581   8.584  13.190  1.00  0.00     0.302 C 
HETATM   34  C18 UNL     1      -5.051   8.193  13.503  1.00  0.00     0.302 C 
HETATM   35  N4  UNL     1      -5.476   8.412  14.898  1.00  0.00     0.087 N 
HETATM   36  C19 UNL     1      -6.913   8.634  14.998  1.00  0.00     0.310 C 
HETATM   37  C20 UNL     1      -4.703   9.497  15.509  1.00  0.00     0.302 C 
HETATM   38  C21 UNL     1      -3.174   9.219  15.488  1.00  0.00     0.302 C 
ENDBRANCH  31  32
ENDBRANCH  30  31
ENDBRANCH  29  30
ENDBRANCH   5  29
TORSDOF 7
ENDMDL
