MODEL 1
REMARK minimizedAffinity -8.55472088
REMARK  7 active torsions:
REMARK  status: ('A' for Active; 'I' for Inactive)
REMARK    1  A    between atoms: C1_2  and  O2_3 
REMARK    2  A    between atoms: C1_2  and  C9_12 
REMARK    3  A    between atoms: O2_3  and  C2_4 
REMARK    4  A    between atoms: C2_4  and  C3_5 
REMARK    5  A    between atoms: C3_5  and  N1_6 
REMARK    6  A    between atoms: N2_20  and  C17_21 
REMARK    7  A    between atoms: C17_21  and  C18_22 
ROOT
HETATM    1  C9  UNL     1      -3.243  51.144 -23.428  1.00  0.00     0.112 A 
HETATM    2  C10 UNL     1      -2.143  51.514 -22.668  1.00  0.00     0.050 A 
HETATM    3  C11 UNL     1      -1.643  50.375 -21.991  1.00  0.00    -0.007 A 
HETATM    4  C12 UNL     1      -0.554  50.164 -21.122  1.00  0.00     0.014 A 
HETATM    5  C13 UNL     1      -0.315  48.883 -20.616  1.00  0.00     0.001 A 
HETATM    6  C14 UNL     1      -1.142  47.822 -20.966  1.00  0.00     0.002 A 
HETATM    7  C15 UNL     1      -2.229  48.010 -21.825  1.00  0.00     0.030 A 
HETATM    8  C16 UNL     1      -2.465  49.302 -22.330  1.00  0.00     0.045 A 
HETATM    9  N2  UNL     1      -3.457  49.796 -23.168  1.00  0.00    -0.337 N 
ENDROOT
BRANCH   1  10
HETATM   10  C1  UNL     1      -4.034  51.973 -24.315  1.00  0.00     0.310 C 
HETATM   11  O1  UNL     1      -5.252  52.090 -24.299  1.00  0.00    -0.258 OA
BRANCH  10  12
HETATM   12  O2  UNL     1      -3.215  52.604 -25.202  1.00  0.00    -0.315 OA
BRANCH  12  13
HETATM   13  C2  UNL     1      -3.057  51.921 -26.454  1.00  0.00     0.209 C 
BRANCH  13  14
HETATM   14  C3  UNL     1      -1.950  52.601 -27.281  1.00  0.00     0.299 C 
BRANCH  14  15
HETATM   15  N1  UNL     1      -0.774  51.750 -27.555  1.00  0.00     0.090 N 
HETATM   16  C4  UNL     1       0.328  52.499 -28.184  1.00  0.00     0.272 C 
HETATM   17  C5  UNL     1       1.663  51.765 -28.074  1.00  0.00     0.030 C 
HETATM   18  C6  UNL     1       2.078  51.578 -26.615  1.00  0.00     0.003 C 
HETATM   19  C7  UNL     1       0.877  51.555 -25.671  1.00  0.00     0.030 C 
HETATM   20  C8  UNL     1      -0.362  50.992 -26.362  1.00  0.00     0.272 C 
ENDBRANCH  14  15
ENDBRANCH  13  14
ENDBRANCH  12  13
ENDBRANCH  10  12
ENDBRANCH   1  10
BRANCH   9  21
HETATM   21  C17 UNL     1      -4.567  48.995 -23.688  1.00  0.00     0.168 C 
BRANCH  21  22
HETATM   22  C18 UNL     1      -4.396  48.659 -25.151  1.00  0.00    -0.040 A 
HETATM   23  C19 UNL     1      -3.129  48.661 -25.756  1.00  0.00     0.009 A 
HETATM   24  C20 UNL     1      -2.986  48.361 -27.112  1.00  0.00     0.001 A 
HETATM   25  C21 UNL     1      -4.106  48.062 -27.883  1.00  0.00     0.000 A 
HETATM   26  C22 UNL     1      -5.370  48.063 -27.301  1.00  0.00     0.001 A 
HETATM   27  C23 UNL     1      -5.515  48.364 -25.944  1.00  0.00     0.009 A 
ENDBRANCH  21  22
ENDBRANCH   9  21
TORSDOF 7
ENDMDL
