MODEL 1
REMARK minimizedAffinity -10.0487585
REMARK CNNscore 0.755094409
REMARK CNNaffinity 8.21821499
REMARK  7 active torsions:
REMARK  status: ('A' for Active; 'I' for Inactive)
REMARK    1  A    between atoms: C8_8  and  N1_9 
REMARK    2  A    between atoms: C12_16  and  N3_17 
REMARK    3  A    between atoms: N3_17  and  C13_18 
REMARK    4  A    between atoms: C16_21  and  O2_22 
REMARK    5  A    between atoms: O2_22  and  C17_23 
REMARK    6  A    between atoms: C17_23  and  C18_24 
REMARK    7  A    between atoms: C18_24  and  N4_25 
ROOT
HETATM    1  N1  UNL     1      -0.127  52.028 -24.030  1.00  0.00    -0.108 N 
HETATM    2  C9  UNL     1       0.490  53.101 -23.391  1.00  0.00     0.282 A 
HETATM    3  O1  UNL     1       1.045  54.044 -23.947  1.00  0.00    -0.266 OA
HETATM    4  C10 UNL     1       0.498  53.081 -21.919  1.00  0.00     0.095 A 
HETATM    5  C11 UNL     1       1.097  54.071 -21.181  1.00  0.00     0.127 A 
HETATM    6  N2  UNL     1       1.134  54.068 -19.830  1.00  0.00    -0.201 N 
ATOM      7  H2  UNL     1       1.586  54.824 -19.315  1.00  0.00     0.183 HD
HETATM    8  C12 UNL     1       0.557  53.041 -19.187  1.00  0.00     0.684 A 
HETATM    9  N6  UNL     1      -0.059  52.034 -19.828  1.00  0.00    -0.174 N 
ATOM     10  H6  UNL     1      -0.495  51.268 -19.315  1.00  0.00     0.186 HD
HETATM   11  C26 UNL     1      -0.079  52.076 -21.183  1.00  0.00     0.162 A 
HETATM   12  N7  UNL     1      -0.715  51.050 -21.906  1.00  0.00    -0.128 N 
HETATM   13  C27 UNL     1      -1.400  49.941 -21.448  1.00  0.00     0.086 A 
HETATM   14  C28 UNL     1      -1.699  49.438 -20.173  1.00  0.00     0.033 A 
HETATM   15  C29 UNL     1      -2.445  48.255 -20.107  1.00  0.00     0.002 A 
HETATM   16  C30 UNL     1      -2.876  47.604 -21.262  1.00  0.00     0.002 A 
HETATM   17  C31 UNL     1      -2.571  48.121 -22.526  1.00  0.00     0.032 A 
HETATM   18  C32 UNL     1      -1.823  49.305 -22.613  1.00  0.00     0.077 A 
HETATM   19  N8  UNL     1      -1.417  49.986 -23.729  1.00  0.00    -0.188 N 
ATOM     20  H8  UNL     1      -1.599  49.739 -24.702  1.00  0.00     0.184 HD
HETATM   21  C33 UNL     1      -0.743  51.027 -23.287  1.00  0.00     0.701 A 
ENDROOT
BRANCH   8  22
HETATM   22  N3  UNL     1       0.593  52.925 -17.801  1.00  0.00    -0.192 N 
HETATM   23  H11 UNL     1      -0.214  53.382 -17.403  1.00  0.00     0.184 HD
BRANCH  22  24
HETATM   24  C13 UNL     1       1.487  52.331 -16.906  1.00  0.00     0.052 A 
HETATM   25  C14 UNL     1       1.108  51.419 -15.915  1.00  0.00     0.033 A 
HETATM   26  C15 UNL     1       2.042  50.875 -15.018  1.00  0.00     0.042 A 
HETATM   27  C16 UNL     1       3.383  51.245 -15.089  1.00  0.00     0.107 A 
HETATM   28  C24 UNL     1       3.763  52.166 -16.064  1.00  0.00     0.151 A 
HETATM   29  F1  UNL     1       5.044  52.556 -16.160  1.00  0.00    -0.203 F 
HETATM   30  C25 UNL     1       2.838  52.699 -16.962  1.00  0.00     0.075 A 
BRANCH  27  31
HETATM   31  O2  UNL     1       4.374  50.806 -14.258  1.00  0.00    -0.346 OA
BRANCH  31  32
HETATM   32  C17 UNL     1       4.049  49.732 -13.372  1.00  0.00     0.206 C 
BRANCH  32  33
HETATM   33  C18 UNL     1       3.765  50.296 -11.967  1.00  0.00     0.299 C 
BRANCH  33  34
HETATM   34  N4  UNL     1       4.446  49.592 -10.858  1.00  0.00     0.093 N 
HETATM   35  C19 UNL     1       5.846  50.034 -10.688  1.00  0.00     0.302 C 
HETATM   36  C20 UNL     1       6.527  49.413  -9.443  1.00  0.00     0.302 C 
HETATM   37  N5  UNL     1       5.797  49.590  -8.171  1.00  0.00     0.087 N 
HETATM   38  C21 UNL     1       5.889  50.966  -7.687  1.00  0.00     0.310 C 
HETATM   39  C22 UNL     1       4.398  49.172  -8.368  1.00  0.00     0.302 C 
HETATM   40  C23 UNL     1       3.697  49.795  -9.599  1.00  0.00     0.302 C 
ENDBRANCH  33  34
ENDBRANCH  32  33
ENDBRANCH  31  32
ENDBRANCH  27  31
ENDBRANCH  22  24
ENDBRANCH   8  22
BRANCH   1  41
HETATM   41  C8  UNL     1      -0.206  51.938 -25.447  1.00  0.00     0.072 A 
HETATM   42  C2  UNL     1       0.914  51.499 -26.194  1.00  0.00    -0.034 A 
HETATM   43  C1  UNL     1       2.230  51.136 -25.561  1.00  0.00     0.050 C 
HETATM   44  C3  UNL     1       0.808  51.384 -27.590  1.00  0.00     0.009 A 
HETATM   45  C4  UNL     1      -0.370  51.725 -28.246  1.00  0.00     0.001 A 
HETATM   46  C5  UNL     1      -1.469  52.167 -27.516  1.00  0.00     0.009 A 
HETATM   47  C6  UNL     1      -1.414  52.258 -26.116  1.00  0.00    -0.034 A 
HETATM   48  C7  UNL     1      -2.658  52.699 -25.392  1.00  0.00     0.050 C 
ENDBRANCH   1  41
TORSDOF 7
ENDMDL
