MODEL 1
REMARK minimizedAffinity -8.21005726
REMARK  5 active torsions:
REMARK  status: ('A' for Active; 'I' for Inactive)
REMARK    1  A    between atoms: N1_2  and  C3_4 
REMARK    2  A    between atoms: C3_4  and  C4_5 
REMARK    3  A    between atoms: C4_5  and  C5_6 
REMARK    4  A    between atoms: C5_6  and  C6_7 
REMARK    5  A    between atoms: C7_8  and  C8_9 
ROOT
HETATM    1  C6  UNL     1      -1.790   7.439  12.739  1.00  0.00    -0.023 A 
HETATM    2  C7  UNL     1      -2.118   6.084  12.641  1.00  0.00     0.040 A 
HETATM    3  N3  UNL     1      -0.962   5.410  12.316  1.00  0.00    -0.359 N 
HETATM    4  C17 UNL     1       0.078   6.289  12.217  1.00  0.00     0.016 A 
HETATM    5  C18 UNL     1      -0.394   7.554  12.479  1.00  0.00    -0.027 A 
HETATM    6  C19 UNL     1       0.492   8.756  12.441  1.00  0.00     0.041 C 
HETATM    7  C20 UNL     1       1.978   8.355  12.482  1.00  0.00     0.005 C 
HETATM    8  C21 UNL     1       2.288   7.173  11.542  1.00  0.00     0.006 C 
HETATM    9  C22 UNL     1       1.483   5.913  11.909  1.00  0.00     0.057 C 
HETATM   10  H19 UNL     1      -0.883   4.408  12.173  1.00  0.00     0.166 HD
ENDROOT
BRANCH   2  11
HETATM   11  C8  UNL     1      -3.363   5.417  12.828  1.00  0.00     0.048 C 
HETATM   12  C9  UNL     1      -3.869   4.345  12.196  1.00  0.00     0.047 A 
HETATM   13  C10 UNL     1      -3.311   3.489  11.083  1.00  0.00     0.257 A 
HETATM   14  C16 UNL     1      -5.192   3.776  12.521  1.00  0.00     0.006 A 
HETATM   15  O1  UNL     1      -2.241   3.589  10.512  1.00  0.00    -0.267 OA
HETATM   16  N2  UNL     1      -4.279   2.533  10.829  1.00  0.00    -0.322 N 
HETATM   17  C11 UNL     1      -5.380   2.689  11.662  1.00  0.00     0.046 A 
HETATM   18  H14 UNL     1      -4.168   1.819  10.126  1.00  0.00     0.169 HD
HETATM   19  C12 UNL     1      -6.517   1.909  11.681  1.00  0.00     0.030 A 
HETATM   20  C13 UNL     1      -7.507   2.240  12.607  1.00  0.00     0.002 A 
HETATM   21  C14 UNL     1      -7.337   3.330  13.480  1.00  0.00     0.001 A 
HETATM   22  C15 UNL     1      -6.173   4.107  13.442  1.00  0.00     0.015 A 
ENDBRANCH   2  11
BRANCH   1  23
HETATM   23  C5  UNL     1      -2.716   8.574  13.057  1.00  0.00     0.043 C 
BRANCH  23  24
HETATM   24  C4  UNL     1      -4.188   8.186  12.899  1.00  0.00     0.035 C 
BRANCH  24  25
HETATM   25  C3  UNL     1      -5.020   8.715  14.075  1.00  0.00     0.271 C 
BRANCH  25  26
HETATM   26  N1  UNL     1      -6.048   7.767  14.536  1.00  0.00     0.080 N 
HETATM   27  C1  UNL     1      -5.530   6.836  15.541  1.00  0.00     0.309 C 
HETATM   28  C2  UNL     1      -7.192   8.498  15.086  1.00  0.00     0.309 C 
ENDBRANCH  25  26
ENDBRANCH  24  25
ENDBRANCH  23  24
ENDBRANCH   1  23
TORSDOF 5
ENDMDL
