MODEL 1
REMARK minimizedAffinity -8.41119766
REMARK  5 active torsions:
REMARK  status: ('A' for Active; 'I' for Inactive)
REMARK    1  A    between atoms: O1_1  and  C1_2 
REMARK    2  A    between atoms: C5_6  and  N1_7 
REMARK    3  A    between atoms: N1_7  and  C6_8 
REMARK    4  A    between atoms: C7_11  and  C8_12 
REMARK    5  A    between atoms: C9_13  and  C10_14 
ROOT
HETATM    1  C6  UNL     1      11.383  35.423  19.984  1.00  0.00     0.119 A 
HETATM    2  N2  UNL     1      12.487  35.161  19.265  1.00  0.00    -0.328 N 
ATOM      3  H2  UNL     1      13.375  34.947  19.719  1.00  0.00     0.169 HD
HETATM    4  C7  UNL     1      12.378  35.193  17.932  1.00  0.00     0.107 A 
HETATM    5  N3  UNL     1      11.257  35.463  17.251  1.00  0.00    -0.342 N 
ATOM      6  H3  UNL     1      11.243  35.476  16.232  1.00  0.00     0.167 HD
HETATM    7  C17 UNL     1      10.159  35.713  17.967  1.00  0.00     0.047 A 
HETATM    8  C18 UNL     1       8.977  35.994  17.290  1.00  0.00     0.030 A 
HETATM    9  C19 UNL     1       7.782  36.256  17.964  1.00  0.00     0.002 A 
HETATM   10  C20 UNL     1       7.755  36.233  19.352  1.00  0.00     0.001 A 
HETATM   11  C21 UNL     1       8.927  35.954  20.054  1.00  0.00     0.017 A 
HETATM   12  C22 UNL     1      10.145  35.702  19.369  1.00  0.00     0.035 A 
ENDROOT
BRANCH   4  13
HETATM   13  C8  UNL     1      13.565  34.901  17.127  1.00  0.00     0.049 C 
HETATM   14  C9  UNL     1      14.558  35.773  16.895  1.00  0.00     0.016 C 
BRANCH  14  15
HETATM   15  C10 UNL     1      15.730  35.436  16.074  1.00  0.00    -0.016 A 
HETATM   16  C11 UNL     1      15.596  35.443  14.674  1.00  0.00     0.052 A 
HETATM   17  C12 UNL     1      16.693  35.109  13.907  1.00  0.00     0.105 A 
HETATM   18  C13 UNL     1      17.899  34.775  14.474  1.00  0.00     0.106 A 
HETATM   19  O3  UNL     1      16.727  35.065  12.548  1.00  0.00    -0.323 OA
HETATM   20  C14 UNL     1      18.077  34.748  15.840  1.00  0.00     0.059 A 
HETATM   21  O2  UNL     1      18.845  34.482  13.542  1.00  0.00    -0.323 OA
HETATM   22  C15 UNL     1      16.979  35.079  16.646  1.00  0.00     0.024 A 
HETATM   23 BR1  UNL     1      17.247  35.037  18.529  1.00  0.00    -0.050 Br
HETATM   24  C16 UNL     1      18.095  34.666  12.322  1.00  0.00     0.352 A 
ENDBRANCH  14  15
ENDBRANCH   4  13
BRANCH   1  25
HETATM   25  N1  UNL     1      11.463  35.441  21.405  1.00  0.00    -0.342 N 
HETATM   26  H5  UNL     1      12.285  34.916  21.684  1.00  0.00     0.167 HD
BRANCH  25  27
HETATM   27  C5  UNL     1      10.412  35.294  22.342  1.00  0.00     0.036 A 
HETATM   28  C4  UNL     1      10.037  36.319  23.222  1.00  0.00     0.029 A 
HETATM   29  C3  UNL     1       9.038  36.120  24.181  1.00  0.00     0.005 A 
HETATM   30  C2  UNL     1       8.413  34.881  24.287  1.00  0.00     0.036 A 
HETATM   31  C1  UNL     1       8.804  33.847  23.449  1.00  0.00     0.067 A 
HETATM   32  C23 UNL     1       9.802  34.038  22.492  1.00  0.00     0.066 A 
BRANCH  31  33
HETATM   33  O1  UNL     1       8.183  32.640  23.598  1.00  0.00    -0.361 OA
HETATM   34  H1  UNL     1       8.553  32.016  22.955  1.00  0.00     0.217 HD
ENDBRANCH  31  33
ENDBRANCH  25  27
ENDBRANCH   1  25
TORSDOF 5
ENDMDL
