MODEL 1
REMARK minimizedAffinity -7.76376343
REMARK  10 active torsions:
REMARK  status: ('A' for Active; 'I' for Inactive)
REMARK    1  A    between atoms: C2_2  and  N1_3 
REMARK    2  A    between atoms: N1_3  and  C3_4 
REMARK    3  A    between atoms: N1_3  and  C5_6 
REMARK    4  A    between atoms: C5_6  and  C6_7 
REMARK    5  A    between atoms: C6_7  and  C7_8 
REMARK    6  A    between atoms: C7_8  and  C8_9 
REMARK    7  A    between atoms: C8_9  and  N2_10 
REMARK    8  A    between atoms: N2_10  and  C9_11 
REMARK    9  A    between atoms: C12_16  and  O1_17 
REMARK   10  A    between atoms: C13_18  and  C14_19 
ROOT
HETATM    1  C9  UNL     1       0.816  52.720 -18.858  1.00  0.00     0.082 A 
HETATM    2  C10 UNL     1       1.146  53.516 -19.952  1.00  0.00     0.072 A 
HETATM    3  C11 UNL     1       0.752  53.159 -21.229  1.00  0.00     0.049 A 
HETATM    4  N3  UNL     1       1.073  53.948 -22.273  1.00  0.00    -0.336 N 
ATOM      5  H3  UNL     1       1.603  54.811 -22.144  1.00  0.00     0.168 HD
HETATM    6  C12 UNL     1       0.666  53.549 -23.492  1.00  0.00     0.151 A 
HETATM    7  C13 UNL     1      -0.057  52.399 -23.780  1.00  0.00     0.029 A 
HETATM    8  C20 UNL     1      -0.381  51.595 -22.685  1.00  0.00     0.032 A 
HETATM    9  C21 UNL     1       0.025  51.973 -21.392  1.00  0.00     0.007 A 
HETATM   10  C22 UNL     1      -0.256  51.225 -20.253  1.00  0.00     0.103 A 
HETATM   11  N4  UNL     1       0.125  51.575 -19.006  1.00  0.00    -0.356 N 
ATOM     12  H4  UNL     1      -0.103  50.990 -18.203  1.00  0.00     0.166 HD
ENDROOT
BRANCH   1  13
HETATM   13  N2  UNL     1       1.274  53.118 -17.590  1.00  0.00    -0.279 NA
HETATM   14  H19 UNL     1       0.515  53.581 -17.097  1.00  0.00     0.129 HD
BRANCH  13  15
HETATM   15  C8  UNL     1       1.873  52.046 -16.795  1.00  0.00     0.094 C 
BRANCH  15  16
HETATM   16  C7  UNL     1       3.274  52.479 -16.355  1.00  0.00     0.016 C 
BRANCH  16  17
HETATM   17  C6  UNL     1       3.738  51.813 -15.055  1.00  0.00     0.021 C 
BRANCH  17  18
HETATM   18  C5  UNL     1       2.640  50.984 -14.376  1.00  0.00     0.117 C 
BRANCH  18  19
HETATM   19  N1  UNL     1       2.088  51.542 -13.148  1.00  0.00    -0.413 N 
BRANCH  19  20
HETATM   20  C2  UNL     1       2.993  51.753 -12.027  1.00  0.00     0.112 C 
HETATM   21  C1  UNL     1       2.789  53.033 -11.227  1.00  0.00     0.026 C 
ENDBRANCH  19  20
BRANCH  19  22
HETATM   22  C3  UNL     1       0.688  51.279 -12.853  1.00  0.00     0.112 C 
HETATM   23  C4  UNL     1      -0.317  52.291 -13.390  1.00  0.00     0.026 C 
ENDBRANCH  19  22
ENDBRANCH  18  19
ENDBRANCH  17  18
ENDBRANCH  16  17
ENDBRANCH  15  16
ENDBRANCH  13  15
ENDBRANCH   1  13
BRANCH   6  24
HETATM   24  O1  UNL     1       1.038  54.410 -24.476  1.00  0.00    -0.345 OA
HETATM   25  H21 UNL     1       1.517  55.073 -23.946  1.00  0.00     0.219 HD
ENDBRANCH   6  24
BRANCH   7  26
HETATM   26  C14 UNL     1      -0.462  52.039 -25.146  1.00  0.00     0.022 A 
HETATM   27  C15 UNL     1       0.482  51.610 -26.102  1.00  0.00     0.046 A 
HETATM   28 CL1  UNL     1       2.173  51.511 -25.732  1.00  0.00    -0.083 Cl
HETATM   29  C16 UNL     1       0.093  51.254 -27.400  1.00  0.00     0.025 A 
HETATM   30  C17 UNL     1      -1.247  51.316 -27.772  1.00  0.00     0.003 A 
HETATM   31  C18 UNL     1      -2.198  51.737 -26.848  1.00  0.00     0.025 A 
HETATM   32  C19 UNL     1      -1.812  52.094 -25.550  1.00  0.00     0.046 A 
HETATM   33 CL2  UNL     1      -3.063  52.623 -24.473  1.00  0.00    -0.083 Cl
ENDBRANCH   7  26
TORSDOF 10
ENDMDL
