MODEL 1
REMARK minimizedAffinity -10.1127281
REMARK CNNscore 0.856860876
REMARK CNNaffinity 7.91828108
REMARK  8 active torsions:
REMARK  status: ('A' for Active; 'I' for Inactive)
REMARK    1  A    between atoms: C6_9  and  C7_10 
REMARK    2  A    between atoms: C9_12  and  N3_13 
REMARK    3  A    between atoms: N3_13  and  C10_14 
REMARK    4  A    between atoms: C10_14  and  C11_15 
REMARK    5  A    between atoms: C10_14  and  C12_17 
REMARK    6  A    between atoms: C11_15  and  O1_16 
REMARK    7  A    between atoms: C19_26  and  C20_27 
REMARK    8  A    between atoms: C25_33  and  O2_34 
ROOT
HETATM    1  C7  UNL     1      -1.945  50.893 -24.414  1.00  0.00     0.004 A 
HETATM    2  C8  UNL     1      -3.111  50.347 -23.843  1.00  0.00     0.045 A 
HETATM    3  C9  UNL     1      -4.039  49.621 -24.596  1.00  0.00     0.045 A 
HETATM    4  C18 UNL     1      -3.701  49.427 -25.931  1.00  0.00     0.117 A 
HETATM    5  N4  UNL     1      -2.602  49.934 -26.541  1.00  0.00    -0.362 N 
ATOM      6  H4  UNL     1      -2.439  49.790 -27.538  1.00  0.00     0.165 HD
HETATM    7  C19 UNL     1      -1.726  50.642 -25.779  1.00  0.00     0.056 A 
ENDROOT
BRANCH   1   8
HETATM    8  C6  UNL     1      -1.046  51.706 -23.578  1.00  0.00    -0.023 A 
HETATM    9  C5  UNL     1      -0.313  52.769 -24.133  1.00  0.00     0.014 A 
HETATM   10  C4  UNL     1       0.550  53.559 -23.364  1.00  0.00     0.033 A 
HETATM   11  C3  UNL     1       0.652  53.249 -22.006  1.00  0.00     0.060 A 
HETATM   12  N2  UNL     1       1.389  53.807 -20.997  1.00  0.00    -0.300 N 
HETATM   13  C27 UNL     1      -0.057  52.214 -21.410  1.00  0.00     0.016 A 
HETATM   14  N1  UNL     1       1.222  53.218 -19.800  1.00  0.00    -0.304 N 
HETATM   15  H4  UNL     1       2.028  54.590 -21.060  1.00  0.00     0.187 HD
HETATM   16  C2  UNL     1       0.336  52.244 -20.045  1.00  0.00     0.034 A 
ATOM     17  H1  UNL     1       1.667  53.457 -18.913  1.00  0.00     0.186 HD
HETATM   18  C1  UNL     1      -0.121  51.353 -18.952  1.00  0.00     0.070 C 
HETATM   19  C26 UNL     1      -0.922  51.436 -22.200  1.00  0.00     0.028 A 
ENDBRANCH   1   8
BRANCH   7  20
HETATM   20  C20 UNL     1      -0.557  51.134 -26.529  1.00  0.00     0.028 A 
HETATM   21  C21 UNL     1       0.733  50.763 -26.112  1.00  0.00     0.058 A 
HETATM   22  C22 UNL     1       1.854  51.200 -26.811  1.00  0.00     0.117 A 
HETATM   23  F1  UNL     1       3.074  50.824 -26.403  1.00  0.00    -0.206 F 
HETATM   24  C23 UNL     1       1.730  52.016 -27.927  1.00  0.00     0.045 A 
HETATM   25  C24 UNL     1       0.464  52.414 -28.349  1.00  0.00     0.040 A 
HETATM   26  C25 UNL     1      -0.667  51.979 -27.649  1.00  0.00     0.078 A 
BRANCH  26  27
HETATM   27  O2  UNL     1      -1.905  52.401 -28.055  1.00  0.00    -0.360 OA
HETATM   28  H22 UNL     1      -1.811  52.946 -28.854  1.00  0.00     0.217 HD
ENDBRANCH  26  27
ENDBRANCH   7  20
BRANCH   3  29
HETATM   29  N3  UNL     1      -5.133  49.050 -23.943  1.00  0.00    -0.378 N 
HETATM   30  H8  UNL     1      -5.322  48.104 -24.277  1.00  0.00     0.160 HD
BRANCH  29  31
HETATM   31  C10 UNL     1      -5.285  49.151 -22.477  1.00  0.00     0.138 C 
BRANCH  31  32
HETATM   32  C11 UNL     1      -6.724  49.625 -22.146  1.00  0.00     0.194 C 
BRANCH  32  33
HETATM   33  O1  UNL     1      -7.078  50.793 -22.896  1.00  0.00    -0.399 OA
HETATM   34  H12 UNL     1      -6.250  51.316 -22.927  1.00  0.00     0.209 HD
ENDBRANCH  32  33
ENDBRANCH  31  32
BRANCH  31  35
HETATM   35  C12 UNL     1      -4.911  47.800 -21.875  1.00  0.00    -0.034 A 
HETATM   36  C13 UNL     1      -3.590  47.594 -21.434  1.00  0.00     0.009 A 
HETATM   37  C14 UNL     1      -3.195  46.365 -20.903  1.00  0.00     0.001 A 
HETATM   38  C15 UNL     1      -4.109  45.318 -20.815  1.00  0.00     0.000 A 
HETATM   39  C16 UNL     1      -5.415  45.499 -21.262  1.00  0.00     0.001 A 
HETATM   40  C17 UNL     1      -5.813  46.728 -21.794  1.00  0.00     0.009 A 
ENDBRANCH  31  35
ENDBRANCH  29  31
ENDBRANCH   3  29
TORSDOF 8
ENDMDL
