MODEL 1
REMARK minimizedAffinity -9.88528061
REMARK CNNscore 0.415053397
REMARK CNNaffinity 8.05637741
REMARK  7 active torsions:
REMARK  status: ('A' for Active; 'I' for Inactive)
REMARK    1  A    between atoms: O1_2  and  C2_3 
REMARK    2  A    between atoms: C2_3  and  C3_4 
REMARK       I    between atoms: C3_4  and  N1_6 
REMARK    3  A    between atoms: C7_10  and  C8_11 
REMARK    4  A    between atoms: C13_18  and  C14_19 
REMARK       I    between atoms: C14_19  and  N3_21 
REMARK    5  A    between atoms: N3_21  and  C15_22 
REMARK    6  A    between atoms: C17_24  and  C18_25 
REMARK    7  A    between atoms: C24_37  and  N5_38 
ROOT
HETATM    1  C8  UNL     1      -3.994   4.747  13.279  1.00  0.00     0.094 A 
HETATM    2  N2  UNL     1      -4.953   5.517  13.765  1.00  0.00    -0.342 N 
ATOM      3  H2  UNL     1      -4.840   6.401  14.261  1.00  0.00     0.167 HD
HETATM    4  C9  UNL     1      -6.134   4.881  13.465  1.00  0.00     0.077 A 
HETATM    5  C10 UNL     1      -7.417   5.443  13.809  1.00  0.00     0.032 A 
HETATM    6  C11 UNL     1      -7.797   5.531  15.153  1.00  0.00     0.018 A 
HETATM    7  C12 UNL     1      -9.034   6.085  15.500  1.00  0.00     0.018 A 
HETATM    8  C13 UNL     1      -9.891   6.581  14.504  1.00  0.00     0.035 A 
HETATM    9  C21 UNL     1      -9.509   6.486  13.160  1.00  0.00     0.060 A 
HETATM   10  C22 UNL     1      -8.280   5.925  12.823  1.00  0.00     0.130 A 
HETATM   11  F4  UNL     1      -7.933   5.871  11.527  1.00  0.00    -0.205 F 
HETATM   12  C23 UNL     1      -5.896   3.676  12.843  1.00  0.00     0.106 A 
HETATM   13  C24 UNL     1      -6.701   2.587  12.342  1.00  0.00     0.107 A 
HETATM   14  N6  UNL     1      -6.126   1.566  11.748  1.00  0.00    -0.354 N 
ATOM     15  H6  UNL     1      -6.687   0.790  11.396  1.00  0.00     0.166 HD
HETATM   16  C25 UNL     1      -4.753   1.558  11.606  1.00  0.00     0.107 A 
HETATM   17  C26 UNL     1      -3.948   2.528  12.064  1.00  0.00     0.116 A 
HETATM   18  N7  UNL     1      -4.527   3.610  12.703  1.00  0.00    -0.305 N 
ENDROOT
BRANCH   1  19
HETATM   19  C7  UNL     1      -2.522   5.066  13.287  1.00  0.00     0.072 C 
HETATM   20  C6  UNL     1      -2.249   6.516  13.750  1.00  0.00     0.015 C 
HETATM   21  C5  UNL     1      -1.897   7.433  12.579  1.00  0.00     0.021 C 
HETATM   22  C4  UNL     1      -0.655   6.916  11.850  1.00  0.00     0.126 C 
HETATM   23  N1  UNL     1      -0.660   5.462  11.685  1.00  0.00    -0.350 N 
HETATM   24  C3  UNL     1       0.441   4.721  11.258  1.00  0.00     0.243 C 
HETATM   25  C27 UNL     1      -1.939   4.787  11.888  1.00  0.00     0.138 C 
HETATM   26  O2  UNL     1       0.402   3.493  11.176  1.00  0.00    -0.271 OA
BRANCH  24  27
HETATM   27  C2  UNL     1       1.713   5.519  10.891  1.00  0.00     0.269 C 
BRANCH  27  28
HETATM   28  O1  UNL     1       2.059   5.602   9.516  1.00  0.00    -0.387 OA
HETATM   29  C1  UNL     1       2.847   6.746   9.214  1.00  0.00     0.202 C 
ENDBRANCH  27  28
ENDBRANCH  24  27
ENDBRANCH   1  19
BRANCH  13  30
HETATM   30  N5  UNL     1      -8.059   2.521  12.463  1.00  0.00    -0.287 NA
HETATM   31  H20 UNL     1      -8.405   1.589  12.266  1.00  0.00     0.125 HD
HETATM   32  H21 UNL     1      -8.454   2.930  13.301  1.00  0.00     0.125 HD
ENDBRANCH  13  30
BRANCH   8  33
HETATM   33  C14 UNL     1     -11.214   7.204  14.814  1.00  0.00     0.257 C 
HETATM   34  O3  UNL     1     -11.232   8.358  15.234  1.00  0.00    -0.267 OA
HETATM   35  N3  UNL     1     -12.312   6.397  14.640  1.00  0.00    -0.309 N 
HETATM   36  H15 UNL     1     -12.200   5.415  14.428  1.00  0.00     0.170 HD
BRANCH  35  37
HETATM   37  C15 UNL     1     -13.658   6.716  14.827  1.00  0.00     0.108 A 
HETATM   38  C16 UNL     1     -14.676   6.386  13.943  1.00  0.00     0.064 A 
HETATM   39  C17 UNL     1     -15.992   6.758  14.250  1.00  0.00     0.052 A 
HETATM   40  C19 UNL     1     -16.231   7.458  15.434  1.00  0.00     0.033 A 
HETATM   41  C20 UNL     1     -15.155   7.746  16.256  1.00  0.00     0.090 A 
HETATM   42  N4  UNL     1     -13.885   7.385  15.978  1.00  0.00    -0.352 N 
ATOM     43  H4  UNL     1     -13.122   7.608  16.616  1.00  0.00     0.166 HD
BRANCH  39  44
HETATM   44  C18 UNL     1     -17.127   6.454  13.308  1.00  0.00     0.417 C 
HETATM   45  F1  UNL     1     -17.758   7.584  12.886  1.00  0.00    -0.166 F 
HETATM   46  F2  UNL     1     -18.090   5.683  13.888  1.00  0.00    -0.166 F 
HETATM   47  F3  UNL     1     -16.746   5.790  12.183  1.00  0.00    -0.166 F 
ENDBRANCH  39  44
ENDBRANCH  35  37
ENDBRANCH   8  33
TORSDOF 7
ENDMDL
