MODEL 1
REMARK minimizedAffinity -7.97875261
REMARK  7 active torsions:
REMARK  status: ('A' for Active; 'I' for Inactive)
REMARK    1  A    between atoms: C2_2  and  S1_3 
REMARK    2  A    between atoms: S1_3  and  N1_6 
REMARK    3  A    between atoms: N1_6  and  C3_7 
REMARK    4  A    between atoms: C7_11  and  N2_12 
REMARK    5  A    between atoms: N2_12  and  C8_13 
REMARK    6  A    between atoms: C12_21  and  O3_22 
REMARK    7  A    between atoms: C14_24  and  O4_25 
ROOT
HETATM    1  C8  UNL     1       0.087  52.031 -21.208  1.00  0.00     0.098 A 
HETATM    2  N3  UNL     1       0.576  53.178 -21.713  1.00  0.00    -0.342 N 
ATOM      3  H3  UNL     1       0.546  53.384 -22.711  1.00  0.00     0.167 HD
HETATM    4  C9  UNL     1       1.101  54.030 -20.830  1.00  0.00     0.182 A 
HETATM    5  N4  UNL     1       1.188  53.847 -19.508  1.00  0.00    -0.351 N 
ATOM      6  H4  UNL     1       1.585  54.560 -18.895  1.00  0.00     0.166 HD
HETATM    7  C10 UNL     1       0.732  52.686 -19.026  1.00  0.00     0.049 A 
HETATM    8  C11 UNL     1       0.838  52.449 -17.662  1.00  0.00     0.070 A 
HETATM    9  C12 UNL     1       0.400  51.255 -17.078  1.00  0.00     0.103 A 
HETATM   10  C14 UNL     1      -0.161  50.257 -17.889  1.00  0.00     0.102 A 
HETATM   11  C16 UNL     1      -0.262  50.478 -19.263  1.00  0.00     0.056 A 
HETATM   12  C17 UNL     1       0.164  51.701 -19.841  1.00  0.00     0.032 A 
ENDROOT
BRANCH   1  13
HETATM   13  N2  UNL     1      -0.493  51.172 -22.167  1.00  0.00    -0.245 NA
HETATM   14  H8  UNL     1       0.291  50.594 -22.481  1.00  0.00     0.135 HD
BRANCH  13  15
HETATM   15  C7  UNL     1      -1.219  51.567 -23.322  1.00  0.00     0.015 A 
HETATM   16  C6  UNL     1      -2.542  51.998 -23.153  1.00  0.00     0.024 A 
HETATM   17  C5  UNL     1      -3.322  52.362 -24.253  1.00  0.00     0.004 A 
HETATM   18  C4  UNL     1      -2.793  52.285 -25.539  1.00  0.00     0.024 A 
HETATM   19  C3  UNL     1      -1.481  51.849 -25.719  1.00  0.00     0.024 A 
HETATM   20  C18 UNL     1      -0.703  51.478 -24.620  1.00  0.00     0.048 A 
BRANCH  19  21
HETATM   21  N1  UNL     1      -0.943  51.701 -27.036  1.00  0.00    -0.182 NA
HETATM   22  H4  UNL     1      -0.623  50.753 -27.241  1.00  0.00     0.146 HD
BRANCH  21  23
HETATM   23  S1  UNL     1       0.342  52.751 -27.444  1.00  0.00     0.235 S 
HETATM   24  O1  UNL     1       0.510  53.599 -26.281  1.00  0.00    -0.206 OA
HETATM   25  O2  UNL     1       0.015  53.351 -28.722  1.00  0.00    -0.206 OA
BRANCH  23  26
HETATM   26  C2  UNL     1       1.751  51.758 -27.639  1.00  0.00     0.116 C 
HETATM   27  C1  UNL     1       2.535  51.476 -26.589  1.00  0.00     0.024 C 
ENDBRANCH  23  26
ENDBRANCH  21  23
ENDBRANCH  19  21
ENDBRANCH  13  15
ENDBRANCH   1  13
BRANCH  10  28
HETATM   28  O4  UNL     1      -0.565  49.110 -17.254  1.00  0.00    -0.353 OA
HETATM   29  C15 UNL     1      -1.940  48.763 -17.333  1.00  0.00     0.210 C 
ENDBRANCH  10  28
BRANCH   9  30
HETATM   30  O3  UNL     1       0.478  50.971 -15.736  1.00  0.00    -0.353 OA
HETATM   31  C13 UNL     1       1.113  51.922 -14.894  1.00  0.00     0.210 C 
ENDBRANCH   9  30
TORSDOF 7
ENDMDL
