MODEL 1
REMARK minimizedAffinity -9.48657894
REMARK  8 active torsions:
REMARK  status: ('A' for Active; 'I' for Inactive)
REMARK    1  A    between atoms: C8_8  and  C9_9 
REMARK    2  A    between atoms: C14_16  and  N2_17 
REMARK    3  A    between atoms: N2_17  and  C15_18 
REMARK    4  A    between atoms: C19_22  and  C20_23 
REMARK       I    between atoms: C20_23  and  N3_25 
REMARK    5  A    between atoms: N3_25  and  C21_26 
REMARK    6  A    between atoms: C21_26  and  C22_27 
REMARK    7  A    between atoms: C22_27  and  C23_28 
REMARK    8  A    between atoms: C23_28  and  N4_29 
ROOT
HETATM    1  C9  UNL     1      -1.559  50.671 -23.273  1.00  0.00    -0.022 A 
HETATM    2  C10 UNL     1      -0.779  51.780 -23.607  1.00  0.00     0.021 A 
HETATM    3  C11 UNL     1      -0.077  52.490 -22.620  1.00  0.00    -0.032 A 
HETATM    4  C12 UNL     1       0.754  53.682 -23.014  1.00  0.00     0.050 C 
HETATM    5  C13 UNL     1      -0.145  52.099 -21.277  1.00  0.00     0.083 A 
HETATM    6  N1  UNL     1       0.528  52.784 -20.332  1.00  0.00    -0.188 N 
ATOM      7  H1  UNL     1       1.101  53.592 -20.578  1.00  0.00     0.184 HD
HETATM    8  C14 UNL     1       0.426  52.374 -19.060  1.00  0.00     0.697 A 
HETATM    9  N5  UNL     1      -0.319  51.305 -18.714  1.00  0.00    -0.131 N 
ATOM     10  H5  UNL     1      -0.373  51.018 -17.737  1.00  0.00     0.205 HD
HETATM   11  N6  UNL     1      -1.003  50.602 -19.665  1.00  0.00    -0.284 N 
ATOM     12  H6  UNL     1      -1.565  49.793 -19.402  1.00  0.00     0.187 HD
HETATM   13  C27 UNL     1      -0.929  50.985 -20.943  1.00  0.00     0.077 A 
HETATM   14  C28 UNL     1      -1.619  50.289 -21.929  1.00  0.00     0.045 A 
ENDROOT
BRANCH   8  15
HETATM   15  N2  UNL     1       1.077  53.031 -18.016  1.00  0.00    -0.190 N 
HETATM   16  H14 UNL     1       1.002  54.030 -18.152  1.00  0.00     0.184 HD
BRANCH  15  17
HETATM   17  C15 UNL     1       1.823  52.604 -16.913  1.00  0.00     0.050 A 
HETATM   18  C16 UNL     1       3.220  52.560 -16.883  1.00  0.00     0.030 A 
HETATM   19  C17 UNL     1       3.912  52.133 -15.743  1.00  0.00     0.003 A 
HETATM   20  C18 UNL     1       3.213  51.729 -14.607  1.00  0.00     0.017 A 
HETATM   21  C19 UNL     1       1.816  51.746 -14.618  1.00  0.00     0.034 A 
HETATM   22  C26 UNL     1       1.135  52.190 -15.761  1.00  0.00     0.047 A 
BRANCH  21  23
HETATM   23  C20 UNL     1       1.013  51.333 -13.434  1.00  0.00     0.251 C 
HETATM   24  O1  UNL     1       1.326  50.331 -12.801  1.00  0.00    -0.268 OA
HETATM   25  N3  UNL     1      -0.047  52.153 -13.098  1.00  0.00    -0.357 N 
HETATM   26  H18 UNL     1      -0.039  53.095 -13.466  1.00  0.00     0.162 HD
BRANCH  25  27
HETATM   27  C21 UNL     1      -0.786  51.937 -11.865  1.00  0.00     0.124 C 
BRANCH  27  28
HETATM   28  C22 UNL     1      -2.176  51.379 -12.154  1.00  0.00     0.050 C 
BRANCH  28  29
HETATM   29  C23 UNL     1      -3.199  52.479 -12.460  1.00  0.00     0.273 C 
BRANCH  29  30
HETATM   30  N4  UNL     1      -4.201  52.678 -11.400  1.00  0.00     0.080 N 
HETATM   31  C24 UNL     1      -4.385  51.477 -10.583  1.00  0.00     0.309 C 
HETATM   32  C25 UNL     1      -3.808  53.800 -10.542  1.00  0.00     0.309 C 
ENDBRANCH  29  30
ENDBRANCH  28  29
ENDBRANCH  27  28
ENDBRANCH  25  27
ENDBRANCH  21  23
ENDBRANCH  15  17
ENDBRANCH   8  15
BRANCH   1  33
HETATM   33  C8  UNL     1      -2.299  49.925 -24.304  1.00  0.00    -0.014 A 
HETATM   34  C2  UNL     1      -3.466  49.195 -23.966  1.00  0.00    -0.050 A 
HETATM   35  C1  UNL     1      -3.990  49.151 -22.554  1.00  0.00     0.049 C 
HETATM   36  C3  UNL     1      -4.158  48.487 -24.963  1.00  0.00     0.007 A 
HETATM   37  C4  UNL     1      -3.713  48.495 -26.280  1.00  0.00     0.001 A 
HETATM   38  C5  UNL     1      -2.570  49.209 -26.623  1.00  0.00     0.007 A 
HETATM   39  C6  UNL     1      -1.855  49.927 -25.651  1.00  0.00    -0.050 A 
HETATM   40  C7  UNL     1      -0.622  50.685 -26.075  1.00  0.00     0.049 C 
ENDBRANCH   1  33
TORSDOF 8
ENDMDL
