MODEL 1
REMARK minimizedAffinity -7.63846874
REMARK  5 active torsions:
REMARK  status: ('A' for Active; 'I' for Inactive)
REMARK    1  A    between atoms: O1_2  and  C2_3 
REMARK    2  A    between atoms: C6_7  and  N1_8 
REMARK    3  A    between atoms: N1_8  and  C7_9 
REMARK    4  A    between atoms: C11_17  and  O2_18 
REMARK    5  A    between atoms: C13_20  and  O3_21 
ROOT
HETATM    1  C7  UNL     1       5.957  62.544 -34.829  1.00  0.00     0.119 A 
HETATM    2  N2  UNL     1       5.225  62.059 -33.811  1.00  0.00    -0.338 N 
ATOM      3  H2  UNL     1       5.514  61.228 -33.294  1.00  0.00     0.168 HD
HETATM    4  C8  UNL     1       4.103  62.713 -33.507  1.00  0.00     0.182 A 
HETATM    5  N3  UNL     1       3.633  63.802 -34.122  1.00  0.00    -0.351 N 
ATOM      6  H3  UNL     1       2.756  64.239 -33.840  1.00  0.00     0.166 HD
HETATM    7  C9  UNL     1       4.369  64.290 -35.125  1.00  0.00     0.050 A 
HETATM    8  C10 UNL     1       3.914  65.425 -35.783  1.00  0.00     0.070 A 
HETATM    9  C11 UNL     1       4.627  66.009 -36.836  1.00  0.00     0.103 A 
HETATM   10  C13 UNL     1       5.846  65.443 -37.242  1.00  0.00     0.102 A 
HETATM   11  C15 UNL     1       6.310  64.296 -36.593  1.00  0.00     0.057 A 
HETATM   12  C16 UNL     1       5.572  63.703 -35.536  1.00  0.00     0.038 A 
ENDROOT
BRANCH   1  13
HETATM   13  N1  UNL     1       7.137  61.859 -35.227  1.00  0.00    -0.342 N 
HETATM   14  H7  UNL     1       6.936  60.865 -35.257  1.00  0.00     0.167 HD
BRANCH  13  15
HETATM   15  C6  UNL     1       8.468  62.103 -34.819  1.00  0.00     0.036 A 
HETATM   16  C5  UNL     1       9.414  62.494 -35.778  1.00  0.00     0.029 A 
HETATM   17  C4  UNL     1      10.723  62.810 -35.410  1.00  0.00     0.005 A 
HETATM   18  C3  UNL     1      11.105  62.766 -34.069  1.00  0.00     0.037 A 
HETATM   19  C2  UNL     1      10.173  62.416 -33.093  1.00  0.00     0.070 A 
HETATM   20  C17 UNL     1       8.863  62.101 -33.475  1.00  0.00     0.066 A 
BRANCH  19  21
HETATM   21  O1  UNL     1      10.407  62.356 -31.746  1.00  0.00    -0.356 OA
HETATM   22  C1  UNL     1      11.078  61.202 -31.258  1.00  0.00     0.210 C 
ENDBRANCH  19  21
ENDBRANCH  13  15
ENDBRANCH   1  13
BRANCH  10  23
HETATM   23  O3  UNL     1       6.496  66.070 -38.273  1.00  0.00    -0.353 OA
HETATM   24  C14 UNL     1       7.612  66.888 -37.952  1.00  0.00     0.210 C 
ENDBRANCH  10  23
BRANCH   9  25
HETATM   25  O2  UNL     1       4.224  67.128 -37.521  1.00  0.00    -0.353 OA
HETATM   26  C12 UNL     1       3.058  67.026 -38.328  1.00  0.00     0.210 C 
ENDBRANCH   9  25
TORSDOF 5
ENDMDL
