MODEL 1
REMARK minimizedAffinity -9.12428856
REMARK CNNscore 0.374003649
REMARK CNNaffinity 7.70785522
REMARK  7 active torsions:
REMARK  status: ('A' for Active; 'I' for Inactive)
REMARK    1  A    between atoms: O1_2  and  C2_3 
REMARK    2  A    between atoms: C4_5  and  C5_6 
REMARK    3  A    between atoms: N2_9  and  C6_10 
REMARK    4  A    between atoms: C9_13  and  N3_14 
REMARK       I    between atoms: N4_17  and  C12_18 
REMARK    5  A    between atoms: C20_31  and  N7_32 
REMARK    6  A    between atoms: C24_36  and  N8_37 
REMARK       I    between atoms: N8_37  and  C25_38 
REMARK    7  A    between atoms: C25_38  and  C26_40 
ROOT
HETATM    1  C5  UNL     1      -0.205  51.226 -19.257  1.00  0.00     0.076 A 
HETATM    2  N1  UNL     1      -0.968  50.161 -19.548  1.00  0.00    -0.295 N 
ATOM      3  H1  UNL     1      -1.298  49.436 -18.911  1.00  0.00     0.187 HD
HETATM    4  N2  UNL     1      -1.203  50.264 -20.877  1.00  0.00    -0.270 N 
HETATM    5  C18 UNL     1      -0.529  51.305 -21.456  1.00  0.00     0.140 A 
HETATM    6  N5  UNL     1      -0.511  51.650 -22.754  1.00  0.00    -0.337 N 
ATOM      7  H5  UNL     1      -1.011  51.146 -23.487  1.00  0.00     0.168 HD
HETATM    8  C19 UNL     1       0.243  52.738 -22.972  1.00  0.00     0.183 A 
HETATM    9  N6  UNL     1       0.928  53.461 -22.070  1.00  0.00    -0.338 N 
ATOM     10  H6  UNL     1       1.473  54.273 -22.358  1.00  0.00     0.168 HD
HETATM   11  C20 UNL     1       0.879  53.091 -20.774  1.00  0.00     0.116 A 
HETATM   12  C21 UNL     1       0.126  51.961 -20.427  1.00  0.00     0.082 A 
ENDROOT
BRANCH   1  13
HETATM   13  C4  UNL     1       0.172  51.492 -17.874  1.00  0.00    -0.004 A 
HETATM   14  C3  UNL     1      -0.609  50.989 -16.825  1.00  0.00     0.053 A 
HETATM   15  C2  UNL     1      -0.262  51.257 -15.498  1.00  0.00     0.095 A 
HETATM   16  C24 UNL     1       0.873  52.046 -15.214  1.00  0.00     0.068 A 
HETATM   17  C23 UNL     1       1.643  52.547 -16.262  1.00  0.00     0.033 A 
HETATM   18  C22 UNL     1       1.294  52.273 -17.586  1.00  0.00     0.016 A 
BRANCH  15  19
HETATM   19  O1  UNL     1      -0.959  50.810 -14.398  1.00  0.00    -0.354 OA
HETATM   20  C1  UNL     1      -2.372  50.705 -14.524  1.00  0.00     0.210 C 
ENDBRANCH  15  19
BRANCH  16  21
HETATM   21  N8  UNL     1       1.143  52.302 -13.852  1.00  0.00    -0.319 N 
HETATM   22  C25 UNL     1       2.056  51.692 -13.019  1.00  0.00     0.273 C 
HETATM   23  O3  UNL     1       2.734  50.719 -13.331  1.00  0.00    -0.266 OA
HETATM   24  H31 UNL     1       0.547  53.016 -13.453  1.00  0.00     0.169 HD
BRANCH  22  25
HETATM   25  C26 UNL     1       2.138  52.300 -11.693  1.00  0.00     0.104 A 
HETATM   26  C27 UNL     1       3.093  53.167 -11.179  1.00  0.00     0.049 A 
HETATM   27  C28 UNL     1       2.774  53.463  -9.830  1.00  0.00    -0.007 A 
HETATM   28  C29 UNL     1       3.389  54.256  -8.841  1.00  0.00     0.014 A 
HETATM   29  C33 UNL     1       1.607  52.767  -9.523  1.00  0.00     0.045 A 
HETATM   30  C30 UNL     1       2.816  54.334  -7.568  1.00  0.00     0.001 A 
HETATM   31  C31 UNL     1       1.650  53.633  -7.276  1.00  0.00     0.002 A 
HETATM   32  C32 UNL     1       1.027  52.840  -8.244  1.00  0.00     0.030 A 
HETATM   33  N9  UNL     1       1.237  52.075 -10.662  1.00  0.00    -0.346 N 
HETATM   34  C34 UNL     1       0.058  51.240 -10.775  1.00  0.00     0.156 C 
ENDBRANCH  22  25
ENDBRANCH  16  21
ENDBRANCH   1  13
BRANCH   4  35
HETATM   35  C6  UNL     1      -2.164  49.336 -21.474  1.00  0.00     0.110 C 
HETATM   36  C7  UNL     1      -3.291  48.942 -20.512  1.00  0.00     0.029 C 
HETATM   37  C8  UNL     1      -4.543  49.802 -20.608  1.00  0.00     0.027 C 
HETATM   38  C9  UNL     1      -5.064  50.047 -22.037  1.00  0.00     0.079 C 
HETATM   39  C16 UNL     1      -3.927  50.517 -22.965  1.00  0.00     0.027 C 
HETATM   40  C17 UNL     1      -2.625  49.723 -22.885  1.00  0.00     0.029 C 
BRANCH  38  41
HETATM   41  N3  UNL     1      -5.908  48.986 -22.611  1.00  0.00    -0.405 N 
HETATM   42  C10 UNL     1      -7.302  49.275 -22.943  1.00  0.00     0.137 C 
HETATM   43  C11 UNL     1      -7.981  48.178 -23.791  1.00  0.00     0.145 C 
HETATM   44  N4  UNL     1      -7.254  47.912 -25.035  1.00  0.00    -0.349 N 
HETATM   45  C12 UNL     1      -7.821  47.408 -26.192  1.00  0.00     0.215 C 
HETATM   46  C14 UNL     1      -5.820  48.199 -25.019  1.00  0.00     0.145 C 
HETATM   47  C13 UNL     1      -9.286  47.053 -26.139  1.00  0.00     0.117 C 
HETATM   48  O2  UNL     1      -7.179  47.248 -27.229  1.00  0.00    -0.274 OA
HETATM   49  C15 UNL     1      -5.228  48.129 -23.600  1.00  0.00     0.137 C 
ENDBRANCH  38  41
ENDBRANCH   4  35
BRANCH  11  50
HETATM   50  N7  UNL     1       1.598  53.865 -19.883  1.00  0.00    -0.385 N 
HETATM   51  H27 UNL     1       1.896  53.431 -19.017  1.00  0.00     0.157 HD
HETATM   52  H28 UNL     1       2.263  54.473 -20.343  1.00  0.00     0.157 HD
ENDBRANCH  11  50
TORSDOF 7
ENDMDL
