MODEL 1
REMARK minimizedAffinity -8.07015133
REMARK  9 active torsions:
REMARK  status: ('A' for Active; 'I' for Inactive)
REMARK    1  A    between atoms: O1_2  and  C2_3 
REMARK    2  A    between atoms: C7_8  and  N1_9 
REMARK    3  A    between atoms: N1_9  and  C8_10 
REMARK    4  A    between atoms: C12_18  and  O2_19 
REMARK    5  A    between atoms: O2_19  and  C13_20 
REMARK    6  A    between atoms: C13_20  and  C14_21 
REMARK    7  A    between atoms: C14_21  and  C15_22 
REMARK    8  A    between atoms: C15_22  and  N4_23 
REMARK    9  A    between atoms: C20_29  and  O4_30 
ROOT
HETATM    1  C8  UNL     1       0.450  52.603 -19.096  1.00  0.00     0.098 A 
HETATM    2  N2  UNL     1       1.162  53.715 -19.356  1.00  0.00    -0.342 N 
ATOM      3  H2  UNL     1       1.550  54.293 -18.611  1.00  0.00     0.167 HD
HETATM    4  C9  UNL     1       1.332  54.017 -20.645  1.00  0.00     0.182 A 
HETATM    5  N3  UNL     1       0.847  53.337 -21.689  1.00  0.00    -0.351 N 
ATOM      6  H3  UNL     1       1.033  53.626 -22.649  1.00  0.00     0.166 HD
HETATM    7  C10 UNL     1       0.106  52.258 -21.413  1.00  0.00     0.049 A 
HETATM    8  C11 UNL     1      -0.428  51.541 -22.477  1.00  0.00     0.070 A 
HETATM    9  C12 UNL     1      -1.224  50.407 -22.285  1.00  0.00     0.104 A 
HETATM   10  C20 UNL     1      -1.510  49.980 -20.980  1.00  0.00     0.102 A 
HETATM   11  C22 UNL     1      -0.986  50.698 -19.905  1.00  0.00     0.056 A 
HETATM   12  C23 UNL     1      -0.155  51.830 -20.108  1.00  0.00     0.032 A 
ENDROOT
BRANCH   1  13
HETATM   13  N1  UNL     1       0.326  52.304 -17.721  1.00  0.00    -0.242 NA
HETATM   14  H8  UNL     1      -0.256  53.068 -17.373  1.00  0.00     0.135 HD
BRANCH  13  15
HETATM   15  C7  UNL     1       1.390  52.117 -16.794  1.00  0.00     0.047 A 
HETATM   16  C2  UNL     1       1.358  51.204 -15.717  1.00  0.00     0.089 A 
HETATM   17  C3  UNL     1       2.484  51.061 -14.896  1.00  0.00     0.038 A 
HETATM   18  C4  UNL     1       3.637  51.809 -15.136  1.00  0.00     0.003 A 
HETATM   19  C5  UNL     1       3.687  52.685 -16.215  1.00  0.00     0.002 A 
HETATM   20  C6  UNL     1       2.576  52.825 -17.045  1.00  0.00     0.027 A 
BRANCH  16  21
HETATM   21  O1  UNL     1       0.228  50.443 -15.564  1.00  0.00    -0.354 OA
HETATM   22  C1  UNL     1       0.176  49.237 -16.317  1.00  0.00     0.210 C 
ENDBRANCH  16  21
ENDBRANCH  13  15
ENDBRANCH   1  13
BRANCH  10  23
HETATM   23  O4  UNL     1      -2.298  48.863 -20.862  1.00  0.00    -0.353 OA
HETATM   24  C21 UNL     1      -1.767  47.757 -20.145  1.00  0.00     0.210 C 
ENDBRANCH  10  23
BRANCH   9  25
HETATM   25  O2  UNL     1      -1.776  49.664 -23.298  1.00  0.00    -0.348 OA
BRANCH  25  26
HETATM   26  C13 UNL     1      -2.615  50.331 -24.236  1.00  0.00     0.177 C 
BRANCH  26  27
HETATM   27  C14 UNL     1      -2.364  49.761 -25.628  1.00  0.00     0.046 C 
BRANCH  27  28
HETATM   28  C15 UNL     1      -2.223  50.787 -26.768  1.00  0.00     0.119 C 
BRANCH  28  29
HETATM   29  N4  UNL     1      -0.904  51.309 -27.105  1.00  0.00    -0.408 N 
HETATM   30  C16 UNL     1      -0.801  52.748 -27.367  1.00  0.00     0.143 C 
HETATM   31  C17 UNL     1       0.085  53.481 -26.348  1.00  0.00     0.187 C 
HETATM   32  O3  UNL     1       1.414  52.951 -26.246  1.00  0.00    -0.388 OA
HETATM   33  C18 UNL     1       1.502  51.562 -26.596  1.00  0.00     0.187 C 
HETATM   34  C19 UNL     1       0.208  50.783 -26.309  1.00  0.00     0.143 C 
ENDBRANCH  28  29
ENDBRANCH  27  28
ENDBRANCH  26  27
ENDBRANCH  25  26
ENDBRANCH   9  25
TORSDOF 9
ENDMDL
