MODEL 1
REMARK minimizedAffinity -8.78285217
REMARK  7 active torsions:
REMARK  status: ('A' for Active; 'I' for Inactive)
REMARK    1  A    between atoms: N1_2  and  S1_3 
REMARK    2  A    between atoms: S1_3  and  C2_6 
REMARK    3  A    between atoms: C9_13  and  C10_14 
REMARK    4  A    between atoms: C13_18  and  C14_19 
REMARK    5  A    between atoms: C14_19  and  C15_20 
REMARK    6  A    between atoms: C15_20  and  C16_21 
REMARK    7  A    between atoms: C16_21  and  N3_22 
ROOT
HETATM    1  C2  UNL     1       1.784   6.755  10.669  1.00  0.00     0.080 A 
HETATM    2  C3  UNL     1       2.547   7.065  11.812  1.00  0.00     0.027 A 
HETATM    3  C4  UNL     1       2.036   6.807  13.086  1.00  0.00     0.032 A 
HETATM    4  C5  UNL     1       0.773   6.251  13.167  1.00  0.00     0.046 A 
HETATM    5  C6  UNL     1       0.008   5.943  12.037  1.00  0.00     0.008 A 
HETATM    6  C7  UNL     1       0.502   6.194  10.769  1.00  0.00     0.040 A 
HETATM    7  C8  UNL     1      -1.266   5.386  12.533  1.00  0.00     0.047 A 
HETATM    8  C9  UNL     1      -2.249   4.996  11.708  1.00  0.00     0.048 C 
HETATM    9  C23 UNL     1      -1.168   5.390  14.039  1.00  0.00     0.257 A 
HETATM   10  O3  UNL     1      -1.988   5.009  14.852  1.00  0.00    -0.267 OA
HETATM   11  N4  UNL     1       0.080   5.923  14.325  1.00  0.00    -0.322 N 
HETATM   12  H30 UNL     1       0.412   6.047  15.268  1.00  0.00     0.169 HD
ENDROOT
BRANCH   8  13
HETATM   13  C10 UNL     1      -3.538   4.471  12.006  1.00  0.00     0.040 A 
HETATM   14  N2  UNL     1      -4.003   3.292  11.471  1.00  0.00    -0.359 N 
HETATM   15  C11 UNL     1      -5.254   3.030  11.951  1.00  0.00     0.016 A 
HETATM   16  H9  UNL     1      -3.493   2.693  10.829  1.00  0.00     0.166 HD
HETATM   17  C12 UNL     1      -5.624   4.049  12.799  1.00  0.00    -0.027 A 
HETATM   18  C22 UNL     1      -6.073   1.843  11.586  1.00  0.00     0.057 C 
HETATM   19  C13 UNL     1      -4.540   4.971  12.842  1.00  0.00    -0.023 A 
HETATM   20  C19 UNL     1      -6.931   4.053  13.520  1.00  0.00     0.041 C 
HETATM   21  C20 UNL     1      -7.910   3.030  12.908  1.00  0.00     0.005 C 
HETATM   22  C21 UNL     1      -7.229   1.685  12.590  1.00  0.00     0.006 C 
BRANCH  19  23
HETATM   23  C14 UNL     1      -4.476   6.236  13.651  1.00  0.00     0.043 C 
BRANCH  23  24
HETATM   24  C15 UNL     1      -5.565   7.231  13.243  1.00  0.00     0.035 C 
BRANCH  24  25
HETATM   25  C16 UNL     1      -6.295   7.836  14.449  1.00  0.00     0.271 C 
BRANCH  25  26
HETATM   26  N3  UNL     1      -7.307   6.945  15.049  1.00  0.00     0.080 N 
HETATM   27  C17 UNL     1      -7.314   7.109  16.507  1.00  0.00     0.309 C 
HETATM   28  C18 UNL     1      -8.650   7.215  14.524  1.00  0.00     0.309 C 
ENDBRANCH  25  26
ENDBRANCH  24  25
ENDBRANCH  23  24
ENDBRANCH  19  23
ENDBRANCH   8  13
BRANCH   1  29
HETATM   29  S1  UNL     1       2.425   7.115   9.052  1.00  0.00     0.258 S 
HETATM   30  O1  UNL     1       2.271   5.946   8.215  1.00  0.00    -0.201 OA
HETATM   31  O2  UNL     1       3.704   7.765   9.236  1.00  0.00    -0.201 OA
BRANCH  29  32
HETATM   32  N1  UNL     1       1.362   8.292   8.511  1.00  0.00    -0.320 N 
HETATM   33  C1  UNL     1       0.140   8.536   9.267  1.00  0.00     0.159 C 
HETATM   34  H4  UNL     1       1.329   8.363   7.494  1.00  0.00     0.171 HD
ENDBRANCH  29  32
ENDBRANCH   1  29
TORSDOF 7
ENDMDL
