MODEL 1
REMARK minimizedAffinity -9.61631584
REMARK CNNscore 0.830668509
REMARK CNNaffinity 8.0230093
REMARK  7 active torsions:
REMARK  status: ('A' for Active; 'I' for Inactive)
REMARK    1  A    between atoms: N1_2  and  S1_3 
REMARK    2  A    between atoms: S1_3  and  C2_6 
REMARK    3  A    between atoms: C9_13  and  C10_14 
REMARK    4  A    between atoms: C13_18  and  C14_19 
REMARK    5  A    between atoms: C14_19  and  C15_20 
REMARK    6  A    between atoms: C15_20  and  C16_21 
REMARK    7  A    between atoms: C16_21  and  N3_22 
REMARK       I    between atoms: N4_25  and  C19_26 
ROOT
HETATM    1  C10 UNL     1      -7.436   6.282  13.866  1.00  0.00     0.040 A 
HETATM    2  N2  UNL     1      -8.719   6.063  13.416  1.00  0.00    -0.359 N 
HETATM    3  C11 UNL     1      -9.572   6.956  13.998  1.00  0.00     0.016 A 
HETATM    4  C12 UNL     1      -8.852   7.761  14.850  1.00  0.00    -0.027 A 
HETATM    5  C13 UNL     1      -7.493   7.339  14.778  1.00  0.00    -0.023 A 
HETATM    6  C23 UNL     1      -9.488   8.867  15.627  1.00  0.00     0.041 C 
HETATM    7  C24 UNL     1     -11.022   8.722  15.651  1.00  0.00     0.005 C 
HETATM    8  C25 UNL     1     -11.596   8.352  14.270  1.00  0.00     0.006 C 
HETATM    9  C26 UNL     1     -11.037   7.015  13.749  1.00  0.00     0.057 C 
HETATM   10  H9  UNL     1      -8.997   5.355  12.744  1.00  0.00     0.166 HD
ENDROOT
BRANCH   1  11
HETATM   11  C9  UNL     1      -6.324   5.519  13.408  1.00  0.00     0.048 C 
HETATM   12  C8  UNL     1      -6.279   4.269  12.919  1.00  0.00     0.047 A 
HETATM   13  C6  UNL     1      -5.027   3.639  12.455  1.00  0.00     0.008 A 
HETATM   14  C27 UNL     1      -7.367   3.243  12.703  1.00  0.00     0.257 A 
HETATM   15  C5  UNL     1      -5.371   2.363  11.995  1.00  0.00     0.046 A 
HETATM   16  C7  UNL     1      -3.712   4.069  12.397  1.00  0.00     0.040 A 
HETATM   17  C4  UNL     1      -4.447   1.482  11.466  1.00  0.00     0.032 A 
HETATM   18  N5  UNL     1      -6.733   2.143  12.146  1.00  0.00    -0.322 N 
HETATM   19  C3  UNL     1      -3.118   1.905  11.400  1.00  0.00     0.027 A 
HETATM   20  C2  UNL     1      -2.758   3.184  11.873  1.00  0.00     0.080 A 
HETATM   21  H35 UNL     1      -7.230   1.303  11.890  1.00  0.00     0.169 HD
HETATM   22  O4  UNL     1      -8.553   3.331  12.957  1.00  0.00    -0.267 OA
BRANCH  20  23
HETATM   23  S1  UNL     1      -1.066   3.722  11.755  1.00  0.00     0.258 S 
HETATM   24  O1  UNL     1      -0.989   4.676  10.671  1.00  0.00    -0.201 OA
HETATM   25  O2  UNL     1      -0.217   2.553  11.809  1.00  0.00    -0.201 OA
BRANCH  23  26
HETATM   26  N1  UNL     1      -0.867   4.586  13.169  1.00  0.00    -0.320 N 
HETATM   27  C1  UNL     1       0.322   5.391  13.395  1.00  0.00     0.159 C 
HETATM   28  H4  UNL     1      -1.444   4.296  13.956  1.00  0.00     0.171 HD
ENDBRANCH  23  26
ENDBRANCH  20  23
ENDBRANCH   1  11
BRANCH   5  29
HETATM   29  C14 UNL     1      -6.346   7.943  15.532  1.00  0.00     0.043 C 
BRANCH  29  30
HETATM   30  C15 UNL     1      -5.370   8.678  14.608  1.00  0.00     0.035 C 
BRANCH  30  31
HETATM   31  C16 UNL     1      -3.960   8.690  15.212  1.00  0.00     0.273 C 
BRANCH  31  32
HETATM   32  N3  UNL     1      -2.883   8.205  14.348  1.00  0.00     0.091 N 
HETATM   33  C17 UNL     1      -2.916   8.749  12.983  1.00  0.00     0.292 C 
HETATM   34  C18 UNL     1      -1.682   8.338  12.156  1.00  0.00     0.156 C 
HETATM   35  N4  UNL     1      -0.424   8.744  12.791  1.00  0.00    -0.349 N 
HETATM   36  C19 UNL     1       0.795   8.804  12.140  1.00  0.00     0.215 C 
HETATM   37  C21 UNL     1      -0.499   9.093  14.211  1.00  0.00     0.156 C 
HETATM   38  C20 UNL     1       0.817   8.388  10.690  1.00  0.00     0.117 C 
HETATM   39  O3  UNL     1       1.828   9.189  12.691  1.00  0.00    -0.274 OA
HETATM   40  C22 UNL     1      -1.544   8.247  14.964  1.00  0.00     0.292 C 
ENDBRANCH  31  32
ENDBRANCH  30  31
ENDBRANCH  29  30
ENDBRANCH   5  29
TORSDOF 7
ENDMDL
