MODEL 1
REMARK minimizedAffinity -8.88342285
REMARK  6 active torsions:
REMARK  status: ('A' for Active; 'I' for Inactive)
REMARK    1  A    between atoms: N1_2  and  C3_4 
REMARK    2  A    between atoms: C3_4  and  C4_5 
REMARK    3  A    between atoms: C4_5  and  C5_6 
REMARK    4  A    between atoms: C5_6  and  C6_7 
REMARK    5  A    between atoms: C7_8  and  C8_9 
REMARK    6  A    between atoms: C14_17  and  S1_18 
ROOT
HETATM    1  C6  UNL     1       0.255   6.687  11.903  1.00  0.00    -0.023 A 
HETATM    2  C7  UNL     1      -0.600   6.167  12.881  1.00  0.00     0.040 A 
HETATM    3  N3  UNL     1       0.027   6.333  14.095  1.00  0.00    -0.359 N 
HETATM    4  C18 UNL     1       1.244   6.923  13.916  1.00  0.00     0.016 A 
HETATM    5  C19 UNL     1       1.426   7.152  12.571  1.00  0.00    -0.027 A 
HETATM    6  C20 UNL     1       2.661   7.796  12.035  1.00  0.00     0.041 C 
HETATM    7  C21 UNL     1       3.799   7.764  13.075  1.00  0.00     0.005 C 
HETATM    8  C22 UNL     1       3.311   8.164  14.480  1.00  0.00     0.006 C 
HETATM    9  C23 UNL     1       2.213   7.219  15.004  1.00  0.00     0.057 C 
HETATM   10  H21 UNL     1      -0.346   6.051  14.997  1.00  0.00     0.166 HD
ENDROOT
BRANCH   2  11
HETATM   11  C8  UNL     1      -1.880   5.557  12.761  1.00  0.00     0.048 C 
HETATM   12  C9  UNL     1      -2.225   4.378  12.215  1.00  0.00     0.047 A 
HETATM   13  C10 UNL     1      -1.392   3.308  11.548  1.00  0.00     0.257 A 
HETATM   14  C17 UNL     1      -3.619   3.891  12.177  1.00  0.00     0.008 A 
HETATM   15  O1  UNL     1      -0.191   3.288  11.360  1.00  0.00    -0.267 OA
HETATM   16  N2  UNL     1      -2.288   2.319  11.176  1.00  0.00    -0.322 N 
HETATM   17  C11 UNL     1      -3.588   2.647  11.537  1.00  0.00     0.046 A 
HETATM   18  H14 UNL     1      -1.999   1.481  10.696  1.00  0.00     0.169 HD
HETATM   19  C12 UNL     1      -4.720   1.889  11.312  1.00  0.00     0.032 A 
HETATM   20  C13 UNL     1      -5.939   2.404  11.757  1.00  0.00     0.026 A 
HETATM   21  C14 UNL     1      -5.980   3.649  12.418  1.00  0.00     0.059 A 
HETATM   22  C16 UNL     1      -4.822   4.413  12.624  1.00  0.00     0.038 A 
BRANCH  21  23
HETATM   23  S1  UNL     1      -7.550   4.293  12.957  1.00  0.00     0.171 S 
HETATM   24  C15 UNL     1      -7.282   4.634  14.677  1.00  0.00     0.167 C 
HETATM   25  O2  UNL     1      -7.758   5.554  12.273  1.00  0.00    -0.223 OA
HETATM   26  O3  UNL     1      -8.518   3.218  12.853  1.00  0.00    -0.223 OA
ENDBRANCH  21  23
ENDBRANCH   2  11
BRANCH   1  27
HETATM   27  C5  UNL     1       0.012   6.735  10.420  1.00  0.00     0.043 C 
BRANCH  27  28
HETATM   28  C4  UNL     1       0.163   8.136   9.817  1.00  0.00     0.035 C 
BRANCH  28  29
HETATM   29  C3  UNL     1       0.479   8.153   8.314  1.00  0.00     0.271 C 
BRANCH  29  30
HETATM   30  N1  UNL     1       1.738   7.484   7.935  1.00  0.00     0.080 N 
HETATM   31  C1  UNL     1       2.874   8.369   8.213  1.00  0.00     0.309 C 
HETATM   32  C2  UNL     1       1.755   7.090   6.526  1.00  0.00     0.309 C 
ENDBRANCH  29  30
ENDBRANCH  28  29
ENDBRANCH  27  28
ENDBRANCH   1  27
TORSDOF 6
ENDMDL
