MODEL 1
REMARK minimizedAffinity -8.68323421
REMARK  6 active torsions:
REMARK  status: ('A' for Active; 'I' for Inactive)
REMARK    1  A    between atoms: O1_2  and  C2_3 
REMARK    2  A    between atoms: C5_6  and  N1_7 
REMARK    3  A    between atoms: N1_7  and  C6_8 
REMARK    4  A    between atoms: C16_25  and  O4_26 
REMARK    5  A    between atoms: O4_26  and  C17_27 
REMARK    6  A    between atoms: C17_27  and  C18_28 
ROOT
HETATM    1  C2  UNL     1      -0.385  50.875 -19.684  1.00  0.00     0.102 A 
HETATM    2  C3  UNL     1      -0.378  51.111 -21.058  1.00  0.00     0.056 A 
HETATM    3  C4  UNL     1       0.225  52.280 -21.600  1.00  0.00     0.032 A 
HETATM    4  C5  UNL     1       0.276  52.599 -22.971  1.00  0.00     0.098 A 
HETATM    5  N2  UNL     1       0.871  53.716 -23.427  1.00  0.00    -0.342 N 
ATOM      6  H2  UNL     1       0.897  53.941 -24.422  1.00  0.00     0.167 HD
HETATM    7  C13 UNL     1       1.424  54.516 -22.513  1.00  0.00     0.182 A 
HETATM    8  N3  UNL     1       1.429  54.320 -21.190  1.00  0.00    -0.351 N 
ATOM      9  H3  UNL     1       1.866  54.986 -20.553  1.00  0.00     0.166 HD
HETATM   10  C14 UNL     1       0.834  53.210 -20.746  1.00  0.00     0.049 A 
HETATM   11  C15 UNL     1       0.818  52.968 -19.382  1.00  0.00     0.070 A 
HETATM   12  C16 UNL     1       0.236  51.812 -18.855  1.00  0.00     0.104 A 
ENDROOT
BRANCH   4  13
HETATM   13  N1  UNL     1      -0.375  51.739 -23.899  1.00  0.00    -0.241 NA
HETATM   14  H5  UNL     1      -1.309  51.545 -23.542  1.00  0.00     0.135 HD
BRANCH  13  15
HETATM   15  C6  UNL     1      -0.423  51.944 -25.300  1.00  0.00     0.072 A 
HETATM   16  C7  UNL     1      -1.639  52.224 -25.957  1.00  0.00     0.058 A 
HETATM   17 CL1  UNL     1      -3.111  52.349 -25.051  1.00  0.00    -0.082 Cl
HETATM   18  C8  UNL     1      -1.702  52.417 -27.350  1.00  0.00     0.028 A 
HETATM   19  C9  UNL     1      -0.546  52.319 -28.127  1.00  0.00     0.041 A 
HETATM   20  C10 UNL     1       0.634  52.020 -27.481  1.00  0.00     0.106 A 
HETATM   21  C11 UNL     1       0.698  51.831 -26.116  1.00  0.00     0.128 A 
HETATM   22  O3  UNL     1       1.838  51.857 -28.091  1.00  0.00    -0.323 OA
HETATM   23  O2  UNL     1       1.959  51.490 -25.717  1.00  0.00    -0.321 OA
HETATM   24  C12 UNL     1       2.680  51.569 -26.959  1.00  0.00     0.352 A 
ENDBRANCH  13  15
ENDBRANCH   4  13
BRANCH   1  25
HETATM   25  O1  UNL     1      -0.951  49.793 -19.070  1.00  0.00    -0.353 OA
HETATM   26  C1  UNL     1      -1.126  48.613 -19.843  1.00  0.00     0.210 C 
ENDBRANCH   1  25
BRANCH  12  27
HETATM   27  O4  UNL     1       0.238  51.672 -17.490  1.00  0.00    -0.348 OA
BRANCH  27  28
HETATM   28  C17 UNL     1       1.380  52.326 -16.920  1.00  0.00     0.180 C 
BRANCH  28  29
HETATM   29  C18 UNL     1       1.375  52.096 -15.401  1.00  0.00     0.013 C 
HETATM   30  C19 UNL     1       2.792  51.775 -14.890  1.00  0.00     0.037 C 
HETATM   31  C20 UNL     1       2.743  51.007 -13.571  1.00  0.00     0.272 C 
HETATM   32  N4  UNL     1       2.026  49.727 -13.663  1.00  0.00     0.084 N 
HETATM   33  C21 UNL     1       2.941  48.589 -13.706  1.00  0.00     0.309 C 
HETATM   34  C22 UNL     1       1.063  49.661 -14.771  1.00  0.00     0.272 C 
HETATM   35  C23 UNL     1       0.370  51.003 -15.002  1.00  0.00     0.037 C 
ENDBRANCH  28  29
ENDBRANCH  27  28
ENDBRANCH  12  27
TORSDOF 6
ENDMDL
