MODEL 1
REMARK minimizedAffinity -8.80958939
REMARK  1 active torsions:
REMARK  status: ('A' for Active; 'I' for Inactive)
REMARK    1  A    between atoms: O1_2  and  C2_3 
ROOT
HETATM    1  C2  UNL     1      -3.213  52.073 -24.530  1.00  0.00     0.103 A 
HETATM    2  C3  UNL     1      -4.497  51.549 -24.745  1.00  0.00     0.070 A 
HETATM    3  C4  UNL     1      -5.294  51.076 -23.701  1.00  0.00     0.049 A 
HETATM    4  N1  UNL     1      -6.522  50.607 -23.959  1.00  0.00    -0.351 N 
ATOM      5  H1  UNL     1      -6.893  50.577 -24.909  1.00  0.00     0.166 HD
HETATM    6  C5  UNL     1      -7.242  50.179 -22.911  1.00  0.00     0.182 A 
HETATM    7  N2  UNL     1      -6.842  50.128 -21.633  1.00  0.00    -0.342 N 
ATOM      8  H2  UNL     1      -7.445  49.780 -20.888  1.00  0.00     0.167 HD
HETATM    9  C6  UNL     1      -5.595  50.566 -21.399  1.00  0.00     0.098 A 
HETATM   10  C7  UNL     1      -4.782  51.111 -22.403  1.00  0.00     0.032 A 
HETATM   11  C8  UNL     1      -3.525  51.688 -22.171  1.00  0.00     0.056 A 
HETATM   12  C9  UNL     1      -2.735  52.132 -23.220  1.00  0.00     0.103 A 
HETATM   13  O2  UNL     1      -1.534  52.694 -22.877  1.00  0.00    -0.348 OA
HETATM   14  C10 UNL     1      -0.438  51.813 -23.155  1.00  0.00     0.176 C 
HETATM   15  C11 UNL     1       0.730  52.179 -22.234  1.00  0.00     0.027 C 
HETATM   16  C12 UNL     1       0.743  51.470 -20.869  1.00  0.00     0.004 C 
HETATM   17  C13 UNL     1      -0.541  51.626 -20.050  1.00  0.00     0.019 C 
HETATM   18  C14 UNL     1      -0.380  51.098 -18.617  1.00  0.00     0.117 C 
HETATM   19  N3  UNL     1      -1.546  51.297 -17.749  1.00  0.00    -0.413 N 
HETATM   20  C15 UNL     1      -1.292  50.949 -16.359  1.00  0.00     0.143 C 
HETATM   21  C16 UNL     1      -2.876  50.899 -18.239  1.00  0.00     0.156 C 
HETATM   22  C17 UNL     1      -3.099  49.525 -18.857  1.00  0.00    -0.019 A 
HETATM   23  C18 UNL     1      -2.315  48.412 -18.502  1.00  0.00     0.012 A 
HETATM   24  C19 UNL     1      -2.517  47.155 -19.079  1.00  0.00     0.020 A 
HETATM   25  C20 UNL     1      -3.531  46.981 -20.008  1.00  0.00     0.012 A 
HETATM   26 BR1  UNL     1      -3.815  45.282 -20.784  1.00  0.00    -0.051 Br
HETATM   27  C21 UNL     1      -4.354  48.047 -20.353  1.00  0.00     0.043 A 
HETATM   28  C22 UNL     1      -4.152  49.324 -19.788  1.00  0.00     0.023 A 
HETATM   29  N4  UNL     1      -5.096  50.374 -20.075  1.00  0.00    -0.244 NA
HETATM   30  H25 UNL     1      -5.950  50.089 -19.584  1.00  0.00     0.135 HD
ENDROOT
BRANCH   1  31
HETATM   31  O1  UNL     1      -2.382  52.554 -25.505  1.00  0.00    -0.353 OA
HETATM   32  C1  UNL     1      -2.572  52.062 -26.825  1.00  0.00     0.210 C 
ENDBRANCH   1  31
TORSDOF 1
ENDMDL
