MODEL 1
REMARK minimizedAffinity -9.18162346
REMARK CNNscore 0.133934185
REMARK CNNaffinity 6.90040445
REMARK  10 active torsions:
REMARK  status: ('A' for Active; 'I' for Inactive)
REMARK    1  A    between atoms: C2_2  and  C3_3 
REMARK       I    between atoms: C3_3  and  N1_5 
REMARK    2  A    between atoms: C6_8  and  N2_9 
REMARK    3  A    between atoms: C7_12  and  C8_13 
REMARK    4  A    between atoms: C9_14  and  C10_15 
REMARK    5  A    between atoms: C12_17  and  C13_18 
REMARK       I    between atoms: C13_18  and  N4_20 
REMARK    6  A    between atoms: N4_20  and  C14_21 
REMARK    7  A    between atoms: C17_24  and  C18_25 
REMARK    8  A    between atoms: C18_25  and  N5_26 
REMARK    9  A    between atoms: C24_33  and  C25_34 
REMARK   10  A    between atoms: C32_44  and  N7_45 
ROOT
HETATM    1  C10 UNL     1       0.143  50.246 -15.685  1.00  0.00     0.025 A 
HETATM    2  C11 UNL     1       1.066  51.089 -15.053  1.00  0.00     0.038 A 
HETATM    3  C12 UNL     1       1.202  51.052 -13.662  1.00  0.00     0.033 A 
HETATM    4  C27 UNL     1       0.415  50.185 -12.900  1.00  0.00     0.017 A 
HETATM    5  C28 UNL     1      -0.491  49.332 -13.530  1.00  0.00     0.009 A 
HETATM    6  C29 UNL     1      -0.638  49.353 -14.925  1.00  0.00    -0.043 A 
HETATM    7  C30 UNL     1      -1.640  48.433 -15.569  1.00  0.00     0.049 C 
ENDROOT
BRANCH   1   8
HETATM    8  C9  UNL     1      -0.008  50.326 -17.109  1.00  0.00    -0.059 C 
HETATM    9  C8  UNL     1      -0.152  50.463 -18.294  1.00  0.00    -0.041 C 
BRANCH   9  10
HETATM   10  C7  UNL     1      -0.374  50.683 -19.684  1.00  0.00     0.119 A 
HETATM   11  N3  UNL     1      -1.093  49.780 -20.354  1.00  0.00    -0.287 N 
HETATM   12  N2  UNL     1      -1.071  50.238 -21.632  1.00  0.00    -0.270 N 
ATOM     13  H3  UNL     1      -1.551  48.943 -19.991  1.00  0.00     0.188 HD
HETATM   14  C34 UNL     1      -0.357  51.405 -21.767  1.00  0.00     0.140 A 
HETATM   15  C31 UNL     1       0.112  51.721 -20.500  1.00  0.00     0.084 A 
HETATM   16  N9  UNL     1      -0.136  52.111 -22.889  1.00  0.00    -0.337 N 
HETATM   17  C32 UNL     1       0.886  52.876 -20.374  1.00  0.00     0.095 A 
HETATM   18  N8  UNL     1       1.126  53.614 -21.476  1.00  0.00    -0.342 N 
HETATM   19  C33 UNL     1       0.609  53.203 -22.649  1.00  0.00     0.183 A 
ATOM     20  H8  UNL     1       1.687  54.465 -21.423  1.00  0.00     0.167 HD
ATOM     21  H9  UNL     1      -0.490  51.850 -23.810  1.00  0.00     0.168 HD
BRANCH  12  22
HETATM   22  C6  UNL     1      -1.722  49.422 -22.656  1.00  0.00     0.113 C 
HETATM   23  C5  UNL     1      -2.769  50.261 -23.410  1.00  0.00     0.047 C 
HETATM   24  C4  UNL     1      -3.811  49.377 -24.079  1.00  0.00     0.128 C 
HETATM   25  N1  UNL     1      -4.540  48.591 -23.085  1.00  0.00    -0.349 N 
HETATM   26  C3  UNL     1      -5.895  48.365 -23.303  1.00  0.00     0.242 C 
HETATM   27  C36 UNL     1      -3.779  48.097 -21.936  1.00  0.00     0.128 C 
HETATM   28  O1  UNL     1      -6.460  48.680 -24.352  1.00  0.00    -0.268 OA
HETATM   29  C35 UNL     1      -2.276  48.059 -22.200  1.00  0.00     0.047 C 
BRANCH  26  30
HETATM   30  C2  UNL     1      -6.670  47.737 -22.195  1.00  0.00     0.064 C 
HETATM   31  C1  UNL     1      -7.605  48.443 -21.542  1.00  0.00     0.017 C 
ENDBRANCH  26  30
ENDBRANCH  12  22
BRANCH  17  32
HETATM   32  N7  UNL     1       1.442  53.328 -19.188  1.00  0.00    -0.288 NA
HETATM   33  H32 UNL     1       1.656  52.620 -18.496  1.00  0.00     0.125 HD
HETATM   34  H33 UNL     1       2.162  54.022 -19.362  1.00  0.00     0.125 HD
ENDBRANCH  17  32
ENDBRANCH   9  10
ENDBRANCH   1   8
BRANCH   3  35
HETATM   35  C13 UNL     1       2.146  51.945 -12.948  1.00  0.00     0.256 C 
HETATM   36  O2  UNL     1       3.286  52.032 -13.385  1.00  0.00    -0.267 OA
HETATM   37  N4  UNL     1       1.600  52.623 -11.875  1.00  0.00    -0.323 N 
HETATM   38  H10 UNL     1       0.621  52.464 -11.683  1.00  0.00     0.169 HD
BRANCH  37  39
HETATM   39  C14 UNL     1       2.234  53.605 -11.083  1.00  0.00     0.035 A 
HETATM   40  C15 UNL     1       1.635  54.801 -10.704  1.00  0.00     0.030 A 
HETATM   41  C16 UNL     1       2.312  55.713  -9.887  1.00  0.00     0.012 A 
HETATM   42  C17 UNL     1       3.613  55.450  -9.426  1.00  0.00    -0.015 A 
HETATM   43  C24 UNL     1       4.238  54.242  -9.804  1.00  0.00     0.058 A 
HETATM   44  C26 UNL     1       3.537  53.341 -10.640  1.00  0.00     0.046 A 
BRANCH  42  45
HETATM   45  C18 UNL     1       4.287  56.469  -8.526  1.00  0.00     0.311 C 
BRANCH  45  46
HETATM   46  N5  UNL     1       3.632  56.577  -7.221  1.00  0.00     0.096 N 
HETATM   47  C19 UNL     1       4.540  56.271  -6.094  1.00  0.00     0.303 C 
HETATM   48  C20 UNL     1       5.103  57.516  -5.369  1.00  0.00     0.302 C 
HETATM   49  N6  UNL     1       4.079  58.450  -4.858  1.00  0.00     0.087 N 
HETATM   50  C21 UNL     1       3.868  58.298  -3.421  1.00  0.00     0.310 C 
HETATM   51  C22 UNL     1       2.799  58.295  -5.583  1.00  0.00     0.302 C 
HETATM   52  C23 UNL     1       3.018  57.915  -7.062  1.00  0.00     0.303 C 
ENDBRANCH  45  46
ENDBRANCH  42  45
BRANCH  43  53
HETATM   53  C25 UNL     1       5.642  53.874  -9.364  1.00  0.00     0.418 C 
HETATM   54  F1  UNL     1       6.078  52.668  -9.828  1.00  0.00    -0.166 F 
HETATM   55  F2  UNL     1       6.573  54.774  -9.825  1.00  0.00    -0.166 F 
HETATM   56  F3  UNL     1       5.803  53.864  -8.013  1.00  0.00    -0.166 F 
ENDBRANCH  43  53
ENDBRANCH  37  39
ENDBRANCH   3  35
TORSDOF 10
ENDMDL
