MODEL 1
REMARK minimizedAffinity -9.46782303
REMARK  5 active torsions:
REMARK  status: ('A' for Active; 'I' for Inactive)
REMARK    1  A    between atoms: O1_2  and  C2_3 
REMARK    2  A    between atoms: C6_11  and  N3_12 
REMARK    3  A    between atoms: N3_12  and  C7_13 
REMARK    4  A    between atoms: C15_23  and  O2_24 
REMARK    5  A    between atoms: O2_24  and  C16_25 
REMARK       I    between atoms: C16_25  and  N4_27 
ROOT
HETATM    1  C2  UNL     1       0.381  52.667 -23.187  1.00  0.00     0.104 A 
HETATM    2  C3  UNL     1       0.644  53.579 -24.211  1.00  0.00     0.070 A 
HETATM    3  C4  UNL     1      -0.013  53.522 -25.438  1.00  0.00     0.050 A 
HETATM    4  N1  UNL     1       0.295  54.434 -26.364  1.00  0.00    -0.351 N 
ATOM      5  H1  UNL     1       0.994  55.156 -26.191  1.00  0.00     0.166 HD
HETATM    6  C5  UNL     1      -0.356  54.354 -27.530  1.00  0.00     0.182 A 
HETATM    7  N2  UNL     1      -1.271  53.441 -27.863  1.00  0.00    -0.338 N 
ATOM      8  H2  UNL     1      -1.711  53.434 -28.784  1.00  0.00     0.168 HD
HETATM    9  C6  UNL     1      -1.584  52.530 -26.925  1.00  0.00     0.119 A 
HETATM   10  C13 UNL     1      -0.972  52.521 -25.657  1.00  0.00     0.038 A 
HETATM   11  C14 UNL     1      -1.264  51.602 -24.626  1.00  0.00     0.058 A 
HETATM   12  C15 UNL     1      -0.572  51.676 -23.420  1.00  0.00     0.115 A 
ENDROOT
BRANCH  12  13
HETATM   13  O2  UNL     1      -0.892  50.766 -22.408  1.00  0.00    -0.259 OA
BRANCH  13  14
HETATM   14  C16 UNL     1      -1.956  51.176 -21.620  1.00  0.00     0.368 C 
HETATM   15  O3  UNL     1      -2.804  51.990 -21.985  1.00  0.00    -0.238 OA
HETATM   16  N4  UNL     1      -1.944  50.617 -20.332  1.00  0.00    -0.320 N 
HETATM   17  C17 UNL     1      -2.701  51.404 -19.353  1.00  0.00     0.158 C 
HETATM   18  C21 UNL     1      -0.803  49.816 -19.817  1.00  0.00     0.113 C 
HETATM   19  C18 UNL     1      -2.883  50.741 -17.987  1.00  0.00     0.291 C 
HETATM   20  N5  UNL     1      -1.587  50.299 -17.445  1.00  0.00     0.087 N 
HETATM   21  C19 UNL     1      -1.758  49.734 -16.106  1.00  0.00     0.310 C 
HETATM   22  C20 UNL     1      -1.030  49.293 -18.365  1.00  0.00     0.296 C 
HETATM   23  C22 UNL     1      -0.487  48.577 -20.674  1.00  0.00     0.034 C 
ENDBRANCH  13  14
ENDBRANCH  12  13
BRANCH   1  24
HETATM   24  O1  UNL     1       0.970  52.662 -21.952  1.00  0.00    -0.353 OA
HETATM   25  C1  UNL     1       1.344  53.921 -21.407  1.00  0.00     0.210 C 
ENDBRANCH   1  24
BRANCH   9  26
HETATM   26  N3  UNL     1      -2.529  51.515 -27.242  1.00  0.00    -0.339 N 
HETATM   27  H6  UNL     1      -3.197  51.903 -27.901  1.00  0.00     0.167 HD
BRANCH  26  28
HETATM   28  C7  UNL     1      -3.136  50.636 -26.310  1.00  0.00     0.074 A 
HETATM   29  C8  UNL     1      -2.758  49.283 -26.303  1.00  0.00     0.033 A 
HETATM   30  C9  UNL     1      -3.320  48.383 -25.392  1.00  0.00     0.004 A 
HETATM   31  C10 UNL     1      -4.254  48.827 -24.458  1.00  0.00     0.027 A 
HETATM   32  C11 UNL     1      -4.617  50.173 -24.431  1.00  0.00     0.074 A 
HETATM   33 CL1  UNL     1      -5.746  50.712 -23.245  1.00  0.00    -0.081 Cl
HETATM   34  C12 UNL     1      -4.056  51.072 -25.342  1.00  0.00     0.164 A 
HETATM   35  F1  UNL     1      -4.372  52.375 -25.251  1.00  0.00    -0.202 F 
ENDBRANCH  26  28
ENDBRANCH   9  26
TORSDOF 5
ENDMDL
