MODEL 1
REMARK minimizedAffinity -9.46464443
REMARK CNNscore 0.711418688
REMARK CNNaffinity 7.33272982
REMARK  4 active torsions:
REMARK  status: ('A' for Active; 'I' for Inactive)
REMARK    1  A    between atoms: N2_5  and  C4_6 
REMARK    2  A    between atoms: C4_6  and  C5_7 
REMARK    3  A    between atoms: C8_10  and  C9_11 
REMARK    4  A    between atoms: C13_18  and  C14_19 
ROOT
HETATM    1  C9  UNL     1       0.024  51.822 -19.826  1.00  0.00    -0.009 A 
HETATM    2  C10 UNL     1       0.783  52.831 -19.223  1.00  0.00     0.102 A 
HETATM    3  N3  UNL     1       1.405  53.867 -19.844  1.00  0.00    -0.351 N 
ATOM      4  H3  UNL     1       1.945  54.581 -19.354  1.00  0.00     0.166 HD
HETATM    5  C11 UNL     1       1.229  53.849 -21.177  1.00  0.00     0.116 A 
HETATM    6  N4  UNL     1       1.742  54.782 -22.033  1.00  0.00    -0.351 N 
HETATM    7  C12 UNL     1       1.381  54.482 -23.321  1.00  0.00     0.103 A 
HETATM    8  C13 UNL     1       0.620  53.327 -23.295  1.00  0.00     0.004 A 
HETATM    9  C22 UNL     1       0.518  52.921 -21.928  1.00  0.00     0.021 A 
HETATM   10  C23 UNL     1      -0.109  51.875 -21.224  1.00  0.00     0.029 A 
HETATM   11  H13 UNL     1       2.302  55.566 -21.732  1.00  0.00     0.166 HD
ENDROOT
BRANCH   1  12
HETATM   12  C8  UNL     1      -0.607  50.756 -19.036  1.00  0.00    -0.025 A 
HETATM   13  C7  UNL     1      -1.797  50.145 -19.460  1.00  0.00     0.013 A 
HETATM   14  C6  UNL     1      -2.398  49.132 -18.705  1.00  0.00     0.010 A 
HETATM   15  C5  UNL     1      -1.832  48.705 -17.497  1.00  0.00    -0.030 A 
HETATM   16  C25 UNL     1      -0.638  49.301 -17.076  1.00  0.00     0.010 A 
HETATM   17  C24 UNL     1      -0.036  50.312 -17.833  1.00  0.00     0.013 A 
BRANCH  15  18
HETATM   18  C4  UNL     1      -2.491  47.611 -16.680  1.00  0.00     0.311 C 
BRANCH  18  19
HETATM   19  N2  UNL     1      -3.473  46.771 -17.367  1.00  0.00     0.096 N 
HETATM   20  C3  UNL     1      -3.108  46.394 -18.739  1.00  0.00     0.303 C 
HETATM   21  C2  UNL     1      -4.292  45.762 -19.508  1.00  0.00     0.302 C 
HETATM   22  N1  UNL     1      -5.473  46.640 -19.634  1.00  0.00     0.087 N 
HETATM   23  C1  UNL     1      -5.560  47.250 -20.959  1.00  0.00     0.310 C 
HETATM   24  C27 UNL     1      -5.490  47.681 -18.585  1.00  0.00     0.302 C 
HETATM   25  C26 UNL     1      -4.873  47.204 -17.251  1.00  0.00     0.303 C 
ENDBRANCH  18  19
ENDBRANCH  15  18
ENDBRANCH   1  12
BRANCH   8  26
HETATM   26  C14 UNL     1       0.082  52.706 -24.495  1.00  0.00    -0.023 A 
HETATM   27  C15 UNL     1       0.950  52.158 -25.447  1.00  0.00     0.014 A 
HETATM   28  C16 UNL     1       0.467  51.549 -26.611  1.00  0.00     0.031 A 
HETATM   29  C17 UNL     1      -0.919  51.509 -26.792  1.00  0.00     0.042 A 
HETATM   30  N5  UNL     1      -1.668  50.983 -27.821  1.00  0.00    -0.365 N 
HETATM   31  C20 UNL     1      -1.815  52.044 -25.867  1.00  0.00    -0.007 A 
HETATM   32  C18 UNL     1      -3.003  51.166 -27.578  1.00  0.00     0.089 A 
HETATM   33  H17 UNL     1      -1.280  50.528 -28.637  1.00  0.00     0.165 HD
HETATM   34  C19 UNL     1      -3.125  51.821 -26.373  1.00  0.00     0.030 A 
HETATM   35  C21 UNL     1      -1.306  52.652 -24.701  1.00  0.00     0.026 A 
ENDBRANCH   8  26
TORSDOF 4
ENDMDL
