MODEL 1
REMARK minimizedAffinity -9.81758499
REMARK  4 active torsions:
REMARK  status: ('A' for Active; 'I' for Inactive)
REMARK    1  A    between atoms: C3_5  and  C4_6 
REMARK    2  A    between atoms: C13_19  and  N3_20 
REMARK    3  A    between atoms: N3_20  and  C14_21 
REMARK    4  A    between atoms: C18_25  and  N4_26 
ROOT
HETATM    1  C1  UNL     1      -1.315  49.857 -20.760  1.00  0.00     0.161 C 
HETATM    2  N1  UNL     1      -0.743  50.885 -21.612  1.00  0.00    -0.303 N 
HETATM    3  C2  UNL     1      -0.904  50.811 -22.986  1.00  0.00     0.260 A 
HETATM    4  O1  UNL     1      -1.517  49.907 -23.554  1.00  0.00    -0.267 OA
HETATM    5  C3  UNL     1      -0.286  51.906 -23.807  1.00  0.00     0.047 A 
HETATM    6  C10 UNL     1       0.389  52.907 -23.220  1.00  0.00     0.034 A 
HETATM    7  C11 UNL     1       0.520  52.926 -21.773  1.00  0.00     0.026 A 
HETATM    8  C12 UNL     1       1.191  53.912 -21.088  1.00  0.00     0.121 A 
HETATM    9  N2  UNL     1       1.316  53.937 -19.748  1.00  0.00    -0.201 N 
ATOM     10  H2  UNL     1       1.822  54.688 -19.278  1.00  0.00     0.183 HD
HETATM   11  C13 UNL     1       0.753  52.938 -19.056  1.00  0.00     0.684 A 
HETATM   12  N5  UNL     1       0.076  51.935 -19.637  1.00  0.00    -0.175 N 
ATOM     13  H5  UNL     1      -0.344  51.192 -19.078  1.00  0.00     0.186 HD
HETATM   14  C20 UNL     1      -0.033  51.939 -20.983  1.00  0.00     0.137 A 
ENDROOT
BRANCH  11  15
HETATM   15  N3  UNL     1       0.821  52.868 -17.668  1.00  0.00    -0.192 N 
HETATM   16  H9  UNL     1      -0.048  53.204 -17.279  1.00  0.00     0.184 HD
BRANCH  15  17
HETATM   17  C14 UNL     1       1.782  52.412 -16.758  1.00  0.00     0.051 A 
HETATM   18  C15 UNL     1       3.098  52.884 -16.886  1.00  0.00     0.030 A 
HETATM   19  C16 UNL     1       4.100  52.479 -16.002  1.00  0.00     0.004 A 
HETATM   20  C17 UNL     1       3.807  51.574 -14.987  1.00  0.00     0.023 A 
HETATM   21  C18 UNL     1       2.526  51.035 -14.872  1.00  0.00     0.008 A 
HETATM   22  C19 UNL     1       1.517  51.499 -15.729  1.00  0.00     0.053 A 
BRANCH  21  23
HETATM   23  N4  UNL     1       2.204  50.213 -13.783  1.00  0.00    -0.303 NA
HETATM   24  H13 UNL     1       2.988  49.673 -13.434  1.00  0.00     0.124 HD
HETATM   25  H14 UNL     1       1.380  49.641 -13.941  1.00  0.00     0.124 HD
ENDBRANCH  21  23
ENDBRANCH  15  17
ENDBRANCH  11  15
BRANCH   5  26
HETATM   26  C4  UNL     1      -0.423  51.880 -25.278  1.00  0.00     0.023 A 
HETATM   27  C5  UNL     1       0.677  51.576 -26.100  1.00  0.00     0.046 A 
HETATM   28 CL1  UNL     1       2.231  51.187 -25.443  1.00  0.00    -0.083 Cl
HETATM   29  C6  UNL     1       0.548  51.567 -27.494  1.00  0.00     0.025 A 
HETATM   30  C7  UNL     1      -0.677  51.862 -28.087  1.00  0.00     0.003 A 
HETATM   31  C8  UNL     1      -1.777  52.165 -27.289  1.00  0.00     0.025 A 
HETATM   32  C9  UNL     1      -1.653  52.175 -25.895  1.00  0.00     0.046 A 
HETATM   33 CL2  UNL     1      -3.072  52.550 -24.974  1.00  0.00    -0.083 Cl
ENDBRANCH   5  26
TORSDOF 4
ENDMDL
