MODEL 1
REMARK minimizedAffinity -9.03355503
REMARK CNNscore 0.897177517
REMARK CNNaffinity 7.97911882
REMARK  10 active torsions:
REMARK  status: ('A' for Active; 'I' for Inactive)
REMARK    1  A    between atoms: N1_2  and  S1_3 
REMARK    2  A    between atoms: S1_3  and  C2_6 
REMARK    3  A    between atoms: C9_13  and  C10_14 
REMARK    4  A    between atoms: C13_18  and  C14_19 
REMARK    5  A    between atoms: C14_19  and  C15_20 
REMARK    6  A    between atoms: C15_20  and  C16_21 
REMARK    7  A    between atoms: C16_21  and  N3_22 
REMARK    8  A    between atoms: N4_25  and  C19_26 
REMARK    9  A    between atoms: C19_26  and  C20_27 
REMARK   10  A    between atoms: C20_27  and  O4_29 
ROOT
HETATM    1  C10 UNL     1      -7.683   6.126  13.745  1.00  0.00     0.040 A 
HETATM    2  N2  UNL     1      -8.879   6.070  13.066  1.00  0.00    -0.359 N 
HETATM    3  C11 UNL     1      -9.815   6.828  13.709  1.00  0.00     0.016 A 
HETATM    4  C12 UNL     1      -9.234   7.391  14.822  1.00  0.00    -0.027 A 
HETATM    5  C13 UNL     1      -7.878   6.950  14.856  1.00  0.00    -0.023 A 
HETATM    6  C23 UNL     1      -9.998   8.269  15.756  1.00  0.00     0.041 C 
HETATM    7  C24 UNL     1     -11.313   8.758  15.114  1.00  0.00     0.005 C 
HETATM    8  C25 UNL     1     -12.056   7.624  14.380  1.00  0.00     0.006 C 
HETATM    9  C26 UNL     1     -11.212   7.029  13.240  1.00  0.00     0.057 C 
HETATM   10  H9  UNL     1      -9.047   5.558  12.206  1.00  0.00     0.166 HD
ENDROOT
BRANCH   1  11
HETATM   11  C9  UNL     1      -6.526   5.423  13.305  1.00  0.00     0.048 C 
HETATM   12  C8  UNL     1      -6.398   4.158  12.878  1.00  0.00     0.047 A 
HETATM   13  C6  UNL     1      -5.109   3.601  12.424  1.00  0.00     0.008 A 
HETATM   14  C27 UNL     1      -7.417   3.060  12.682  1.00  0.00     0.257 A 
HETATM   15  C5  UNL     1      -5.372   2.306  11.965  1.00  0.00     0.046 A 
HETATM   16  C7  UNL     1      -3.819   4.106  12.389  1.00  0.00     0.040 A 
HETATM   17  C4  UNL     1      -4.393   1.481  11.445  1.00  0.00     0.032 A 
HETATM   18  N5  UNL     1      -6.719   2.003  12.120  1.00  0.00    -0.322 N 
HETATM   19  C3  UNL     1      -3.092   1.984  11.388  1.00  0.00     0.027 A 
HETATM   20  C2  UNL     1      -2.814   3.288  11.853  1.00  0.00     0.080 A 
HETATM   21  H35 UNL     1      -7.161   1.129  11.871  1.00  0.00     0.169 HD
HETATM   22  O5  UNL     1      -8.605   3.073  12.947  1.00  0.00    -0.267 OA
BRANCH  20  23
HETATM   23  S1  UNL     1      -1.143   3.894  11.813  1.00  0.00     0.258 S 
HETATM   24  O1  UNL     1      -0.244   2.778  12.009  1.00  0.00    -0.201 OA
HETATM   25  O2  UNL     1      -1.023   4.784  10.681  1.00  0.00    -0.201 OA
BRANCH  23  26
HETATM   26  N1  UNL     1      -1.091   4.869  13.184  1.00  0.00    -0.320 N 
HETATM   27  C1  UNL     1      -0.022   5.859  13.284  1.00  0.00     0.159 C 
HETATM   28  H4  UNL     1      -2.027   5.148  13.483  1.00  0.00     0.171 HD
ENDBRANCH  23  26
ENDBRANCH  20  23
ENDBRANCH   1  11
BRANCH   5  29
HETATM   29  C14 UNL     1      -6.858   7.326  15.892  1.00  0.00     0.043 C 
BRANCH  29  30
HETATM   30  C15 UNL     1      -5.784   8.298  15.399  1.00  0.00     0.035 C 
BRANCH  30  31
HETATM   31  C16 UNL     1      -4.402   7.643  15.278  1.00  0.00     0.273 C 
BRANCH  31  32
HETATM   32  N3  UNL     1      -3.327   8.647  15.269  1.00  0.00     0.091 N 
HETATM   33  C17 UNL     1      -2.278   8.297  16.249  1.00  0.00     0.302 C 
HETATM   34  C18 UNL     1      -1.395   9.504  16.631  1.00  0.00     0.303 C 
HETATM   35  N4  UNL     1      -2.132  10.609  17.279  1.00  0.00     0.101 N 
HETATM   36  C21 UNL     1      -3.564  10.583  16.902  1.00  0.00     0.303 C 
HETATM   37  C22 UNL     1      -3.815  10.028  15.480  1.00  0.00     0.302 C 
BRANCH  35  38
HETATM   38  C19 UNL     1      -1.961  10.578  18.747  1.00  0.00     0.381 C 
BRANCH  38  39
HETATM   39  C20 UNL     1      -0.718  11.331  19.193  1.00  0.00     0.169 C 
HETATM   40  O3  UNL     1       0.140  10.911  19.956  1.00  0.00    -0.649 OA
BRANCH  39  41
HETATM   41  O4  UNL     1      -0.617  12.571  18.667  1.00  0.00    -0.775 OA
HETATM   42  H22 UNL     1       0.206  12.929  19.063  1.00  0.00     0.167 HD
ENDBRANCH  39  41
ENDBRANCH  38  39
ENDBRANCH  35  38
ENDBRANCH  31  32
ENDBRANCH  30  31
ENDBRANCH  29  30
ENDBRANCH   5  29
TORSDOF 10
ENDMDL
