MODEL 1
REMARK minimizedAffinity -8.70936012
REMARK  6 active torsions:
REMARK  status: ('A' for Active; 'I' for Inactive)
REMARK    1  A    between atoms: O1_2  and  C2_3 
REMARK    2  A    between atoms: C4_5  and  N1_6 
REMARK    3  A    between atoms: N1_6  and  C5_7 
REMARK    4  A    between atoms: C11_16  and  O2_17 
REMARK    5  A    between atoms: O2_17  and  C12_18 
REMARK    6  A    between atoms: C18_25  and  O3_26 
ROOT
HETATM    1  C5  UNL     1      -1.164  52.583 -23.850  1.00  0.00     0.067 A 
HETATM    2  C6  UNL     1      -0.015  53.331 -24.152  1.00  0.00     0.087 A 
HETATM    3  C7  UNL     1       0.106  54.159 -25.309  1.00  0.00     0.103 C 
HETATM    4  N2  UNL     1       0.202  54.854 -26.234  1.00  0.00    -0.191 NA
HETATM    5  C8  UNL     1       1.038  53.290 -23.256  1.00  0.00     0.113 A 
HETATM    6  N3  UNL     1       1.019  52.604 -22.093  1.00  0.00    -0.364 N 
ATOM      7  H3  UNL     1       1.825  52.612 -21.468  1.00  0.00     0.165 HD
HETATM    8  C9  UNL     1      -0.087  51.913 -21.777  1.00  0.00     0.047 A 
HETATM    9  C10 UNL     1      -0.108  51.223 -20.574  1.00  0.00     0.070 A 
HETATM   10  C11 UNL     1      -1.217  50.477 -20.166  1.00  0.00     0.104 A 
HETATM   11  C18 UNL     1      -2.345  50.416 -20.998  1.00  0.00     0.102 A 
HETATM   12  C20 UNL     1      -2.339  51.112 -22.209  1.00  0.00     0.055 A 
HETATM   13  C21 UNL     1      -1.218  51.872 -22.617  1.00  0.00     0.022 A 
ENDROOT
BRANCH   1  14
HETATM   14  N1  UNL     1      -2.342  52.625 -24.664  1.00  0.00    -0.353 N 
HETATM   15  H5  UNL     1      -2.422  53.556 -25.073  1.00  0.00     0.166 HD
BRANCH  14  16
HETATM   16  C4  UNL     1      -2.794  51.614 -25.555  1.00  0.00     0.057 A 
HETATM   17  C3  UNL     1      -3.350  50.444 -25.001  1.00  0.00     0.069 A 
HETATM   18  C2  UNL     1      -3.827  49.407 -25.813  1.00  0.00     0.092 A 
HETATM   19  C24 UNL     1      -3.704  49.516 -27.203  1.00  0.00     0.069 A 
HETATM   20  C23 UNL     1      -3.137  50.654 -27.774  1.00  0.00     0.052 A 
HETATM   21 CL2  UNL     1      -4.243  48.259 -28.258  1.00  0.00    -0.081 Cl
HETATM   22  C22 UNL     1      -2.684  51.695 -26.960  1.00  0.00     0.062 A 
HETATM   23 CL1  UNL     1      -1.933  53.034 -27.762  1.00  0.00    -0.082 Cl
BRANCH  18  24
HETATM   24  O1  UNL     1      -4.368  48.251 -25.313  1.00  0.00    -0.354 OA
HETATM   25  C1  UNL     1      -5.589  48.396 -24.596  1.00  0.00     0.210 C 
ENDBRANCH  18  24
ENDBRANCH  14  16
ENDBRANCH   1  14
BRANCH  11  26
HETATM   26  O3  UNL     1      -3.398  49.664 -20.540  1.00  0.00    -0.353 OA
HETATM   27  C19 UNL     1      -4.645  50.319 -20.354  1.00  0.00     0.210 C 
ENDBRANCH  11  26
BRANCH  10  28
HETATM   28  O2  UNL     1      -1.302  49.772 -18.993  1.00  0.00    -0.343 OA
BRANCH  28  29
HETATM   29  C12 UNL     1      -0.977  50.398 -17.748  1.00  0.00     0.132 C 
HETATM   30  C13 UNL     1      -0.160  51.679 -17.982  1.00  0.00     0.062 C 
HETATM   31  C14 UNL     1       0.902  51.919 -16.907  1.00  0.00     0.274 C 
HETATM   32  N4  UNL     1       0.421  51.444 -15.611  1.00  0.00     0.084 N 
HETATM   33  C15 UNL     1       1.279  51.893 -14.517  1.00  0.00     0.309 C 
HETATM   34  C16 UNL     1       0.268  49.980 -15.592  1.00  0.00     0.274 C 
HETATM   35  C17 UNL     1      -0.147  49.396 -16.945  1.00  0.00     0.062 C 
ENDBRANCH  28  29
ENDBRANCH  10  28
TORSDOF 6
ENDMDL
