MODEL 1
REMARK minimizedAffinity -7.78556585
REMARK  7 active torsions:
REMARK  status: ('A' for Active; 'I' for Inactive)
REMARK    1  A    between atoms: O1_2  and  C2_3 
REMARK    2  A    between atoms: C2_3  and  C3_4 
REMARK    3  A    between atoms: C3_4  and  O2_5 
REMARK    4  A    between atoms: O2_5  and  C4_6 
REMARK    5  A    between atoms: C10_15  and  N3_16 
REMARK    6  A    between atoms: N3_16  and  C11_17 
REMARK    7  A    between atoms: C19_27  and  O3_28 
ROOT
HETATM    1  C4  UNL     1      -0.004  53.437 -25.250  1.00  0.00     0.104 A 
HETATM    2  C5  UNL     1       0.833  53.339 -24.135  1.00  0.00     0.070 A 
HETATM    3  C6  UNL     1       0.409  52.761 -22.946  1.00  0.00     0.047 A 
HETATM    4  N1  UNL     1       1.279  52.704 -21.927  1.00  0.00    -0.364 N 
ATOM      5  H1  UNL     1       2.220  53.087 -22.020  1.00  0.00     0.165 HD
HETATM    6  C7  UNL     1       0.878  52.128 -20.773  1.00  0.00     0.113 A 
HETATM    7  C8  UNL     1      -0.379  51.586 -20.570  1.00  0.00     0.087 A 
HETATM    8  C9  UNL     1      -0.647  50.941 -19.323  1.00  0.00     0.103 C 
HETATM    9  N2  UNL     1      -0.841  50.403 -18.313  1.00  0.00    -0.191 NA
HETATM   10  C10 UNL     1      -1.309  51.672 -21.617  1.00  0.00     0.067 A 
HETATM   11  C17 UNL     1      -0.902  52.255 -22.852  1.00  0.00     0.022 A 
HETATM   12  C18 UNL     1      -1.755  52.367 -23.975  1.00  0.00     0.055 A 
HETATM   13  C19 UNL     1      -1.320  52.957 -25.164  1.00  0.00     0.102 A 
ENDROOT
BRANCH  10  14
HETATM   14  N3  UNL     1      -2.604  51.065 -21.548  1.00  0.00    -0.353 N 
HETATM   15  H10 UNL     1      -3.228  51.692 -21.040  1.00  0.00     0.166 HD
BRANCH  14  16
HETATM   16  C11 UNL     1      -3.289  50.386 -22.591  1.00  0.00     0.054 A 
HETATM   17  C12 UNL     1      -2.757  49.162 -23.037  1.00  0.00     0.033 A 
HETATM   18  C13 UNL     1      -3.371  48.436 -24.062  1.00  0.00     0.026 A 
HETATM   19  C14 UNL     1      -4.518  48.934 -24.670  1.00  0.00     0.035 A 
HETATM   20 CL1  UNL     1      -5.269  48.042 -25.934  1.00  0.00    -0.084 Cl
HETATM   21  C15 UNL     1      -5.051  50.155 -24.273  1.00  0.00     0.050 A 
HETATM   22  C16 UNL     1      -4.437  50.884 -23.247  1.00  0.00     0.062 A 
HETATM   23 CL2  UNL     1      -5.128  52.428 -22.879  1.00  0.00    -0.082 Cl
ENDBRANCH  14  16
ENDBRANCH  10  14
BRANCH  13  24
HETATM   24  O3  UNL     1      -2.092  53.097 -26.290  1.00  0.00    -0.353 OA
HETATM   25  C20 UNL     1      -2.976  52.034 -26.619  1.00  0.00     0.210 C 
ENDBRANCH  13  24
BRANCH   1  26
HETATM   26  O2  UNL     1       0.350  53.999 -26.450  1.00  0.00    -0.346 OA
BRANCH  26  27
HETATM   27  C3  UNL     1       0.082  53.295 -27.661  1.00  0.00     0.201 C 
BRANCH  27  28
HETATM   28  C2  UNL     1       0.983  52.067 -27.797  1.00  0.00     0.193 C 
BRANCH  28  29
HETATM   29  O1  UNL     1       2.254  52.261 -27.175  1.00  0.00    -0.394 OA
HETATM   30  C1  UNL     1       2.652  51.160 -26.368  1.00  0.00     0.201 C 
ENDBRANCH  28  29
ENDBRANCH  27  28
ENDBRANCH  26  27
ENDBRANCH   1  26
TORSDOF 7
ENDMDL
