MODEL 1
REMARK minimizedAffinity -9.374156
REMARK CNNscore 0.171025157
REMARK CNNaffinity 6.04878473
REMARK  6 active torsions:
REMARK  status: ('A' for Active; 'I' for Inactive)
REMARK    1  A    between atoms: C2_2  and  C3_3 
REMARK       I    between atoms: C3_3  and  N1_5 
REMARK    2  A    between atoms: C7_9  and  C8_10 
REMARK    3  A    between atoms: C13_17  and  C14_18 
REMARK       I    between atoms: C14_18  and  N3_20 
REMARK    4  A    between atoms: N3_20  and  C15_21 
REMARK    5  A    between atoms: C17_23  and  C18_24 
REMARK    6  A    between atoms: C24_36  and  N5_37 
ROOT
HETATM    1  C8  UNL     1     -10.679  45.799 -33.642  1.00  0.00     0.094 A 
HETATM    2  N2  UNL     1     -11.424  45.864 -32.553  1.00  0.00    -0.342 N 
ATOM      3  H2  UNL     1     -12.368  45.498 -32.434  1.00  0.00     0.167 HD
HETATM    4  C9  UNL     1     -10.671  46.524 -31.613  1.00  0.00     0.077 A 
HETATM    5  C10 UNL     1     -11.157  46.738 -30.274  1.00  0.00     0.032 A 
HETATM    6  C11 UNL     1     -12.186  47.658 -30.050  1.00  0.00     0.018 A 
HETATM    7  C12 UNL     1     -12.711  47.831 -28.764  1.00  0.00     0.018 A 
HETATM    8  C13 UNL     1     -12.230  47.058 -27.694  1.00  0.00     0.035 A 
HETATM    9  C21 UNL     1     -11.186  46.151 -27.919  1.00  0.00     0.060 A 
HETATM   10  C22 UNL     1     -10.661  45.996 -29.200  1.00  0.00     0.130 A 
HETATM   11  F4  UNL     1      -9.675  45.107 -29.381  1.00  0.00    -0.205 F 
HETATM   12  C23 UNL     1      -9.480  46.948 -32.154  1.00  0.00     0.106 A 
HETATM   13  C24 UNL     1      -8.344  47.704 -31.686  1.00  0.00     0.107 A 
HETATM   14  N6  UNL     1      -7.340  47.947 -32.498  1.00  0.00    -0.354 N 
ATOM     15  H6  UNL     1      -6.535  48.487 -32.178  1.00  0.00     0.166 HD
HETATM   16  C25 UNL     1      -7.389  47.463 -33.787  1.00  0.00     0.107 A 
HETATM   17  C26 UNL     1      -8.415  46.756 -34.284  1.00  0.00     0.116 A 
HETATM   18  N7  UNL     1      -9.489  46.483 -33.454  1.00  0.00    -0.305 N 
ENDROOT
BRANCH   1  19
HETATM   19  C7  UNL     1     -11.112  45.078 -34.887  1.00  0.00     0.072 C 
HETATM   20  C6  UNL     1      -9.993  44.265 -35.550  1.00  0.00     0.015 C 
HETATM   21  C5  UNL     1     -10.470  43.527 -36.808  1.00  0.00     0.021 C 
HETATM   22  C4  UNL     1     -11.856  43.959 -37.284  1.00  0.00     0.126 C 
HETATM   23  N1  UNL     1     -12.004  45.411 -37.210  1.00  0.00    -0.351 N 
HETATM   24  C3  UNL     1     -12.412  46.110 -38.355  1.00  0.00     0.232 C 
HETATM   25  C27 UNL     1     -11.826  46.007 -35.883  1.00  0.00     0.138 C 
HETATM   26  O1  UNL     1     -12.528  45.514 -39.437  1.00  0.00    -0.272 OA
BRANCH  24  27
HETATM   27  C2  UNL     1     -12.680  47.640 -38.265  1.00  0.00     0.080 C 
HETATM   28  C1  UNL     1     -11.388  48.461 -38.169  1.00  0.00     0.030 C 
HETATM   29  C28 UNL     1     -13.573  48.197 -39.408  1.00  0.00     0.188 C 
HETATM   30  O3  UNL     1     -14.364  48.960 -38.459  1.00  0.00    -0.389 OA
HETATM   31  C29 UNL     1     -13.842  48.144 -37.383  1.00  0.00     0.188 C 
ENDBRANCH  24  27
ENDBRANCH   1  19
BRANCH  13  32
HETATM   32  N5  UNL     1      -8.232  48.226 -30.431  1.00  0.00    -0.287 NA
HETATM   33  H18 UNL     1      -9.090  48.520 -29.983  1.00  0.00     0.125 HD
HETATM   34  H19 UNL     1      -7.488  48.912 -30.374  1.00  0.00     0.125 HD
ENDBRANCH  13  32
BRANCH   8  35
HETATM   35  C14 UNL     1     -12.776  47.168 -26.308  1.00  0.00     0.257 C 
HETATM   36  O2  UNL     1     -12.063  47.659 -25.438  1.00  0.00    -0.267 OA
HETATM   37  N3  UNL     1     -14.040  46.666 -26.119  1.00  0.00    -0.309 N 
HETATM   38  H13 UNL     1     -14.519  46.179 -26.862  1.00  0.00     0.170 HD
BRANCH  37  39
HETATM   39  C15 UNL     1     -14.810  46.678 -24.955  1.00  0.00     0.108 A 
HETATM   40  C16 UNL     1     -16.194  46.597 -24.925  1.00  0.00     0.064 A 
HETATM   41  C17 UNL     1     -16.853  46.609 -23.687  1.00  0.00     0.052 A 
HETATM   42  C19 UNL     1     -16.088  46.705 -22.524  1.00  0.00     0.033 A 
HETATM   43  C20 UNL     1     -14.713  46.782 -22.648  1.00  0.00     0.090 A 
HETATM   44  N4  UNL     1     -14.065  46.769 -23.833  1.00  0.00    -0.352 N 
ATOM     45  H4  UNL     1     -13.047  46.825 -23.879  1.00  0.00     0.166 HD
BRANCH  41  46
HETATM   46  C18 UNL     1     -18.357  46.549 -23.633  1.00  0.00     0.417 C 
HETATM   47  F1  UNL     1     -18.841  45.351 -24.058  1.00  0.00    -0.166 F 
HETATM   48  F2  UNL     1     -18.958  47.492 -24.411  1.00  0.00    -0.166 F 
HETATM   49  F3  UNL     1     -18.851  46.735 -22.379  1.00  0.00    -0.166 F 
ENDBRANCH  41  46
ENDBRANCH  37  39
ENDBRANCH   8  35
TORSDOF 6
ENDMDL
