MODEL 1
REMARK minimizedAffinity -9.76131916
REMARK  8 active torsions:
REMARK  status: ('A' for Active; 'I' for Inactive)
REMARK    1  A    between atoms: N1_2  and  S1_3 
REMARK    2  A    between atoms: S1_3  and  C2_6 
REMARK    3  A    between atoms: C9_13  and  C10_14 
REMARK    4  A    between atoms: C13_18  and  C14_19 
REMARK    5  A    between atoms: C14_19  and  C15_20 
REMARK    6  A    between atoms: C15_20  and  C16_21 
REMARK    7  A    between atoms: C16_21  and  N3_22 
REMARK    8  A    between atoms: C19_25  and  O3_26 
ROOT
HETATM    1  C10 UNL     1      -0.842   5.741  12.062  1.00  0.00     0.040 A 
HETATM    2  N2  UNL     1      -0.325   5.742  10.787  1.00  0.00    -0.359 N 
HETATM    3  C11 UNL     1       0.966   6.184  10.822  1.00  0.00     0.016 A 
HETATM    4  C12 UNL     1       1.292   6.469  12.132  1.00  0.00    -0.027 A 
HETATM    5  C13 UNL     1       0.143   6.195  12.930  1.00  0.00    -0.023 A 
HETATM    6  C22 UNL     1       2.634   6.994  12.525  1.00  0.00     0.041 C 
HETATM    7  C23 UNL     1       3.662   6.791  11.395  1.00  0.00     0.005 C 
HETATM    8  C24 UNL     1       3.089   7.165  10.014  1.00  0.00     0.006 C 
HETATM    9  C25 UNL     1       1.862   6.312   9.643  1.00  0.00     0.057 C 
HETATM   10  H9  UNL     1      -0.827   5.473   9.952  1.00  0.00     0.166 HD
ENDROOT
BRANCH   1  11
HETATM   11  C9  UNL     1      -2.162   5.269  12.234  1.00  0.00     0.048 C 
HETATM   12  C8  UNL     1      -2.566   4.037  11.890  1.00  0.00     0.047 A 
HETATM   13  C6  UNL     1      -3.947   3.548  12.020  1.00  0.00     0.008 A 
HETATM   14  C26 UNL     1      -1.751   2.898  11.321  1.00  0.00     0.257 A 
HETATM   15  C5  UNL     1      -3.940   2.230  11.549  1.00  0.00     0.046 A 
HETATM   16  C7  UNL     1      -5.119   4.125  12.476  1.00  0.00     0.040 A 
HETATM   17  C4  UNL     1      -5.074   1.443  11.509  1.00  0.00     0.032 A 
HETATM   18  N4  UNL     1      -2.661   1.865  11.145  1.00  0.00    -0.322 N 
HETATM   19  C3  UNL     1      -6.265   2.013  11.965  1.00  0.00     0.027 A 
HETATM   20  C2  UNL     1      -6.279   3.338  12.450  1.00  0.00     0.080 A 
HETATM   21  H34 UNL     1      -2.388   0.968  10.773  1.00  0.00     0.169 HD
HETATM   22  O4  UNL     1      -0.564   2.843  11.070  1.00  0.00    -0.267 OA
BRANCH  20  23
HETATM   23  S1  UNL     1      -7.820   4.030  13.001  1.00  0.00     0.258 S 
HETATM   24  O1  UNL     1      -8.860   3.079  12.680  1.00  0.00    -0.201 OA
HETATM   25  O2  UNL     1      -7.888   5.413  12.585  1.00  0.00    -0.201 OA
BRANCH  23  26
HETATM   26  N1  UNL     1      -7.640   3.994  14.669  1.00  0.00    -0.320 N 
HETATM   27  C1  UNL     1      -7.428   5.250  15.376  1.00  0.00     0.159 C 
HETATM   28  H4  UNL     1      -8.221   3.281  15.109  1.00  0.00     0.171 HD
ENDBRANCH  23  26
ENDBRANCH  20  23
ENDBRANCH   1  11
BRANCH   5  29
HETATM   29  C14 UNL     1       0.035   6.365  14.415  1.00  0.00     0.043 C 
BRANCH  29  30
HETATM   30  C15 UNL     1      -0.365   7.789  14.803  1.00  0.00     0.035 C 
BRANCH  30  31
HETATM   31  C16 UNL     1      -1.697   7.864  15.560  1.00  0.00     0.272 C 
BRANCH  31  32
HETATM   32  N3  UNL     1      -2.437   9.089  15.217  1.00  0.00     0.088 N 
HETATM   33  C17 UNL     1      -3.751   9.158  15.870  1.00  0.00     0.275 C 
HETATM   34  C18 UNL     1      -4.790   8.223  15.257  1.00  0.00     0.062 C 
HETATM   35  C19 UNL     1      -4.923   8.476  13.760  1.00  0.00     0.121 C 
HETATM   36  C20 UNL     1      -3.562   8.394  13.078  1.00  0.00     0.062 C 
HETATM   37  C21 UNL     1      -2.549   9.306  13.768  1.00  0.00     0.275 C 
BRANCH  35  38
HETATM   38  O3  UNL     1      -5.806   7.506  13.204  1.00  0.00    -0.395 OA
HETATM   39  H21 UNL     1      -5.881   7.692  12.251  1.00  0.00     0.210 HD
ENDBRANCH  35  38
ENDBRANCH  31  32
ENDBRANCH  30  31
ENDBRANCH  29  30
ENDBRANCH   5  29
TORSDOF 8
ENDMDL
