MODEL 1
REMARK minimizedAffinity -9.56054497
REMARK  5 active torsions:
REMARK  status: ('A' for Active; 'I' for Inactive)
REMARK    1  A    between atoms: C2_2  and  S1_3 
REMARK    2  A    between atoms: S1_3  and  C3_6 
REMARK    3  A    between atoms: C10_13  and  C11_14 
REMARK    4  A    between atoms: C14_18  and  C15_19 
REMARK    5  A    between atoms: C15_19  and  N2_20 
ROOT
HETATM    1  C11 UNL     1      -0.717   5.643  12.078  1.00  0.00     0.042 A 
HETATM    2  N1  UNL     1      -0.094   5.605  10.853  1.00  0.00    -0.359 N 
HETATM    3  C12 UNL     1       1.174   6.096  10.975  1.00  0.00     0.016 A 
HETATM    4  C13 UNL     1       1.375   6.463  12.288  1.00  0.00    -0.025 A 
HETATM    5  C14 UNL     1       0.169   6.182  13.004  1.00  0.00     0.005 A 
HETATM    6  C20 UNL     1       2.676   7.016  12.767  1.00  0.00     0.041 C 
HETATM    7  C21 UNL     1       3.552   7.481  11.588  1.00  0.00     0.005 C 
HETATM    8  C22 UNL     1       3.561   6.461  10.434  1.00  0.00     0.006 C 
HETATM    9  C23 UNL     1       2.152   6.222   9.862  1.00  0.00     0.057 C 
HETATM   10  H10 UNL     1      -0.505   5.253   9.998  1.00  0.00     0.166 HD
ENDROOT
BRANCH   1  11
HETATM   11  C10 UNL     1      -2.059   5.209  12.141  1.00  0.00     0.048 C 
HETATM   12  C9  UNL     1      -2.459   3.967  11.833  1.00  0.00     0.047 A 
HETATM   13  C7  UNL     1      -3.848   3.494  11.937  1.00  0.00     0.008 A 
HETATM   14  C24 UNL     1      -1.641   2.805  11.316  1.00  0.00     0.257 A 
HETATM   15  C6  UNL     1      -3.839   2.159  11.520  1.00  0.00     0.046 A 
HETATM   16  C8  UNL     1      -5.026   4.097  12.339  1.00  0.00     0.038 A 
HETATM   17  C5  UNL     1      -4.981   1.382  11.479  1.00  0.00     0.032 A 
HETATM   18  N3  UNL     1      -2.554   1.768  11.165  1.00  0.00    -0.322 N 
HETATM   19  C4  UNL     1      -6.179   1.977  11.880  1.00  0.00     0.026 A 
HETATM   20  C3  UNL     1      -6.191   3.318  12.319  1.00  0.00     0.060 A 
HETATM   21  H29 UNL     1      -2.281   0.862  10.818  1.00  0.00     0.169 HD
HETATM   22  O4  UNL     1      -0.455   2.745  11.063  1.00  0.00    -0.267 OA
BRANCH  20  23
HETATM   23  S1  UNL     1      -7.740   4.053  12.799  1.00  0.00     0.175 S 
HETATM   24  O1  UNL     1      -7.986   5.175  11.911  1.00  0.00    -0.223 OA
HETATM   25  O2  UNL     1      -8.700   2.970  12.897  1.00  0.00    -0.223 OA
BRANCH  23  26
HETATM   26  C2  UNL     1      -7.451   4.680  14.440  1.00  0.00     0.141 C 
HETATM   27  C1  UNL     1      -7.313   6.187  14.499  1.00  0.00     0.021 C 
ENDBRANCH  23  26
ENDBRANCH  20  23
ENDBRANCH   1  11
BRANCH   5  28
HETATM   28  C15 UNL     1      -0.075   6.416  14.468  1.00  0.00     0.314 C 
BRANCH  28  29
HETATM   29  N2  UNL     1      -0.443   7.821  14.724  1.00  0.00     0.096 N 
HETATM   30  C16 UNL     1       0.239   8.354  15.926  1.00  0.00     0.299 C 
HETATM   31  C17 UNL     1      -0.531   9.531  16.544  1.00  0.00     0.198 C 
HETATM   32  O3  UNL     1      -1.831   9.155  17.022  1.00  0.00    -0.388 OA
HETATM   33  C18 UNL     1      -2.395   8.052  16.300  1.00  0.00     0.198 C 
HETATM   34  C19 UNL     1      -1.908   7.977  14.846  1.00  0.00     0.299 C 
ENDBRANCH  28  29
ENDBRANCH   5  28
TORSDOF 5
ENDMDL
