MODEL 1
REMARK minimizedAffinity -8.86858273
REMARK  7 active torsions:
REMARK  status: ('A' for Active; 'I' for Inactive)
REMARK    1  A    between atoms: C2_2  and  S1_3 
REMARK    2  A    between atoms: S1_3  and  C3_6 
REMARK    3  A    between atoms: C10_13  and  C11_14 
REMARK    4  A    between atoms: C14_18  and  C15_19 
REMARK    5  A    between atoms: C15_19  and  C16_20 
REMARK    6  A    between atoms: C16_20  and  C17_21 
REMARK    7  A    between atoms: C17_21  and  N2_22 
ROOT
HETATM    1  C3  UNL     1      -6.045   3.492  12.605  1.00  0.00     0.060 A 
HETATM    2  C4  UNL     1      -6.015   2.312  11.834  1.00  0.00     0.026 A 
HETATM    3  C5  UNL     1      -4.811   1.861  11.292  1.00  0.00     0.032 A 
HETATM    4  C6  UNL     1      -3.676   2.608  11.551  1.00  0.00     0.046 A 
HETATM    5  C7  UNL     1      -3.693   3.774  12.324  1.00  0.00     0.008 A 
HETATM    6  C8  UNL     1      -4.881   4.230  12.870  1.00  0.00     0.038 A 
HETATM    7  C9  UNL     1      -2.301   4.270  12.363  1.00  0.00     0.047 A 
HETATM    8  C10 UNL     1      -1.952   5.404  12.993  1.00  0.00     0.048 C 
HETATM    9  C24 UNL     1      -1.484   3.282  11.565  1.00  0.00     0.257 A 
HETATM   10  O3  UNL     1      -0.288   3.285  11.350  1.00  0.00    -0.267 OA
HETATM   11  N3  UNL     1      -2.388   2.333  11.113  1.00  0.00    -0.322 N 
HETATM   12  H31 UNL     1      -2.108   1.543  10.551  1.00  0.00     0.169 HD
ENDROOT
BRANCH   8  13
HETATM   13  C11 UNL     1      -0.680   6.037  13.093  1.00  0.00     0.040 A 
HETATM   14  N1  UNL     1      -0.027   6.192  14.296  1.00  0.00    -0.359 N 
HETATM   15  C12 UNL     1       1.169   6.820  14.099  1.00  0.00     0.016 A 
HETATM   16  H10 UNL     1      -0.368   5.876  15.199  1.00  0.00     0.166 HD
HETATM   17  C13 UNL     1       1.311   7.078  12.755  1.00  0.00    -0.027 A 
HETATM   18  C23 UNL     1       2.152   7.128  15.169  1.00  0.00     0.057 C 
HETATM   19  C14 UNL     1       0.135   6.600  12.108  1.00  0.00    -0.023 A 
HETATM   20  C20 UNL     1       2.516   7.762  12.199  1.00  0.00     0.041 C 
HETATM   21  C21 UNL     1       3.674   7.764  13.216  1.00  0.00     0.005 C 
HETATM   22  C22 UNL     1       3.200   8.125  14.637  1.00  0.00     0.006 C 
BRANCH  19  23
HETATM   23  C15 UNL     1      -0.145   6.691  10.636  1.00  0.00     0.043 C 
BRANCH  23  24
HETATM   24  C16 UNL     1       0.261   8.050  10.060  1.00  0.00     0.035 C 
BRANCH  24  25
HETATM   25  C17 UNL     1       0.404   8.055   8.530  1.00  0.00     0.271 C 
BRANCH  25  26
HETATM   26  N2  UNL     1       1.720   7.777   7.939  1.00  0.00     0.080 N 
HETATM   27  C18 UNL     1       2.574   6.922   8.751  1.00  0.00     0.309 C 
HETATM   28  C19 UNL     1       1.634   7.283   6.568  1.00  0.00     0.309 C 
ENDBRANCH  25  26
ENDBRANCH  24  25
ENDBRANCH  23  24
ENDBRANCH  19  23
ENDBRANCH   8  13
BRANCH   1  29
HETATM   29  S1  UNL     1      -7.585   4.040  13.314  1.00  0.00     0.175 S 
HETATM   30  O1  UNL     1      -8.638   3.200  12.778  1.00  0.00    -0.223 OA
HETATM   31  O2  UNL     1      -7.369   4.128  14.745  1.00  0.00    -0.223 OA
BRANCH  29  32
HETATM   32  C2  UNL     1      -7.803   5.693  12.689  1.00  0.00     0.141 C 
HETATM   33  C1  UNL     1      -8.876   5.803  11.625  1.00  0.00     0.021 C 
ENDBRANCH  29  32
ENDBRANCH   1  29
TORSDOF 7
ENDMDL
