MODEL 1
REMARK minimizedAffinity -9.94648361
REMARK  7 active torsions:
REMARK  status: ('A' for Active; 'I' for Inactive)
REMARK    1  A    between atoms: C2_2  and  C3_3 
REMARK       I    between atoms: C3_3  and  N1_5 
REMARK    2  A    between atoms: N1_5  and  C4_6 
REMARK    3  A    between atoms: C8_10  and  O2_11 
REMARK    4  A    between atoms: O2_11  and  C9_12 
REMARK    5  A    between atoms: C10_15  and  N3_16 
REMARK    6  A    between atoms: N3_16  and  C11_17 
REMARK    7  A    between atoms: C19_28  and  N6_29 
ROOT
HETATM    1  C9  UNL     1      -0.901  50.651 -21.979  1.00  0.00     0.232 A 
HETATM    2  N2  UNL     1      -0.289  51.448 -22.861  1.00  0.00    -0.308 N 
ATOM      3  H2  UNL     1      -0.358  51.293 -23.866  1.00  0.00     0.171 HD
HETATM    4  C10 UNL     1       0.421  52.461 -22.345  1.00  0.00     0.113 A 
HETATM    5  C18 UNL     1       0.525  52.647 -20.980  1.00  0.00     0.097 A 
HETATM    6  C19 UNL     1      -0.096  51.741 -20.136  1.00  0.00     0.109 A 
HETATM    7  N8  UNL     1      -0.819  50.733 -20.644  1.00  0.00    -0.308 N 
ATOM      8  H8  UNL     1      -1.287  50.057 -20.040  1.00  0.00     0.171 HD
ENDROOT
BRANCH   1   9
HETATM    9  O2  UNL     1      -1.639  49.611 -22.509  1.00  0.00    -0.279 OA
BRANCH   9  10
HETATM   10  C8  UNL     1      -2.916  49.898 -22.941  1.00  0.00     0.081 A 
HETATM   11  C7  UNL     1      -3.827  50.730 -22.285  1.00  0.00     0.037 A 
HETATM   12  C6  UNL     1      -5.105  50.921 -22.813  1.00  0.00     0.005 A 
HETATM   13  C5  UNL     1      -5.470  50.293 -24.004  1.00  0.00     0.029 A 
HETATM   14  C4  UNL     1      -4.565  49.462 -24.679  1.00  0.00     0.037 A 
HETATM   15  C25 UNL     1      -3.293  49.266 -24.135  1.00  0.00     0.066 A 
BRANCH  14  16
HETATM   16  N1  UNL     1      -5.007  48.880 -25.886  1.00  0.00    -0.324 N 
HETATM   17  C3  UNL     1      -4.249  48.547 -26.987  1.00  0.00     0.244 C 
HETATM   18  O1  UNL     1      -3.034  48.618 -27.111  1.00  0.00    -0.268 OA
HETATM   19  H4  UNL     1      -5.993  48.660 -25.930  1.00  0.00     0.169 HD
BRANCH  17  20
HETATM   20  C2  UNL     1      -5.043  47.985 -28.116  1.00  0.00     0.064 C 
HETATM   21  C1  UNL     1      -6.314  47.567 -28.028  1.00  0.00     0.017 C 
ENDBRANCH  17  20
ENDBRANCH  14  16
ENDBRANCH   9  10
ENDBRANCH   1   9
BRANCH   4  22
HETATM   22  N3  UNL     1       1.027  53.280 -23.298  1.00  0.00    -0.327 N 
HETATM   23  H8  UNL     1       1.971  53.476 -22.967  1.00  0.00     0.169 HD
BRANCH  22  24
HETATM   24  C11 UNL     1       0.641  53.737 -24.506  1.00  0.00     0.134 A 
HETATM   25  N4  UNL     1       0.240  54.973 -24.815  1.00  0.00    -0.284 N 
HETATM   26  N5  UNL     1      -0.053  54.911 -26.122  1.00  0.00    -0.298 N 
ATOM     27  H4  UNL     1       0.173  55.781 -24.197  1.00  0.00     0.188 HD
HETATM   28  C12 UNL     1       0.141  53.681 -26.690  1.00  0.00     0.062 A 
HETATM   29  H9  UNL     1      -0.394  55.753 -26.578  1.00  0.00     0.187 HD
HETATM   30  C13 UNL     1      -0.047  53.218 -27.997  1.00  0.00     0.032 A 
HETATM   31  C17 UNL     1       0.610  52.879 -25.657  1.00  0.00     0.037 A 
HETATM   32  C14 UNL     1       0.263  51.873 -28.250  1.00  0.00     0.002 A 
HETATM   33  C15 UNL     1       0.737  51.040 -27.237  1.00  0.00     0.001 A 
HETATM   34  C16 UNL     1       0.918  51.528 -25.934  1.00  0.00     0.017 A 
ENDBRANCH  22  24
ENDBRANCH   4  22
BRANCH   6  35
HETATM   35  N6  UNL     1      -0.030  51.873 -18.754  1.00  0.00    -0.364 N 
HETATM   36  C20 UNL     1      -0.270  50.661 -17.954  1.00  0.00     0.154 C 
HETATM   37  C21 UNL     1      -0.352  51.022 -16.453  1.00  0.00     0.291 C 
HETATM   38  N7  UNL     1       0.839  51.710 -15.898  1.00  0.00     0.087 N 
HETATM   39  C22 UNL     1       1.640  50.818 -15.062  1.00  0.00     0.310 C 
HETATM   40  C23 UNL     1       1.670  52.301 -16.968  1.00  0.00     0.291 C 
HETATM   41  C24 UNL     1       0.857  52.886 -18.153  1.00  0.00     0.154 C 
ENDBRANCH   6  35
TORSDOF 7
ENDMDL
