MODEL 1
REMARK minimizedAffinity -10.0793362
REMARK  5 active torsions:
REMARK  status: ('A' for Active; 'I' for Inactive)
REMARK    1  A    between atoms: O1_1  and  C1_2 
REMARK    2  A    between atoms: C5_6  and  N1_7 
REMARK    3  A    between atoms: N1_7  and  C6_8 
REMARK    4  A    between atoms: C7_11  and  C8_12 
REMARK    5  A    between atoms: C9_13  and  C10_14 
ROOT
HETATM    1  C6  UNL     1      -0.160  52.089 -23.215  1.00  0.00     0.119 A 
HETATM    2  N2  UNL     1      -1.264  51.433 -23.613  1.00  0.00    -0.328 N 
ATOM      3  H2  UNL     1      -1.426  51.219 -24.596  1.00  0.00     0.169 HD
HETATM    4  C7  UNL     1      -2.141  51.073 -22.669  1.00  0.00     0.107 A 
HETATM    5  N3  UNL     1      -2.011  51.309 -21.357  1.00  0.00    -0.342 N 
ATOM      6  H3  UNL     1      -2.722  51.011 -20.689  1.00  0.00     0.167 HD
HETATM    7  C17 UNL     1      -0.910  51.952 -20.964  1.00  0.00     0.047 A 
HETATM    8  C18 UNL     1      -0.743  52.210 -19.607  1.00  0.00     0.030 A 
HETATM    9  C19 UNL     1       0.385  52.868 -19.113  1.00  0.00     0.002 A 
HETATM   10  C20 UNL     1       1.383  53.277 -19.987  1.00  0.00     0.001 A 
HETATM   11  C21 UNL     1       1.239  53.029 -21.351  1.00  0.00     0.017 A 
HETATM   12  C22 UNL     1       0.086  52.374 -21.857  1.00  0.00     0.035 A 
ENDROOT
BRANCH   4  13
HETATM   13  C8  UNL     1      -3.346  50.349 -23.076  1.00  0.00     0.049 C 
HETATM   14  C9  UNL     1      -3.386  49.433 -24.056  1.00  0.00     0.016 C 
BRANCH  14  15
HETATM   15  C10 UNL     1      -4.623  48.734 -24.434  1.00  0.00    -0.016 A 
HETATM   16  C11 UNL     1      -5.521  48.358 -23.419  1.00  0.00     0.052 A 
HETATM   17  C12 UNL     1      -6.672  47.686 -23.775  1.00  0.00     0.105 A 
HETATM   18  C13 UNL     1      -6.958  47.382 -25.085  1.00  0.00     0.106 A 
HETATM   19  O3  UNL     1      -7.636  47.254 -22.919  1.00  0.00    -0.323 OA
HETATM   20  C14 UNL     1      -6.105  47.722 -26.113  1.00  0.00     0.059 A 
HETATM   21  O2  UNL     1      -8.139  46.721 -25.216  1.00  0.00    -0.323 OA
HETATM   22  C15 UNL     1      -4.925  48.402 -25.780  1.00  0.00     0.024 A 
HETATM   23 BR1  UNL     1      -3.764  48.865 -27.215  1.00  0.00    -0.050 Br
HETATM   24  C16 UNL     1      -8.564  46.641 -23.839  1.00  0.00     0.352 A 
ENDBRANCH  14  15
ENDBRANCH   4  13
BRANCH   1  25
HETATM   25  N1  UNL     1       0.780  52.527 -24.190  1.00  0.00    -0.342 N 
HETATM   26  H5  UNL     1       1.166  53.414 -23.884  1.00  0.00     0.167 HD
BRANCH  25  27
HETATM   27  C5  UNL     1       0.668  52.470 -25.600  1.00  0.00     0.036 A 
HETATM   28  C4  UNL     1       1.571  51.758 -26.400  1.00  0.00     0.029 A 
HETATM   29  C3  UNL     1       1.472  51.774 -27.796  1.00  0.00     0.005 A 
HETATM   30  C2  UNL     1       0.476  52.526 -28.413  1.00  0.00     0.036 A 
HETATM   31  C1  UNL     1      -0.398  53.269 -27.632  1.00  0.00     0.067 A 
HETATM   32  C23 UNL     1      -0.304  53.258 -26.240  1.00  0.00     0.066 A 
BRANCH  31  33
HETATM   33  O1  UNL     1      -1.349  54.010 -28.275  1.00  0.00    -0.361 OA
HETATM   34  H1  UNL     1      -1.883  54.475 -27.613  1.00  0.00     0.217 HD
ENDBRANCH  31  33
ENDBRANCH  25  27
ENDBRANCH   1  25
TORSDOF 5
ENDMDL
