MODEL 1
REMARK minimizedAffinity -9.9673233
REMARK CNNscore 0.524324894
REMARK CNNaffinity 7.27368307
REMARK  9 active torsions:
REMARK  status: ('A' for Active; 'I' for Inactive)
REMARK    1  A    between atoms: C3_5  and  C4_6 
REMARK    2  A    between atoms: C13_19  and  N3_20 
REMARK    3  A    between atoms: N3_20  and  C14_21 
REMARK    4  A    between atoms: C18_25  and  P1_26 
REMARK    5  A    between atoms: P1_26  and  O3_28 
REMARK    6  A    between atoms: P1_26  and  C19_29 
REMARK    7  A    between atoms: C19_29  and  P2_30 
REMARK    8  A    between atoms: P2_30  and  O5_32 
REMARK    9  A    between atoms: P2_30  and  O6_33 
ROOT
HETATM    1  C1  UNL     1      -1.315  49.887 -20.810  1.00  0.00     0.161 C 
HETATM    2  N1  UNL     1      -0.733  50.911 -21.659  1.00  0.00    -0.303 N 
HETATM    3  C2  UNL     1      -0.894  50.840 -23.034  1.00  0.00     0.260 A 
HETATM    4  O1  UNL     1      -1.514  49.943 -23.602  1.00  0.00    -0.267 OA
HETATM    5  C3  UNL     1      -0.264  51.932 -23.853  1.00  0.00     0.047 A 
HETATM    6  C10 UNL     1       0.416  52.926 -23.263  1.00  0.00     0.034 A 
HETATM    7  C11 UNL     1       0.547  52.943 -21.816  1.00  0.00     0.026 A 
HETATM    8  C12 UNL     1       1.226  53.921 -21.129  1.00  0.00     0.121 A 
HETATM    9  N2  UNL     1       1.352  53.943 -19.790  1.00  0.00    -0.201 N 
ATOM     10  H2  UNL     1       1.865  54.687 -19.318  1.00  0.00     0.183 HD
HETATM   11  C13 UNL     1       0.777  52.949 -19.099  1.00  0.00     0.684 A 
HETATM   12  N4  UNL     1       0.093  51.952 -19.682  1.00  0.00    -0.175 N 
ATOM     13  H4  UNL     1      -0.332  51.211 -19.124  1.00  0.00     0.186 HD
HETATM   14  C21 UNL     1      -0.015  51.958 -21.028  1.00  0.00     0.137 A 
ENDROOT
BRANCH  11  15
HETATM   15  N3  UNL     1       0.849  52.873 -17.711  1.00  0.00    -0.192 N 
HETATM   16  H9  UNL     1      -0.027  53.189 -17.324  1.00  0.00     0.184 HD
BRANCH  15  17
HETATM   17  C14 UNL     1       1.835  52.464 -16.809  1.00  0.00     0.050 A 
HETATM   18  C15 UNL     1       3.168  52.882 -16.863  1.00  0.00     0.030 A 
HETATM   19  C16 UNL     1       4.108  52.430 -15.932  1.00  0.00     0.003 A 
HETATM   20  C17 UNL     1       3.730  51.548 -14.925  1.00  0.00     0.017 A 
HETATM   21  C18 UNL     1       2.407  51.110 -14.837  1.00  0.00     0.025 A 
HETATM   22  C20 UNL     1       1.476  51.574 -15.782  1.00  0.00     0.047 A 
BRANCH  21  23
HETATM   23  P1  UNL     1       1.920  50.000 -13.562  1.00  0.00     0.143 P 
HETATM   24  O2  UNL     1       0.452  49.691 -13.428  1.00  0.00    -0.670 OA
BRANCH  23  25
HETATM   25  O3  UNL     1       2.443  50.686 -12.196  1.00  0.00    -0.345 OA
HETATM   26  H13 UNL     1       1.901  51.450 -11.916  1.00  0.00     0.218 HD
ENDBRANCH  23  25
BRANCH  23  27
HETATM   27  C19 UNL     1       2.854  48.476 -13.647  1.00  0.00     0.223 C 
BRANCH  27  28
HETATM   28  P2  UNL     1       2.015  47.001 -14.181  1.00  0.00     0.245 P 
HETATM   29  O4  UNL     1       1.283  46.257 -13.113  1.00  0.00    -0.653 OA
BRANCH  28  30
HETATM   30  O5  UNL     1       1.054  47.429 -15.386  1.00  0.00    -0.329 OA
HETATM   31  H16 UNL     1       0.481  46.684 -15.654  1.00  0.00     0.220 HD
ENDBRANCH  28  30
BRANCH  28  32
HETATM   32  O6  UNL     1       3.093  46.113 -14.967  1.00  0.00    -0.329 OA
HETATM   33  H17 UNL     1       3.815  46.619 -15.418  1.00  0.00     0.220 HD
ENDBRANCH  28  32
ENDBRANCH  27  28
ENDBRANCH  23  27
ENDBRANCH  21  23
ENDBRANCH  15  17
ENDBRANCH  11  15
BRANCH   5  34
HETATM   34  C4  UNL     1      -0.400  51.907 -25.323  1.00  0.00     0.023 A 
HETATM   35  C5  UNL     1      -1.630  52.201 -25.939  1.00  0.00     0.046 A 
HETATM   36 CL1  UNL     1      -3.049  52.572 -25.017  1.00  0.00    -0.083 Cl
HETATM   37  C6  UNL     1      -1.754  52.194 -27.333  1.00  0.00     0.025 A 
HETATM   38  C7  UNL     1      -0.654  51.894 -28.133  1.00  0.00     0.003 A 
HETATM   39  C8  UNL     1       0.573  51.600 -27.540  1.00  0.00     0.025 A 
HETATM   40  C9  UNL     1       0.701  51.606 -26.147  1.00  0.00     0.046 A 
HETATM   41 CL2  UNL     1       2.255  51.219 -25.490  1.00  0.00    -0.083 Cl
ENDBRANCH   5  34
TORSDOF 9
ENDMDL
