MODEL 1
REMARK minimizedAffinity -9.57571125
REMARK  4 active torsions:
REMARK  status: ('A' for Active; 'I' for Inactive)
REMARK    1  A    between atoms: O1_2  and  C2_3 
REMARK    2  A    between atoms: C6_7  and  N1_8 
REMARK    3  A    between atoms: N1_8  and  C7_9 
REMARK    4  A    between atoms: C10_16  and  C11_17 
ROOT
HETATM    1  C7  UNL     1       0.759  52.941 -19.109  1.00  0.00     0.697 A 
HETATM    2  N2  UNL     1       1.290  53.941 -19.835  1.00  0.00    -0.131 N 
ATOM      3  H2  UNL     1       1.775  54.706 -19.366  1.00  0.00     0.205 HD
HETATM    4  N3  UNL     1       1.183  53.938 -21.197  1.00  0.00    -0.284 N 
ATOM      5  H3  UNL     1       1.587  54.697 -21.746  1.00  0.00     0.187 HD
HETATM    6  C8  UNL     1       0.545  52.932 -21.802  1.00  0.00     0.077 A 
HETATM    7  C9  UNL     1       0.423  52.907 -23.188  1.00  0.00     0.045 A 
HETATM    8  C10 UNL     1      -0.240  51.867 -23.847  1.00  0.00    -0.020 A 
HETATM    9  C17 UNL     1      -0.783  50.838 -23.071  1.00  0.00     0.021 A 
HETATM   10  C18 UNL     1      -0.665  50.853 -21.670  1.00  0.00    -0.032 A 
HETATM   11  C19 UNL     1      -1.261  49.729 -20.866  1.00  0.00     0.050 C 
HETATM   12  C20 UNL     1       0.001  51.902 -21.022  1.00  0.00     0.083 A 
HETATM   13  N4  UNL     1       0.112  51.911 -19.679  1.00  0.00    -0.188 N 
ATOM     14  H4  UNL     1      -0.282  51.160 -19.113  1.00  0.00     0.184 HD
ENDROOT
BRANCH   1  15
HETATM   15  N1  UNL     1       0.835  52.891 -17.718  1.00  0.00    -0.190 N 
HETATM   16  H7  UNL     1      -0.015  53.274 -17.330  1.00  0.00     0.184 HD
BRANCH  15  17
HETATM   17  C6  UNL     1       1.795  52.424 -16.811  1.00  0.00     0.051 A 
HETATM   18  C5  UNL     1       3.105  52.919 -16.919  1.00  0.00     0.030 A 
HETATM   19  C4  UNL     1       4.114  52.496 -16.051  1.00  0.00     0.005 A 
HETATM   20  C3  UNL     1       3.824  51.566 -15.059  1.00  0.00     0.037 A 
HETATM   21  C2  UNL     1       2.534  51.055 -14.928  1.00  0.00     0.070 A 
HETATM   22  C21 UNL     1       1.530  51.484 -15.804  1.00  0.00     0.066 A 
BRANCH  21  23
HETATM   23  O1  UNL     1       2.382  50.148 -13.914  1.00  0.00    -0.356 OA
HETATM   24  C1  UNL     1       3.522  49.365 -13.576  1.00  0.00     0.210 C 
ENDBRANCH  21  23
ENDBRANCH  15  17
ENDBRANCH   1  15
BRANCH   8  25
HETATM   25  C11 UNL     1      -0.361  51.855 -25.314  1.00  0.00     0.018 A 
HETATM   26  C12 UNL     1      -1.594  52.112 -25.951  1.00  0.00     0.046 A 
HETATM   27 CL1  UNL     1      -3.029  52.465 -25.046  1.00  0.00    -0.083 Cl
HETATM   28  C13 UNL     1      -1.709  52.098 -27.346  1.00  0.00     0.025 A 
HETATM   29  C14 UNL     1      -0.597  51.827 -28.139  1.00  0.00     0.003 A 
HETATM   30  C15 UNL     1       0.631  51.572 -27.535  1.00  0.00     0.025 A 
HETATM   31  C16 UNL     1       0.748  51.585 -26.140  1.00  0.00     0.046 A 
HETATM   32 CL2  UNL     1       2.317  51.258 -25.479  1.00  0.00    -0.083 Cl
ENDBRANCH   8  25
TORSDOF 4
ENDMDL
