MODEL 1
REMARK minimizedAffinity -8.70098877
REMARK  8 active torsions:
REMARK  status: ('A' for Active; 'I' for Inactive)
REMARK    1  A    between atoms: O1_2  and  C2_3 
REMARK    2  A    between atoms: C5_6  and  N1_7 
REMARK    3  A    between atoms: N1_7  and  C6_8 
REMARK    4  A    between atoms: C17_24  and  O2_25 
REMARK    5  A    between atoms: O2_25  and  C18_26 
REMARK    6  A    between atoms: C18_26  and  C19_27 
REMARK    7  A    between atoms: C19_27  and  C20_28 
REMARK    8  A    between atoms: C20_28  and  N5_29 
ROOT
HETATM    1  C2  UNL     1      -1.922  50.563 -21.326  1.00  0.00     0.102 A 
HETATM    2  C3  UNL     1      -1.322  51.355 -20.344  1.00  0.00     0.057 A 
HETATM    3  C4  UNL     1      -0.313  52.300 -20.676  1.00  0.00     0.038 A 
HETATM    4  C5  UNL     1       0.350  53.145 -19.755  1.00  0.00     0.119 A 
HETATM    5  N3  UNL     1       1.254  54.057 -20.157  1.00  0.00    -0.338 N 
ATOM      6  H3  UNL     1       1.700  54.694 -19.497  1.00  0.00     0.168 HD
HETATM    7  C14 UNL     1       1.540  54.090 -21.464  1.00  0.00     0.182 A 
HETATM    8  N4  UNL     1       0.994  53.323 -22.410  1.00  0.00    -0.351 N 
ATOM      9  H4  UNL     1       1.269  53.405 -23.389  1.00  0.00     0.166 HD
HETATM   10  C15 UNL     1       0.072  52.444 -22.014  1.00  0.00     0.050 A 
HETATM   11  C16 UNL     1      -0.528  51.647 -22.980  1.00  0.00     0.070 A 
HETATM   12  C17 UNL     1      -1.515  50.706 -22.661  1.00  0.00     0.104 A 
ENDROOT
BRANCH   4  13
HETATM   13  N1  UNL     1       0.051  52.987 -18.372  1.00  0.00    -0.340 N 
HETATM   14  H5  UNL     1      -0.963  52.953 -18.287  1.00  0.00     0.167 HD
BRANCH  13  15
HETATM   15  C6  UNL     1       0.621  52.162 -17.364  1.00  0.00     0.061 A 
HETATM   16  C7  UNL     1      -0.190  51.122 -16.848  1.00  0.00     0.032 A 
HETATM   17  C8  UNL     1       0.225  50.277 -15.819  1.00  0.00     0.003 A 
HETATM   18  C9  UNL     1       1.473  50.452 -15.226  1.00  0.00     0.014 A 
HETATM   19  C10 UNL     1       2.300  51.498 -15.670  1.00  0.00    -0.006 A 
HETATM   20  C11 UNL     1       3.587  51.960 -15.270  1.00  0.00     0.030 A 
HETATM   21  C13 UNL     1       1.858  52.321 -16.713  1.00  0.00     0.069 A 
HETATM   22  C12 UNL     1       3.906  53.040 -16.058  1.00  0.00     0.089 A 
HETATM   23  N2  UNL     1       2.860  53.243 -16.915  1.00  0.00    -0.363 N 
HETATM   24  H11 UNL     1       2.811  53.943 -17.645  1.00  0.00     0.165 HD
ENDBRANCH  13  15
ENDBRANCH   4  13
BRANCH   1  25
HETATM   25  O1  UNL     1      -2.900  49.631 -21.088  1.00  0.00    -0.353 OA
HETATM   26  C1  UNL     1      -4.228  50.095 -20.888  1.00  0.00     0.210 C 
ENDBRANCH   1  25
BRANCH  12  27
HETATM   27  O2  UNL     1      -2.160  49.916 -23.579  1.00  0.00    -0.348 OA
BRANCH  27  28
HETATM   28  C18 UNL     1      -2.745  50.523 -24.733  1.00  0.00     0.177 C 
BRANCH  28  29
HETATM   29  C19 UNL     1      -2.371  49.750 -25.994  1.00  0.00     0.046 C 
BRANCH  29  30
HETATM   30  C20 UNL     1      -2.090  50.636 -27.214  1.00  0.00     0.119 C 
BRANCH  30  31
HETATM   31  N5  UNL     1      -0.831  51.367 -27.275  1.00  0.00    -0.408 N 
HETATM   32  C21 UNL     1      -0.889  52.830 -27.193  1.00  0.00     0.143 C 
HETATM   33  C22 UNL     1       0.046  53.418 -26.118  1.00  0.00     0.187 C 
HETATM   34  O3  UNL     1       1.409  53.001 -26.256  1.00  0.00    -0.388 OA
HETATM   35  C23 UNL     1       1.549  51.649 -26.720  1.00  0.00     0.187 C 
HETATM   36  C24 UNL     1       0.287  50.789 -26.525  1.00  0.00     0.143 C 
ENDBRANCH  30  31
ENDBRANCH  29  30
ENDBRANCH  28  29
ENDBRANCH  27  28
ENDBRANCH  12  27
TORSDOF 8
ENDMDL
