MODEL 1
REMARK minimizedAffinity -8.9493084
REMARK  10 active torsions:
REMARK  status: ('A' for Active; 'I' for Inactive)
REMARK    1  A    between atoms: N1_2  and  C3_4 
REMARK    2  A    between atoms: C3_4  and  C4_5 
REMARK    3  A    between atoms: C4_5  and  C5_6 
REMARK    4  A    between atoms: C5_6  and  C6_7 
REMARK    5  A    between atoms: C7_8  and  C8_9 
REMARK    6  A    between atoms: C14_17  and  S1_18 
REMARK    7  A    between atoms: S1_18  and  N3_21 
REMARK    8  A    between atoms: N3_21  and  C15_22 
REMARK    9  A    between atoms: C15_22  and  C16_23 
REMARK   10  A    between atoms: C16_23  and  O4_24 
ROOT
HETATM    1  C8  UNL     1      -2.110   4.916  12.297  1.00  0.00     0.048 C 
HETATM    2  C9  UNL     1      -2.568   3.710  11.919  1.00  0.00     0.047 A 
HETATM    3  C10 UNL     1      -1.851   2.513  11.339  1.00  0.00     0.257 A 
HETATM    4  O1  UNL     1      -0.670   2.387  11.077  1.00  0.00    -0.267 OA
HETATM    5  N2  UNL     1      -2.830   1.551  11.146  1.00  0.00    -0.322 N 
HETATM    6  C11 UNL     1      -4.081   2.015  11.526  1.00  0.00     0.046 A 
HETATM    7  C12 UNL     1      -5.271   1.317  11.450  1.00  0.00     0.032 A 
HETATM    8  C13 UNL     1      -6.427   1.977  11.869  1.00  0.00     0.027 A 
HETATM    9  C14 UNL     1      -6.354   3.304  12.344  1.00  0.00     0.080 A 
HETATM   10  C17 UNL     1      -5.132   3.988  12.436  1.00  0.00     0.040 A 
HETATM   11  C18 UNL     1      -3.992   3.326  12.010  1.00  0.00     0.008 A 
HETATM   12  H14 UNL     1      -2.625   0.640  10.765  1.00  0.00     0.169 HD
ENDROOT
BRANCH   1  13
HETATM   13  C7  UNL     1      -0.787   5.442  12.251  1.00  0.00     0.040 A 
HETATM   14  C6  UNL     1      -0.090   6.238  13.167  1.00  0.00    -0.023 A 
HETATM   15  C20 UNL     1       1.192   6.510  12.599  1.00  0.00    -0.027 A 
HETATM   16  C19 UNL     1       1.238   5.872  11.383  1.00  0.00     0.016 A 
HETATM   17  C21 UNL     1       2.349   7.291  13.131  1.00  0.00     0.041 C 
HETATM   18  N4  UNL     1       0.053   5.226  11.184  1.00  0.00    -0.359 N 
HETATM   19  C24 UNL     1       2.367   5.889  10.414  1.00  0.00     0.057 C 
HETATM   20  H24 UNL     1      -0.163   4.667  10.365  1.00  0.00     0.166 HD
HETATM   21  C23 UNL     1       3.644   6.387  11.115  1.00  0.00     0.006 C 
HETATM   22  C22 UNL     1       3.371   7.604  12.019  1.00  0.00     0.005 C 
BRANCH  14  23
HETATM   23  C5  UNL     1      -0.582   6.732  14.497  1.00  0.00     0.043 C 
BRANCH  23  24
HETATM   24  C4  UNL     1      -2.012   6.292  14.832  1.00  0.00     0.035 C 
BRANCH  24  25
HETATM   25  C3  UNL     1      -2.839   7.412  15.481  1.00  0.00     0.271 C 
BRANCH  25  26
HETATM   26  N1  UNL     1      -4.056   7.829  14.767  1.00  0.00     0.080 N 
HETATM   27  C1  UNL     1      -3.828   8.031  13.339  1.00  0.00     0.309 C 
HETATM   28  C2  UNL     1      -4.711   8.985  15.367  1.00  0.00     0.309 C 
ENDBRANCH  25  26
ENDBRANCH  24  25
ENDBRANCH  23  24
ENDBRANCH  14  23
ENDBRANCH   1  13
BRANCH   9  29
HETATM   29  S1  UNL     1      -7.853   4.105  12.867  1.00  0.00     0.258 S 
HETATM   30  O2  UNL     1      -7.902   5.405  12.239  1.00  0.00    -0.201 OA
HETATM   31  O3  UNL     1      -8.941   3.158  12.760  1.00  0.00    -0.201 OA
BRANCH  29  32
HETATM   32  N3  UNL     1      -7.561   4.366  14.485  1.00  0.00    -0.313 N 
HETATM   33  H17 UNL     1      -7.297   3.567  15.060  1.00  0.00     0.172 HD
BRANCH  32  34
HETATM   34  C15 UNL     1      -7.731   5.690  15.088  1.00  0.00     0.158 C 
BRANCH  34  35
HETATM   35  C16 UNL     1      -6.778   5.848  16.273  1.00  0.00     0.184 C 
BRANCH  35  36
HETATM   36  O4  UNL     1      -7.159   6.969  17.070  1.00  0.00    -0.399 OA
HETATM   37  H22 UNL     1      -7.947   6.693  17.572  1.00  0.00     0.209 HD
ENDBRANCH  35  36
ENDBRANCH  34  35
ENDBRANCH  32  34
ENDBRANCH  29  32
ENDBRANCH   9  29
TORSDOF 10
ENDMDL
