MODEL 1
REMARK minimizedAffinity -7.68894768
REMARK  4 active torsions:
REMARK  status: ('A' for Active; 'I' for Inactive)
REMARK    1  A    between atoms: O1_1  and  C1_2 
REMARK    2  A    between atoms: C4_5  and  N1_6 
REMARK    3  A    between atoms: C8_17  and  N6_18 
REMARK    4  A    between atoms: N6_18  and  C9_19 
ROOT
HETATM    1  N1  UNL     1      12.006  35.725  18.452  1.00  0.00    -0.341 N 
HETATM    2  C5  UNL     1      12.643  35.824  17.256  1.00  0.00     0.138 A 
HETATM    3  N2  UNL     1      12.047  36.355  16.135  1.00  0.00    -0.283 N 
HETATM    4  N3  UNL     1      12.863  36.484  15.070  1.00  0.00    -0.283 N 
ATOM      5  H3  UNL     1      12.639  36.845  14.142  1.00  0.00     0.188 HD
HETATM    6  C6  UNL     1      14.035  36.028  15.519  1.00  0.00     0.139 A 
HETATM    7  N4  UNL     1      15.196  35.971  14.829  1.00  0.00    -0.337 N 
ATOM      8  H4  UNL     1      15.312  36.273  13.861  1.00  0.00     0.168 HD
HETATM    9  C7  UNL     1      16.185  35.457  15.601  1.00  0.00     0.183 A 
HETATM   10  N5  UNL     1      16.156  35.001  16.895  1.00  0.00    -0.338 N 
ATOM     11  H5  UNL     1      17.007  34.643  17.328  1.00  0.00     0.168 HD
HETATM   12  C8  UNL     1      14.989  35.027  17.603  1.00  0.00     0.124 A 
HETATM   13  C15 UNL     1      13.938  35.584  16.863  1.00  0.00     0.099 A 
HETATM   14  H4  UNL     1      12.533  35.937  19.300  1.00  0.00     0.167 HD
HETATM   15  H5  UNL     1      11.095  36.696  16.055  1.00  0.00     0.188 HD
ENDROOT
BRANCH   1  16
HETATM   16  C4  UNL     1      10.617  35.624  18.676  1.00  0.00     0.033 A 
HETATM   17  C3  UNL     1      10.159  35.010  19.850  1.00  0.00     0.032 A 
HETATM   18  C2  UNL     1       8.792  34.926  20.129  1.00  0.00     0.039 A 
HETATM   19  C1  UNL     1       7.874  35.458  19.235  1.00  0.00     0.065 A 
HETATM   20  C17 UNL     1       8.300  36.074  18.064  1.00  0.00     0.039 A 
HETATM   21  C16 UNL     1       9.670  36.158  17.791  1.00  0.00     0.032 A 
BRANCH  19  22
HETATM   22  O1  UNL     1       6.552  35.353  19.544  1.00  0.00    -0.361 OA
HETATM   23  H1  UNL     1       6.028  35.751  18.828  1.00  0.00     0.217 HD
ENDBRANCH  19  22
ENDBRANCH   1  16
BRANCH  12  24
HETATM   24  N6  UNL     1      14.844  34.498  18.891  1.00  0.00    -0.342 N 
HETATM   25  H7  UNL     1      14.774  33.487  18.867  1.00  0.00     0.167 HD
BRANCH  24  26
HETATM   26  C9  UNL     1      15.155  35.028  20.157  1.00  0.00     0.035 A 
HETATM   27  C10 UNL     1      16.462  35.277  20.590  1.00  0.00     0.029 A 
HETATM   28  C11 UNL     1      16.717  35.837  21.847  1.00  0.00     0.004 A 
HETATM   29  C12 UNL     1      15.662  36.171  22.690  1.00  0.00     0.024 A 
HETATM   30  C13 UNL     1      14.356  35.948  22.266  1.00  0.00     0.036 A 
HETATM   31 CL1  UNL     1      13.041  36.369  23.295  1.00  0.00    -0.084 Cl
HETATM   32  C14 UNL     1      14.101  35.389  21.013  1.00  0.00     0.053 A 
ENDBRANCH  24  26
ENDBRANCH  12  24
TORSDOF 4
ENDMDL
