MODEL 1
REMARK minimizedAffinity -8.38520718
REMARK  8 active torsions:
REMARK  status: ('A' for Active; 'I' for Inactive)
REMARK    1  A    between atoms: O1_2  and  C2_3 
REMARK    2  A    between atoms: C5_6  and  N1_7 
REMARK    3  A    between atoms: N1_7  and  C6_8 
REMARK    4  A    between atoms: C16_24  and  O4_25 
REMARK    5  A    between atoms: O4_25  and  C17_26 
REMARK    6  A    between atoms: C17_26  and  C18_27 
REMARK    7  A    between atoms: C18_27  and  C19_28 
REMARK    8  A    between atoms: C19_28  and  N4_29 
ROOT
HETATM    1  C2  UNL     1      -1.588  50.287 -21.374  1.00  0.00     0.102 A 
HETATM    2  C3  UNL     1      -1.056  51.019 -20.310  1.00  0.00     0.057 A 
HETATM    3  C4  UNL     1      -0.179  52.112 -20.539  1.00  0.00     0.038 A 
HETATM    4  C5  UNL     1       0.411  52.903 -19.531  1.00  0.00     0.119 A 
HETATM    5  N2  UNL     1       1.202  53.951 -19.821  1.00  0.00    -0.338 N 
ATOM      6  H2  UNL     1       1.611  54.531 -19.088  1.00  0.00     0.168 HD
HETATM    7  C13 UNL     1       1.425  54.198 -21.113  1.00  0.00     0.182 A 
HETATM    8  N3  UNL     1       0.940  53.501 -22.145  1.00  0.00    -0.351 N 
ATOM      9  H3  UNL     1       1.168  53.744 -23.110  1.00  0.00     0.166 HD
HETATM   10  C14 UNL     1       0.141  52.472 -21.853  1.00  0.00     0.050 A 
HETATM   11  C15 UNL     1      -0.389  51.730 -22.902  1.00  0.00     0.070 A 
HETATM   12  C16 UNL     1      -1.243  50.643 -22.687  1.00  0.00     0.104 A 
ENDROOT
BRANCH   4  13
HETATM   13  N1  UNL     1       0.181  52.559 -18.170  1.00  0.00    -0.342 N 
HETATM   14  H5  UNL     1      -0.654  51.983 -18.122  1.00  0.00     0.167 HD
BRANCH  13  15
HETATM   15  C6  UNL     1       1.129  52.168 -17.194  1.00  0.00     0.036 A 
HETATM   16  C7  UNL     1       2.388  52.795 -17.071  1.00  0.00     0.032 A 
HETATM   17  C8  UNL     1       3.288  52.444 -16.056  1.00  0.00     0.042 A 
HETATM   18  C9  UNL     1       2.894  51.479 -15.159  1.00  0.00     0.105 A 
HETATM   19  C10 UNL     1       1.661  50.883 -15.243  1.00  0.00     0.107 A 
HETATM   20  O3  UNL     1       3.626  51.017 -14.112  1.00  0.00    -0.323 OA
HETATM   21  C11 UNL     1       0.757  51.212 -16.233  1.00  0.00     0.069 A 
HETATM   22  O2  UNL     1       1.458  49.969 -14.255  1.00  0.00    -0.323 OA
HETATM   23  C12 UNL     1       2.712  50.054 -13.547  1.00  0.00     0.352 A 
ENDBRANCH  13  15
ENDBRANCH   4  13
BRANCH   1  24
HETATM   24  O1  UNL     1      -2.436  49.218 -21.236  1.00  0.00    -0.353 OA
HETATM   25  C1  UNL     1      -1.907  48.021 -20.683  1.00  0.00     0.210 C 
ENDBRANCH   1  24
BRANCH  12  26
HETATM   26  O4  UNL     1      -1.791  49.875 -23.682  1.00  0.00    -0.348 OA
BRANCH  26  27
HETATM   27  C17 UNL     1      -2.403  50.542 -24.786  1.00  0.00     0.177 C 
BRANCH  27  28
HETATM   28  C18 UNL     1      -1.873  49.926 -26.081  1.00  0.00     0.057 C 
BRANCH  28  29
HETATM   29  C19 UNL     1      -1.834  50.925 -27.247  1.00  0.00     0.274 C 
BRANCH  29  30
HETATM   30  N4  UNL     1      -0.493  51.484 -27.471  1.00  0.00     0.092 N 
HETATM   31  C20 UNL     1       0.497  50.827 -26.590  1.00  0.00     0.298 C 
HETATM   32  C21 UNL     1       1.775  51.668 -26.453  1.00  0.00     0.198 C 
HETATM   33  O5  UNL     1       1.543  52.932 -25.816  1.00  0.00    -0.388 OA
HETATM   34  C22 UNL     1       0.203  53.412 -25.994  1.00  0.00     0.198 C 
HETATM   35  C23 UNL     1      -0.435  52.954 -27.316  1.00  0.00     0.298 C 
ENDBRANCH  29  30
ENDBRANCH  28  29
ENDBRANCH  27  28
ENDBRANCH  26  27
ENDBRANCH  12  26
TORSDOF 8
ENDMDL
