MODEL 1
REMARK minimizedAffinity -7.38600349
REMARK  5 active torsions:
REMARK  status: ('A' for Active; 'I' for Inactive)
REMARK    1  A    between atoms: C2_2  and  N1_5 
REMARK    2  A    between atoms: C5_8  and  C6_9 
REMARK    3  A    between atoms: C10_15  and  O1_16 
REMARK    4  A    between atoms: O1_16  and  C11_17 
REMARK    5  A    between atoms: C18_24  and  C19_25 
REMARK       I    between atoms: C19_25  and  N4_26 
ROOT
HETATM    1  N1  UNL     1      16.715  35.887  13.888  1.00  0.00    -0.267 N 
HETATM    2  N2  UNL     1      15.621  35.344  14.469  1.00  0.00    -0.294 N 
ATOM      3  H2  UNL     1      15.174  34.458  14.235  1.00  0.00     0.187 HD
HETATM    4  C5  UNL     1      15.251  36.213  15.417  1.00  0.00     0.079 A 
HETATM    5  C18 UNL     1      16.152  37.315  15.490  1.00  0.00     0.105 A 
HETATM    6  C20 UNL     1      17.046  37.104  14.452  1.00  0.00     0.134 A 
HETATM    7  N5  UNL     1      18.080  37.886  14.051  1.00  0.00    -0.383 N 
HETATM    8  H22 UNL     1      18.106  38.836  14.436  1.00  0.00     0.157 HD
HETATM    9  H23 UNL     1      18.413  37.878  13.093  1.00  0.00     0.157 HD
ENDROOT
BRANCH   4  10
HETATM   10  C6  UNL     1      14.045  35.950  16.192  1.00  0.00     0.009 A 
HETATM   11  C7  UNL     1      12.807  36.396  15.753  1.00  0.00     0.102 A 
HETATM   12  N3  UNL     1      11.636  36.167  16.400  1.00  0.00    -0.364 N 
HETATM   13  C8  UNL     1      11.680  35.490  17.560  1.00  0.00     0.045 A 
ATOM     14  H3  UNL     1      10.751  36.497  16.017  1.00  0.00     0.165 HD
HETATM   15  C9  UNL     1      10.500  35.247  18.250  1.00  0.00     0.067 A 
HETATM   16  C16 UNL     1      12.892  35.014  18.108  1.00  0.00    -0.008 A 
HETATM   17  C10 UNL     1      10.494  34.557  19.464  1.00  0.00     0.071 A 
HETATM   18  C14 UNL     1      11.691  34.082  19.994  1.00  0.00     0.038 A 
HETATM   19  C15 UNL     1      12.890  34.312  19.322  1.00  0.00     0.016 A 
HETATM   20  C17 UNL     1      14.080  35.259  17.403  1.00  0.00     0.029 A 
BRANCH  17  21
HETATM   21  O1  UNL     1       9.369  34.267  20.196  1.00  0.00    -0.346 OA
BRANCH  21  22
HETATM   22  C11 UNL     1       8.239  35.138  20.002  1.00  0.00     0.129 A 
HETATM   23  C12 UNL     1       7.395  35.353  21.230  1.00  0.00     0.035 A 
HETATM   24  C13 UNL     1       6.877  34.507  20.105  1.00  0.00     0.035 A 
ENDBRANCH  21  22
ENDBRANCH  17  21
ENDBRANCH   4  10
BRANCH   5  25
HETATM   25  C19 UNL     1      16.193  38.459  16.385  1.00  0.00     0.255 C 
HETATM   26  N4  UNL     1      15.083  39.254  16.412  1.00  0.00    -0.366 N 
HETATM   27  H20 UNL     1      15.056  39.954  17.142  1.00  0.00     0.159 HD
HETATM   28  H21 UNL     1      14.202  38.954  16.019  1.00  0.00     0.159 HD
HETATM   29  O2  UNL     1      17.138  38.704  17.130  1.00  0.00    -0.268 OA
ENDBRANCH   5  25
BRANCH   1  30
HETATM   30  C2  UNL     1      17.371  35.153  12.785  1.00  0.00     0.044 C 
HETATM   31  C1  UNL     1      18.719  34.584  13.263  1.00  0.00     0.039 C 
HETATM   32  C3  UNL     1      16.467  34.022  12.253  1.00  0.00     0.039 C 
HETATM   33  C4  UNL     1      17.667  36.085  11.578  1.00  0.00     0.039 C 
ENDBRANCH   1  30
TORSDOF 5
ENDMDL
