MODEL 1
REMARK minimizedAffinity -9.48528957
REMARK  7 active torsions:
REMARK  status: ('A' for Active; 'I' for Inactive)
REMARK    1  A    between atoms: C2_2  and  S1_3 
REMARK    2  A    between atoms: S1_3  and  C3_6 
REMARK    3  A    between atoms: C10_13  and  C11_14 
REMARK    4  A    between atoms: C14_18  and  C15_19 
REMARK    5  A    between atoms: C15_19  and  C16_20 
REMARK    6  A    between atoms: C16_20  and  C17_21 
REMARK    7  A    between atoms: C17_21  and  N2_22 
ROOT
HETATM    1  C11 UNL     1      -0.857   5.637  11.999  1.00  0.00     0.040 A 
HETATM    2  N1  UNL     1      -0.304   5.609  10.741  1.00  0.00    -0.359 N 
HETATM    3  C12 UNL     1       0.965   6.107  10.793  1.00  0.00     0.016 A 
HETATM    4  C13 UNL     1       1.237   6.468  12.096  1.00  0.00    -0.027 A 
HETATM    5  C14 UNL     1       0.079   6.175  12.874  1.00  0.00    -0.023 A 
HETATM    6  C23 UNL     1       2.564   7.016  12.510  1.00  0.00     0.041 C 
HETATM    7  C24 UNL     1       3.383   7.477  11.288  1.00  0.00     0.005 C 
HETATM    8  C25 UNL     1       3.322   6.463  10.130  1.00  0.00     0.006 C 
HETATM    9  C26 UNL     1       1.884   6.237   9.632  1.00  0.00     0.057 C 
HETATM   10  H10 UNL     1      -0.758   5.250   9.911  1.00  0.00     0.166 HD
ENDROOT
BRANCH   1  11
HETATM   11  C10 UNL     1      -2.189   5.185  12.140  1.00  0.00     0.048 C 
HETATM   12  C9  UNL     1      -2.599   3.956  11.795  1.00  0.00     0.047 A 
HETATM   13  C7  UNL     1      -3.966   3.454  11.985  1.00  0.00     0.008 A 
HETATM   14  C27 UNL     1      -1.810   2.841  11.146  1.00  0.00     0.257 A 
HETATM   15  C6  UNL     1      -3.977   2.147  11.484  1.00  0.00     0.046 A 
HETATM   16  C8  UNL     1      -5.112   4.006  12.530  1.00  0.00     0.038 A 
HETATM   17  C5  UNL     1      -5.107   1.354  11.488  1.00  0.00     0.032 A 
HETATM   18  N4  UNL     1      -2.720   1.802  11.002  1.00  0.00    -0.322 N 
HETATM   19  C4  UNL     1      -6.274   1.900  12.031  1.00  0.00     0.026 A 
HETATM   20  C3  UNL     1      -6.265   3.207  12.559  1.00  0.00     0.060 A 
HETATM   21  H36 UNL     1      -2.464   0.921  10.581  1.00  0.00     0.169 HD
HETATM   22  O3  UNL     1      -0.647   2.817  10.798  1.00  0.00    -0.267 OA
BRANCH  20  23
HETATM   23  S1  UNL     1      -7.769   3.881  13.235  1.00  0.00     0.175 S 
HETATM   24  O1  UNL     1      -7.609   3.916  14.676  1.00  0.00    -0.223 OA
HETATM   25  O2  UNL     1      -8.870   3.164  12.622  1.00  0.00    -0.223 OA
BRANCH  23  26
HETATM   26  C2  UNL     1      -7.770   5.555  12.619  1.00  0.00     0.141 C 
HETATM   27  C1  UNL     1      -8.925   5.797  11.669  1.00  0.00     0.021 C 
ENDBRANCH  23  26
ENDBRANCH  20  23
ENDBRANCH   1  11
BRANCH   5  28
HETATM   28  C15 UNL     1      -0.078   6.394  14.348  1.00  0.00     0.043 C 
BRANCH  28  29
HETATM   29  C16 UNL     1      -1.532   6.338  14.830  1.00  0.00     0.035 C 
BRANCH  29  30
HETATM   30  C17 UNL     1      -1.918   7.553  15.686  1.00  0.00     0.273 C 
BRANCH  30  31
HETATM   31  N2  UNL     1      -3.371   7.675  15.871  1.00  0.00     0.091 N 
HETATM   32  C18 UNL     1      -3.893   8.995  15.451  1.00  0.00     0.302 C 
HETATM   33  C19 UNL     1      -5.382   9.011  15.006  1.00  0.00     0.302 C 
HETATM   34  N3  UNL     1      -6.184   7.992  15.692  1.00  0.00     0.087 N 
HETATM   35  C20 UNL     1      -7.595   8.069  15.341  1.00  0.00     0.310 C 
HETATM   36  C21 UNL     1      -5.631   6.646  15.450  1.00  0.00     0.302 C 
HETATM   37  C22 UNL     1      -4.100   6.598  15.189  1.00  0.00     0.302 C 
ENDBRANCH  30  31
ENDBRANCH  29  30
ENDBRANCH  28  29
ENDBRANCH   5  28
TORSDOF 7
ENDMDL
