MODEL 1
REMARK minimizedAffinity -6.39324284
REMARK CNNscore 0.470921814
REMARK CNNaffinity 6.01446915
REMARK  3 active torsions:
REMARK  status: ('A' for Active; 'I' for Inactive)
REMARK    1  A    between atoms: N2_11  and  C8_12 
REMARK    2  A    between atoms: C11_15  and  O2_16 
REMARK    3  A    between atoms: C14_19  and  C15_20 
ROOT
HETATM    1  C1  UNL     1       3.717  57.915  -4.804  1.00  0.00     0.015 C 
HETATM    2  C2  UNL     1       2.973  57.324  -6.016  1.00  0.00    -0.036 C 
HETATM    3  C3  UNL     1       2.833  58.435  -7.077  1.00  0.00     0.015 C 
HETATM    4  C4  UNL     1       1.566  56.848  -5.556  1.00  0.00     0.093 C 
HETATM    5  C5  UNL     1       0.792  56.055  -6.611  1.00  0.00     0.164 C 
HETATM    6  O1  UNL     1      -0.436  56.047  -6.623  1.00  0.00    -0.292 OA
HETATM    7  C6  UNL     1       1.600  55.272  -7.526  1.00  0.00     0.063 A 
HETATM    8  C7  UNL     1       3.000  55.314  -7.523  1.00  0.00     0.043 A 
HETATM    9  N1  UNL     1       3.535  54.565  -8.478  1.00  0.00    -0.296 N 
ATOM     10  H1  UNL     1       4.524  54.467  -8.709  1.00  0.00     0.187 HD
HETATM   11  N2  UNL     1       2.473  53.951  -9.086  1.00  0.00    -0.255 N 
HETATM   12  C14 UNL     1       1.255  54.436  -8.578  1.00  0.00     0.083 A 
HETATM   13  C21 UNL     1       3.809  56.138  -6.583  1.00  0.00     0.069 C 
ENDROOT
BRANCH  11  14
HETATM   14  C8  UNL     1       2.740  52.957 -10.082  1.00  0.00     0.057 A 
HETATM   15  C9  UNL     1       2.154  52.984 -11.352  1.00  0.00     0.034 A 
HETATM   16  C10 UNL     1       2.450  51.987 -12.288  1.00  0.00     0.039 A 
HETATM   17  C11 UNL     1       3.319  50.956 -11.957  1.00  0.00     0.065 A 
HETATM   18  C12 UNL     1       3.897  50.896 -10.695  1.00  0.00     0.039 A 
HETATM   19  C13 UNL     1       3.602  51.891  -9.758  1.00  0.00     0.034 A 
BRANCH  17  20
HETATM   20  O2  UNL     1       3.574  50.010 -12.903  1.00  0.00    -0.361 OA
HETATM   21  H11 UNL     1       4.195  49.361 -12.533  1.00  0.00     0.217 HD
ENDBRANCH  17  20
ENDBRANCH  11  14
BRANCH  12  22
HETATM   22  C15 UNL     1      -0.076  54.187  -9.128  1.00  0.00    -0.005 A 
HETATM   23  C16 UNL     1      -0.700  55.144  -9.938  1.00  0.00     0.015 A 
HETATM   24  C17 UNL     1      -1.965  54.896 -10.477  1.00  0.00     0.026 A 
HETATM   25  C18 UNL     1      -2.614  53.686 -10.218  1.00  0.00     0.055 A 
HETATM   26 CL1  UNL     1      -4.178  53.449 -10.913  1.00  0.00    -0.083 Cl
HETATM   27  C19 UNL     1      -1.992  52.720  -9.420  1.00  0.00     0.056 A 
HETATM   28 CL2  UNL     1      -2.732  51.201  -9.059  1.00  0.00    -0.083 Cl
HETATM   29  C20 UNL     1      -0.725  52.969  -8.881  1.00  0.00     0.039 A 
ENDBRANCH  12  22
TORSDOF 3
ENDMDL
