MODEL 1
REMARK minimizedAffinity -8.8319397
REMARK  8 active torsions:
REMARK  status: ('A' for Active; 'I' for Inactive)
REMARK    1  A    between atoms: C2_2  and  S1_3 
REMARK    2  A    between atoms: S1_3  and  C3_6 
REMARK    3  A    between atoms: C3_6  and  C4_7 
REMARK    4  A    between atoms: C11_14  and  C12_15 
REMARK    5  A    between atoms: C15_19  and  C16_20 
REMARK    6  A    between atoms: C16_20  and  C17_21 
REMARK    7  A    between atoms: C17_21  and  C18_22 
REMARK    8  A    between atoms: C18_22  and  N2_23 
ROOT
HETATM    1  C4  UNL     1       2.432   7.087  12.155  1.00  0.00    -0.043 A 
HETATM    2  C5  UNL     1       2.794   7.476  13.465  1.00  0.00     0.010 A 
HETATM    3  C6  UNL     1       1.954   7.229  14.551  1.00  0.00     0.031 A 
HETATM    4  C7  UNL     1       0.760   6.586  14.298  1.00  0.00     0.046 A 
HETATM    5  C8  UNL     1       0.378   6.178  13.020  1.00  0.00     0.007 A 
HETATM    6  C9  UNL     1       1.207   6.427  11.936  1.00  0.00     0.022 A 
HETATM    7  C10 UNL     1      -0.941   5.527  13.164  1.00  0.00     0.047 A 
HETATM    8  C11 UNL     1      -1.601   4.983  12.129  1.00  0.00     0.048 C 
HETATM    9  C25 UNL     1      -1.292   5.620  14.631  1.00  0.00     0.257 A 
HETATM   10  O3  UNL     1      -2.299   5.238  15.197  1.00  0.00    -0.267 OA
HETATM   11  N3  UNL     1      -0.217   6.256  15.229  1.00  0.00    -0.322 N 
HETATM   12  H33 UNL     1      -0.182   6.453  16.216  1.00  0.00     0.169 HD
ENDROOT
BRANCH   8  13
HETATM   13  C12 UNL     1      -2.863   4.324  12.097  1.00  0.00     0.040 A 
HETATM   14  N1  UNL     1      -2.995   3.004  11.725  1.00  0.00    -0.359 N 
HETATM   15  C13 UNL     1      -4.303   2.625  11.809  1.00  0.00     0.016 A 
HETATM   16  H12 UNL     1      -2.238   2.395  11.429  1.00  0.00     0.166 HD
HETATM   17  C14 UNL     1      -5.044   3.702  12.237  1.00  0.00    -0.027 A 
HETATM   18  C24 UNL     1      -4.815   1.261  11.511  1.00  0.00     0.057 C 
HETATM   19  C15 UNL     1      -4.143   4.792  12.407  1.00  0.00    -0.023 A 
HETATM   20  C21 UNL     1      -6.523   3.628  12.424  1.00  0.00     0.041 C 
HETATM   21  C22 UNL     1      -7.004   2.165  12.477  1.00  0.00     0.005 C 
HETATM   22  C23 UNL     1      -6.350   1.298  11.384  1.00  0.00     0.006 C 
BRANCH  19  23
HETATM   23  C16 UNL     1      -4.520   6.177  12.839  1.00  0.00     0.043 C 
BRANCH  23  24
HETATM   24  C17 UNL     1      -5.310   6.182  14.151  1.00  0.00     0.035 C 
BRANCH  24  25
HETATM   25  C18 UNL     1      -6.673   6.858  13.959  1.00  0.00     0.271 C 
BRANCH  25  26
HETATM   26  N2  UNL     1      -6.894   7.993  14.872  1.00  0.00     0.080 N 
HETATM   27  C19 UNL     1      -5.619   8.417  15.460  1.00  0.00     0.309 C 
HETATM   28  C20 UNL     1      -7.847   7.674  15.936  1.00  0.00     0.309 C 
ENDBRANCH  25  26
ENDBRANCH  24  25
ENDBRANCH  23  24
ENDBRANCH  19  23
ENDBRANCH   8  13
BRANCH   1  29
HETATM   29  C3  UNL     1       3.357   7.378  10.998  1.00  0.00     0.178 C 
BRANCH  29  30
HETATM   30  S1  UNL     1       2.867   6.403   9.577  1.00  0.00     0.148 S 
HETATM   31  O1  UNL     1       1.504   5.945   9.788  1.00  0.00    -0.228 OA
HETATM   32  O2  UNL     1       3.927   5.464   9.258  1.00  0.00    -0.228 OA
BRANCH  30  33
HETATM   33  C2  UNL     1       2.792   7.600   8.255  1.00  0.00     0.136 C 
HETATM   34  C1  UNL     1       2.012   7.124   7.046  1.00  0.00     0.021 C 
ENDBRANCH  30  33
ENDBRANCH  29  30
ENDBRANCH   1  29
TORSDOF 8
ENDMDL
