MODEL 1
REMARK minimizedAffinity -8.90745926
REMARK CNNscore 0.140155092
REMARK CNNaffinity 7.13365316
REMARK  16 active torsions:
REMARK  status: ('A' for Active; 'I' for Inactive)
REMARK    1  A    between atoms: C1_2  and  C2_3 
REMARK       I    between atoms: C1_2  and  N1_10 
REMARK    2  A    between atoms: C2_3  and  C3_4 
REMARK    3  A    between atoms: N1_10  and  C9_11 
REMARK    4  A    between atoms: C9_11  and  C10_12 
REMARK    5  A    between atoms: C9_11  and  C17_24 
REMARK    6  A    between atoms: C10_12  and  C11_13 
REMARK    7  A    between atoms: C14_16  and  O2_17 
REMARK    8  A    between atoms: O2_17  and  P1_18 
REMARK    9  A    between atoms: P1_18  and  O4_20 
REMARK   10  A    between atoms: P1_18  and  O5_21 
REMARK       I    between atoms: C17_24  and  N2_26 
REMARK   11  A    between atoms: N2_26  and  C18_27 
REMARK   12  A    between atoms: C18_27  and  C19_28 
REMARK   13  A    between atoms: C18_27  and  C20_30 
REMARK   14  A    between atoms: C19_28  and  O7_29 
REMARK   15  A    between atoms: C21_33  and  C22_34 
REMARK   16  A    between atoms: C22_34  and  C23_35 
ROOT
HETATM    1  C9  UNL     1      -2.093   8.164  13.522  1.00  0.00     0.180 C 
ENDROOT
BRANCH   1   2
HETATM    2  N1  UNL     1      -1.768   8.392  14.930  1.00  0.00    -0.347 N 
HETATM    3  C1  UNL     1      -2.373   9.377  15.673  1.00  0.00     0.222 C 
HETATM    4  O1  UNL     1      -3.155  10.188  15.186  1.00  0.00    -0.273 OA
HETATM    5  H8  UNL     1      -1.154   7.715  15.371  1.00  0.00     0.163 HD
BRANCH   3   6
HETATM    6  C2  UNL     1      -1.989   9.381  17.143  1.00  0.00     0.141 C 
BRANCH   6   7
HETATM    7  C3  UNL     1      -2.320  10.690  17.814  1.00  0.00    -0.050 A 
HETATM    8  C4  UNL     1      -1.393  11.744  17.812  1.00  0.00     0.007 A 
HETATM    9  C5  UNL     1      -1.707  12.963  18.415  1.00  0.00     0.001 A 
HETATM   10  C6  UNL     1      -2.952  13.144  19.018  1.00  0.00     0.000 A 
HETATM   11  C7  UNL     1      -3.883  12.106  19.019  1.00  0.00     0.001 A 
HETATM   12  C8  UNL     1      -3.572  10.886  18.418  1.00  0.00     0.007 A 
ENDBRANCH   6   7
ENDBRANCH   3   6
ENDBRANCH   1   2
BRANCH   1  13
HETATM   13  C10 UNL     1      -1.361   9.164  12.605  1.00  0.00     0.073 C 
BRANCH  13  14
HETATM   14  C11 UNL     1      -0.218   8.572  11.810  1.00  0.00    -0.056 A 
HETATM   15  C12 UNL     1      -0.441   8.070  10.520  1.00  0.00     0.010 A 
HETATM   16  C13 UNL     1       0.611   7.535   9.769  1.00  0.00     0.038 A 
HETATM   17  C14 UNL     1       1.894   7.507  10.301  1.00  0.00     0.081 A 
HETATM   18  C15 UNL     1       2.129   7.994  11.586  1.00  0.00     0.038 A 
HETATM   19  C16 UNL     1       1.075   8.502  12.348  1.00  0.00     0.010 A 
BRANCH  17  20
HETATM   20  O2  UNL     1       2.978   7.042   9.617  1.00  0.00    -0.255 OA
BRANCH  20  21
HETATM   21  P1  UNL     1       3.412   5.501   9.530  1.00  0.00     0.396 P 
HETATM   22  O3  UNL     1       3.454   4.898   8.167  1.00  0.00    -0.631 OA
BRANCH  21  23
HETATM   23  O4  UNL     1       4.818   5.377  10.279  1.00  0.00    -0.307 OA
HETATM   24  H14 UNL     1       5.555   5.611   9.678  1.00  0.00     0.222 HD
ENDBRANCH  21  23
BRANCH  21  25
HETATM   25  O5  UNL     1       2.444   4.688  10.517  1.00  0.00    -0.307 OA
HETATM   26  H15 UNL     1       2.559   3.731  10.370  1.00  0.00     0.222 HD
ENDBRANCH  21  25
ENDBRANCH  20  21
ENDBRANCH  17  20
ENDBRANCH  13  14
ENDBRANCH   1  13
BRANCH   1  27
HETATM   27  C17 UNL     1      -1.668   6.717  13.206  1.00  0.00     0.241 C 
HETATM   28  O6  UNL     1      -0.644   6.218  13.680  1.00  0.00    -0.271 OA
HETATM   29  N2  UNL     1      -2.501   6.020  12.367  1.00  0.00    -0.345 N 
HETATM   30  H18 UNL     1      -3.276   6.491  11.910  1.00  0.00     0.163 HD
BRANCH  29  31
HETATM   31  C18 UNL     1      -2.134   4.721  11.810  1.00  0.00     0.185 C 
BRANCH  31  32
HETATM   32  C19 UNL     1      -0.984   4.110  12.632  1.00  0.00     0.197 C 
BRANCH  32  33
HETATM   33  O7  UNL     1       0.157   3.819  11.815  1.00  0.00    -0.398 OA
HETATM   34  H22 UNL     1       0.465   4.671  11.445  1.00  0.00     0.209 HD
ENDBRANCH  32  33
ENDBRANCH  31  32
BRANCH  31  35
HETATM   35  C20 UNL     1      -3.335   3.828  11.847  1.00  0.00     0.173 A 
HETATM   36  N3  UNL     1      -4.596   4.129  12.090  1.00  0.00    -0.325 N 
HETATM   37  C21 UNL     1      -5.217   2.914  11.930  1.00  0.00     0.108 A 
ATOM     38  H3  UNL     1      -5.005   5.031  12.334  1.00  0.00     0.169 HD
HETATM   39  N4  UNL     1      -4.400   1.907  11.580  1.00  0.00    -0.247 N 
HETATM   40  O8  UNL     1      -3.142   2.511  11.541  1.00  0.00    -0.221 OA
ATOM     41  H4  UNL     1      -4.640   0.934  11.390  1.00  0.00     0.196 HD
BRANCH  37  42
HETATM   42  C22 UNL     1      -6.685   2.739  12.069  1.00  0.00     0.117 C 
BRANCH  42  43
HETATM   43  C23 UNL     1      -7.184   3.973  12.785  1.00  0.00    -0.049 A 
HETATM   44  C24 UNL     1      -8.037   4.880  12.140  1.00  0.00     0.009 A 
HETATM   45  C25 UNL     1      -8.478   6.030  12.799  1.00  0.00     0.026 A 
HETATM   46  C26 UNL     1      -8.079   6.286  14.113  1.00  0.00     0.055 A 
HETATM   47 CL1  UNL     1      -8.666   7.727  14.866  1.00  0.00    -0.083 Cl
HETATM   48  C27 UNL     1      -7.231   5.387  14.770  1.00  0.00     0.056 A 
HETATM   49 CL2  UNL     1      -6.699   5.632  16.396  1.00  0.00    -0.083 Cl
HETATM   50  C28 UNL     1      -6.786   4.239  14.106  1.00  0.00     0.033 A 
ENDBRANCH  42  43
ENDBRANCH  37  42
ENDBRANCH  31  35
ENDBRANCH  29  31
ENDBRANCH   1  27
TORSDOF 16
ENDMDL
