MODEL 1
REMARK minimizedAffinity -8.65364742
REMARK  6 active torsions:
REMARK  status: ('A' for Active; 'I' for Inactive)
REMARK    1  A    between atoms: C6_11  and  N4_12 
REMARK    2  A    between atoms: N4_12  and  C7_13 
REMARK    3  A    between atoms: C7_13  and  C8_14 
REMARK    4  A    between atoms: C8_14  and  N5_15 
REMARK    5  A    between atoms: C15_23  and  N6_24 
REMARK    6  A    between atoms: N6_24  and  C16_25 
ROOT
HETATM    1  N1  UNL     1      -0.830  49.957 -17.448  1.00  0.00    -0.191 NA
HETATM    2  C1  UNL     1      -0.431  50.749 -18.196  1.00  0.00     0.103 C 
HETATM    3  C2  UNL     1       0.073  51.698 -19.138  1.00  0.00     0.087 A 
HETATM    4  C3  UNL     1       0.670  52.856 -18.676  1.00  0.00     0.113 A 
HETATM    5  N2  UNL     1       1.166  53.820 -19.481  1.00  0.00    -0.363 N 
ATOM      6  H2  UNL     1       1.594  54.660 -19.090  1.00  0.00     0.165 HD
HETATM    7  C4  UNL     1       1.078  53.643 -20.815  1.00  0.00     0.060 A 
HETATM    8  C5  UNL     1       1.572  54.591 -21.694  1.00  0.00     0.119 A 
HETATM    9  N3  UNL     1       1.544  54.519 -23.051  1.00  0.00    -0.355 N 
ATOM     10  H3  UNL     1       1.931  55.265 -23.628  1.00  0.00     0.166 HD
HETATM   11  C6  UNL     1       0.987  53.430 -23.602  1.00  0.00     0.080 A 
HETATM   12  C13 UNL     1       0.472  52.410 -22.809  1.00  0.00     0.058 A 
HETATM   13  C14 UNL     1       0.495  52.507 -21.397  1.00  0.00     0.023 A 
HETATM   14  C15 UNL     1      -0.021  51.505 -20.525  1.00  0.00     0.067 A 
ENDROOT
BRANCH  14  15
HETATM   15  N6  UNL     1      -0.696  50.366 -21.058  1.00  0.00    -0.354 N 
HETATM   16  H17 UNL     1      -0.403  49.497 -20.608  1.00  0.00     0.166 HD
BRANCH  15  17
HETATM   17  C16 UNL     1      -2.077  50.292 -21.380  1.00  0.00     0.034 A 
HETATM   18  C17 UNL     1      -2.867  51.437 -21.192  1.00  0.00     0.032 A 
HETATM   19  C18 UNL     1      -4.244  51.408 -21.430  1.00  0.00     0.046 A 
HETATM   20  C19 UNL     1      -4.845  50.224 -21.841  1.00  0.00     0.138 A 
HETATM   21  F1  UNL     1      -6.168  50.214 -22.059  1.00  0.00    -0.204 F 
HETATM   22  C20 UNL     1      -4.084  49.071 -22.007  1.00  0.00     0.074 A 
HETATM   23 CL1  UNL     1      -4.824  47.595 -22.496  1.00  0.00    -0.081 Cl
HETATM   24  C21 UNL     1      -2.706  49.101 -21.771  1.00  0.00     0.056 A 
ENDBRANCH  15  17
ENDBRANCH  14  15
BRANCH  11  25
HETATM   25  N4  UNL     1       0.957  53.268 -24.995  1.00  0.00    -0.277 NA
HETATM   26  H3  UNL     1       1.643  53.890 -25.417  1.00  0.00     0.129 HD
BRANCH  25  27
HETATM   27  C7  UNL     1       1.125  51.881 -25.447  1.00  0.00     0.124 C 
BRANCH  27  28
HETATM   28  C8  UNL     1       1.431  51.856 -26.958  1.00  0.00     0.287 C 
BRANCH  28  29
HETATM   29  N5  UNL     1       0.323  51.872 -27.919  1.00  0.00     0.093 N 
HETATM   30  C9  UNL     1       0.119  53.148 -28.622  1.00  0.00     0.298 C 
HETATM   31  C10 UNL     1      -0.896  54.105 -27.975  1.00  0.00     0.198 C 
HETATM   32  O1  UNL     1      -2.137  53.446 -27.705  1.00  0.00    -0.388 OA
HETATM   33  C11 UNL     1      -1.927  52.336 -26.827  1.00  0.00     0.198 C 
HETATM   34  C12 UNL     1      -0.949  51.316 -27.434  1.00  0.00     0.298 C 
ENDBRANCH  28  29
ENDBRANCH  27  28
ENDBRANCH  25  27
ENDBRANCH  11  25
TORSDOF 6
ENDMDL
