MODEL 1
REMARK minimizedAffinity -8.16975498
REMARK CNNscore 0.386751026
REMARK CNNaffinity 7.52952576
REMARK  9 active torsions:
REMARK  status: ('A' for Active; 'I' for Inactive)
REMARK    1  A    between atoms: C2_2  and  C3_3 
REMARK       I    between atoms: C3_3  and  N1_5 
REMARK    2  A    between atoms: C7_9  and  C8_10 
REMARK       I    between atoms: C8_10  and  N2_12 
REMARK    3  A    between atoms: N2_12  and  C9_13 
REMARK    4  A    between atoms: C12_16  and  N3_17 
REMARK    5  A    between atoms: N3_17  and  C13_18 
REMARK    6  A    between atoms: C22_33  and  O3_34 
REMARK    7  A    between atoms: O3_34  and  C23_35 
REMARK    8  A    between atoms: C23_35  and  C24_36 
REMARK    9  A    between atoms: C24_36  and  O4_37 
ROOT
HETATM    1  C9  UNL     1      -1.324  50.471 -22.546  1.00  0.00     0.069 A 
HETATM    2  C10 UNL     1      -0.559  51.511 -23.074  1.00  0.00     0.050 A 
HETATM    3  C11 UNL     1       0.108  52.434 -22.227  1.00  0.00     0.037 A 
HETATM    4  C12 UNL     1       0.894  53.520 -22.667  1.00  0.00     0.119 A 
HETATM    5  N4  UNL     1       1.529  54.332 -21.802  1.00  0.00    -0.338 N 
ATOM      6  H4  UNL     1       2.112  55.105 -22.125  1.00  0.00     0.168 HD
HETATM    7  C19 UNL     1       1.362  54.080 -20.502  1.00  0.00     0.182 A 
HETATM    8  N5  UNL     1       0.626  53.095 -19.977  1.00  0.00    -0.351 N 
ATOM      9  H5  UNL     1       0.540  52.970 -18.968  1.00  0.00     0.166 HD
HETATM   10  C20 UNL     1       0.011  52.283 -20.838  1.00  0.00     0.049 A 
HETATM   11  C21 UNL     1      -0.753  51.243 -20.324  1.00  0.00     0.069 A 
HETATM   12  C22 UNL     1      -1.428  50.343 -21.151  1.00  0.00     0.097 A 
ENDROOT
BRANCH   1  13
HETATM   13  N2  UNL     1      -2.006  49.521 -23.336  1.00  0.00    -0.323 N 
HETATM   14  C8  UNL     1      -3.076  49.717 -24.192  1.00  0.00     0.245 C 
HETATM   15  O2  UNL     1      -3.641  50.791 -24.386  1.00  0.00    -0.271 OA
HETATM   16  H11 UNL     1      -1.681  48.554 -23.215  1.00  0.00     0.169 HD
BRANCH  14  17
HETATM   17  C7  UNL     1      -3.498  48.421 -24.928  1.00  0.00     0.180 C 
HETATM   18  N1  UNL     1      -4.936  48.430 -25.228  1.00  0.00    -0.335 N 
HETATM   19  C3  UNL     1      -5.846  48.024 -24.284  1.00  0.00     0.243 C 
HETATM   20  C4  UNL     1      -5.170  48.582 -26.658  1.00  0.00     0.127 C 
HETATM   21  O1  UNL     1      -5.520  47.718 -23.139  1.00  0.00    -0.268 OA
HETATM   22  C5  UNL     1      -3.818  48.967 -27.237  1.00  0.00     0.022 C 
HETATM   23  C6  UNL     1      -2.836  48.275 -26.301  1.00  0.00     0.037 C 
BRANCH  19  24
HETATM   24  C2  UNL     1      -7.269  47.934 -24.679  1.00  0.00     0.064 C 
HETATM   25  C1  UNL     1      -8.157  48.880 -24.345  1.00  0.00     0.017 C 
ENDBRANCH  19  24
ENDBRANCH  14  17
ENDBRANCH   1  13
BRANCH  12  26
HETATM   26  O3  UNL     1      -2.187  49.289 -20.712  1.00  0.00    -0.347 OA
BRANCH  26  27
HETATM   27  C23 UNL     1      -1.555  48.234 -19.988  1.00  0.00     0.201 C 
BRANCH  27  28
HETATM   28  C24 UNL     1      -1.948  48.271 -18.512  1.00  0.00     0.193 C 
BRANCH  28  29
HETATM   29  O4  UNL     1      -0.922  48.842 -17.701  1.00  0.00    -0.394 OA
HETATM   30  C25 UNL     1      -1.398  49.880 -16.855  1.00  0.00     0.201 C 
ENDBRANCH  28  29
ENDBRANCH  27  28
ENDBRANCH  26  27
ENDBRANCH  12  26
BRANCH   4  31
HETATM   31  N3  UNL     1       1.023  53.759 -24.059  1.00  0.00    -0.339 N 
HETATM   32  H13 UNL     1       1.894  54.254 -24.250  1.00  0.00     0.167 HD
BRANCH  31  33
HETATM   33  C13 UNL     1       0.702  52.892 -25.132  1.00  0.00     0.074 A 
HETATM   34  C14 UNL     1       1.591  51.926 -25.617  1.00  0.00     0.033 A 
HETATM   35  C15 UNL     1       1.217  51.056 -26.647  1.00  0.00     0.004 A 
HETATM   36  C16 UNL     1      -0.062  51.130 -27.197  1.00  0.00     0.027 A 
HETATM   37  C17 UNL     1      -0.969  52.067 -26.708  1.00  0.00     0.074 A 
HETATM   38 CL1  UNL     1      -2.550  52.147 -27.386  1.00  0.00    -0.081 Cl
HETATM   39  C18 UNL     1      -0.590  52.930 -25.680  1.00  0.00     0.164 A 
HETATM   40  F1  UNL     1      -1.463  53.834 -25.201  1.00  0.00    -0.202 F 
ENDBRANCH  31  33
ENDBRANCH   4  31
TORSDOF 9
ENDMDL
