MODEL 1
REMARK minimizedAffinity -9.7043066
REMARK  5 active torsions:
REMARK  status: ('A' for Active; 'I' for Inactive)
REMARK    1  A    between atoms: N1_2  and  S1_3 
REMARK    2  A    between atoms: S1_3  and  C2_6 
REMARK    3  A    between atoms: C9_13  and  C10_14 
REMARK    4  A    between atoms: C13_18  and  C14_19 
REMARK    5  A    between atoms: C14_19  and  N3_20 
ROOT
HETATM    1  C2  UNL     1      -6.321   3.281  12.368  1.00  0.00     0.080 A 
HETATM    2  C3  UNL     1      -6.300   1.938  11.935  1.00  0.00     0.027 A 
HETATM    3  C4  UNL     1      -5.105   1.357  11.505  1.00  0.00     0.032 A 
HETATM    4  C5  UNL     1      -3.970   2.144  11.532  1.00  0.00     0.046 A 
HETATM    5  C6  UNL     1      -3.980   3.473  11.970  1.00  0.00     0.008 A 
HETATM    6  C7  UNL     1      -5.156   4.062  12.402  1.00  0.00     0.040 A 
HETATM    7  C8  UNL     1      -2.595   3.952  11.858  1.00  0.00     0.047 A 
HETATM    8  C9  UNL     1      -2.190   5.187  12.189  1.00  0.00     0.048 C 
HETATM    9  C23 UNL     1      -1.780   2.805  11.306  1.00  0.00     0.257 A 
HETATM   10  O4  UNL     1      -0.598   2.756  11.028  1.00  0.00    -0.267 OA
HETATM   11  N4  UNL     1      -2.690   1.767  11.149  1.00  0.00    -0.322 N 
HETATM   12  H28 UNL     1      -2.416   0.864  10.795  1.00  0.00     0.169 HD
ENDROOT
BRANCH   8  13
HETATM   13  C10 UNL     1      -0.845   5.616  12.126  1.00  0.00     0.042 A 
HETATM   14  N2  UNL     1      -0.215   5.565  10.906  1.00  0.00    -0.359 N 
HETATM   15  C11 UNL     1       1.058   6.042  11.033  1.00  0.00     0.016 A 
HETATM   16  H9  UNL     1      -0.623   5.210  10.052  1.00  0.00     0.166 HD
HETATM   17  C12 UNL     1       1.252   6.421  12.346  1.00  0.00    -0.025 A 
HETATM   18  C22 UNL     1       2.048   6.145   9.929  1.00  0.00     0.057 C 
HETATM   19  C13 UNL     1       0.038   6.158  13.054  1.00  0.00     0.005 A 
HETATM   20  C19 UNL     1       2.555   6.963  12.831  1.00  0.00     0.041 C 
HETATM   21  C20 UNL     1       3.450   7.402  11.656  1.00  0.00     0.005 C 
HETATM   22  C21 UNL     1       3.455   6.372  10.512  1.00  0.00     0.006 C 
BRANCH  19  23
HETATM   23  C14 UNL     1      -0.216   6.405  14.514  1.00  0.00     0.314 C 
BRANCH  23  24
HETATM   24  N3  UNL     1      -0.505   7.829  14.762  1.00  0.00     0.096 N 
HETATM   25  C15 UNL     1      -1.958   8.076  14.854  1.00  0.00     0.299 C 
HETATM   26  C16 UNL     1      -2.469   8.182  16.300  1.00  0.00     0.198 C 
HETATM   27  O3  UNL     1      -1.845   9.237  17.043  1.00  0.00    -0.388 OA
HETATM   28  C17 UNL     1      -0.522   9.544  16.578  1.00  0.00     0.198 C 
HETATM   29  C18 UNL     1       0.188   8.325  15.973  1.00  0.00     0.299 C 
ENDBRANCH  23  24
ENDBRANCH  19  23
ENDBRANCH   8  13
BRANCH   1  30
HETATM   30  S1  UNL     1      -7.860   3.981  12.923  1.00  0.00     0.258 S 
HETATM   31  O1  UNL     1      -7.904   5.354  12.470  1.00  0.00    -0.201 OA
HETATM   32  O2  UNL     1      -8.916   3.040  12.627  1.00  0.00    -0.201 OA
BRANCH  30  33
HETATM   33  N1  UNL     1      -7.650   4.030  14.579  1.00  0.00    -0.320 N 
HETATM   34  C1  UNL     1      -7.416   5.286  15.268  1.00  0.00     0.159 C 
HETATM   35  H4  UNL     1      -7.970   3.213  15.092  1.00  0.00     0.171 HD
ENDBRANCH  30  33
ENDBRANCH   1  30
TORSDOF 5
ENDMDL
