MODEL 1
REMARK minimizedAffinity -8.43667889
REMARK CNNscore 0.690781891
REMARK CNNaffinity 7.25154638
REMARK  13 active torsions:
REMARK  status: ('A' for Active; 'I' for Inactive)
REMARK    1  A    between atoms: O1_2  and  C2_3 
REMARK    2  A    between atoms: C6_7  and  C7_8 
REMARK    3  A    between atoms: N1_10  and  C9_11 
REMARK    4  A    between atoms: C12_14  and  C13_15 
REMARK    5  A    between atoms: C13_15  and  C14_16 
REMARK    6  A    between atoms: C14_16  and  O2_17 
REMARK    7  A    between atoms: O2_17  and  P1_18 
REMARK    8  A    between atoms: P1_18  and  O4_20 
REMARK    9  A    between atoms: P1_18  and  C15_21 
REMARK   10  A    between atoms: C15_21  and  P2_22 
REMARK   11  A    between atoms: P2_22  and  O6_24 
REMARK   12  A    between atoms: P2_22  and  O7_25 
REMARK   13  A    between atoms: C20_34  and  N4_35 
ROOT
HETATM    1  C7  UNL     1      -0.487  51.560 -23.058  1.00  0.00     0.007 A 
HETATM    2  C8  UNL     1      -0.570  51.082 -21.768  1.00  0.00     0.112 A 
HETATM    3  N1  UNL     1       0.111  51.936 -20.912  1.00  0.00    -0.307 N 
HETATM    4  C18 UNL     1       0.648  52.963 -21.696  1.00  0.00     0.127 A 
HETATM    5  N2  UNL     1       1.422  53.982 -21.268  1.00  0.00    -0.337 N 
ATOM      6  H2  UNL     1       1.698  54.111 -20.295  1.00  0.00     0.168 HD
HETATM    7  C19 UNL     1       1.791  54.806 -22.258  1.00  0.00     0.183 A 
HETATM    8  N3  UNL     1       1.485  54.724 -23.562  1.00  0.00    -0.343 N 
ATOM      9  H3  UNL     1       1.829  55.418 -24.226  1.00  0.00     0.167 HD
HETATM   10  C20 UNL     1       0.712  53.702 -23.968  1.00  0.00     0.093 A 
HETATM   11  C21 UNL     1       0.276  52.755 -23.024  1.00  0.00     0.059 A 
ENDROOT
BRANCH   3  12
HETATM   12  C9  UNL     1       0.213  51.757 -19.488  1.00  0.00     0.040 A 
HETATM   13  C10 UNL     1      -0.456  50.696 -18.854  1.00  0.00     0.030 A 
HETATM   14  C11 UNL     1      -0.365  50.516 -17.467  1.00  0.00     0.009 A 
HETATM   15  C12 UNL     1       0.387  51.392 -16.682  1.00  0.00    -0.056 A 
HETATM   16  C16 UNL     1       1.057  52.448 -17.308  1.00  0.00     0.009 A 
HETATM   17  C17 UNL     1       0.969  52.628 -18.695  1.00  0.00     0.030 A 
BRANCH  15  18
HETATM   18  C13 UNL     1       0.507  51.188 -15.195  1.00  0.00     0.065 C 
BRANCH  18  19
HETATM   19  C14 UNL     1       1.136  49.843 -14.850  1.00  0.00     0.182 C 
BRANCH  19  20
HETATM   20  O2  UNL     1       2.551  49.977 -14.857  1.00  0.00    -0.318 OA
BRANCH  20  21
HETATM   21  P1  UNL     1       3.333  49.685 -13.482  1.00  0.00     0.249 P 
HETATM   22  O3  UNL     1       4.807  49.491 -13.653  1.00  0.00    -0.653 OA
BRANCH  21  23
HETATM   23  O4  UNL     1       3.002  50.976 -12.596  1.00  0.00    -0.329 OA
HETATM   24  H14 UNL     1       3.553  51.753 -12.808  1.00  0.00     0.220 HD
ENDBRANCH  21  23
BRANCH  21  25
HETATM   25  C15 UNL     1       2.448  48.337 -12.749  1.00  0.00     0.249 C 
BRANCH  25  26
HETATM   26  P2  UNL     1       2.611  46.685 -13.363  1.00  0.00     0.247 P 
HETATM   27  O5  UNL     1       3.315  45.685 -12.509  1.00  0.00    -0.653 OA
BRANCH  26  28
HETATM   28  O6  UNL     1       1.161  46.213 -13.854  1.00  0.00    -0.329 OA
HETATM   29  H17 UNL     1       0.480  46.905 -13.937  1.00  0.00     0.220 HD
ENDBRANCH  26  28
BRANCH  26  30
HETATM   30  O7  UNL     1       3.323  46.868 -14.791  1.00  0.00    -0.329 OA
HETATM   31  H18 UNL     1       3.574  45.997 -15.159  1.00  0.00     0.220 HD
ENDBRANCH  26  30
ENDBRANCH  25  26
ENDBRANCH  21  25
ENDBRANCH  20  21
ENDBRANCH  19  20
ENDBRANCH  18  19
ENDBRANCH  15  18
ENDBRANCH   3  12
BRANCH   1  32
HETATM   32  C6  UNL     1      -1.098  50.872 -24.175  1.00  0.00    -0.021 A 
HETATM   33  C5  UNL     1      -0.587  51.031 -25.465  1.00  0.00     0.012 A 
HETATM   34  C4  UNL     1      -1.172  50.351 -26.532  1.00  0.00     0.004 A 
HETATM   35  C3  UNL     1      -2.267  49.510 -26.315  1.00  0.00     0.037 A 
HETATM   36  C2  UNL     1      -2.782  49.344 -25.028  1.00  0.00     0.069 A 
HETATM   37  C22 UNL     1      -2.194  50.029 -23.962  1.00  0.00     0.049 A 
BRANCH  36  38
HETATM   38  O1  UNL     1      -3.838  48.548 -24.680  1.00  0.00    -0.356 OA
HETATM   39  C1  UNL     1      -4.895  48.429 -25.627  1.00  0.00     0.210 C 
ENDBRANCH  36  38
ENDBRANCH   1  32
BRANCH  10  40
HETATM   40  N4  UNL     1       0.405  53.652 -25.321  1.00  0.00    -0.288 NA
HETATM   41  H22 UNL     1       0.177  52.737 -25.684  1.00  0.00     0.125 HD
HETATM   42  H23 UNL     1       1.057  54.205 -25.864  1.00  0.00     0.125 HD
ENDBRANCH  10  40
TORSDOF 13
ENDMDL
