MODEL 1
REMARK minimizedAffinity -8.49528408
REMARK  7 active torsions:
REMARK  status: ('A' for Active; 'I' for Inactive)
REMARK    1  A    between atoms: O1_2  and  C2_3 
REMARK    2  A    between atoms: C6_11  and  N3_12 
REMARK    3  A    between atoms: N3_12  and  C7_13 
REMARK    4  A    between atoms: C15_23  and  N4_24 
REMARK       I    between atoms: N4_24  and  C16_25 
REMARK    5  A    between atoms: C16_25  and  C17_27 
REMARK    6  A    between atoms: C18_29  and  C19_30 
REMARK    7  A    between atoms: C19_30  and  N5_31 
ROOT
HETATM    1  C2  UNL     1      -0.169  52.487 -26.013  1.00  0.00     0.097 A 
HETATM    2  C3  UNL     1       0.584  53.507 -25.426  1.00  0.00     0.069 A 
HETATM    3  C4  UNL     1       0.742  53.602 -24.049  1.00  0.00     0.049 A 
HETATM    4  N1  UNL     1       1.478  54.606 -23.568  1.00  0.00    -0.351 N 
ATOM      5  H1  UNL     1       1.924  55.286 -24.185  1.00  0.00     0.166 HD
HETATM    6  C5  UNL     1       1.603  54.679 -22.240  1.00  0.00     0.182 A 
HETATM    7  N2  UNL     1       1.069  53.838 -21.352  1.00  0.00    -0.338 N 
ATOM      8  H2  UNL     1       1.210  53.961 -20.349  1.00  0.00     0.168 HD
HETATM    9  C6  UNL     1       0.336  52.820 -21.838  1.00  0.00     0.119 A 
HETATM   10  C13 UNL     1       0.127  52.651 -23.224  1.00  0.00     0.037 A 
HETATM   11  C14 UNL     1      -0.645  51.618 -23.814  1.00  0.00     0.050 A 
HETATM   12  C15 UNL     1      -0.787  51.525 -25.198  1.00  0.00     0.069 A 
ENDROOT
BRANCH  12  13
HETATM   13  N4  UNL     1      -1.523  50.509 -25.845  1.00  0.00    -0.319 N 
HETATM   14  C16 UNL     1      -2.880  50.457 -26.082  1.00  0.00     0.284 C 
HETATM   15  O2  UNL     1      -3.705  51.317 -25.790  1.00  0.00    -0.265 OA
HETATM   16  H11 UNL     1      -0.944  49.745 -26.183  1.00  0.00     0.169 HD
BRANCH  14  17
HETATM   17  C17 UNL     1      -3.322  49.217 -26.788  1.00  0.00     0.182 C 
HETATM   18  F2  UNL     1      -2.726  48.085 -26.355  1.00  0.00    -0.201 F 
HETATM   19  C18 UNL     1      -4.170  49.184 -27.826  1.00  0.00     0.051 C 
BRANCH  19  20
HETATM   20  C19 UNL     1      -4.576  47.921 -28.523  1.00  0.00     0.302 C 
BRANCH  20  21
HETATM   21  N5  UNL     1      -5.858  48.091 -29.224  1.00  0.00     0.083 N 
HETATM   22  C20 UNL     1      -5.702  48.004 -30.679  1.00  0.00     0.309 C 
HETATM   23  C21 UNL     1      -6.814  47.071 -28.780  1.00  0.00     0.309 C 
ENDBRANCH  20  21
ENDBRANCH  19  20
ENDBRANCH  14  17
ENDBRANCH  12  13
BRANCH   1  24
HETATM   24  O1  UNL     1      -0.363  52.326 -27.366  1.00  0.00    -0.354 OA
HETATM   25  C1  UNL     1       0.754  51.886 -28.132  1.00  0.00     0.210 C 
ENDBRANCH   1  24
BRANCH   9  26
HETATM   26  N3  UNL     1      -0.251  51.893 -20.936  1.00  0.00    -0.342 N 
HETATM   27  H6  UNL     1      -0.443  51.021 -21.421  1.00  0.00     0.167 HD
BRANCH  26  28
HETATM   28  C7  UNL     1       0.021  51.686 -19.566  1.00  0.00     0.035 A 
HETATM   29  C8  UNL     1       0.743  52.670 -18.866  1.00  0.00     0.032 A 
HETATM   30  C9  UNL     1       1.088  52.495 -17.523  1.00  0.00     0.046 A 
HETATM   31  C10 UNL     1       0.734  51.320 -16.873  1.00  0.00     0.138 A 
HETATM   32  F1  UNL     1       1.074  51.169 -15.584  1.00  0.00    -0.204 F 
HETATM   33  C11 UNL     1       0.051  50.317 -17.553  1.00  0.00     0.074 A 
HETATM   34 CL1  UNL     1      -0.367  48.847 -16.758  1.00  0.00    -0.081 Cl
HETATM   35  C12 UNL     1      -0.291  50.495 -18.897  1.00  0.00     0.056 A 
ENDBRANCH  26  28
ENDBRANCH   9  26
TORSDOF 7
ENDMDL
