MODEL 1
REMARK minimizedAffinity -8.30857754
REMARK  3 active torsions:
REMARK  status: ('A' for Active; 'I' for Inactive)
REMARK    1  A    between atoms: N1_1  and  C1_2 
REMARK    2  A    between atoms: C5_10  and  C6_11 
REMARK    3  A    between atoms: N6_24  and  C15_25 
ROOT
HETATM    1  C1  UNL     1       8.995  35.799  17.815  1.00  0.00     0.095 A 
HETATM    2  N2  UNL     1       7.656  35.810  17.994  1.00  0.00    -0.342 N 
ATOM      3  H2  UNL     1       7.027  35.952  17.204  1.00  0.00     0.167 HD
HETATM    4  C2  UNL     1       7.169  35.630  19.237  1.00  0.00     0.183 A 
HETATM    5  N3  UNL     1       7.860  35.448  20.372  1.00  0.00    -0.337 N 
ATOM      6  H3  UNL     1       7.432  35.331  21.290  1.00  0.00     0.168 HD
HETATM    7  C3  UNL     1       9.186  35.439  20.148  1.00  0.00     0.139 A 
HETATM    8  C4  UNL     1       9.822  35.587  18.925  1.00  0.00     0.076 A 
HETATM    9  C5  UNL     1      11.214  35.463  19.223  1.00  0.00     0.077 A 
HETATM   10  N5  UNL     1      11.418  35.323  20.546  1.00  0.00    -0.295 N 
ATOM     11  H5  UNL     1      12.310  35.262  21.037  1.00  0.00     0.187 HD
HETATM   12  N6  UNL     1      10.177  35.282  21.077  1.00  0.00    -0.270 N 
ENDROOT
BRANCH   9  13
HETATM   13  C6  UNL     1      12.352  35.477  18.312  1.00  0.00     0.009 A 
HETATM   14  C7  UNL     1      12.275  36.050  17.051  1.00  0.00     0.102 A 
HETATM   15  N4  UNL     1      13.304  36.102  16.169  1.00  0.00    -0.364 N 
HETATM   16  C8  UNL     1      14.468  35.533  16.526  1.00  0.00     0.042 A 
ATOM     17  H4  UNL     1      13.197  36.559  15.263  1.00  0.00     0.165 HD
HETATM   18  C9  UNL     1      15.540  35.558  15.644  1.00  0.00     0.030 A 
HETATM   19  C13 UNL     1      14.647  34.900  17.775  1.00  0.00    -0.009 A 
HETATM   20  C10 UNL     1      16.770  34.973  15.965  1.00  0.00     0.002 A 
HETATM   21  C11 UNL     1      16.941  34.347  17.194  1.00  0.00     0.001 A 
HETATM   22  C12 UNL     1      15.882  34.310  18.100  1.00  0.00     0.014 A 
HETATM   23  C14 UNL     1      13.563  34.881  18.665  1.00  0.00     0.029 A 
ENDBRANCH   9  13
BRANCH   1  24
HETATM   24  N1  UNL     1       9.442  36.019  16.520  1.00  0.00    -0.288 NA
HETATM   25  H1  UNL     1      10.317  36.520  16.432  1.00  0.00     0.125 HD
HETATM   26  H2  UNL     1       8.686  36.367  15.939  1.00  0.00     0.125 HD
ENDBRANCH   1  24
BRANCH  12  27
HETATM   27  C15 UNL     1      10.030  35.066  22.504  1.00  0.00     0.110 C 
HETATM   28  C16 UNL     1       9.009  35.998  23.175  1.00  0.00     0.027 C 
HETATM   29  C17 UNL     1       8.403  35.153  24.287  1.00  0.00     0.002 C 
HETATM   30  C18 UNL     1       8.313  33.771  23.661  1.00  0.00     0.002 C 
HETATM   31  C19 UNL     1       9.617  33.632  22.883  1.00  0.00     0.027 C 
ENDBRANCH  12  27
TORSDOF 3
ENDMDL
