MODEL 1
REMARK minimizedAffinity -8.64361286
REMARK  8 active torsions:
REMARK  status: ('A' for Active; 'I' for Inactive)
REMARK    1  A    between atoms: O1_2  and  C2_3 
REMARK    2  A    between atoms: C5_6  and  N1_7 
REMARK    3  A    between atoms: N1_7  and  C6_8 
REMARK    4  A    between atoms: C16_24  and  O4_25 
REMARK    5  A    between atoms: O4_25  and  C17_26 
REMARK    6  A    between atoms: C17_26  and  C18_27 
REMARK    7  A    between atoms: C18_27  and  C19_28 
REMARK    8  A    between atoms: C19_28  and  N4_29 
ROOT
HETATM    1  C2  UNL     1      -0.718  52.003 -23.315  1.00  0.00     0.102 A 
HETATM    2  C3  UNL     1      -1.497  52.005 -24.471  1.00  0.00     0.057 A 
HETATM    3  C4  UNL     1      -1.137  52.796 -25.592  1.00  0.00     0.038 A 
HETATM    4  C5  UNL     1      -1.833  52.819 -26.814  1.00  0.00     0.119 A 
HETATM    5  N2  UNL     1      -1.455  53.595 -27.845  1.00  0.00    -0.338 N 
ATOM      6  H2  UNL     1      -1.986  53.627 -28.716  1.00  0.00     0.168 HD
HETATM    7  C13 UNL     1      -0.351  54.321 -27.669  1.00  0.00     0.182 A 
HETATM    8  N3  UNL     1       0.399  54.367 -26.560  1.00  0.00    -0.351 N 
ATOM      9  H3  UNL     1       1.229  54.956 -26.500  1.00  0.00     0.166 HD
HETATM   10  C14 UNL     1       0.005  53.603 -25.536  1.00  0.00     0.050 A 
HETATM   11  C15 UNL     1       0.766  53.601 -24.375  1.00  0.00     0.070 A 
HETATM   12  C16 UNL     1       0.435  52.799 -23.277  1.00  0.00     0.104 A 
ENDROOT
BRANCH   4  13
HETATM   13  N1  UNL     1      -3.022  52.057 -26.934  1.00  0.00    -0.339 N 
HETATM   14  H5  UNL     1      -3.321  52.086 -27.903  1.00  0.00     0.167 HD
BRANCH  13  15
HETATM   15  C6  UNL     1      -3.289  50.823 -26.312  1.00  0.00     0.070 A 
HETATM   16  C7  UNL     1      -2.839  49.634 -26.911  1.00  0.00     0.032 A 
HETATM   17  C8  UNL     1      -3.175  48.371 -26.386  1.00  0.00     0.005 A 
HETATM   18  C9  UNL     1      -4.001  48.269 -25.267  1.00  0.00     0.040 A 
HETATM   19  C10 UNL     1      -4.456  49.439 -24.702  1.00  0.00     0.107 A 
HETATM   20  C11 UNL     1      -4.116  50.678 -25.203  1.00  0.00     0.131 A 
HETATM   21  O3  UNL     1      -5.300  49.512 -23.640  1.00  0.00    -0.323 OA
HETATM   22  O2  UNL     1      -4.734  51.680 -24.513  1.00  0.00    -0.321 OA
HETATM   23  C12 UNL     1      -5.447  50.937 -23.513  1.00  0.00     0.352 A 
ENDBRANCH  13  15
ENDBRANCH   4  13
BRANCH   1  24
HETATM   24  O1  UNL     1      -0.986  51.265 -22.191  1.00  0.00    -0.353 OA
HETATM   25  C1  UNL     1      -1.531  49.964 -22.368  1.00  0.00     0.210 C 
ENDBRANCH   1  24
BRANCH  12  26
HETATM   26  O4  UNL     1       1.176  52.749 -22.121  1.00  0.00    -0.348 OA
BRANCH  26  27
HETATM   27  C17 UNL     1       1.410  53.987 -21.453  1.00  0.00     0.177 C 
BRANCH  27  28
HETATM   28  C18 UNL     1       0.595  53.995 -20.162  1.00  0.00     0.057 C 
BRANCH  28  29
HETATM   29  C19 UNL     1       0.983  52.817 -19.255  1.00  0.00     0.274 C 
BRANCH  29  30
HETATM   30  N4  UNL     1      -0.065  52.472 -18.278  1.00  0.00     0.092 N 
HETATM   31  C20 UNL     1      -1.324  52.057 -18.940  1.00  0.00     0.298 C 
HETATM   32  C21 UNL     1      -2.190  51.173 -18.031  1.00  0.00     0.198 C 
HETATM   33  O5  UNL     1      -1.555  49.931 -17.690  1.00  0.00    -0.388 OA
HETATM   34  C22 UNL     1      -0.123  50.016 -17.695  1.00  0.00     0.198 C 
HETATM   35  C23 UNL     1       0.396  51.418 -17.345  1.00  0.00     0.298 C 
ENDBRANCH  29  30
ENDBRANCH  28  29
ENDBRANCH  27  28
ENDBRANCH  26  27
ENDBRANCH  12  26
TORSDOF 8
ENDMDL
