MODEL 1
REMARK minimizedAffinity -10.4740582
REMARK  8 active torsions:
REMARK  status: ('A' for Active; 'I' for Inactive)
REMARK    1  A    between atoms: C4_4  and  C5_5 
REMARK    2  A    between atoms: C7_7  and  O1_8 
REMARK    3  A    between atoms: C13_19  and  N3_20 
REMARK    4  A    between atoms: N3_20  and  C14_21 
REMARK    5  A    between atoms: C18_25  and  O2_26 
REMARK    6  A    between atoms: O2_26  and  C19_27 
REMARK    7  A    between atoms: C19_27  and  C20_28 
REMARK    8  A    between atoms: C20_28  and  N4_29 
ROOT
HETATM    1  C1  UNL     1      -1.621  50.084 -21.118  1.00  0.00     0.050 C 
HETATM    2  C2  UNL     1      -0.745  51.097 -21.806  1.00  0.00    -0.032 A 
HETATM    3  C3  UNL     1      -0.659  51.097 -23.209  1.00  0.00     0.021 A 
HETATM    4  C4  UNL     1       0.149  52.019 -23.877  1.00  0.00    -0.021 A 
HETATM    5  C11 UNL     1       0.863  52.945 -23.108  1.00  0.00     0.045 A 
HETATM    6  C12 UNL     1       0.787  52.953 -21.720  1.00  0.00     0.077 A 
HETATM    7  N1  UNL     1       1.480  53.847 -21.006  1.00  0.00    -0.284 N 
ATOM      8  H1  UNL     1       2.071  54.534 -21.476  1.00  0.00     0.187 HD
HETATM    9  N2  UNL     1       1.390  53.832 -19.643  1.00  0.00    -0.131 N 
ATOM     10  H2  UNL     1       1.917  54.509 -19.093  1.00  0.00     0.205 HD
HETATM   11  C13 UNL     1       0.608  52.926 -19.022  1.00  0.00     0.697 A 
HETATM   12  N5  UNL     1      -0.105  52.020 -19.703  1.00  0.00    -0.188 N 
ATOM     13  H5  UNL     1      -0.695  51.344 -19.217  1.00  0.00     0.184 HD
HETATM   14  C26 UNL     1      -0.020  52.025 -21.047  1.00  0.00     0.083 A 
ENDROOT
BRANCH  11  15
HETATM   15  N3  UNL     1       0.586  52.990 -17.628  1.00  0.00    -0.190 N 
HETATM   16  H10 UNL     1      -0.269  53.434 -17.325  1.00  0.00     0.184 HD
BRANCH  15  17
HETATM   17  C14 UNL     1       1.477  52.597 -16.623  1.00  0.00     0.051 A 
HETATM   18  C15 UNL     1       2.866  52.592 -16.766  1.00  0.00     0.030 A 
HETATM   19  C16 UNL     1       3.699  52.187 -15.718  1.00  0.00     0.005 A 
HETATM   20  C17 UNL     1       3.156  51.776 -14.502  1.00  0.00     0.037 A 
HETATM   21  C18 UNL     1       1.775  51.769 -14.330  1.00  0.00     0.070 A 
HETATM   22  C25 UNL     1       0.952  52.177 -15.388  1.00  0.00     0.066 A 
BRANCH  21  23
HETATM   23  O2  UNL     1       1.104  51.393 -13.198  1.00  0.00    -0.349 OA
BRANCH  23  24
HETATM   24  C19 UNL     1      -0.197  51.955 -12.998  1.00  0.00     0.206 C 
BRANCH  24  25
HETATM   25  C20 UNL     1      -0.399  52.157 -11.488  1.00  0.00     0.299 C 
BRANCH  25  26
HETATM   26  N4  UNL     1      -1.796  52.418 -11.116  1.00  0.00     0.090 N 
HETATM   27  C21 UNL     1      -2.717  52.385 -12.255  1.00  0.00     0.272 C 
HETATM   28  C22 UNL     1      -3.958  53.094 -11.727  1.00  0.00     0.032 C 
HETATM   29  C23 UNL     1      -3.469  53.948 -10.563  1.00  0.00     0.032 C 
HETATM   30  C24 UNL     1      -1.961  53.755 -10.541  1.00  0.00     0.272 C 
ENDBRANCH  25  26
ENDBRANCH  24  25
ENDBRANCH  23  24
ENDBRANCH  21  23
ENDBRANCH  15  17
ENDBRANCH  11  15
BRANCH   4  31
HETATM   31  C5  UNL     1       0.237  52.023 -25.345  1.00  0.00    -0.001 A 
HETATM   32  C6  UNL     1       1.492  51.841 -25.954  1.00  0.00     0.050 A 
HETATM   33  C7  UNL     1       1.617  51.837 -27.341  1.00  0.00     0.066 A 
HETATM   34  C8  UNL     1       0.508  52.012 -28.159  1.00  0.00     0.038 A 
HETATM   35  C9  UNL     1      -0.746  52.198 -27.575  1.00  0.00     0.027 A 
HETATM   36  C10 UNL     1      -0.882  52.205 -26.181  1.00  0.00     0.045 A 
HETATM   37 CL1  UNL     1      -2.468  52.464 -25.539  1.00  0.00    -0.083 Cl
BRANCH  33  38
HETATM   38  O1  UNL     1       2.862  51.655 -27.863  1.00  0.00    -0.361 OA
HETATM   39  H6  UNL     1       2.803  51.653 -28.833  1.00  0.00     0.217 HD
ENDBRANCH  33  38
ENDBRANCH   4  31
TORSDOF 8
ENDMDL
