MODEL 1
REMARK minimizedAffinity -7.42506266
REMARK CNNscore 0.516421854
REMARK CNNaffinity 7.68674326
REMARK  9 active torsions:
REMARK  status: ('A' for Active; 'I' for Inactive)
REMARK    1  A    between atoms: C2_2  and  C3_3 
REMARK       I    between atoms: C3_3  and  N1_5 
REMARK    2  A    between atoms: C7_9  and  C8_10 
REMARK       I    between atoms: C8_10  and  N2_12 
REMARK    3  A    between atoms: N2_12  and  C9_13 
REMARK    4  A    between atoms: C12_16  and  N3_17 
REMARK    5  A    between atoms: N3_17  and  C13_18 
REMARK    6  A    between atoms: C22_33  and  O3_34 
REMARK    7  A    between atoms: O3_34  and  C23_35 
REMARK    8  A    between atoms: C23_35  and  C24_36 
REMARK    9  A    between atoms: C24_36  and  O4_37 
ROOT
HETATM    1  C9  UNL     1      -1.189  51.364 -20.642  1.00  0.00     0.069 A 
HETATM    2  C10 UNL     1      -0.972  51.676 -21.983  1.00  0.00     0.050 A 
HETATM    3  C11 UNL     1      -0.062  52.698 -22.360  1.00  0.00     0.037 A 
HETATM    4  C12 UNL     1       0.216  53.091 -23.687  1.00  0.00     0.119 A 
HETATM    5  N4  UNL     1       1.123  54.045 -23.969  1.00  0.00    -0.338 N 
ATOM      6  H4  UNL     1       1.334  54.312 -24.931  1.00  0.00     0.168 HD
HETATM    7  C19 UNL     1       1.734  54.623 -22.933  1.00  0.00     0.182 A 
HETATM    8  N5  UNL     1       1.533  54.344 -21.641  1.00  0.00    -0.351 N 
ATOM      9  H5  UNL     1       2.035  54.838 -20.902  1.00  0.00     0.166 HD
HETATM   10  C20 UNL     1       0.644  53.388 -21.366  1.00  0.00     0.049 A 
HETATM   11  C21 UNL     1       0.421  53.067 -20.034  1.00  0.00     0.069 A 
HETATM   12  C22 UNL     1      -0.488  52.076 -19.655  1.00  0.00     0.097 A 
ENDROOT
BRANCH   1  13
HETATM   13  N2  UNL     1      -2.077  50.357 -20.206  1.00  0.00    -0.323 N 
HETATM   14  C8  UNL     1      -2.581  49.283 -20.918  1.00  0.00     0.245 C 
HETATM   15  O2  UNL     1      -2.344  49.040 -22.100  1.00  0.00    -0.271 OA
HETATM   16  H11 UNL     1      -2.419  50.478 -19.245  1.00  0.00     0.169 HD
BRANCH  14  17
HETATM   17  C7  UNL     1      -3.483  48.364 -20.056  1.00  0.00     0.180 C 
HETATM   18  N1  UNL     1      -4.746  48.068 -20.745  1.00  0.00    -0.335 N 
HETATM   19  C3  UNL     1      -5.802  48.942 -20.669  1.00  0.00     0.243 C 
HETATM   20  C4  UNL     1      -4.794  46.676 -21.171  1.00  0.00     0.127 C 
HETATM   21  O1  UNL     1      -5.720  50.030 -20.103  1.00  0.00    -0.268 OA
HETATM   22  C5  UNL     1      -3.376  46.159 -20.983  1.00  0.00     0.022 C 
HETATM   23  C6  UNL     1      -2.865  46.985 -19.810  1.00  0.00     0.037 C 
BRANCH  19  24
HETATM   24  C2  UNL     1      -7.089  48.537 -21.277  1.00  0.00     0.064 C 
HETATM   25  C1  UNL     1      -8.202  48.397 -20.545  1.00  0.00     0.017 C 
ENDBRANCH  19  24
ENDBRANCH  14  17
ENDBRANCH   1  13
BRANCH  12  26
HETATM   26  O3  UNL     1      -0.747  51.702 -18.362  1.00  0.00    -0.347 OA
BRANCH  26  27
HETATM   27  C23 UNL     1       0.346  51.499 -17.467  1.00  0.00     0.201 C 
BRANCH  27  28
HETATM   28  C24 UNL     1      -0.041  50.542 -16.340  1.00  0.00     0.193 C 
BRANCH  28  29
HETATM   29  O4  UNL     1      -1.385  50.744 -15.906  1.00  0.00    -0.394 OA
HETATM   30  C25 UNL     1      -1.998  49.554 -15.428  1.00  0.00     0.201 C 
ENDBRANCH  28  29
ENDBRANCH  27  28
ENDBRANCH  26  27
ENDBRANCH  12  26
BRANCH   4  31
HETATM   31  N3  UNL     1      -0.476  52.461 -24.753  1.00  0.00    -0.339 N 
HETATM   32  H13 UNL     1       0.168  51.884 -25.295  1.00  0.00     0.167 HD
BRANCH  31  33
HETATM   33  C13 UNL     1      -1.767  51.880 -24.738  1.00  0.00     0.074 A 
HETATM   34  C14 UNL     1      -2.898  52.559 -24.268  1.00  0.00     0.033 A 
HETATM   35  C15 UNL     1      -4.165  51.967 -24.317  1.00  0.00     0.004 A 
HETATM   36  C16 UNL     1      -4.322  50.689 -24.853  1.00  0.00     0.027 A 
HETATM   37  C17 UNL     1      -3.212  50.010 -25.350  1.00  0.00     0.074 A 
HETATM   38 CL1  UNL     1      -3.415  48.436 -26.018  1.00  0.00    -0.081 Cl
HETATM   39  C18 UNL     1      -1.953  50.607 -25.301  1.00  0.00     0.164 A 
HETATM   40  F1  UNL     1      -0.879  49.957 -25.783  1.00  0.00    -0.202 F 
ENDBRANCH  31  33
ENDBRANCH   4  31
TORSDOF 9
ENDMDL
