MODEL 1
REMARK minimizedAffinity -9.48460579
REMARK  7 active torsions:
REMARK  status: ('A' for Active; 'I' for Inactive)
REMARK    1  A    between atoms: C2_2  and  S1_3 
REMARK    2  A    between atoms: S1_3  and  C3_6 
REMARK    3  A    between atoms: C10_13  and  C11_14 
REMARK    4  A    between atoms: C14_18  and  C15_19 
REMARK    5  A    between atoms: C15_19  and  C16_20 
REMARK    6  A    between atoms: C16_20  and  C17_21 
REMARK    7  A    between atoms: C17_21  and  O4_23 
ROOT
HETATM    1  C3  UNL     1       2.073   6.465  11.049  1.00  0.00     0.060 A 
HETATM    2  C4  UNL     1       2.728   6.822  12.246  1.00  0.00     0.026 A 
HETATM    3  C5  UNL     1       2.055   6.733  13.467  1.00  0.00     0.032 A 
HETATM    4  C6  UNL     1       0.744   6.298  13.440  1.00  0.00     0.046 A 
HETATM    5  C7  UNL     1       0.082   5.961  12.255  1.00  0.00     0.008 A 
HETATM    6  C8  UNL     1       0.737   6.044  11.037  1.00  0.00     0.038 A 
HETATM    7  C9  UNL     1      -1.282   5.569  12.642  1.00  0.00     0.047 A 
HETATM    8  C10 UNL     1      -2.230   5.179  11.778  1.00  0.00     0.048 C 
HETATM    9  C22 UNL     1      -1.366   5.724  14.144  1.00  0.00     0.257 A 
HETATM   10  O5  UNL     1      -2.316   5.551  14.884  1.00  0.00    -0.267 OA
HETATM   11  N2  UNL     1      -0.101   6.143  14.532  1.00  0.00    -0.322 N 
HETATM   12  H24 UNL     1       0.125   6.365  15.489  1.00  0.00     0.169 HD
ENDROOT
BRANCH   8  13
HETATM   13  C11 UNL     1      -3.539   4.789  12.144  1.00  0.00     0.040 A 
HETATM   14  N1  UNL     1      -4.291   5.658  12.898  1.00  0.00    -0.359 N 
HETATM   15  C12 UNL     1      -5.466   5.054  13.243  1.00  0.00     0.016 A 
HETATM   16  H10 UNL     1      -4.015   6.594  13.161  1.00  0.00     0.166 HD
HETATM   17  C13 UNL     1      -5.495   3.796  12.678  1.00  0.00    -0.027 A 
HETATM   18  C21 UNL     1      -6.544   5.686  14.049  1.00  0.00     0.057 C 
HETATM   19  C14 UNL     1      -4.275   3.624  11.959  1.00  0.00    -0.023 A 
HETATM   20  C18 UNL     1      -6.651   2.869  12.864  1.00  0.00     0.041 C 
HETATM   21  C19 UNL     1      -7.894   3.622  13.378  1.00  0.00     0.005 C 
HETATM   22  C20 UNL     1      -7.547   4.612  14.507  1.00  0.00     0.006 C 
BRANCH  19  23
HETATM   23  C15 UNL     1      -3.878   2.434  11.134  1.00  0.00     0.052 C 
BRANCH  23  24
HETATM   24  C16 UNL     1      -2.712   1.651  11.733  1.00  0.00     0.115 C 
BRANCH  24  25
HETATM   25  C17 UNL     1      -1.471   1.860  10.914  1.00  0.00     0.139 C 
HETATM   26  O3  UNL     1      -0.327   1.852  11.344  1.00  0.00    -0.650 OA
BRANCH  25  27
HETATM   27  O4  UNL     1      -1.761   2.166   9.634  1.00  0.00    -0.776 OA
HETATM   28  H15 UNL     1      -1.024   2.755   9.330  1.00  0.00     0.167 HD
ENDBRANCH  25  27
ENDBRANCH  24  25
ENDBRANCH  23  24
ENDBRANCH  19  23
ENDBRANCH   8  13
BRANCH   1  29
HETATM   29  S1  UNL     1       2.961   6.605   9.511  1.00  0.00     0.175 S 
HETATM   30  O1  UNL     1       4.270   7.155   9.808  1.00  0.00    -0.223 OA
HETATM   31  O2  UNL     1       2.832   5.326   8.840  1.00  0.00    -0.223 OA
BRANCH  29  32
HETATM   32  C2  UNL     1       2.044   7.811   8.574  1.00  0.00     0.141 C 
HETATM   33  C1  UNL     1       1.779   7.391   7.142  1.00  0.00     0.021 C 
ENDBRANCH  29  32
ENDBRANCH   1  29
TORSDOF 7
ENDMDL
