MODEL 1
REMARK minimizedAffinity -10.1751003
REMARK CNNscore 0.192726046
REMARK CNNaffinity 6.77835083
REMARK  15 active torsions:
REMARK  status: ('A' for Active; 'I' for Inactive)
REMARK    1  A    between atoms: C2_2  and  N1_3 
REMARK    2  A    between atoms: C2_2  and  C18_28 
REMARK       I    between atoms: N1_3  and  C3_4 
REMARK    3  A    between atoms: C3_4  and  C4_6 
REMARK    4  A    between atoms: C4_6  and  C5_7 
REMARK    5  A    between atoms: C4_6  and  N2_19 
REMARK    6  A    between atoms: C5_7  and  C6_8 
REMARK    7  A    between atoms: C9_11  and  O2_12 
REMARK    8  A    between atoms: O2_12  and  P1_13 
REMARK    9  A    between atoms: P1_13  and  O4_15 
REMARK   10  A    between atoms: P1_13  and  O5_16 
REMARK       I    between atoms: N2_19  and  C12_20 
REMARK   11  A    between atoms: C12_20  and  C13_22 
REMARK   12  A    between atoms: C13_22  and  C14_23 
REMARK   13  A    between atoms: C19_31  and  C20_32 
REMARK   14  A    between atoms: C20_32  and  C21_33 
REMARK   15  A    between atoms: C24_36  and  C25_37 
ROOT
HETATM    1  C4  UNL     1      -2.866  49.693 -26.337  1.00  0.00     0.180 C 
ENDROOT
BRANCH   1   2
HETATM    2  C3  UNL     1      -1.849  50.767 -26.790  1.00  0.00     0.241 C 
HETATM    3  N1  UNL     1      -0.550  50.586 -26.382  1.00  0.00    -0.348 N 
HETATM    4  H5  UNL     1      -0.307  49.794 -25.801  1.00  0.00     0.163 HD
HETATM    5  O1  UNL     1      -2.201  51.751 -27.443  1.00  0.00    -0.271 OA
BRANCH   3   6
HETATM    6  C2  UNL     1       0.528  51.466 -26.830  1.00  0.00     0.158 C 
HETATM    7  C1  UNL     1       0.287  51.911 -28.269  1.00  0.00     0.041 C 
BRANCH   6   8
HETATM    8  C18 UNL     1       0.638  52.641 -25.911  1.00  0.00     0.170 A 
HETATM    9  N3  UNL     1       1.169  52.729 -24.711  1.00  0.00    -0.325 N 
HETATM   10  C19 UNL     1       0.944  54.048 -24.387  1.00  0.00     0.108 A 
ATOM     11  H3  UNL     1       1.631  52.005 -24.160  1.00  0.00     0.169 HD
HETATM   12  N4  UNL     1       0.331  54.762 -25.346  1.00  0.00    -0.247 N 
HETATM   13  O7  UNL     1       0.122  53.826 -26.359  1.00  0.00    -0.221 OA
ATOM     14  H4  UNL     1       0.079  55.750 -25.336  1.00  0.00     0.196 HD
BRANCH  10  15
HETATM   15  C20 UNL     1       1.431  54.659 -23.122  1.00  0.00     0.117 C 
BRANCH  15  16
HETATM   16  C21 UNL     1       0.977  53.764 -21.993  1.00  0.00    -0.051 A 
HETATM   17  C22 UNL     1       0.149  52.659 -22.242  1.00  0.00     0.008 A 
HETATM   18  C23 UNL     1      -0.272  51.833 -21.194  1.00  0.00     0.017 A 
HETATM   19  C24 UNL     1       0.116  52.100 -19.872  1.00  0.00     0.047 A 
HETATM   20  C26 UNL     1       0.935  53.211 -19.623  1.00  0.00     0.017 A 
HETATM   21  C27 UNL     1       1.366  54.028 -20.672  1.00  0.00     0.008 A 
BRANCH  19  22
HETATM   22  C25 UNL     1      -0.307  51.199 -18.739  1.00  0.00     0.417 C 
HETATM   23  F1  UNL     1       0.624  51.109 -17.745  1.00  0.00    -0.166 F 
HETATM   24  F2  UNL     1      -0.546  49.917 -19.134  1.00  0.00    -0.166 F 
HETATM   25  F3  UNL     1      -1.455  51.623 -18.125  1.00  0.00    -0.166 F 
ENDBRANCH  19  22
ENDBRANCH  15  16
ENDBRANCH  10  15
ENDBRANCH   6   8
ENDBRANCH   3   6
ENDBRANCH   1   2
BRANCH   1  26
HETATM   26  C5  UNL     1      -3.435  48.837 -27.490  1.00  0.00     0.073 C 
BRANCH  26  27
HETATM   27  C6  UNL     1      -4.821  48.279 -27.252  1.00  0.00    -0.056 A 
HETATM   28  C7  UNL     1      -5.648  47.979 -28.338  1.00  0.00     0.010 A 
HETATM   29  C8  UNL     1      -6.965  47.575 -28.129  1.00  0.00     0.038 A 
HETATM   30  C9  UNL     1      -7.466  47.436 -26.836  1.00  0.00     0.081 A 
HETATM   31  C10 UNL     1      -6.634  47.666 -25.747  1.00  0.00     0.038 A 
HETATM   32  C11 UNL     1      -5.317  48.092 -25.956  1.00  0.00     0.010 A 
BRANCH  30  33
HETATM   33  O2  UNL     1      -8.785  47.108 -26.758  1.00  0.00    -0.255 OA
BRANCH  33  34
HETATM   34  P1  UNL     1     -10.038  48.086 -26.640  1.00  0.00     0.396 P 
HETATM   35  O3  UNL     1     -11.063  47.923 -27.715  1.00  0.00    -0.631 OA
BRANCH  34  36
HETATM   36  O4  UNL     1     -10.656  47.880 -25.183  1.00  0.00    -0.307 OA
HETATM   37  H11 UNL     1     -11.312  47.157 -25.194  1.00  0.00     0.222 HD
ENDBRANCH  34  36
BRANCH  34  38
HETATM   38  O5  UNL     1      -9.488  49.587 -26.613  1.00  0.00    -0.307 OA
HETATM   39  H12 UNL     1      -9.641  50.020 -27.472  1.00  0.00     0.222 HD
ENDBRANCH  34  38
ENDBRANCH  33  34
ENDBRANCH  30  33
ENDBRANCH  26  27
ENDBRANCH   1  26
BRANCH   1  40
HETATM   40  N2  UNL     1      -3.910  50.388 -25.579  1.00  0.00    -0.347 N 
HETATM   41  C12 UNL     1      -3.666  50.924 -24.337  1.00  0.00     0.223 C 
HETATM   42  O6  UNL     1      -2.602  50.757 -23.745  1.00  0.00    -0.273 OA
HETATM   43  H15 UNL     1      -4.683  50.751 -26.133  1.00  0.00     0.163 HD
BRANCH  41  44
HETATM   44  C13 UNL     1      -4.826  51.716 -23.753  1.00  0.00     0.148 C 
BRANCH  44  45
HETATM   45  C14 UNL     1      -5.562  50.876 -22.756  1.00  0.00    -0.009 A 
HETATM   46  C15 UNL     1      -6.702  50.119 -22.955  1.00  0.00     0.015 A 
HETATM   47  C16 UNL     1      -7.114  49.442 -21.772  1.00  0.00     0.008 A 
HETATM   48  C17 UNL     1      -6.279  49.706 -20.708  1.00  0.00     0.050 A 
HETATM   49  S1  UNL     1      -5.007  50.767 -21.138  1.00  0.00    -0.106 SA
ENDBRANCH  44  45
ENDBRANCH  41  44
ENDBRANCH   1  40
TORSDOF 15
ENDMDL
