MODEL 1
REMARK minimizedAffinity -8.69305038
REMARK  9 active torsions:
REMARK  status: ('A' for Active; 'I' for Inactive)
REMARK    1  A    between atoms: N1_2  and  C3_4 
REMARK    2  A    between atoms: C3_4  and  C4_5 
REMARK    3  A    between atoms: C4_5  and  N2_6 
REMARK    4  A    between atoms: N2_6  and  C5_7 
REMARK    5  A    between atoms: C7_9  and  C8_10 
REMARK    6  A    between atoms: C15_17  and  N3_18 
REMARK    7  A    between atoms: C16_19  and  C17_20 
REMARK       I    between atoms: C17_20  and  N4_22 
REMARK    8  A    between atoms: N4_22  and  N5_23 
REMARK    9  A    between atoms: C18_25  and  C19_26 
ROOT
HETATM    1  C5  UNL     1      -0.297  52.424 -22.057  1.00  0.00     0.081 A 
HETATM    2  C6  UNL     1       0.358  52.492 -23.277  1.00  0.00     0.055 A 
HETATM    3  C7  UNL     1      -0.154  51.813 -24.392  1.00  0.00    -0.007 A 
HETATM    4  C14 UNL     1      -1.347  51.059 -24.227  1.00  0.00     0.037 A 
HETATM    5  C15 UNL     1      -2.176  50.253 -25.093  1.00  0.00     0.062 A 
HETATM    6  C16 UNL     1      -3.269  49.690 -24.451  1.00  0.00     0.103 A 
HETATM    7  S1  UNL     1      -3.296  50.133 -22.796  1.00  0.00    -0.064 SA
HETATM    8  C24 UNL     1      -1.882  51.063 -22.943  1.00  0.00     0.089 A 
HETATM    9  N7  UNL     1      -1.405  51.705 -21.861  1.00  0.00    -0.341 N 
ATOM     10  H7  UNL     1      -1.861  51.646 -20.950  1.00  0.00     0.167 HD
ENDROOT
BRANCH   6  11
HETATM   11  C17 UNL     1      -4.311  48.839 -25.025  1.00  0.00     0.279 C 
HETATM   12  O1  UNL     1      -4.987  48.066 -24.343  1.00  0.00    -0.265 OA
HETATM   13  N4  UNL     1      -4.486  48.972 -26.401  1.00  0.00    -0.266 N 
HETATM   14  H20 UNL     1      -3.910  49.635 -26.907  1.00  0.00     0.190 HD
BRANCH  13  15
HETATM   15  N5  UNL     1      -5.421  48.231 -27.063  1.00  0.00    -0.307 N 
HETATM   16  C18 UNL     1      -5.211  48.062 -28.327  1.00  0.00     0.136 C 
ATOM     17  H5  UNL     1      -6.234  47.835 -26.591  1.00  0.00     0.186 HD
BRANCH  16  18
HETATM   18  C19 UNL     1      -6.112  47.297 -29.156  1.00  0.00     0.050 A 
HETATM   19  C20 UNL     1      -7.040  46.363 -28.715  1.00  0.00     0.032 A 
HETATM   20  C21 UNL     1      -7.724  45.848 -29.839  1.00  0.00     0.019 A 
HETATM   21  C22 UNL     1      -7.205  46.472 -30.948  1.00  0.00     0.091 A 
HETATM   22  N6  UNL     1      -6.228  47.343 -30.532  1.00  0.00    -0.360 N 
HETATM   23  C23 UNL     1      -5.454  48.177 -31.431  1.00  0.00     0.155 C 
ENDBRANCH  16  18
ENDBRANCH  13  15
ENDBRANCH   6  11
BRANCH   5  24
HETATM   24  N3  UNL     1      -1.929  50.045 -26.406  1.00  0.00    -0.397 N 
HETATM   25  H18 UNL     1      -2.609  49.554 -26.994  1.00  0.00     0.156 HD
HETATM   26  H19 UNL     1      -1.233  50.563 -26.935  1.00  0.00     0.156 HD
ENDBRANCH   5  24
BRANCH   3  27
HETATM   27  C8  UNL     1       0.531  51.886 -25.681  1.00  0.00    -0.025 A 
HETATM   28  C9  UNL     1      -0.065  52.533 -26.775  1.00  0.00     0.012 A 
HETATM   29  C10 UNL     1       0.590  52.603 -28.006  1.00  0.00     0.001 A 
HETATM   30  C11 UNL     1       1.849  52.023 -28.160  1.00  0.00     0.000 A 
HETATM   31  C12 UNL     1       2.450  51.372 -27.084  1.00  0.00     0.001 A 
HETATM   32  C13 UNL     1       1.795  51.302 -25.854  1.00  0.00     0.012 A 
ENDBRANCH   3  27
BRANCH   1  33
HETATM   33  N2  UNL     1       0.204  53.087 -20.930  1.00  0.00    -0.277 NA
HETATM   34  H11 UNL     1       1.221  53.079 -21.075  1.00  0.00     0.129 HD
BRANCH  33  35
HETATM   35  C4  UNL     1      -0.065  52.414 -19.650  1.00  0.00     0.124 C 
BRANCH  35  36
HETATM   36  C3  UNL     1       0.937  52.862 -18.558  1.00  0.00     0.286 C 
BRANCH  36  37
HETATM   37  N1  UNL     1       0.742  52.187 -17.256  1.00  0.00     0.081 N 
HETATM   38  C1  UNL     1       0.219  50.829 -17.417  1.00  0.00     0.309 C 
HETATM   39  C2  UNL     1       2.005  52.153 -16.514  1.00  0.00     0.309 C 
ENDBRANCH  36  37
ENDBRANCH  35  36
ENDBRANCH  33  35
ENDBRANCH   1  33
TORSDOF 9
ENDMDL
