MODEL 1
REMARK minimizedAffinity -8.12870216
REMARK CNNscore 0.621109605
REMARK CNNaffinity 7.27647161
REMARK  16 active torsions:
REMARK  status: ('A' for Active; 'I' for Inactive)
REMARK    1  A    between atoms: N1_2  and  C2_3 
REMARK    2  A    between atoms: N1_2  and  C5_14 
REMARK    3  A    between atoms: C2_3  and  C3_4 
REMARK    4  A    between atoms: C3_4  and  O1_5 
REMARK    5  A    between atoms: O1_5  and  P1_6 
REMARK    6  A    between atoms: P1_6  and  O3_8 
REMARK    7  A    between atoms: P1_6  and  C4_9 
REMARK    8  A    between atoms: C4_9  and  P2_10 
REMARK    9  A    between atoms: P2_10  and  O5_12 
REMARK   10  A    between atoms: P2_10  and  O6_13 
REMARK   11  A    between atoms: C5_14  and  C6_15 
REMARK   12  A    between atoms: C6_15  and  C7_16 
REMARK   13  A    between atoms: C10_19  and  N2_20 
REMARK   14  A    between atoms: C12_22  and  C13_23 
REMARK   15  A    between atoms: C17_27  and  O7_28 
REMARK   16  A    between atoms: C20_31  and  N3_32 
ROOT
HETATM    1  C7  UNL     1      -2.466  48.234 -19.382  1.00  0.00    -0.056 A 
HETATM    2  C8  UNL     1      -1.309  47.941 -20.110  1.00  0.00     0.009 A 
HETATM    3  C9  UNL     1      -0.758  48.873 -21.000  1.00  0.00     0.030 A 
HETATM    4  C10 UNL     1      -1.347  50.135 -21.183  1.00  0.00     0.040 A 
HETATM    5  C23 UNL     1      -2.504  50.425 -20.449  1.00  0.00     0.030 A 
HETATM    6  C24 UNL     1      -3.050  49.491 -19.555  1.00  0.00     0.009 A 
ENDROOT
BRANCH   4   7
HETATM    7  N2  UNL     1      -0.763  51.092 -22.088  1.00  0.00    -0.307 N 
HETATM    8  C11 UNL     1      -0.828  51.015 -23.473  1.00  0.00     0.112 A 
HETATM    9  C12 UNL     1      -0.139  52.070 -24.031  1.00  0.00     0.008 A 
HETATM   10  C19 UNL     1       0.369  52.857 -22.969  1.00  0.00     0.065 A 
HETATM   11  C20 UNL     1       1.133  54.032 -22.865  1.00  0.00     0.114 A 
HETATM   12  C22 UNL     1      -0.031  52.247 -21.779  1.00  0.00     0.128 A 
HETATM   13  N4  UNL     1       1.425  54.519 -21.648  1.00  0.00    -0.338 N 
HETATM   14  C21 UNL     1       0.985  53.844 -20.576  1.00  0.00     0.183 A 
ATOM     15  H4  UNL     1       1.967  55.377 -21.542  1.00  0.00     0.168 HD
HETATM   16  N5  UNL     1       0.261  52.718 -20.549  1.00  0.00    -0.337 N 
ATOM     17  H5  UNL     1      -0.040  52.263 -19.687  1.00  0.00     0.168 HD
BRANCH   9  18
HETATM   18  C13 UNL     1      -0.017  52.245 -25.462  1.00  0.00    -0.021 A 
HETATM   19  C14 UNL     1       1.113  51.758 -26.130  1.00  0.00     0.012 A 
HETATM   20  C15 UNL     1       1.244  51.943 -27.508  1.00  0.00     0.004 A 
HETATM   21  C16 UNL     1       0.250  52.615 -28.221  1.00  0.00     0.036 A 
HETATM   22  C17 UNL     1      -0.867  53.099 -27.547  1.00  0.00     0.066 A 
HETATM   23  C18 UNL     1      -1.011  52.921 -26.174  1.00  0.00     0.049 A 
BRANCH  22  24
HETATM   24  O7  UNL     1      -1.856  53.770 -28.205  1.00  0.00    -0.361 OA
HETATM   25  H23 UNL     1      -1.662  53.759 -29.156  1.00  0.00     0.217 HD
ENDBRANCH  22  24
ENDBRANCH   9  18
BRANCH  11  26
HETATM   26  N3  UNL     1       1.611  54.747 -23.953  1.00  0.00    -0.385 N 
HETATM   27  H25 UNL     1       1.101  54.628 -24.818  1.00  0.00     0.157 HD
HETATM   28  H26 UNL     1       1.863  55.692 -23.694  1.00  0.00     0.157 HD
ENDBRANCH  11  26
ENDBRANCH   4   7
BRANCH   1  29
HETATM   29  C6  UNL     1      -2.998  47.227 -18.387  1.00  0.00     0.068 C 
BRANCH  29  30
HETATM   30  C5  UNL     1      -3.814  46.042 -18.950  1.00  0.00     0.276 C 
BRANCH  30  31
HETATM   31  N1  UNL     1      -5.123  45.781 -18.314  1.00  0.00     0.086 N 
HETATM   32  C1  UNL     1      -5.590  46.940 -17.547  1.00  0.00     0.310 C 
BRANCH  31  33
HETATM   33  C2  UNL     1      -6.106  45.393 -19.343  1.00  0.00     0.298 C 
BRANCH  33  34
HETATM   34  C3  UNL     1      -6.495  46.538 -20.287  1.00  0.00     0.208 C 
BRANCH  34  35
HETATM   35  O1  UNL     1      -6.508  46.045 -21.625  1.00  0.00    -0.317 OA
BRANCH  35  36
HETATM   36  P1  UNL     1      -7.776  46.310 -22.579  1.00  0.00     0.249 P 
HETATM   37  O2  UNL     1      -7.556  45.829 -23.976  1.00  0.00    -0.653 OA
BRANCH  36  38
HETATM   38  O3  UNL     1      -8.935  45.464 -21.857  1.00  0.00    -0.329 OA
HETATM   39  H8  UNL     1      -8.874  44.513 -22.075  1.00  0.00     0.220 HD
ENDBRANCH  36  38
BRANCH  36  40
HETATM   40  C4  UNL     1      -8.190  48.017 -22.373  1.00  0.00     0.249 C 
BRANCH  40  41
HETATM   41  P2  UNL     1      -7.831  49.191 -23.652  1.00  0.00     0.247 P 
HETATM   42  O4  UNL     1      -8.885  49.355 -24.696  1.00  0.00    -0.653 OA
BRANCH  41  43
HETATM   43  O5  UNL     1      -7.425  50.573 -22.949  1.00  0.00    -0.329 OA
HETATM   44  H11 UNL     1      -6.866  50.512 -22.149  1.00  0.00     0.220 HD
ENDBRANCH  41  43
BRANCH  41  45
HETATM   45  O6  UNL     1      -6.426  48.781 -24.294  1.00  0.00    -0.329 OA
HETATM   46  H12 UNL     1      -6.244  49.291 -25.109  1.00  0.00     0.220 HD
ENDBRANCH  41  45
ENDBRANCH  40  41
ENDBRANCH  36  40
ENDBRANCH  35  36
ENDBRANCH  34  35
ENDBRANCH  33  34
ENDBRANCH  31  33
ENDBRANCH  30  31
ENDBRANCH  29  30
ENDBRANCH   1  29
TORSDOF 16
ENDMDL
