MODEL 1
REMARK minimizedAffinity -9.84301949
REMARK  1 active torsions:
REMARK  status: ('A' for Active; 'I' for Inactive)
REMARK    1  A    between atoms: C2_2  and  N1_3 
ROOT
HETATM    1  N1  UNL     1      -6.144   3.002  12.135  1.00  0.00    -0.317 N 
HETATM    2  C3  UNL     1      -7.365   3.223  12.781  1.00  0.00     0.237 A 
HETATM    3  O1  UNL     1      -8.346   2.493  12.759  1.00  0.00    -0.272 OA
HETATM    4  C4  UNL     1      -7.251   4.567  13.536  1.00  0.00     0.063 A 
HETATM    5  C5  UNL     1      -7.479   4.336  15.029  1.00  0.00     0.030 C 
HETATM    6  C6  UNL     1      -8.256   5.564  12.959  1.00  0.00     0.030 C 
HETATM    7  C7  UNL     1      -5.824   4.975  13.239  1.00  0.00    -0.012 A 
HETATM    8  C8  UNL     1      -5.135   6.101  13.673  1.00  0.00     0.041 A 
HETATM    9  C9  UNL     1      -3.806   6.210  13.239  1.00  0.00     0.044 A 
HETATM   10  N2  UNL     1      -2.880   7.194  13.493  1.00  0.00    -0.353 N 
HETATM   11  C10 UNL     1      -1.687   6.927  12.869  1.00  0.00     0.069 A 
HETATM   12  C11 UNL     1      -1.832   5.720  12.200  1.00  0.00    -0.017 A 
HETATM   13  C12 UNL     1      -3.177   5.266  12.423  1.00  0.00     0.001 A 
HETATM   14  C13 UNL     1      -3.908   4.133  11.996  1.00  0.00     0.044 A 
HETATM   15  C14 UNL     1      -5.225   4.021  12.420  1.00  0.00     0.045 A 
HETATM   16  C15 UNL     1      -0.807   5.008  11.369  1.00  0.00     0.042 C 
HETATM   17  C16 UNL     1       0.630   5.123  11.881  1.00  0.00     0.009 C 
HETATM   18  C17 UNL     1       1.260   6.486  11.596  1.00  0.00     0.043 C 
HETATM   19  C18 UNL     1       0.731   7.611  12.421  1.00  0.00    -0.004 A 
HETATM   20  C19 UNL     1       1.444   8.779  12.820  1.00  0.00     0.030 A 
HETATM   21  C20 UNL     1       2.854   9.137  12.522  1.00  0.00     0.070 C 
HETATM   22  N3  UNL     1       0.684   9.604  13.547  1.00  0.00    -0.304 N 
ATOM     23  H3  UNL     1       0.944  10.499  13.961  1.00  0.00     0.186 HD
HETATM   24  N4  UNL     1      -0.500   8.979  13.604  1.00  0.00    -0.298 N 
HETATM   25  C21 UNL     1      -0.538   7.778  12.949  1.00  0.00     0.083 A 
HETATM   26  H13 UNL     1      -3.075   8.001  14.066  1.00  0.00     0.166 HD
HETATM   27  H24 UNL     1      -1.244   9.440  14.112  1.00  0.00     0.187 HD
ENDROOT
BRANCH   1  28
HETATM   28  C2  UNL     1      -5.851   1.814  11.366  1.00  0.00     0.128 C 
HETATM   29  C1  UNL     1      -4.460   1.275  11.655  1.00  0.00     0.027 C 
ENDBRANCH   1  28
TORSDOF 1
ENDMDL
