MODEL 1
REMARK minimizedAffinity -10.2644291
REMARK CNNscore 0.76091063
REMARK CNNaffinity 7.71860504
REMARK  4 active torsions:
REMARK  status: ('A' for Active; 'I' for Inactive)
REMARK    1  A    between atoms: C5_5  and  N1_6 
REMARK    2  A    between atoms: C9_13  and  N3_14 
REMARK    3  A    between atoms: N3_14  and  C10_15 
REMARK    4  A    between atoms: C13_18  and  N4_19 
ROOT
HETATM    1  N1  UNL     1      -0.111  51.983 -22.499  1.00  0.00    -0.110 N 
HETATM    2  C6  UNL     1       0.476  52.814 -21.532  1.00  0.00     0.282 A 
HETATM    3  O1  UNL     1       1.077  53.867 -21.743  1.00  0.00    -0.266 OA
HETATM    4  C7  UNL     1       0.429  52.371 -20.128  1.00  0.00     0.095 A 
HETATM    5  C8  UNL     1       0.999  53.097 -19.110  1.00  0.00     0.127 A 
HETATM    6  N2  UNL     1       0.992  52.699 -17.818  1.00  0.00    -0.201 N 
ATOM      7  H2  UNL     1       1.422  53.269 -17.089  1.00  0.00     0.183 HD
HETATM    8  C9  UNL     1       0.402  51.532 -17.523  1.00  0.00     0.684 A 
HETATM    9  N6  UNL     1      -0.192  50.765 -18.455  1.00  0.00    -0.174 N 
ATOM     10  H6  UNL     1      -0.647  49.887 -18.204  1.00  0.00     0.186 HD
HETATM   11  C21 UNL     1      -0.164  51.199 -19.737  1.00  0.00     0.162 A 
HETATM   12  N7  UNL     1      -0.765  50.430 -20.748  1.00  0.00    -0.128 N 
HETATM   13  C22 UNL     1      -1.455  49.238 -20.642  1.00  0.00     0.086 A 
HETATM   14  C23 UNL     1      -1.776  48.386 -19.573  1.00  0.00     0.033 A 
HETATM   15  C24 UNL     1      -2.518  47.235 -19.865  1.00  0.00     0.002 A 
HETATM   16  C25 UNL     1      -2.929  46.952 -21.168  1.00  0.00     0.002 A 
HETATM   17  C26 UNL     1      -2.604  47.814 -22.219  1.00  0.00     0.032 A 
HETATM   18  C27 UNL     1      -1.858  48.968 -21.945  1.00  0.00     0.077 A 
HETATM   19  N8  UNL     1      -1.429  49.940 -22.806  1.00  0.00    -0.188 N 
ATOM     20  H8  UNL     1      -1.602  49.988 -23.809  1.00  0.00     0.184 HD
HETATM   21  C28 UNL     1      -0.746  50.806 -22.080  1.00  0.00     0.701 A 
ENDROOT
BRANCH   8  22
HETATM   22  N3  UNL     1       0.384  51.005 -16.238  1.00  0.00    -0.192 N 
HETATM   23  H7  UNL     1       0.039  50.056 -16.269  1.00  0.00     0.184 HD
BRANCH  22  24
HETATM   24  C10 UNL     1       0.772  51.485 -14.983  1.00  0.00     0.049 A 
HETATM   25  C11 UNL     1      -0.211  52.039 -14.149  1.00  0.00     0.032 A 
HETATM   26  C12 UNL     1       0.097  52.509 -12.863  1.00  0.00     0.026 A 
HETATM   27  C13 UNL     1       1.404  52.451 -12.364  1.00  0.00     0.010 A 
HETATM   28  C19 UNL     1       2.385  51.904 -13.203  1.00  0.00     0.026 A 
HETATM   29  C20 UNL     1       2.076  51.423 -14.486  1.00  0.00     0.032 A 
BRANCH  27  30
HETATM   30  N4  UNL     1       1.772  52.898 -11.088  1.00  0.00    -0.280 NA
HETATM   31  C14 UNL     1       1.127  54.125 -10.580  1.00  0.00     0.126 C 
HETATM   32  C15 UNL     1       1.524  54.384  -9.108  1.00  0.00     0.286 C 
HETATM   33  N5  UNL     1       2.983  54.424  -8.850  1.00  0.00     0.086 N 
HETATM   34  C16 UNL     1       3.600  55.627  -9.405  1.00  0.00     0.310 C 
HETATM   35  C17 UNL     1       3.592  53.192  -9.399  1.00  0.00     0.286 C 
HETATM   36  C18 UNL     1       3.236  52.861 -10.870  1.00  0.00     0.126 C 
ENDBRANCH  27  30
ENDBRANCH  22  24
ENDBRANCH   8  22
BRANCH   1  37
HETATM   37  C5  UNL     1      -0.109  52.310 -23.899  1.00  0.00     0.060 A 
HETATM   38  C4  UNL     1       0.095  53.621 -24.362  1.00  0.00     0.031 A 
HETATM   39  C3  UNL     1       0.091  53.930 -25.729  1.00  0.00     0.009 A 
HETATM   40  C2  UNL     1      -0.134  52.935 -26.679  1.00  0.00    -0.062 A 
HETATM   41  C1  UNL     1      -0.094  53.249 -28.145  1.00  0.00     0.048 C 
HETATM   42  C30 UNL     1      -0.337  51.626 -26.239  1.00  0.00     0.009 A 
HETATM   43  C29 UNL     1      -0.335  51.322 -24.871  1.00  0.00     0.031 A 
ENDBRANCH   1  37
TORSDOF 4
ENDMDL
