MODEL 1
REMARK minimizedAffinity -7.68318987
REMARK CNNscore 0.572750568
REMARK CNNaffinity 7.83650732
REMARK  6 active torsions:
REMARK  status: ('A' for Active; 'I' for Inactive)
REMARK    1  A    between atoms: O1_2  and  C2_3 
REMARK    2  A    between atoms: C4_5  and  N1_6 
REMARK    3  A    between atoms: N1_6  and  C5_7 
REMARK    4  A    between atoms: C11_16  and  O2_17 
REMARK    5  A    between atoms: O2_17  and  C12_18 
REMARK    6  A    between atoms: C18_25  and  O3_26 
ROOT
HETATM    1  C5  UNL     1      -1.116  52.043 -21.716  1.00  0.00     0.067 A 
HETATM    2  C6  UNL     1      -0.017  52.401 -20.919  1.00  0.00     0.087 A 
HETATM    3  C7  UNL     1       0.838  53.509 -21.204  1.00  0.00     0.103 C 
HETATM    4  N2  UNL     1       1.521  54.423 -21.416  1.00  0.00    -0.191 NA
HETATM    5  C8  UNL     1       0.222  51.660 -19.775  1.00  0.00     0.113 A 
HETATM    6  N3  UNL     1      -0.555  50.637 -19.358  1.00  0.00    -0.364 N 
ATOM      7  H3  UNL     1      -0.332  50.127 -18.503  1.00  0.00     0.165 HD
HETATM    8  C9  UNL     1      -1.627  50.307 -20.094  1.00  0.00     0.047 A 
HETATM    9  C10 UNL     1      -2.430  49.266 -19.652  1.00  0.00     0.070 A 
HETATM   10  C11 UNL     1      -3.565  48.855 -20.356  1.00  0.00     0.104 A 
HETATM   11  C18 UNL     1      -3.905  49.510 -21.550  1.00  0.00     0.102 A 
HETATM   12  C20 UNL     1      -3.109  50.565 -22.001  1.00  0.00     0.055 A 
HETATM   13  C21 UNL     1      -1.964  50.983 -21.284  1.00  0.00     0.022 A 
ENDROOT
BRANCH   1  14
HETATM   14  N1  UNL     1      -1.502  52.795 -22.871  1.00  0.00    -0.353 N 
HETATM   15  H5  UNL     1      -1.451  53.789 -22.645  1.00  0.00     0.166 HD
BRANCH  14  16
HETATM   16  C4  UNL     1      -1.123  52.540 -24.218  1.00  0.00     0.057 A 
HETATM   17  C3  UNL     1       0.243  52.633 -24.548  1.00  0.00     0.069 A 
HETATM   18  C2  UNL     1       0.697  52.386 -25.851  1.00  0.00     0.092 A 
HETATM   19  C24 UNL     1      -0.233  52.089 -26.853  1.00  0.00     0.069 A 
HETATM   20  C23 UNL     1      -1.593  52.012 -26.555  1.00  0.00     0.052 A 
HETATM   21 CL2  UNL     1       0.258  51.806 -28.485  1.00  0.00    -0.081 Cl
HETATM   22  C22 UNL     1      -2.037  52.237 -25.250  1.00  0.00     0.062 A 
HETATM   23 CL1  UNL     1      -3.750  52.189 -24.996  1.00  0.00    -0.082 Cl
BRANCH  18  24
HETATM   24  O1  UNL     1       2.015  52.473 -26.215  1.00  0.00    -0.354 OA
HETATM   25  C1  UNL     1       2.684  51.234 -26.428  1.00  0.00     0.210 C 
ENDBRANCH  18  24
ENDBRANCH  14  16
ENDBRANCH   1  14
BRANCH  11  26
HETATM   26  O3  UNL     1      -5.030  49.055 -22.193  1.00  0.00    -0.353 OA
HETATM   27  C19 UNL     1      -4.853  48.377 -23.429  1.00  0.00     0.210 C 
ENDBRANCH  11  26
BRANCH  10  28
HETATM   28  O2  UNL     1      -4.399  47.835 -19.978  1.00  0.00    -0.343 OA
BRANCH  28  29
HETATM   29  C12 UNL     1      -3.876  46.522 -19.750  1.00  0.00     0.132 C 
HETATM   30  C13 UNL     1      -4.621  45.485 -20.606  1.00  0.00     0.062 C 
HETATM   31  C14 UNL     1      -4.798  44.138 -19.901  1.00  0.00     0.274 C 
HETATM   32  N4  UNL     1      -3.644  43.864 -19.046  1.00  0.00     0.084 N 
HETATM   33  C15 UNL     1      -3.642  42.483 -18.568  1.00  0.00     0.309 C 
HETATM   34  C16 UNL     1      -3.563  44.810 -17.923  1.00  0.00     0.274 C 
HETATM   35  C17 UNL     1      -4.079  46.208 -18.268  1.00  0.00     0.062 C 
ENDBRANCH  28  29
ENDBRANCH  10  28
TORSDOF 6
ENDMDL
