MODEL 1
REMARK minimizedAffinity -9.82791901
REMARK CNNscore 0.253605455
REMARK CNNaffinity 7.95288086
REMARK  6 active torsions:
REMARK  status: ('A' for Active; 'I' for Inactive)
REMARK    1  A    between atoms: C2_2  and  C3_3 
REMARK       I    between atoms: C3_3  and  N1_5 
REMARK    2  A    between atoms: C7_9  and  C8_10 
REMARK    3  A    between atoms: C13_17  and  C14_18 
REMARK       I    between atoms: C14_18  and  N3_20 
REMARK    4  A    between atoms: N3_20  and  C15_21 
REMARK    5  A    between atoms: C17_23  and  C18_24 
REMARK    6  A    between atoms: C24_36  and  N5_37 
ROOT
HETATM    1  C8  UNL     1      -4.224   4.657  12.421  1.00  0.00     0.094 A 
HETATM    2  N2  UNL     1      -5.098   5.470  12.988  1.00  0.00    -0.342 N 
ATOM      3  H2  UNL     1      -4.918   6.406  13.351  1.00  0.00     0.167 HD
HETATM    4  C9  UNL     1      -6.297   4.801  12.990  1.00  0.00     0.077 A 
HETATM    5  C10 UNL     1      -7.499   5.412  13.499  1.00  0.00     0.032 A 
HETATM    6  C11 UNL     1      -7.644   5.612  14.875  1.00  0.00     0.018 A 
HETATM    7  C12 UNL     1      -8.778   6.260  15.378  1.00  0.00     0.018 A 
HETATM    8  C13 UNL     1      -9.765   6.742  14.502  1.00  0.00     0.035 A 
HETATM    9  C21 UNL     1      -9.624   6.522  13.125  1.00  0.00     0.060 A 
HETATM   10  C22 UNL     1      -8.498   5.865  12.636  1.00  0.00     0.130 A 
HETATM   11  F4  UNL     1      -8.390   5.687  11.311  1.00  0.00    -0.205 F 
HETATM   12  C23 UNL     1      -6.144   3.527  12.497  1.00  0.00     0.106 A 
HETATM   13  C24 UNL     1      -7.003   2.383  12.305  1.00  0.00     0.107 A 
HETATM   14  N6  UNL     1      -6.513   1.274  11.798  1.00  0.00    -0.354 N 
ATOM     15  H6  UNL     1      -7.111   0.458  11.665  1.00  0.00     0.166 HD
HETATM   16  C25 UNL     1      -5.181   1.229  11.449  1.00  0.00     0.107 A 
HETATM   17  C26 UNL     1      -4.330   2.255  11.603  1.00  0.00     0.116 A 
HETATM   18  N7  UNL     1      -4.815   3.437  12.135  1.00  0.00    -0.305 N 
ENDROOT
BRANCH   1  19
HETATM   19  C7  UNL     1      -2.798   5.047  12.154  1.00  0.00     0.072 C 
HETATM   20  C6  UNL     1      -1.788   3.932  12.445  1.00  0.00     0.015 C 
HETATM   21  C5  UNL     1      -0.344   4.354  12.146  1.00  0.00     0.021 C 
HETATM   22  C4  UNL     1      -0.184   5.850  11.884  1.00  0.00     0.126 C 
HETATM   23  N1  UNL     1      -0.974   6.633  12.832  1.00  0.00    -0.351 N 
HETATM   24  C3  UNL     1      -0.340   7.639  13.575  1.00  0.00     0.232 C 
HETATM   25  C27 UNL     1      -2.416   6.372  12.835  1.00  0.00     0.138 C 
HETATM   26  O1  UNL     1       0.891   7.776  13.509  1.00  0.00    -0.272 OA
BRANCH  24  27
HETATM   27  C2  UNL     1      -1.186   8.553  14.508  1.00  0.00     0.080 C 
HETATM   28  C1  UNL     1      -2.041   9.559  13.731  1.00  0.00     0.030 C 
HETATM   29  C28 UNL     1      -2.073   7.780  15.522  1.00  0.00     0.188 C 
HETATM   30  O3  UNL     1      -1.661   8.661  16.600  1.00  0.00    -0.389 OA
HETATM   31  C29 UNL     1      -0.540   9.104  15.798  1.00  0.00     0.188 C 
ENDBRANCH  24  27
ENDBRANCH   1  19
BRANCH  13  32
HETATM   32  N5  UNL     1      -8.324   2.349  12.641  1.00  0.00    -0.287 NA
HETATM   33  H18 UNL     1      -8.605   2.900  13.441  1.00  0.00     0.125 HD
HETATM   34  H19 UNL     1      -8.685   1.402  12.652  1.00  0.00     0.125 HD
ENDBRANCH  13  32
BRANCH   8  35
HETATM   35  C14 UNL     1     -10.977   7.476  14.974  1.00  0.00     0.257 C 
HETATM   36  O2  UNL     1     -12.078   6.971  14.775  1.00  0.00    -0.267 OA
HETATM   37  N3  UNL     1     -10.749   8.693  15.568  1.00  0.00    -0.309 N 
HETATM   38  H13 UNL     1      -9.820   9.088  15.597  1.00  0.00     0.170 HD
BRANCH  37  39
HETATM   39  C15 UNL     1     -11.678   9.563  16.141  1.00  0.00     0.108 A 
HETATM   40  C16 UNL     1     -11.713  10.932  15.923  1.00  0.00     0.064 A 
HETATM   41  C17 UNL     1     -12.705  11.699  16.551  1.00  0.00     0.052 A 
HETATM   42  C19 UNL     1     -13.624  11.054  17.380  1.00  0.00     0.033 A 
HETATM   43  C20 UNL     1     -13.513   9.685  17.540  1.00  0.00     0.090 A 
HETATM   44  N4  UNL     1     -12.565   8.933  16.940  1.00  0.00    -0.352 N 
ATOM     45  H4  UNL     1     -12.521   7.924  17.084  1.00  0.00     0.166 HD
BRANCH  41  46
HETATM   46  C18 UNL     1     -12.746  13.191  16.348  1.00  0.00     0.417 C 
HETATM   47  F1  UNL     1     -13.830  13.763  16.939  1.00  0.00    -0.166 F 
HETATM   48  F2  UNL     1     -12.803  13.551  15.035  1.00  0.00    -0.166 F 
HETATM   49  F3  UNL     1     -11.656  13.826  16.858  1.00  0.00    -0.166 F 
ENDBRANCH  41  46
ENDBRANCH  37  39
ENDBRANCH   8  35
TORSDOF 6
ENDMDL
