MODEL 1
REMARK minimizedAffinity -7.97512197
REMARK  9 active torsions:
REMARK  status: ('A' for Active; 'I' for Inactive)
REMARK    1  A    between atoms: O1_2  and  C2_3 
REMARK    2  A    between atoms: C6_8  and  N1_9 
REMARK    3  A    between atoms: N1_9  and  C7_10 
REMARK    4  A    between atoms: C11_18  and  O2_19 
REMARK    5  A    between atoms: O2_19  and  C12_20 
REMARK    6  A    between atoms: C12_20  and  C13_21 
REMARK    7  A    between atoms: C13_21  and  C14_22 
REMARK    8  A    between atoms: C14_22  and  N4_23 
REMARK    9  A    between atoms: C19_29  and  O4_30 
ROOT
HETATM    1  C7  UNL     1      -0.188  52.410 -21.360  1.00  0.00     0.098 A 
HETATM    2  N2  UNL     1       0.427  53.530 -21.782  1.00  0.00    -0.342 N 
ATOM      3  H2  UNL     1       0.336  53.861 -22.743  1.00  0.00     0.167 HD
HETATM    4  C8  UNL     1       1.162  54.185 -20.881  1.00  0.00     0.182 A 
HETATM    5  N3  UNL     1       1.324  53.845 -19.597  1.00  0.00    -0.351 N 
ATOM      6  H3  UNL     1       1.886  54.412 -18.961  1.00  0.00     0.166 HD
HETATM    7  C9  UNL     1       0.716  52.728 -19.188  1.00  0.00     0.049 A 
HETATM    8  C10 UNL     1       0.869  52.341 -17.863  1.00  0.00     0.070 A 
HETATM    9  C11 UNL     1       0.276  51.180 -17.354  1.00  0.00     0.104 A 
HETATM   10  C19 UNL     1      -0.494  50.373 -18.205  1.00  0.00     0.102 A 
HETATM   11  C21 UNL     1      -0.665  50.755 -19.536  1.00  0.00     0.056 A 
HETATM   12  C22 UNL     1      -0.068  51.940 -20.037  1.00  0.00     0.032 A 
ENDROOT
BRANCH   1  13
HETATM   13  N1  UNL     1      -1.009  51.695 -22.278  1.00  0.00    -0.243 NA
HETATM   14  H6  UNL     1      -1.960  52.031 -22.163  1.00  0.00     0.135 HD
BRANCH  13  15
HETATM   15  C6  UNL     1      -0.681  51.522 -23.651  1.00  0.00     0.038 A 
HETATM   16  C5  UNL     1      -1.468  50.746 -24.525  1.00  0.00     0.055 A 
HETATM   17  C4  UNL     1      -1.080  50.565 -25.855  1.00  0.00     0.028 A 
HETATM   18 CL1  UNL     1      -2.974  50.050 -24.031  1.00  0.00    -0.082 Cl
HETATM   19  C3  UNL     1       0.096  51.151 -26.324  1.00  0.00     0.038 A 
HETATM   20  C2  UNL     1       0.893  51.920 -25.475  1.00  0.00     0.070 A 
HETATM   21  C23 UNL     1       0.504  52.102 -24.145  1.00  0.00     0.062 A 
BRANCH  20  22
HETATM   22  O1  UNL     1       2.017  52.432 -26.063  1.00  0.00    -0.356 OA
HETATM   23  C1  UNL     1       2.596  51.679 -27.122  1.00  0.00     0.210 C 
ENDBRANCH  20  22
ENDBRANCH  13  15
ENDBRANCH   1  13
BRANCH  10  24
HETATM   24  O4  UNL     1      -1.052  49.252 -17.645  1.00  0.00    -0.353 OA
HETATM   25  C20 UNL     1      -2.470  49.198 -17.564  1.00  0.00     0.210 C 
ENDBRANCH  10  24
BRANCH   9  26
HETATM   26  O2  UNL     1       0.379  50.754 -16.054  1.00  0.00    -0.348 OA
BRANCH  26  27
HETATM   27  C12 UNL     1       0.547  51.708 -15.005  1.00  0.00     0.177 C 
BRANCH  27  28
HETATM   28  C13 UNL     1      -0.609  51.646 -14.004  1.00  0.00     0.057 C 
BRANCH  28  29
HETATM   29  C14 UNL     1      -0.347  52.464 -12.729  1.00  0.00     0.274 C 
BRANCH  29  30
HETATM   30  N4  UNL     1      -1.340  52.242 -11.666  1.00  0.00     0.092 N 
HETATM   31  C15 UNL     1      -2.617  51.728 -12.209  1.00  0.00     0.298 C 
HETATM   32  C16 UNL     1      -3.688  52.816 -12.384  1.00  0.00     0.198 C 
HETATM   33  O3  UNL     1      -4.027  53.481 -11.158  1.00  0.00    -0.388 OA
HETATM   34  C17 UNL     1      -2.962  53.459 -10.197  1.00  0.00     0.198 C 
HETATM   35  C18 UNL     1      -1.574  53.458 -10.854  1.00  0.00     0.298 C 
ENDBRANCH  29  30
ENDBRANCH  28  29
ENDBRANCH  27  28
ENDBRANCH  26  27
ENDBRANCH   9  26
TORSDOF 9
ENDMDL
