MODEL 1
REMARK minimizedAffinity -9.33649445
REMARK  10 active torsions:
REMARK  status: ('A' for Active; 'I' for Inactive)
REMARK    1  A    between atoms: C2_2  and  C3_3 
REMARK    2  A    between atoms: C2_2  and  O1_9 
REMARK    3  A    between atoms: C4_4  and  C5_5 
REMARK    4  A    between atoms: O1_9  and  C6_10 
REMARK    5  A    between atoms: C8_12  and  C9_13 
REMARK    6  A    between atoms: C11_15  and  C12_16 
REMARK    7  A    between atoms: C14_18  and  C15_19 
REMARK    8  A    between atoms: C15_19  and  N1_20 
REMARK    9  A    between atoms: C20_28  and  N3_29 
REMARK   10  A    between atoms: C23_32  and  C24_33 
REMARK       I    between atoms: C24_33  and  N4_34 
ROOT
HETATM    1  C6  UNL     1      -1.026  51.562 -25.009  1.00  0.00     0.086 A 
HETATM    2  C7  UNL     1      -0.760  51.699 -23.639  1.00  0.00     0.050 A 
HETATM    3  C8  UNL     1       0.100  52.701 -23.166  1.00  0.00    -0.020 A 
HETATM    4  C21 UNL     1       0.644  53.600 -24.094  1.00  0.00     0.013 A 
HETATM    5  C22 UNL     1       0.345  53.498 -25.457  1.00  0.00     0.021 A 
HETATM    6  C23 UNL     1      -0.489  52.474 -25.926  1.00  0.00     0.065 A 
ENDROOT
BRANCH   3   7
HETATM    7  C9  UNL     1       0.427  52.794 -21.735  1.00  0.00     0.013 A 
HETATM    8  C10 UNL     1      -0.050  51.818 -20.841  1.00  0.00     0.029 A 
HETATM    9  C11 UNL     1       0.246  51.888 -19.478  1.00  0.00    -0.003 A 
HETATM   10  C19 UNL     1       1.019  52.967 -19.065  1.00  0.00     0.102 A 
HETATM   11  N2  UNL     1       1.503  53.929 -19.887  1.00  0.00    -0.355 N 
HETATM   12  C20 UNL     1       1.213  53.826 -21.198  1.00  0.00     0.088 A 
ATOM     13  H2  UNL     1       2.066  54.700 -19.527  1.00  0.00     0.166 HD
BRANCH   9  14
HETATM   14  C12 UNL     1      -0.243  50.901 -18.512  1.00  0.00     0.017 A 
HETATM   15  C13 UNL     1      -0.076  50.879 -17.139  1.00  0.00     0.029 A 
HETATM   16  C14 UNL     1      -0.661  49.728 -16.507  1.00  0.00    -0.022 A 
HETATM   17  C18 UNL     1      -1.284  48.930 -17.449  1.00  0.00     0.059 A 
HETATM   18  S1  UNL     1      -1.122  49.527 -19.040  1.00  0.00    -0.101 SA
BRANCH  16  19
HETATM   19  C15 UNL     1      -0.646  49.461 -15.025  1.00  0.00     0.310 C 
BRANCH  19  20
HETATM   20  N1  UNL     1      -1.463  50.392 -14.239  1.00  0.00     0.084 N 
HETATM   21  C16 UNL     1      -0.742  51.581 -13.798  1.00  0.00     0.309 C 
HETATM   22  C17 UNL     1      -2.733  50.738 -14.866  1.00  0.00     0.309 C 
ENDBRANCH  19  20
ENDBRANCH  16  19
ENDBRANCH   9  14
BRANCH  12  23
HETATM   23  N3  UNL     1       1.734  54.850 -21.992  1.00  0.00    -0.288 NA
HETATM   24  H20 UNL     1       2.318  55.423 -21.388  1.00  0.00     0.125 HD
HETATM   25  H21 UNL     1       2.258  54.476 -22.780  1.00  0.00     0.125 HD
ENDBRANCH  12  23
ENDBRANCH   3   7
BRANCH   1  26
HETATM   26  O1  UNL     1      -1.831  50.508 -25.358  1.00  0.00    -0.341 OA
BRANCH  26  27
HETATM   27  C2  UNL     1      -3.208  50.898 -25.508  1.00  0.00     0.147 C 
HETATM   28  C1  UNL     1      -3.472  52.031 -24.517  1.00  0.00     0.044 C 
BRANCH  27  29
HETATM   29  C3  UNL     1      -4.084  49.711 -25.178  1.00  0.00     0.009 C 
HETATM   30  C4  UNL     1      -4.461  48.709 -25.996  1.00  0.00     0.087 C 
BRANCH  30  31
HETATM   31  C5  UNL     1      -4.130  48.457 -27.429  1.00  0.00     0.407 C 
HETATM   32  F1  UNL     1      -2.897  47.898 -27.552  1.00  0.00    -0.167 F 
HETATM   33  F2  UNL     1      -5.009  47.584 -27.981  1.00  0.00    -0.167 F 
HETATM   34  F3  UNL     1      -4.136  49.564 -28.208  1.00  0.00    -0.167 F 
ENDBRANCH  30  31
ENDBRANCH  27  29
ENDBRANCH  26  27
ENDBRANCH   1  26
BRANCH   6  35
HETATM   35  C24 UNL     1      -0.796  52.392 -27.377  1.00  0.00     0.252 C 
HETATM   36  N4  UNL     1      -1.715  53.288 -27.857  1.00  0.00    -0.366 N 
HETATM   37  H24 UNL     1      -1.829  53.312 -28.862  1.00  0.00     0.159 HD
HETATM   38  H25 UNL     1      -1.982  54.110 -27.334  1.00  0.00     0.159 HD
HETATM   39  O2  UNL     1      -0.247  51.602 -28.132  1.00  0.00    -0.268 OA
ENDBRANCH   6  35
TORSDOF 10
ENDMDL
