MODEL 1
REMARK minimizedAffinity -9.71147633
REMARK CNNscore 0.321717083
REMARK CNNaffinity 7.5452857
REMARK  9 active torsions:
REMARK  status: ('A' for Active; 'I' for Inactive)
REMARK    1  A    between atoms: N1_2  and  S1_3 
REMARK    2  A    between atoms: S1_3  and  C2_6 
REMARK    3  A    between atoms: C9_13  and  C10_14 
REMARK    4  A    between atoms: C13_18  and  C14_19 
REMARK    5  A    between atoms: C14_19  and  C15_20 
REMARK    6  A    between atoms: C15_20  and  C16_21 
REMARK    7  A    between atoms: C16_21  and  N3_22 
REMARK       I    between atoms: N4_25  and  C19_26 
REMARK    8  A    between atoms: C19_26  and  C20_28 
REMARK    9  A    between atoms: C20_28  and  O4_29 
ROOT
HETATM    1  C10 UNL     1      -0.988   5.791  11.796  1.00  0.00     0.040 A 
HETATM    2  N2  UNL     1       0.158   5.108  11.454  1.00  0.00    -0.359 N 
HETATM    3  C11 UNL     1       1.203   5.979  11.339  1.00  0.00     0.016 A 
HETATM    4  C12 UNL     1       0.743   7.250  11.590  1.00  0.00    -0.027 A 
HETATM    5  C13 UNL     1      -0.649   7.144  11.883  1.00  0.00    -0.023 A 
HETATM    6  C23 UNL     1       1.641   8.444  11.552  1.00  0.00     0.041 C 
HETATM    7  C24 UNL     1       2.966   8.120  10.832  1.00  0.00     0.005 C 
HETATM    8  C25 UNL     1       3.547   6.761  11.268  1.00  0.00     0.006 C 
HETATM    9  C26 UNL     1       2.589   5.595  10.961  1.00  0.00     0.057 C 
HETATM   10  H9  UNL     1       0.221   4.110  11.282  1.00  0.00     0.166 HD
ENDROOT
BRANCH   1  11
HETATM   11  C9  UNL     1      -2.231   5.129  12.012  1.00  0.00     0.048 C 
HETATM   12  C8  UNL     1      -2.593   3.871  11.714  1.00  0.00     0.047 A 
HETATM   13  C6  UNL     1      -3.953   3.347  11.958  1.00  0.00     0.008 A 
HETATM   14  C27 UNL     1      -1.824   2.743  11.064  1.00  0.00     0.257 A 
HETATM   15  C5  UNL     1      -3.973   2.043  11.450  1.00  0.00     0.046 A 
HETATM   16  C7  UNL     1      -5.090   3.882  12.540  1.00  0.00     0.040 A 
HETATM   17  C4  UNL     1      -5.096   1.239  11.480  1.00  0.00     0.032 A 
HETATM   18  N5  UNL     1      -2.730   1.704  10.932  1.00  0.00    -0.322 N 
HETATM   19  C3  UNL     1      -6.251   1.772  12.056  1.00  0.00     0.027 A 
HETATM   20  C2  UNL     1      -6.238   3.076  12.593  1.00  0.00     0.080 A 
HETATM   21  H35 UNL     1      -2.483   0.819  10.514  1.00  0.00     0.169 HD
HETATM   22  O5  UNL     1      -0.654   2.715  10.731  1.00  0.00    -0.267 OA
BRANCH  20  23
HETATM   23  S1  UNL     1      -7.726   3.742  13.301  1.00  0.00     0.258 S 
HETATM   24  O1  UNL     1      -7.592   3.752  14.740  1.00  0.00    -0.201 OA
HETATM   25  O2  UNL     1      -8.845   3.109  12.639  1.00  0.00    -0.201 OA
BRANCH  23  26
HETATM   26  N1  UNL     1      -7.687   5.325  12.753  1.00  0.00    -0.320 N 
HETATM   27  C1  UNL     1      -8.835   5.852  12.026  1.00  0.00     0.159 C 
HETATM   28  H4  UNL     1      -6.755   5.639  12.484  1.00  0.00     0.171 HD
ENDBRANCH  23  26
ENDBRANCH  20  23
ENDBRANCH   1  11
BRANCH   5  29
HETATM   29  C14 UNL     1      -1.558   8.292  12.215  1.00  0.00     0.043 C 
BRANCH  29  30
HETATM   30  C15 UNL     1      -2.713   7.864  13.125  1.00  0.00     0.035 C 
BRANCH  30  31
HETATM   31  C16 UNL     1      -2.405   8.078  14.613  1.00  0.00     0.273 C 
BRANCH  31  32
HETATM   32  N3  UNL     1      -3.526   7.788  15.518  1.00  0.00     0.091 N 
HETATM   33  C17 UNL     1      -4.348   8.991  15.778  1.00  0.00     0.292 C 
HETATM   34  C18 UNL     1      -5.722   9.013  15.085  1.00  0.00     0.156 C 
HETATM   35  N4  UNL     1      -6.513   7.826  15.406  1.00  0.00    -0.347 N 
HETATM   36  C19 UNL     1      -7.893   7.925  15.471  1.00  0.00     0.243 C 
HETATM   37  C21 UNL     1      -5.753   6.600  15.676  1.00  0.00     0.156 C 
HETATM   38  O3  UNL     1      -8.492   8.967  15.201  1.00  0.00    -0.271 OA
HETATM   39  C22 UNL     1      -4.343   6.645  15.057  1.00  0.00     0.292 C 
BRANCH  36  40
HETATM   40  C20 UNL     1      -8.678   6.673  15.890  1.00  0.00     0.267 C 
BRANCH  40  41
HETATM   41  O4  UNL     1     -10.022   6.642  15.442  1.00  0.00    -0.392 OA
HETATM   42  H22 UNL     1      -9.983   6.688  14.471  1.00  0.00     0.210 HD
ENDBRANCH  40  41
ENDBRANCH  36  40
ENDBRANCH  31  32
ENDBRANCH  30  31
ENDBRANCH  29  30
ENDBRANCH   5  29
TORSDOF 9
ENDMDL
