MODEL 1
REMARK minimizedAffinity -10.6319265
REMARK  8 active torsions:
REMARK  status: ('A' for Active; 'I' for Inactive)
REMARK    1  A    between atoms: C4_4  and  C5_5 
REMARK    2  A    between atoms: C7_7  and  O1_8 
REMARK    3  A    between atoms: C13_19  and  N3_20 
REMARK    4  A    between atoms: N3_20  and  C14_21 
REMARK    5  A    between atoms: C18_25  and  S1_26 
REMARK    6  A    between atoms: S1_26  and  C19_27 
REMARK    7  A    between atoms: C19_27  and  C20_28 
REMARK    8  A    between atoms: C20_28  and  N4_29 
ROOT
HETATM    1  C1  UNL     1      -1.208  50.003 -21.590  1.00  0.00     0.050 C 
HETATM    2  C2  UNL     1      -0.508  51.176 -22.226  1.00  0.00    -0.032 A 
HETATM    3  C3  UNL     1      -0.475  51.284 -23.627  1.00  0.00     0.021 A 
HETATM    4  C4  UNL     1       0.177  52.352 -24.247  1.00  0.00    -0.021 A 
HETATM    5  C11 UNL     1       0.795  53.308 -23.433  1.00  0.00     0.045 A 
HETATM    6  C12 UNL     1       0.771  53.209 -22.046  1.00  0.00     0.077 A 
HETATM    7  N1  UNL     1       1.370  54.132 -21.290  1.00  0.00    -0.284 N 
ATOM      8  H1  UNL     1       1.851  54.921 -21.724  1.00  0.00     0.187 HD
HETATM    9  N2  UNL     1       1.335  54.012 -19.931  1.00  0.00    -0.131 N 
ATOM     10  H2  UNL     1       1.792  54.713 -19.347  1.00  0.00     0.205 HD
HETATM   11  C13 UNL     1       0.700  52.973 -19.354  1.00  0.00     0.697 A 
HETATM   12  N5  UNL     1       0.084  52.030 -20.079  1.00  0.00    -0.188 N 
ATOM     13  H5  UNL     1      -0.397  51.252 -19.627  1.00  0.00     0.184 HD
HETATM   14  C26 UNL     1       0.116  52.138 -21.420  1.00  0.00     0.083 A 
ENDROOT
BRANCH  11  15
HETATM   15  N3  UNL     1       0.722  52.941 -17.959  1.00  0.00    -0.190 N 
HETATM   16  H10 UNL     1      -0.165  53.267 -17.604  1.00  0.00     0.184 HD
BRANCH  15  17
HETATM   17  C14 UNL     1       1.681  52.570 -17.009  1.00  0.00     0.050 A 
HETATM   18  C15 UNL     1       3.056  52.764 -17.170  1.00  0.00     0.030 A 
HETATM   19  C16 UNL     1       3.964  52.376 -16.180  1.00  0.00     0.004 A 
HETATM   20  C17 UNL     1       3.509  51.774 -15.009  1.00  0.00     0.018 A 
HETATM   21  C18 UNL     1       2.145  51.554 -14.827  1.00  0.00     0.002 A 
HETATM   22  C25 UNL     1       1.244  51.964 -15.818  1.00  0.00     0.048 A 
BRANCH  21  23
HETATM   23  S1  UNL     1       1.522  50.793 -13.339  1.00  0.00    -0.128 SA
BRANCH  23  24
HETATM   24  C19 UNL     1       0.339  52.071 -12.784  1.00  0.00     0.109 C 
BRANCH  24  25
HETATM   25  C20 UNL     1      -1.103  51.594 -12.513  1.00  0.00     0.283 C 
BRANCH  25  26
HETATM   26  N4  UNL     1      -2.115  52.512 -11.992  1.00  0.00     0.089 N 
HETATM   27  C21 UNL     1      -3.406  51.932 -11.651  1.00  0.00     0.272 C 
HETATM   28  C22 UNL     1      -4.131  53.098 -10.989  1.00  0.00     0.032 C 
HETATM   29  C23 UNL     1      -3.027  54.025 -10.489  1.00  0.00     0.032 C 
HETATM   30  C24 UNL     1      -1.724  53.322 -10.847  1.00  0.00     0.272 C 
ENDBRANCH  25  26
ENDBRANCH  24  25
ENDBRANCH  23  24
ENDBRANCH  21  23
ENDBRANCH  15  17
ENDBRANCH  11  15
BRANCH   4  31
HETATM   31  C5  UNL     1       0.208  52.472 -25.711  1.00  0.00    -0.001 A 
HETATM   32  C6  UNL     1      -0.798  53.217 -26.357  1.00  0.00     0.050 A 
HETATM   33  C7  UNL     1      -0.796  53.355 -27.742  1.00  0.00     0.066 A 
HETATM   34  C8  UNL     1       0.192  52.759 -28.516  1.00  0.00     0.038 A 
HETATM   35  C9  UNL     1       1.197  52.016 -27.898  1.00  0.00     0.027 A 
HETATM   36  C10 UNL     1       1.208  51.873 -26.506  1.00  0.00     0.045 A 
HETATM   37 CL1  UNL     1       2.479  50.927 -25.810  1.00  0.00    -0.083 Cl
BRANCH  33  38
HETATM   38  O1  UNL     1      -1.755  54.077 -28.388  1.00  0.00    -0.361 OA
HETATM   39  H6  UNL     1      -2.358  54.465 -27.731  1.00  0.00     0.217 HD
ENDBRANCH  33  38
ENDBRANCH   4  31
TORSDOF 8
ENDMDL
