MODEL 1
REMARK minimizedAffinity -9.02297783
REMARK CNNscore 0.659791827
REMARK CNNaffinity 7.74494553
REMARK  7 active torsions:
REMARK  status: ('A' for Active; 'I' for Inactive)
REMARK    1  A    between atoms: C2_2  and  C3_3 
REMARK    2  A    between atoms: C2_2  and  N4_22 
REMARK    3  A    between atoms: C7_7  and  C8_8 
REMARK    4  A    between atoms: C18_30  and  C19_31 
REMARK    5  A    between atoms: N9_35  and  C21_36 
REMARK    6  A    between atoms: C21_36  and  C22_37 
REMARK    7  A    between atoms: C22_37  and  O1_38 
ROOT
HETATM    1  N4  UNL     1      -7.506   4.891  13.391  1.00  0.00    -0.248 N 
HETATM    2  N5  UNL     1      -8.424   4.097  12.783  1.00  0.00    -0.016 NA
HETATM    3  N6  UNL     1      -7.761   3.144  12.128  1.00  0.00    -0.266 N 
ATOM      4  H6  UNL     1      -8.178   2.399  11.570  1.00  0.00     0.186 HD
HETATM    5  C16 UNL     1      -6.427   3.343  12.337  1.00  0.00     0.164 A 
HETATM    6  N7  UNL     1      -5.386   2.608  11.868  1.00  0.00    -0.346 N 
ATOM      7  H7  UNL     1      -5.492   1.786  11.273  1.00  0.00     0.167 HD
HETATM    8  C17 UNL     1      -4.184   3.095  12.284  1.00  0.00     0.120 A 
HETATM    9  C18 UNL     1      -4.009   4.219  13.103  1.00  0.00     0.062 A 
HETATM   10  N10 UNL     1      -5.054   4.954  13.572  1.00  0.00    -0.336 N 
ATOM     11  H10 UNL     1      -4.959   5.776  14.168  1.00  0.00     0.168 HD
HETATM   12  C24 UNL     1      -6.235   4.454  13.146  1.00  0.00     0.168 A 
ENDROOT
BRANCH   1  13
HETATM   13  C2  UNL     1      -7.902   6.032  14.208  1.00  0.00     0.140 C 
HETATM   14  C1  UNL     1      -9.193   6.691  13.709  1.00  0.00     0.039 C 
BRANCH  13  15
HETATM   15  C3  UNL     1      -6.755   7.018  14.338  1.00  0.00     0.005 A 
HETATM   16  C4  UNL     1      -5.627   6.976  13.505  1.00  0.00     0.026 A 
HETATM   17  C5  UNL     1      -4.580   7.906  13.657  1.00  0.00    -0.008 A 
HETATM   18  C6  UNL     1      -3.444   7.877  12.832  1.00  0.00     0.027 A 
HETATM   19  C13 UNL     1      -4.651   8.901  14.655  1.00  0.00     0.045 A 
HETATM   20  C7  UNL     1      -2.421   8.813  13.001  1.00  0.00    -0.007 A 
HETATM   21  C12 UNL     1      -2.599   9.750  14.012  1.00  0.00     0.100 A 
HETATM   22  N3  UNL     1      -3.680   9.809  14.829  1.00  0.00    -0.364 N 
ATOM     23  H3  UNL     1      -3.752  10.523  15.554  1.00  0.00     0.165 HD
HETATM   24  C14 UNL     1      -5.765   8.932  15.475  1.00  0.00     0.073 A 
HETATM   25  C15 UNL     1      -6.795   8.008  15.321  1.00  0.00     0.127 A 
HETATM   26  F1  UNL     1      -7.852   8.088  16.142  1.00  0.00    -0.205 F 
BRANCH  20  27
HETATM   27  C8  UNL     1      -1.234   8.822  12.167  1.00  0.00     0.009 A 
HETATM   28  C9  UNL     1       0.130   9.007  12.499  1.00  0.00     0.121 A 
HETATM   29  N1  UNL     1       0.937   8.931  11.438  1.00  0.00    -0.310 N 
HETATM   30  N2  UNL     1       0.095   8.694  10.418  1.00  0.00    -0.307 N 
ATOM     31  H1  UNL     1       1.953   9.029  11.410  1.00  0.00     0.186 HD
HETATM   32  C10 UNL     1       0.622   8.546   9.083  1.00  0.00     0.177 C 
HETATM   33  C11 UNL     1      -1.214   8.619  10.800  1.00  0.00     0.123 A 
ENDBRANCH  20  27
ENDBRANCH  13  15
ENDBRANCH   1  13
BRANCH   9  34
HETATM   34  C19 UNL     1      -2.698   4.691  13.513  1.00  0.00     0.026 A 
HETATM   35  C20 UNL     1      -2.279   5.167  14.778  1.00  0.00     0.122 A 
HETATM   36  N8  UNL     1      -0.989   5.515  14.800  1.00  0.00    -0.309 N 
HETATM   37  N9  UNL     1      -0.569   5.249  13.547  1.00  0.00    -0.301 N 
ATOM     38  H8  UNL     1      -0.451   5.893  15.580  1.00  0.00     0.186 HD
HETATM   39  C23 UNL     1      -1.556   4.756  12.737  1.00  0.00     0.125 A 
BRANCH  37  40
HETATM   40  C21 UNL     1       0.820   5.492  13.191  1.00  0.00     0.174 C 
BRANCH  40  41
HETATM   41  C22 UNL     1       1.071   5.277  11.701  1.00  0.00     0.185 C 
BRANCH  41  42
HETATM   42  O1  UNL     1       0.892   3.910  11.335  1.00  0.00    -0.399 OA
HETATM   43  H20 UNL     1       1.430   3.386  11.970  1.00  0.00     0.209 HD
ENDBRANCH  41  42
ENDBRANCH  40  41
ENDBRANCH  37  40
ENDBRANCH   9  34
TORSDOF 7
ENDMDL
