MODEL 1
REMARK minimizedAffinity -8.87996101
REMARK CNNscore 0.905686796
REMARK CNNaffinity 8.17852879
REMARK  11 active torsions:
REMARK  status: ('A' for Active; 'I' for Inactive)
REMARK    1  A    between atoms: C2_2  and  O1_3 
REMARK    2  A    between atoms: O1_3  and  C3_4 
REMARK    3  A    between atoms: C3_4  and  C4_6 
REMARK    4  A    between atoms: C4_6  and  N1_7 
REMARK    5  A    between atoms: N2_10  and  C7_11 
REMARK    6  A    between atoms: C7_11  and  C8_12 
REMARK    7  A    between atoms: C8_12  and  C9_13 
REMARK    8  A    between atoms: C9_13  and  C10_14 
REMARK    9  A    between atoms: C11_15  and  C12_16 
REMARK   10  A    between atoms: C18_24  and  S1_25 
REMARK   11  A    between atoms: S1_25  and  N4_28 
ROOT
HETATM    1  C10 UNL     1      -7.663   6.980  14.832  1.00  0.00    -0.023 A 
HETATM    2  C11 UNL     1      -7.497   6.123  13.738  1.00  0.00     0.040 A 
HETATM    3  N5  UNL     1      -8.716   6.038  13.103  1.00  0.00    -0.359 N 
HETATM    4  C22 UNL     1      -9.640   6.795  13.762  1.00  0.00     0.016 A 
HETATM    5  C23 UNL     1      -9.027   7.397  14.837  1.00  0.00    -0.027 A 
HETATM    6  C24 UNL     1      -9.772   8.280  15.784  1.00  0.00     0.041 C 
HETATM    7  C25 UNL     1     -11.119   8.730  15.183  1.00  0.00     0.005 C 
HETATM    8  C26 UNL     1     -11.870   7.570  14.505  1.00  0.00     0.006 C 
HETATM    9  C27 UNL     1     -11.061   6.950  13.350  1.00  0.00     0.057 C 
HETATM   10  H27 UNL     1      -8.913   5.490  12.272  1.00  0.00     0.166 HD
ENDROOT
BRANCH   2  11
HETATM   11  C12 UNL     1      -6.347   5.424  13.270  1.00  0.00     0.048 C 
HETATM   12  C13 UNL     1      -6.233   4.169  12.805  1.00  0.00     0.047 A 
HETATM   13  C14 UNL     1      -7.260   3.077  12.615  1.00  0.00     0.257 A 
HETATM   14  C21 UNL     1      -4.943   3.595  12.369  1.00  0.00     0.008 A 
HETATM   15  O3  UNL     1      -8.456   3.116  12.831  1.00  0.00    -0.267 OA
HETATM   16  N3  UNL     1      -6.556   1.988  12.130  1.00  0.00    -0.322 N 
HETATM   17  C15 UNL     1      -5.207   2.276  11.981  1.00  0.00     0.046 A 
HETATM   18  H19 UNL     1      -7.002   1.112  11.905  1.00  0.00     0.169 HD
HETATM   19  C16 UNL     1      -4.229   1.419  11.513  1.00  0.00     0.032 A 
HETATM   20  C17 UNL     1      -2.926   1.912  11.432  1.00  0.00     0.027 A 
HETATM   21  C18 UNL     1      -2.649   3.240  11.816  1.00  0.00     0.080 A 
HETATM   22  C20 UNL     1      -3.656   4.099  12.284  1.00  0.00     0.040 A 
BRANCH  21  23
HETATM   23  S1  UNL     1      -0.990   3.863  11.697  1.00  0.00     0.258 S 
HETATM   24  O4  UNL     1      -1.041   5.056  10.883  1.00  0.00    -0.201 OA
HETATM   25  O5  UNL     1      -0.096   2.768  11.404  1.00  0.00    -0.201 OA
BRANCH  23  26
HETATM   26  N4  UNL     1      -0.692   4.370  13.270  1.00  0.00    -0.320 N 
HETATM   27  C19 UNL     1       0.481   5.200  13.520  1.00  0.00     0.159 C 
HETATM   28  H22 UNL     1      -1.550   4.592  13.774  1.00  0.00     0.171 HD
ENDBRANCH  23  26
ENDBRANCH  21  23
ENDBRANCH   2  11
BRANCH   1  29
HETATM   29  C9  UNL     1      -6.626   7.387  15.837  1.00  0.00     0.043 C 
BRANCH  29  30
HETATM   30  C8  UNL     1      -5.218   7.533  15.250  1.00  0.00     0.035 C 
BRANCH  30  31
HETATM   31  C7  UNL     1      -5.032   8.835  14.459  1.00  0.00     0.273 C 
BRANCH  31  32
HETATM   32  N2  UNL     1      -3.723   8.909  13.791  1.00  0.00     0.091 N 
HETATM   33  C6  UNL     1      -3.016   7.610  13.785  1.00  0.00     0.302 C 
HETATM   34  C5  UNL     1      -1.474   7.720  13.633  1.00  0.00     0.303 C 
HETATM   35  N1  UNL     1      -0.990   8.935  12.946  1.00  0.00     0.101 N 
HETATM   36  C29 UNL     1      -1.523  10.125  13.652  1.00  0.00     0.303 C 
HETATM   37  C28 UNL     1      -2.871   9.939  14.403  1.00  0.00     0.302 C 
BRANCH  35  38
HETATM   38  C4  UNL     1      -1.401   8.960  11.521  1.00  0.00     0.383 C 
BRANCH  38  39
HETATM   39  C3  UNL     1      -0.252   8.606  10.585  1.00  0.00     0.287 C 
HETATM   40  O2  UNL     1      -0.189   8.952   9.411  1.00  0.00    -0.263 OA
BRANCH  39  41
HETATM   41  O1  UNL     1       0.689   7.854  11.228  1.00  0.00    -0.321 OA
BRANCH  41  42
HETATM   42  C2  UNL     1       1.958   7.812  10.571  1.00  0.00     0.174 C 
HETATM   43  C1  UNL     1       2.190   6.397  10.078  1.00  0.00     0.034 C 
ENDBRANCH  41  42
ENDBRANCH  39  41
ENDBRANCH  38  39
ENDBRANCH  35  38
ENDBRANCH  31  32
ENDBRANCH  30  31
ENDBRANCH  29  30
ENDBRANCH   1  29
TORSDOF 11
ENDMDL
