MODEL 1
REMARK minimizedAffinity -9.50915527
REMARK CNNscore 0.545173049
REMARK CNNaffinity 7.25263071
REMARK  6 active torsions:
REMARK  status: ('A' for Active; 'I' for Inactive)
REMARK    1  A    between atoms: N1_2  and  C3_4 
REMARK    2  A    between atoms: C3_4  and  C4_5 
REMARK    3  A    between atoms: C4_5  and  C5_6 
REMARK    4  A    between atoms: C5_6  and  C6_7 
REMARK    5  A    between atoms: C7_8  and  C8_9 
REMARK    6  A    between atoms: C14_17  and  C15_18 
ROOT
HETATM    1  C8  UNL     1      -1.798   5.877  12.296  1.00  0.00     0.048 C 
HETATM    2  C9  UNL     1      -2.449   4.756  11.956  1.00  0.00     0.047 A 
HETATM    3  C10 UNL     1      -1.935   3.556  11.195  1.00  0.00     0.257 A 
HETATM    4  O1  UNL     1      -0.827   3.342  10.743  1.00  0.00    -0.267 OA
HETATM    5  N2  UNL     1      -3.019   2.691  11.122  1.00  0.00    -0.322 N 
HETATM    6  C11 UNL     1      -4.136   3.216  11.761  1.00  0.00     0.046 A 
HETATM    7  C12 UNL     1      -5.373   2.621  11.883  1.00  0.00     0.031 A 
HETATM    8  C13 UNL     1      -6.361   3.332  12.573  1.00  0.00     0.014 A 
HETATM    9  C14 UNL     1      -6.110   4.614  13.125  1.00  0.00    -0.025 A 
HETATM   10  C21 UNL     1      -4.829   5.183  12.974  1.00  0.00     0.027 A 
HETATM   11  C22 UNL     1      -3.852   4.474  12.294  1.00  0.00     0.007 A 
HETATM   12  H14 UNL     1      -2.962   1.796  10.664  1.00  0.00     0.169 HD
ENDROOT
BRANCH   1  13
HETATM   13  C7  UNL     1      -0.462   6.153  11.923  1.00  0.00     0.040 A 
HETATM   14  C6  UNL     1       0.713   6.368  12.633  1.00  0.00    -0.023 A 
HETATM   15  C24 UNL     1       1.742   6.557  11.662  1.00  0.00    -0.027 A 
HETATM   16  C23 UNL     1       1.163   6.430  10.416  1.00  0.00     0.016 A 
HETATM   17  C25 UNL     1       3.201   6.822  11.838  1.00  0.00     0.041 C 
HETATM   18  N3  UNL     1      -0.171   6.195  10.581  1.00  0.00    -0.359 N 
HETATM   19  C28 UNL     1       1.851   6.574   9.106  1.00  0.00     0.057 C 
HETATM   20  H23 UNL     1      -0.843   6.093   9.833  1.00  0.00     0.166 HD
HETATM   21  C27 UNL     1       3.375   6.495   9.308  1.00  0.00     0.006 C 
HETATM   22  C26 UNL     1       3.842   7.314  10.525  1.00  0.00     0.005 C 
BRANCH  14  23
HETATM   23  C5  UNL     1       0.875   6.395  14.123  1.00  0.00     0.043 C 
BRANCH  23  24
HETATM   24  C4  UNL     1      -0.454   6.458  14.884  1.00  0.00     0.035 C 
BRANCH  24  25
HETATM   25  C3  UNL     1      -0.591   7.739  15.719  1.00  0.00     0.271 C 
BRANCH  25  26
HETATM   26  N1  UNL     1      -1.885   7.825  16.426  1.00  0.00     0.080 N 
HETATM   27  C1  UNL     1      -2.207   9.202  16.806  1.00  0.00     0.309 C 
HETATM   28  C2  UNL     1      -2.951   7.290  15.573  1.00  0.00     0.309 C 
ENDBRANCH  25  26
ENDBRANCH  24  25
ENDBRANCH  23  24
ENDBRANCH  14  23
ENDBRANCH   1  13
BRANCH   9  29
HETATM   29  C15 UNL     1      -7.172   5.339  13.842  1.00  0.00    -0.026 A 
HETATM   30  C16 UNL     1      -8.307   5.814  13.165  1.00  0.00     0.012 A 
HETATM   31  C17 UNL     1      -9.315   6.503  13.844  1.00  0.00     0.001 A 
HETATM   32  C18 UNL     1      -9.203   6.730  15.214  1.00  0.00     0.000 A 
HETATM   33  C19 UNL     1      -8.085   6.268  15.903  1.00  0.00     0.001 A 
HETATM   34  C20 UNL     1      -7.079   5.578  15.223  1.00  0.00     0.012 A 
ENDBRANCH   9  29
TORSDOF 6
ENDMDL
