MODEL 1
REMARK minimizedAffinity -9.15966892
REMARK  4 active torsions:
REMARK  status: ('A' for Active; 'I' for Inactive)
REMARK    1  A    between atoms: N2_5  and  C4_6 
REMARK    2  A    between atoms: C7_9  and  N3_10 
REMARK    3  A    between atoms: N3_10  and  C8_11 
REMARK    4  A    between atoms: N5_18  and  C13_19 
ROOT
HETATM    1  C8  UNL     1      -2.347  49.542 -22.892  1.00  0.00     0.684 A 
HETATM    2  N4  UNL     1      -2.016  49.576 -21.585  1.00  0.00    -0.201 N 
ATOM      3  H4  UNL     1      -2.457  48.932 -20.928  1.00  0.00     0.183 HD
HETATM    4  C9  UNL     1      -1.098  50.468 -21.149  1.00  0.00     0.121 A 
HETATM    5  C10 UNL     1      -0.505  51.338 -22.053  1.00  0.00     0.026 A 
HETATM    6  C11 UNL     1       0.461  52.374 -22.004  1.00  0.00     0.034 A 
HETATM    7  C12 UNL     1       0.613  52.855 -23.288  1.00  0.00     0.094 A 
HETATM    8  N5  UNL     1      -0.231  52.148 -24.113  1.00  0.00    -0.337 N 
HETATM    9  C19 UNL     1      -0.919  51.217 -23.370  1.00  0.00     0.135 A 
HETATM   10  N6  UNL     1      -1.826  50.345 -23.838  1.00  0.00    -0.175 N 
ATOM     11  H6  UNL     1      -2.096  50.296 -24.820  1.00  0.00     0.186 HD
ENDROOT
BRANCH   1  12
HETATM   12  N3  UNL     1      -3.287  48.632 -23.376  1.00  0.00    -0.192 N 
HETATM   13  H10 UNL     1      -3.508  47.978 -22.641  1.00  0.00     0.184 HD
BRANCH  12  14
HETATM   14  C7  UNL     1      -3.936  48.454 -24.600  1.00  0.00     0.049 A 
HETATM   15  C6  UNL     1      -3.298  48.488 -25.839  1.00  0.00     0.032 A 
HETATM   16  C5  UNL     1      -4.010  48.307 -27.037  1.00  0.00     0.031 A 
HETATM   17  C4  UNL     1      -5.391  48.088 -27.043  1.00  0.00     0.030 A 
HETATM   18  C21 UNL     1      -6.028  48.057 -25.797  1.00  0.00     0.031 A 
HETATM   19  C20 UNL     1      -5.319  48.235 -24.601  1.00  0.00     0.032 A 
BRANCH  17  20
HETATM   20  N2  UNL     1      -6.148  47.911 -28.208  1.00  0.00    -0.378 N 
HETATM   21  C3  UNL     1      -7.306  46.992 -28.197  1.00  0.00     0.153 C 
HETATM   22  C2  UNL     1      -6.996  45.679 -28.949  1.00  0.00     0.291 C 
HETATM   23  N1  UNL     1      -6.590  45.853 -30.364  1.00  0.00     0.087 N 
HETATM   24  C1  UNL     1      -7.671  45.518 -31.287  1.00  0.00     0.310 C 
HETATM   25  C23 UNL     1      -6.097  47.227 -30.617  1.00  0.00     0.291 C 
HETATM   26  C22 UNL     1      -5.307  47.825 -29.429  1.00  0.00     0.153 C 
ENDBRANCH  17  20
ENDBRANCH  12  14
ENDBRANCH   1  12
BRANCH   8  27
HETATM   27  C13 UNL     1      -0.379  52.342 -25.554  1.00  0.00     0.091 C 
HETATM   28  C14 UNL     1       0.022  53.761 -25.985  1.00  0.00     0.026 C 
HETATM   29  C15 UNL     1      -0.143  53.953 -27.492  1.00  0.00     0.002 C 
HETATM   30  C16 UNL     1       0.617  52.890 -28.281  1.00  0.00     0.000 C 
HETATM   31  C17 UNL     1       0.219  51.479 -27.857  1.00  0.00     0.002 C 
HETATM   32  C18 UNL     1       0.385  51.274 -26.353  1.00  0.00     0.026 C 
ENDBRANCH   8  27
TORSDOF 4
ENDMDL
