MODEL 1
REMARK minimizedAffinity -9.78827095
REMARK CNNscore 0.388799191
REMARK CNNaffinity 7.7521081
REMARK  7 active torsions:
REMARK  status: ('A' for Active; 'I' for Inactive)
REMARK    1  A    between atoms: O1_2  and  C2_3 
REMARK    2  A    between atoms: C4_5  and  C5_6 
REMARK    3  A    between atoms: N2_9  and  C6_10 
REMARK    4  A    between atoms: N3_13  and  C9_14 
REMARK       I    between atoms: N4_17  and  C12_18 
REMARK    5  A    between atoms: C20_31  and  N7_32 
REMARK    6  A    between atoms: C24_36  and  N8_37 
REMARK       I    between atoms: N8_37  and  C25_38 
REMARK    7  A    between atoms: C25_38  and  C26_40 
ROOT
HETATM    1  C5  UNL     1      -0.238  51.874 -21.597  1.00  0.00     0.076 A 
HETATM    2  N1  UNL     1      -1.019  50.946 -22.179  1.00  0.00    -0.295 N 
ATOM      3  H1  UNL     1      -1.472  50.145 -21.738  1.00  0.00     0.187 HD
HETATM    4  N2  UNL     1      -1.069  51.311 -23.480  1.00  0.00    -0.270 N 
HETATM    5  C18 UNL     1      -0.335  52.433 -23.751  1.00  0.00     0.139 A 
HETATM    6  N5  UNL     1      -0.178  53.031 -24.943  1.00  0.00    -0.337 N 
ATOM      7  H5  UNL     1      -0.625  52.716 -25.804  1.00  0.00     0.168 HD
HETATM    8  C19 UNL     1       0.637  54.092 -24.864  1.00  0.00     0.183 A 
HETATM    9  N6  UNL     1       1.277  54.561 -23.777  1.00  0.00    -0.342 N 
ATOM     10  H6  UNL     1       1.884  55.378 -23.841  1.00  0.00     0.167 HD
HETATM   11  C20 UNL     1       1.098  53.928 -22.599  1.00  0.00     0.095 A 
HETATM   12  C21 UNL     1       0.243  52.819 -22.552  1.00  0.00     0.076 A 
ENDROOT
BRANCH   1  13
HETATM   13  C4  UNL     1       0.046  51.803 -20.163  1.00  0.00    -0.004 A 
HETATM   14  C3  UNL     1      -0.327  50.681 -19.410  1.00  0.00     0.053 A 
HETATM   15  C2  UNL     1      -0.110  50.653 -18.027  1.00  0.00     0.095 A 
HETATM   16  C24 UNL     1       0.518  51.745 -17.390  1.00  0.00     0.068 A 
HETATM   17  C23 UNL     1       0.927  52.842 -18.148  1.00  0.00     0.033 A 
HETATM   18  C22 UNL     1       0.691  52.869 -19.525  1.00  0.00     0.016 A 
BRANCH  15  19
HETATM   19  O1  UNL     1      -0.477  49.618 -17.196  1.00  0.00    -0.354 OA
HETATM   20  C1  UNL     1      -1.373  48.646 -17.724  1.00  0.00     0.210 C 
ENDBRANCH  15  19
BRANCH  16  21
HETATM   21  N8  UNL     1       0.661  51.665 -15.988  1.00  0.00    -0.319 N 
HETATM   22  C25 UNL     1       1.802  51.772 -15.224  1.00  0.00     0.273 C 
HETATM   23  O3  UNL     1       2.941  51.843 -15.672  1.00  0.00    -0.266 OA
HETATM   24  H31 UNL     1      -0.203  51.445 -15.505  1.00  0.00     0.169 HD
BRANCH  22  25
HETATM   25  C26 UNL     1       1.533  51.763 -13.788  1.00  0.00     0.104 A 
HETATM   26  C27 UNL     1       0.522  52.404 -13.083  1.00  0.00     0.049 A 
HETATM   27  C28 UNL     1       0.685  52.139 -11.699  1.00  0.00    -0.007 A 
HETATM   28  C29 UNL     1      -0.026  52.527 -10.546  1.00  0.00     0.014 A 
HETATM   29  C33 UNL     1       1.810  51.325 -11.566  1.00  0.00     0.045 A 
HETATM   30  C30 UNL     1       0.402  52.088  -9.290  1.00  0.00     0.001 A 
HETATM   31  C31 UNL     1       1.525  51.274  -9.176  1.00  0.00     0.002 A 
HETATM   32  C32 UNL     1       2.249  50.881 -10.306  1.00  0.00     0.030 A 
HETATM   33  N9  UNL     1       2.309  51.113 -12.840  1.00  0.00    -0.346 N 
HETATM   34  C34 UNL     1       3.470  50.302 -13.150  1.00  0.00     0.156 C 
ENDBRANCH  22  25
ENDBRANCH  16  21
ENDBRANCH   1  13
BRANCH   4  35
HETATM   35  C6  UNL     1      -1.777  50.449 -24.419  1.00  0.00     0.113 C 
HETATM   36  C7  UNL     1      -2.931  51.200 -25.088  1.00  0.00     0.047 C 
HETATM   37  C8  UNL     1      -3.874  50.219 -25.774  1.00  0.00     0.119 C 
HETATM   38  N3  UNL     1      -4.523  49.343 -24.803  1.00  0.00    -0.408 N 
HETATM   39  C16 UNL     1      -3.709  48.969 -23.641  1.00  0.00     0.119 C 
HETATM   40  C17 UNL     1      -2.199  49.084 -23.854  1.00  0.00     0.047 C 
BRANCH  38  41
HETATM   41  C9  UNL     1      -5.349  48.256 -25.353  1.00  0.00     0.082 C 
HETATM   42  C10 UNL     1      -5.289  48.124 -26.889  1.00  0.00     0.045 C 
HETATM   43  C11 UNL     1      -6.608  47.662 -27.512  1.00  0.00     0.127 C 
HETATM   44  N4  UNL     1      -7.309  46.685 -26.688  1.00  0.00    -0.352 N 
HETATM   45  C12 UNL     1      -7.963  45.630 -27.311  1.00  0.00     0.215 C 
HETATM   46  C14 UNL     1      -7.543  47.043 -25.290  1.00  0.00     0.127 C 
HETATM   47  C13 UNL     1      -8.733  44.687 -26.419  1.00  0.00     0.117 C 
HETATM   48  O2  UNL     1      -7.925  45.441 -28.527  1.00  0.00    -0.274 OA
HETATM   49  C15 UNL     1      -6.800  48.304 -24.855  1.00  0.00     0.045 C 
ENDBRANCH  38  41
ENDBRANCH   4  35
BRANCH  11  50
HETATM   50  N7  UNL     1       1.824  54.429 -21.524  1.00  0.00    -0.288 NA
HETATM   51  H27 UNL     1       2.127  53.719 -20.866  1.00  0.00     0.125 HD
HETATM   52  H28 UNL     1       2.564  55.030 -21.869  1.00  0.00     0.125 HD
ENDBRANCH  11  50
TORSDOF 7
ENDMDL
