MODEL 1
REMARK minimizedAffinity -8.80488968
REMARK  8 active torsions:
REMARK  status: ('A' for Active; 'I' for Inactive)
REMARK    1  A    between atoms: O1_2  and  C2_3 
REMARK    2  A    between atoms: C2_3  and  C3_4 
REMARK    3  A    between atoms: C3_4  and  O2_5 
REMARK    4  A    between atoms: O2_5  and  C4_6 
REMARK    5  A    between atoms: C8_14  and  N3_15 
REMARK    6  A    between atoms: N3_15  and  C9_16 
REMARK    7  A    between atoms: C17_26  and  N4_27 
REMARK       I    between atoms: N4_27  and  C18_28 
REMARK    8  A    between atoms: C18_28  and  C19_30 
ROOT
HETATM    1  C4  UNL     1      -0.593  51.751 -24.623  1.00  0.00     0.097 A 
HETATM    2  C5  UNL     1       0.225  52.708 -24.016  1.00  0.00     0.069 A 
HETATM    3  C6  UNL     1       0.367  52.780 -22.637  1.00  0.00     0.049 A 
HETATM    4  N1  UNL     1       1.158  53.731 -22.138  1.00  0.00    -0.351 N 
ATOM      5  H1  UNL     1       1.656  54.385 -22.744  1.00  0.00     0.166 HD
HETATM    6  C7  UNL     1       1.268  53.786 -20.807  1.00  0.00     0.182 A 
HETATM    7  N2  UNL     1       0.670  52.975 -19.934  1.00  0.00    -0.338 N 
ATOM      8  H2  UNL     1       0.797  53.088 -18.928  1.00  0.00     0.168 HD
HETATM    9  C8  UNL     1      -0.109  52.001 -20.440  1.00  0.00     0.119 A 
HETATM   10  C15 UNL     1      -0.319  51.864 -21.829  1.00  0.00     0.037 A 
HETATM   11  C16 UNL     1      -1.153  50.892 -22.440  1.00  0.00     0.050 A 
HETATM   12  C17 UNL     1      -1.281  50.822 -23.825  1.00  0.00     0.069 A 
ENDROOT
BRANCH   9  13
HETATM   13  N3  UNL     1      -0.741  51.081 -19.556  1.00  0.00    -0.342 N 
HETATM   14  H10 UNL     1      -1.128  50.314 -20.098  1.00  0.00     0.167 HD
BRANCH  13  15
HETATM   15  C9  UNL     1      -0.319  50.645 -18.278  1.00  0.00     0.035 A 
HETATM   16  C10 UNL     1      -0.621  49.374 -17.767  1.00  0.00     0.032 A 
HETATM   17  C11 UNL     1      -0.148  48.966 -16.515  1.00  0.00     0.046 A 
HETATM   18  C12 UNL     1       0.660  49.820 -15.773  1.00  0.00     0.138 A 
HETATM   19  F1  UNL     1       1.105  49.411 -14.576  1.00  0.00    -0.204 F 
HETATM   20  C13 UNL     1       1.005  51.070 -16.275  1.00  0.00     0.074 A 
HETATM   21 CL1  UNL     1       2.021  52.130 -15.372  1.00  0.00    -0.081 Cl
HETATM   22  C14 UNL     1       0.530  51.476 -17.526  1.00  0.00     0.056 A 
ENDBRANCH  13  15
ENDBRANCH   9  13
BRANCH  12  23
HETATM   23  N4  UNL     1      -2.067  49.860 -24.494  1.00  0.00    -0.323 N 
HETATM   24  C18 UNL     1      -3.446  49.801 -24.601  1.00  0.00     0.255 C 
HETATM   25  O3  UNL     1      -4.244  50.630 -24.164  1.00  0.00    -0.271 OA
HETATM   26  H15 UNL     1      -1.527  49.099 -24.893  1.00  0.00     0.169 HD
BRANCH  24  27
HETATM   27  C19 UNL     1      -3.917  48.567 -25.394  1.00  0.00     0.311 C 
HETATM   28  C20 UNL     1      -3.156  48.433 -26.713  1.00  0.00     0.047 C 
HETATM   29  C21 UNL     1      -4.234  48.475 -27.788  1.00  0.00     0.033 C 
HETATM   30  C22 UNL     1      -5.478  48.034 -27.052  1.00  0.00     0.271 C 
HETATM   31  N5  UNL     1      -5.352  48.685 -25.746  1.00  0.00     0.097 N 
HETATM   32  H23 UNL     1      -5.543  49.689 -25.858  1.00  0.00     0.317 HD
ENDBRANCH  24  27
ENDBRANCH  12  23
BRANCH   1  33
HETATM   33  O2  UNL     1      -0.789  51.619 -25.978  1.00  0.00    -0.347 OA
BRANCH  33  34
HETATM   34  C3  UNL     1       0.190  50.930 -26.753  1.00  0.00     0.201 C 
BRANCH  34  35
HETATM   35  C2  UNL     1       0.620  51.730 -27.981  1.00  0.00     0.193 C 
BRANCH  35  36
HETATM   36  O1  UNL     1       2.048  51.804 -28.012  1.00  0.00    -0.394 OA
HETATM   37  C1  UNL     1       2.617  51.510 -26.738  1.00  0.00     0.201 C 
ENDBRANCH  35  36
ENDBRANCH  34  35
ENDBRANCH  33  34
ENDBRANCH   1  33
TORSDOF 8
ENDMDL
