MODEL 1
REMARK minimizedAffinity -10.0819273
REMARK  5 active torsions:
REMARK  status: ('A' for Active; 'I' for Inactive)
REMARK    1  A    between atoms: O1_1  and  C1_2 
REMARK    2  A    between atoms: C5_6  and  N1_7 
REMARK    3  A    between atoms: N1_7  and  C6_8 
REMARK    4  A    between atoms: C7_11  and  C8_12 
REMARK    5  A    between atoms: C9_13  and  C10_14 
ROOT
HETATM    1  C6  UNL     1      -0.179  52.090 -23.194  1.00  0.00     0.119 A 
HETATM    2  N2  UNL     1      -1.283  51.438 -23.595  1.00  0.00    -0.328 N 
ATOM      3  H2  UNL     1      -1.448  51.232 -24.580  1.00  0.00     0.169 HD
HETATM    4  C7  UNL     1      -2.158  51.069 -22.652  1.00  0.00     0.107 A 
HETATM    5  N3  UNL     1      -2.025  51.294 -21.339  1.00  0.00    -0.342 N 
ATOM      6  H3  UNL     1      -2.734  50.990 -20.672  1.00  0.00     0.167 HD
HETATM    7  C17 UNL     1      -0.923  51.934 -20.943  1.00  0.00     0.047 A 
HETATM    8  C18 UNL     1      -0.754  52.181 -19.585  1.00  0.00     0.030 A 
HETATM    9  C19 UNL     1       0.376  52.835 -19.087  1.00  0.00     0.002 A 
HETATM   10  C20 UNL     1       1.372  53.252 -19.960  1.00  0.00     0.001 A 
HETATM   11  C21 UNL     1       1.225  53.016 -21.326  1.00  0.00     0.017 A 
HETATM   12  C22 UNL     1       0.070  52.364 -21.835  1.00  0.00     0.035 A 
ENDROOT
BRANCH   4  13
HETATM   13  C8  UNL     1      -3.364  50.348 -23.063  1.00  0.00     0.049 C 
HETATM   14  C9  UNL     1      -3.400  49.419 -24.031  1.00  0.00     0.016 C 
BRANCH  14  15
HETATM   15  C10 UNL     1      -4.637  48.724 -24.414  1.00  0.00    -0.016 A 
HETATM   16  C11 UNL     1      -5.537  48.344 -23.401  1.00  0.00     0.052 A 
HETATM   17  C12 UNL     1      -6.688  47.676 -23.761  1.00  0.00     0.105 A 
HETATM   18  C13 UNL     1      -6.973  47.378 -25.072  1.00  0.00     0.106 A 
HETATM   19  O3  UNL     1      -7.653  47.240 -22.907  1.00  0.00    -0.323 OA
HETATM   20  C14 UNL     1      -6.120  47.723 -26.098  1.00  0.00     0.059 A 
HETATM   21  O2  UNL     1      -8.156  46.720 -25.207  1.00  0.00    -0.323 OA
HETATM   22  C15 UNL     1      -4.940  48.400 -25.761  1.00  0.00     0.024 A 
HETATM   23 BR1  UNL     1      -3.777  48.869 -27.193  1.00  0.00    -0.050 Br
HETATM   24  C16 UNL     1      -8.581  46.634 -23.830  1.00  0.00     0.352 A 
ENDBRANCH  14  15
ENDBRANCH   4  13
BRANCH   1  25
HETATM   25  N1  UNL     1       0.759  52.538 -24.168  1.00  0.00    -0.342 N 
HETATM   26  H5  UNL     1       1.130  53.432 -23.866  1.00  0.00     0.167 HD
BRANCH  25  27
HETATM   27  C5  UNL     1       0.655  52.471 -25.578  1.00  0.00     0.036 A 
HETATM   28  C4  UNL     1       1.554  51.742 -26.368  1.00  0.00     0.029 A 
HETATM   29  C3  UNL     1       1.463  51.749 -27.764  1.00  0.00     0.005 A 
HETATM   30  C2  UNL     1       0.479  52.506 -28.392  1.00  0.00     0.036 A 
HETATM   31  C1  UNL     1      -0.392  53.264 -27.623  1.00  0.00     0.067 A 
HETATM   32  C23 UNL     1      -0.305  53.263 -26.230  1.00  0.00     0.066 A 
BRANCH  31  33
HETATM   33  O1  UNL     1      -1.330  54.010 -28.276  1.00  0.00    -0.361 OA
HETATM   34  H1  UNL     1      -1.864  54.486 -27.621  1.00  0.00     0.217 HD
ENDBRANCH  31  33
ENDBRANCH  25  27
ENDBRANCH   1  25
TORSDOF 5
ENDMDL
