MODEL 1
REMARK minimizedAffinity -10.5952063
REMARK  4 active torsions:
REMARK  status: ('A' for Active; 'I' for Inactive)
REMARK    1  A    between atoms: N2_5  and  C4_6 
REMARK    2  A    between atoms: C4_6  and  C5_7 
REMARK    3  A    between atoms: C8_10  and  C9_11 
REMARK    4  A    between atoms: C13_18  and  C14_19 
ROOT
HETATM    1  C9  UNL     1      -1.045  51.935 -25.646  1.00  0.00    -0.009 A 
HETATM    2  C10 UNL     1      -0.449  52.959 -26.393  1.00  0.00     0.102 A 
HETATM    3  N3  UNL     1       0.384  53.928 -25.931  1.00  0.00    -0.351 N 
ATOM      4  H3  UNL     1       0.794  54.652 -26.521  1.00  0.00     0.166 HD
HETATM    5  C11 UNL     1       0.607  53.828 -24.609  1.00  0.00     0.116 A 
HETATM    6  N4  UNL     1       1.413  54.673 -23.899  1.00  0.00    -0.351 N 
HETATM    7  C12 UNL     1       1.432  54.301 -22.580  1.00  0.00     0.103 A 
HETATM    8  C13 UNL     1       0.616  53.192 -22.435  1.00  0.00     0.004 A 
HETATM    9  C22 UNL     1       0.090  52.885 -23.728  1.00  0.00     0.021 A 
HETATM   10  C23 UNL     1      -0.761  51.903 -24.271  1.00  0.00     0.029 A 
HETATM   11  H13 UNL     1       1.908  55.449 -24.313  1.00  0.00     0.166 HD
ENDROOT
BRANCH   1  12
HETATM   12  C8  UNL     1      -1.924  50.938 -26.272  1.00  0.00    -0.025 A 
HETATM   13  C7  UNL     1      -2.188  49.710 -25.647  1.00  0.00     0.013 A 
HETATM   14  C6  UNL     1      -3.023  48.760 -26.245  1.00  0.00     0.010 A 
HETATM   15  C5  UNL     1      -3.615  49.006 -27.490  1.00  0.00    -0.030 A 
HETATM   16  C25 UNL     1      -3.366  50.236 -28.112  1.00  0.00     0.010 A 
HETATM   17  C24 UNL     1      -2.533  51.186 -27.512  1.00  0.00     0.013 A 
BRANCH  15  18
HETATM   18  C4  UNL     1      -4.515  47.971 -28.136  1.00  0.00     0.311 C 
BRANCH  18  19
HETATM   19  N2  UNL     1      -5.572  48.470 -29.017  1.00  0.00     0.096 N 
HETATM   20  C3  UNL     1      -6.922  47.990 -28.693  1.00  0.00     0.303 C 
HETATM   21  C2  UNL     1      -7.942  48.309 -29.811  1.00  0.00     0.302 C 
HETATM   22  N1  UNL     1      -7.610  47.716 -31.123  1.00  0.00     0.087 N 
HETATM   23  C1  UNL     1      -8.404  46.520 -31.398  1.00  0.00     0.310 C 
HETATM   24  C27 UNL     1      -6.167  47.413 -31.233  1.00  0.00     0.302 C 
HETATM   25  C26 UNL     1      -5.281  48.413 -30.457  1.00  0.00     0.303 C 
ENDBRANCH  18  19
ENDBRANCH  15  18
ENDBRANCH   1  12
BRANCH   8  26
HETATM   26  C14 UNL     1       0.386  52.540 -21.155  1.00  0.00    -0.023 A 
HETATM   27  C15 UNL     1       0.673  53.218 -19.964  1.00  0.00     0.014 A 
HETATM   28  C16 UNL     1       0.460  52.623 -18.716  1.00  0.00     0.031 A 
HETATM   29  C17 UNL     1      -0.050  51.321 -18.699  1.00  0.00     0.042 A 
HETATM   30  N5  UNL     1      -0.355  50.498 -17.638  1.00  0.00    -0.365 N 
HETATM   31  C20 UNL     1      -0.346  50.613 -19.863  1.00  0.00    -0.007 A 
HETATM   32  C18 UNL     1      -0.835  49.298 -18.091  1.00  0.00     0.089 A 
HETATM   33  H17 UNL     1      -0.239  50.750 -16.666  1.00  0.00     0.165 HD
HETATM   34  C19 UNL     1      -0.842  49.341 -19.467  1.00  0.00     0.030 A 
HETATM   35  C21 UNL     1      -0.124  51.233 -21.111  1.00  0.00     0.026 A 
ENDBRANCH   8  26
TORSDOF 4
ENDMDL
