MODEL 1
REMARK minimizedAffinity -10.5397043
REMARK CNNscore 0.607333541
REMARK CNNaffinity 7.99489355
REMARK  5 active torsions:
REMARK  status: ('A' for Active; 'I' for Inactive)
REMARK    1  A    between atoms: O1_2  and  C2_3 
REMARK    2  A    between atoms: C4_5  and  N1_6 
REMARK    3  A    between atoms: N1_6  and  C5_7 
REMARK    4  A    between atoms: N3_14  and  C9_15 
REMARK    5  A    between atoms: C27_38  and  N7_39 
ROOT
HETATM    1  C5  UNL     1       0.883  53.111 -19.326  1.00  0.00     0.684 A 
HETATM    2  N2  UNL     1       1.402  54.137 -20.020  1.00  0.00    -0.201 N 
ATOM      3  H2  UNL     1       1.878  54.906 -19.547  1.00  0.00     0.183 HD
HETATM    4  C6  UNL     1       1.274  54.117 -21.366  1.00  0.00     0.127 A 
HETATM    5  C7  UNL     1       0.623  53.116 -22.045  1.00  0.00     0.095 A 
HETATM    6  C8  UNL     1       0.517  53.109 -23.513  1.00  0.00     0.282 A 
HETATM    7  O2  UNL     1       1.035  54.043 -24.121  1.00  0.00    -0.266 OA
HETATM    8  N3  UNL     1      -0.134  52.024 -24.091  1.00  0.00    -0.108 N 
HETATM    9  C17 UNL     1      -0.710  51.042 -23.291  1.00  0.00     0.701 A 
HETATM   10  N4  UNL     1      -1.398  49.986 -23.671  1.00  0.00    -0.188 N 
ATOM     11  H4  UNL     1      -1.607  49.698 -24.627  1.00  0.00     0.184 HD
HETATM   12  C18 UNL     1      -1.775  49.354 -22.517  1.00  0.00     0.077 A 
HETATM   13  C19 UNL     1      -2.529  48.180 -22.359  1.00  0.00     0.032 A 
HETATM   14  C20 UNL     1      -2.814  47.727 -21.066  1.00  0.00     0.002 A 
HETATM   15  C21 UNL     1      -2.364  48.433 -19.951  1.00  0.00     0.002 A 
HETATM   16  C22 UNL     1      -1.611  49.604 -20.090  1.00  0.00     0.033 A 
HETATM   17  C23 UNL     1      -1.316  50.036 -21.392  1.00  0.00     0.086 A 
HETATM   18  N5  UNL     1      -0.616  51.104 -21.914  1.00  0.00    -0.128 N 
HETATM   19  C24 UNL     1       0.090  52.128 -21.254  1.00  0.00     0.162 A 
HETATM   20  N6  UNL     1       0.215  52.102 -19.908  1.00  0.00    -0.174 N 
ATOM     21  H6  UNL     1      -0.184  51.344 -19.354  1.00  0.00     0.186 HD
ENDROOT
BRANCH   1  22
HETATM   22  N1  UNL     1       1.052  53.175 -17.948  1.00  0.00    -0.192 N 
HETATM   23  H5  UNL     1       1.207  54.134 -17.670  1.00  0.00     0.184 HD
BRANCH  22  24
HETATM   24  C4  UNL     1       1.315  52.203 -16.975  1.00  0.00     0.052 A 
HETATM   25  C3  UNL     1       0.472  51.118 -16.712  1.00  0.00     0.068 A 
HETATM   26  C2  UNL     1       0.747  50.187 -15.693  1.00  0.00     0.091 A 
HETATM   27  C27 UNL     1       1.882  50.349 -14.872  1.00  0.00     0.044 A 
HETATM   28  C26 UNL     1       2.712  51.454 -15.131  1.00  0.00     0.029 A 
HETATM   29  C25 UNL     1       2.438  52.360 -16.160  1.00  0.00     0.032 A 
BRANCH  26  30
HETATM   30  O1  UNL     1      -0.118  49.157 -15.411  1.00  0.00    -0.354 OA
HETATM   31  C1  UNL     1      -0.996  48.778 -16.466  1.00  0.00     0.210 C 
ENDBRANCH  26  30
BRANCH  27  32
HETATM   32  N7  UNL     1       2.273  49.512 -13.813  1.00  0.00    -0.278 NA
HETATM   33  C28 UNL     1       1.357  48.434 -13.393  1.00  0.00     0.126 C 
HETATM   34  C29 UNL     1       2.101  47.476 -12.431  1.00  0.00     0.286 C 
HETATM   35  N8  UNL     1       2.618  48.178 -11.230  1.00  0.00     0.086 N 
HETATM   36  C30 UNL     1       3.362  47.256 -10.376  1.00  0.00     0.310 C 
HETATM   37  C31 UNL     1       3.477  49.308 -11.656  1.00  0.00     0.286 C 
HETATM   38  C32 UNL     1       2.777  50.273 -12.648  1.00  0.00     0.126 C 
ENDBRANCH  27  32
ENDBRANCH  22  24
ENDBRANCH   1  22
BRANCH   8  39
HETATM   39  C9  UNL     1      -0.308  51.910 -25.496  1.00  0.00     0.072 A 
HETATM   40  C10 UNL     1       0.770  51.493 -26.317  1.00  0.00    -0.034 A 
HETATM   41  C11 UNL     1       2.129  51.151 -25.767  1.00  0.00     0.050 C 
HETATM   42  C12 UNL     1       0.576  51.384 -27.704  1.00  0.00     0.009 A 
HETATM   43  C13 UNL     1      -0.645  51.720 -28.281  1.00  0.00     0.001 A 
HETATM   44  C14 UNL     1      -1.697  52.153 -27.481  1.00  0.00     0.009 A 
HETATM   45  C15 UNL     1      -1.553  52.239 -26.086  1.00  0.00    -0.034 A 
HETATM   46  C16 UNL     1      -2.744  52.686 -25.281  1.00  0.00     0.050 C 
ENDBRANCH   8  39
TORSDOF 5
ENDMDL
