MODEL 1
REMARK minimizedAffinity -8.745924
REMARK  7 active torsions:
REMARK  status: ('A' for Active; 'I' for Inactive)
REMARK    1  A    between atoms: N1_2  and  C3_4 
REMARK    2  A    between atoms: C3_4  and  C4_5 
REMARK    3  A    between atoms: C4_5  and  C5_6 
REMARK    4  A    between atoms: C5_6  and  C6_7 
REMARK    5  A    between atoms: C7_8  and  C8_9 
REMARK    6  A    between atoms: C14_17  and  S1_18 
REMARK    7  A    between atoms: S1_18  and  N3_21 
ROOT
HETATM    1  C8  UNL     1      -2.064   5.794  12.874  1.00  0.00     0.048 C 
HETATM    2  C9  UNL     1      -2.346   4.625  12.283  1.00  0.00     0.047 A 
HETATM    3  C10 UNL     1      -1.432   3.716  11.494  1.00  0.00     0.257 A 
HETATM    4  O1  UNL     1      -0.261   3.854  11.208  1.00  0.00    -0.267 OA
HETATM    5  N2  UNL     1      -2.233   2.644  11.122  1.00  0.00    -0.322 N 
HETATM    6  C11 UNL     1      -3.537   2.793  11.579  1.00  0.00     0.046 A 
HETATM    7  C12 UNL     1      -4.588   1.921  11.374  1.00  0.00     0.032 A 
HETATM    8  C13 UNL     1      -5.825   2.268  11.925  1.00  0.00     0.027 A 
HETATM    9  C14 UNL     1      -5.965   3.462  12.664  1.00  0.00     0.080 A 
HETATM   10  C17 UNL     1      -4.890   4.346  12.840  1.00  0.00     0.040 A 
HETATM   11  C18 UNL     1      -3.671   3.987  12.294  1.00  0.00     0.008 A 
HETATM   12  H14 UNL     1      -1.879   1.880  10.566  1.00  0.00     0.169 HD
ENDROOT
BRANCH   1  13
HETATM   13  C7  UNL     1      -0.775   6.371  12.898  1.00  0.00     0.040 A 
HETATM   14  C6  UNL     1       0.052   6.936  11.934  1.00  0.00    -0.023 A 
HETATM   15  C20 UNL     1       1.258   7.304  12.602  1.00  0.00    -0.027 A 
HETATM   16  C19 UNL     1       1.126   6.942  13.927  1.00  0.00     0.016 A 
HETATM   17  C21 UNL     1       2.479   7.989  12.082  1.00  0.00     0.041 C 
HETATM   18  N4  UNL     1      -0.105   6.380  14.099  1.00  0.00    -0.359 N 
HETATM   19  C24 UNL     1       2.146   7.116  14.994  1.00  0.00     0.057 C 
HETATM   20  H24 UNL     1      -0.474   6.043  14.978  1.00  0.00     0.166 HD
HETATM   21  C23 UNL     1       3.234   8.099  14.521  1.00  0.00     0.006 C 
HETATM   22  C22 UNL     1       3.657   7.841  13.063  1.00  0.00     0.005 C 
BRANCH  14  23
HETATM   23  C5  UNL     1      -0.255   7.140  10.479  1.00  0.00     0.043 C 
BRANCH  23  24
HETATM   24  C4  UNL     1       0.558   8.263   9.829  1.00  0.00     0.035 C 
BRANCH  24  25
HETATM   25  C3  UNL     1       0.596   8.215   8.294  1.00  0.00     0.271 C 
BRANCH  25  26
HETATM   26  N1  UNL     1       1.897   7.823   7.722  1.00  0.00     0.080 N 
HETATM   27  C1  UNL     1       1.755   7.152   6.430  1.00  0.00     0.309 C 
HETATM   28  C2  UNL     1       2.613   6.953   8.658  1.00  0.00     0.309 C 
ENDBRANCH  25  26
ENDBRANCH  24  25
ENDBRANCH  23  24
ENDBRANCH  14  23
ENDBRANCH   1  13
BRANCH   9  29
HETATM   29  S1  UNL     1      -7.565   3.902  13.321  1.00  0.00     0.260 S 
HETATM   30  O2  UNL     1      -7.455   3.882  14.764  1.00  0.00    -0.200 OA
HETATM   31  O3  UNL     1      -8.546   3.089  12.632  1.00  0.00    -0.200 OA
BRANCH  29  32
HETATM   32  N3  UNL     1      -7.756   5.515  12.818  1.00  0.00    -0.315 N 
HETATM   33  C15 UNL     1      -7.718   6.555  13.860  1.00  0.00     0.162 C 
HETATM   34  C16 UNL     1      -8.754   5.777  11.769  1.00  0.00     0.162 C 
ENDBRANCH  29  32
ENDBRANCH   9  29
TORSDOF 7
ENDMDL
