MODEL 1
REMARK minimizedAffinity -8.46189117
REMARK  8 active torsions:
REMARK  status: ('A' for Active; 'I' for Inactive)
REMARK    1  A    between atoms: O1_2  and  C2_3 
REMARK    2  A    between atoms: C5_6  and  N1_7 
REMARK    3  A    between atoms: N1_7  and  C6_8 
REMARK    4  A    between atoms: C17_24  and  O3_25 
REMARK    5  A    between atoms: O3_25  and  C18_26 
REMARK    6  A    between atoms: C18_26  and  C19_27 
REMARK    7  A    between atoms: C19_27  and  C20_28 
REMARK    8  A    between atoms: C20_28  and  N4_29 
ROOT
HETATM    1  C2  UNL     1      -1.388  50.175 -20.706  1.00  0.00     0.102 A 
HETATM    2  C3  UNL     1      -0.781  51.037 -19.789  1.00  0.00     0.057 A 
HETATM    3  C4  UNL     1       0.041  52.108 -20.224  1.00  0.00     0.038 A 
HETATM    4  C5  UNL     1       0.688  53.032 -19.376  1.00  0.00     0.119 A 
HETATM    5  N2  UNL     1       1.426  54.048 -19.861  1.00  0.00    -0.338 N 
ATOM      6  H2  UNL     1       1.877  54.724 -19.244  1.00  0.00     0.168 HD
HETATM    7  C14 UNL     1       1.541  54.128 -21.188  1.00  0.00     0.182 A 
HETATM    8  N3  UNL     1       0.986  53.302 -22.080  1.00  0.00    -0.351 N 
ATOM      9  H3  UNL     1       1.126  53.425 -23.083  1.00  0.00     0.166 HD
HETATM   10  C15 UNL     1       0.239  52.308 -21.594  1.00  0.00     0.050 A 
HETATM   11  C16 UNL     1      -0.368  51.444 -22.496  1.00  0.00     0.070 A 
HETATM   12  C17 UNL     1      -1.185  50.387 -22.079  1.00  0.00     0.104 A 
ENDROOT
BRANCH   4  13
HETATM   13  N1  UNL     1       0.552  52.883 -17.973  1.00  0.00    -0.339 N 
HETATM   14  H5  UNL     1      -0.349  52.466 -17.750  1.00  0.00     0.167 HD
BRANCH  13  15
HETATM   15  C6  UNL     1       1.508  52.445 -17.034  1.00  0.00     0.068 A 
HETATM   16  C7  UNL     1       2.813  52.940 -16.957  1.00  0.00     0.032 A 
HETATM   17  C8  UNL     1       3.699  52.511 -15.949  1.00  0.00     0.003 A 
HETATM   18  C9  UNL     1       3.290  51.592 -14.981  1.00  0.00     0.010 A 
HETATM   19  C10 UNL     1       1.989  51.135 -15.031  1.00  0.00    -0.020 A 
HETATM   20  C11 UNL     1       1.125  51.562 -16.030  1.00  0.00     0.101 A 
HETATM   21  C13 UNL     1       1.300  50.146 -14.175  1.00  0.00     0.068 C 
HETATM   22  O2  UNL     1      -0.130  51.004 -15.939  1.00  0.00    -0.348 OA
HETATM   23  C12 UNL     1      -0.139  50.404 -14.622  1.00  0.00     0.180 C 
ENDBRANCH  13  15
ENDBRANCH   4  13
BRANCH   1  24
HETATM   24  O1  UNL     1      -2.200  49.123 -20.369  1.00  0.00    -0.353 OA
HETATM   25  C1  UNL     1      -1.624  48.046 -19.643  1.00  0.00     0.210 C 
ENDBRANCH   1  24
BRANCH  12  26
HETATM   26  O3  UNL     1      -1.816  49.510 -22.923  1.00  0.00    -0.348 OA
BRANCH  26  27
HETATM   27  C18 UNL     1      -2.803  49.996 -23.838  1.00  0.00     0.177 C 
BRANCH  27  28
HETATM   28  C19 UNL     1      -2.205  51.051 -24.771  1.00  0.00     0.057 C 
BRANCH  28  29
HETATM   29  C20 UNL     1      -2.022  50.546 -26.205  1.00  0.00     0.274 C 
BRANCH  29  30
HETATM   30  N4  UNL     1      -0.916  51.186 -26.928  1.00  0.00     0.092 N 
HETATM   31  C21 UNL     1       0.386  50.751 -26.371  1.00  0.00     0.298 C 
HETATM   32  C22 UNL     1       1.514  51.733 -26.714  1.00  0.00     0.198 C 
HETATM   33  O4  UNL     1       1.316  53.027 -26.131  1.00  0.00    -0.388 OA
HETATM   34  C23 UNL     1      -0.067  53.346 -25.931  1.00  0.00     0.198 C 
HETATM   35  C24 UNL     1      -0.999  52.664 -26.945  1.00  0.00     0.298 C 
ENDBRANCH  29  30
ENDBRANCH  28  29
ENDBRANCH  27  28
ENDBRANCH  26  27
ENDBRANCH  12  26
TORSDOF 8
ENDMDL
