MODEL 1
REMARK minimizedAffinity -7.3837595
REMARK CNNscore 0.331046164
REMARK CNNaffinity 6.05597734
REMARK  6 active torsions:
REMARK  status: ('A' for Active; 'I' for Inactive)
REMARK    1  A    between atoms: C2_2  and  S1_3 
REMARK    2  A    between atoms: S1_3  and  C3_6 
REMARK    3  A    between atoms: C10_13  and  C11_14 
REMARK    4  A    between atoms: C14_18  and  C15_19 
REMARK    5  A    between atoms: C15_19  and  C16_20 
REMARK    6  A    between atoms: C16_20  and  C17_21 
REMARK       I    between atoms: C17_21  and  N2_23 
ROOT
HETATM    1  C11 UNL     1     -11.237   9.708  22.621  1.00  0.00     0.040 A 
HETATM    2  N1  UNL     1     -10.449  10.468  23.456  1.00  0.00    -0.359 N 
HETATM    3  C12 UNL     1      -9.964  11.550  22.779  1.00  0.00     0.016 A 
HETATM    4  C13 UNL     1     -10.436  11.507  21.488  1.00  0.00    -0.027 A 
HETATM    5  C14 UNL     1     -11.258  10.347  21.379  1.00  0.00    -0.023 A 
HETATM    6  C23 UNL     1     -10.109  12.561  20.483  1.00  0.00     0.041 C 
HETATM    7  C24 UNL     1      -8.923  13.427  20.949  1.00  0.00     0.005 C 
HETATM    8  C25 UNL     1      -9.031  13.814  22.435  1.00  0.00     0.006 C 
HETATM    9  C26 UNL     1      -9.062  12.581  23.357  1.00  0.00     0.057 C 
HETATM   10  H10 UNL     1     -10.262  10.272  24.435  1.00  0.00     0.166 HD
ENDROOT
BRANCH   1  11
HETATM   11  C10 UNL     1     -11.856   8.500  23.051  1.00  0.00     0.048 C 
HETATM   12  C9  UNL     1     -12.661   8.273  24.102  1.00  0.00     0.047 A 
HETATM   13  C7  UNL     1     -13.236   6.945  24.393  1.00  0.00     0.008 A 
HETATM   14  C27 UNL     1     -13.197   9.202  25.166  1.00  0.00     0.257 A 
HETATM   15  C6  UNL     1     -14.073   7.108  25.502  1.00  0.00     0.046 A 
HETATM   16  C8  UNL     1     -13.086   5.697  23.811  1.00  0.00     0.038 A 
HETATM   17  C5  UNL     1     -14.804   6.071  26.049  1.00  0.00     0.032 A 
HETATM   18  N4  UNL     1     -14.044   8.425  25.941  1.00  0.00    -0.322 N 
HETATM   19  C4  UNL     1     -14.672   4.811  25.460  1.00  0.00     0.026 A 
HETATM   20  C3  UNL     1     -13.801   4.627  24.368  1.00  0.00     0.060 A 
HETATM   21  H34 UNL     1     -14.546   8.797  26.733  1.00  0.00     0.169 HD
HETATM   22  O4  UNL     1     -12.949  10.379  25.339  1.00  0.00    -0.267 OA
BRANCH  20  23
HETATM   23  S1  UNL     1     -13.651   3.015  23.624  1.00  0.00     0.175 S 
HETATM   24  O1  UNL     1     -13.739   3.214  22.188  1.00  0.00    -0.223 OA
HETATM   25  O2  UNL     1     -14.579   2.134  24.306  1.00  0.00    -0.223 OA
BRANCH  23  26
HETATM   26  C2  UNL     1     -11.988   2.498  23.990  1.00  0.00     0.141 C 
HETATM   27  C1  UNL     1     -11.899   1.425  25.056  1.00  0.00     0.021 C 
ENDBRANCH  23  26
ENDBRANCH  20  23
ENDBRANCH   1  11
BRANCH   5  28
HETATM   28  C15 UNL     1     -12.001   9.927  20.145  1.00  0.00     0.051 C 
BRANCH  28  29
HETATM   29  C16 UNL     1     -11.421  10.548  18.880  1.00  0.00     0.107 C 
BRANCH  29  30
HETATM   30  C17 UNL     1     -10.833   9.468  17.996  1.00  0.00     0.220 C 
HETATM   31  O3  UNL     1     -10.249   8.513  18.512  1.00  0.00    -0.273 OA
HETATM   32  N2  UNL     1     -10.947   9.604  16.624  1.00  0.00    -0.349 N 
HETATM   33  C18 UNL     1     -11.604  10.715  15.926  1.00  0.00     0.156 C 
HETATM   34  C22 UNL     1     -10.408   8.544  15.765  1.00  0.00     0.156 C 
HETATM   35  C19 UNL     1     -11.145  10.848  14.461  1.00  0.00     0.291 C 
HETATM   36  N3  UNL     1     -11.263   9.621  13.651  1.00  0.00     0.087 N 
HETATM   37  C20 UNL     1     -12.441   9.644  12.790  1.00  0.00     0.310 C 
HETATM   38  C21 UNL     1     -11.228   8.393  14.472  1.00  0.00     0.291 C 
ENDBRANCH  29  30
ENDBRANCH  28  29
ENDBRANCH   5  28
TORSDOF 6
ENDMDL
