MODEL 1
REMARK minimizedAffinity -8.51075745
REMARK  8 active torsions:
REMARK  status: ('A' for Active; 'I' for Inactive)
REMARK    1  A    between atoms: O1_2  and  C2_3 
REMARK    2  A    between atoms: C5_6  and  N1_7 
REMARK    3  A    between atoms: N1_7  and  C6_8 
REMARK    4  A    between atoms: C17_24  and  O3_25 
REMARK    5  A    between atoms: O3_25  and  C18_26 
REMARK    6  A    between atoms: C18_26  and  C19_27 
REMARK    7  A    between atoms: C19_27  and  C20_28 
REMARK    8  A    between atoms: C20_28  and  N4_29 
ROOT
HETATM    1  C2  UNL     1      -1.349  50.146 -20.707  1.00  0.00     0.102 A 
HETATM    2  C3  UNL     1      -0.737  50.963 -19.755  1.00  0.00     0.056 A 
HETATM    3  C4  UNL     1       0.069  52.062 -20.146  1.00  0.00     0.032 A 
HETATM    4  C5  UNL     1       0.725  52.935 -19.258  1.00  0.00     0.098 A 
HETATM    5  N2  UNL     1       1.466  53.970 -19.690  1.00  0.00    -0.342 N 
ATOM      6  H2  UNL     1       1.909  54.620 -19.040  1.00  0.00     0.167 HD
HETATM    7  C14 UNL     1       1.594  54.105 -21.011  1.00  0.00     0.182 A 
HETATM    8  N3  UNL     1       1.021  53.337 -21.944  1.00  0.00    -0.351 N 
ATOM      9  H3  UNL     1       1.154  53.514 -22.940  1.00  0.00     0.166 HD
HETATM   10  C15 UNL     1       0.264  52.325 -21.506  1.00  0.00     0.049 A 
HETATM   11  C16 UNL     1      -0.354  51.509 -22.443  1.00  0.00     0.070 A 
HETATM   12  C17 UNL     1      -1.158  50.426 -22.069  1.00  0.00     0.104 A 
ENDROOT
BRANCH   4  13
HETATM   13  N1  UNL     1       0.500  52.787 -17.859  1.00  0.00    -0.242 NA
HETATM   14  H5  UNL     1       0.079  53.657 -17.546  1.00  0.00     0.135 HD
BRANCH  13  15
HETATM   15  C6  UNL     1       1.455  52.321 -16.920  1.00  0.00     0.049 A 
HETATM   16  C7  UNL     1       2.740  52.906 -16.894  1.00  0.00     0.027 A 
HETATM   17  C8  UNL     1       3.719  52.526 -15.969  1.00  0.00     0.003 A 
HETATM   18  C9  UNL     1       3.447  51.563 -14.993  1.00  0.00     0.014 A 
HETATM   19  C10 UNL     1       2.162  51.000 -14.943  1.00  0.00     0.001 A 
HETATM   20  C11 UNL     1       1.514  50.056 -14.101  1.00  0.00     0.039 A 
HETATM   21  C13 UNL     1       1.215  51.395 -15.887  1.00  0.00     0.106 A 
HETATM   22  C12 UNL     1       0.222  49.954 -14.556  1.00  0.00     0.143 A 
HETATM   23  O2  UNL     1       0.028  50.768 -15.624  1.00  0.00    -0.320 OA
ENDBRANCH  13  15
ENDBRANCH   4  13
BRANCH   1  24
HETATM   24  O1  UNL     1      -2.144  49.068 -20.413  1.00  0.00    -0.353 OA
HETATM   25  C1  UNL     1      -1.533  47.948 -19.788  1.00  0.00     0.210 C 
ENDBRANCH   1  24
BRANCH  12  26
HETATM   26  O3  UNL     1      -1.798  49.591 -22.952  1.00  0.00    -0.348 OA
BRANCH  26  27
HETATM   27  C18 UNL     1      -2.891  50.123 -23.704  1.00  0.00     0.177 C 
BRANCH  27  28
HETATM   28  C19 UNL     1      -2.309  50.993 -24.815  1.00  0.00     0.057 C 
BRANCH  28  29
HETATM   29  C20 UNL     1      -1.858  50.222 -26.063  1.00  0.00     0.274 C 
BRANCH  29  30
HETATM   30  N4  UNL     1      -1.017  50.980 -27.003  1.00  0.00     0.092 N 
HETATM   31  C21 UNL     1       0.416  50.902 -26.639  1.00  0.00     0.298 C 
HETATM   32  C22 UNL     1       0.922  52.136 -25.875  1.00  0.00     0.198 C 
HETATM   33  O4  UNL     1       0.771  53.361 -26.609  1.00  0.00    -0.388 OA
HETATM   34  C23 UNL     1      -0.270  53.299 -27.592  1.00  0.00     0.198 C 
HETATM   35  C24 UNL     1      -1.431  52.389 -27.160  1.00  0.00     0.298 C 
ENDBRANCH  29  30
ENDBRANCH  28  29
ENDBRANCH  27  28
ENDBRANCH  26  27
ENDBRANCH  12  26
TORSDOF 8
ENDMDL
