MODEL 1
REMARK minimizedAffinity -7.56460571
REMARK  10 active torsions:
REMARK  status: ('A' for Active; 'I' for Inactive)
REMARK    1  A    between atoms: O1_2  and  C2_3 
REMARK    2  A    between atoms: C2_3  and  C3_4 
REMARK    3  A    between atoms: C3_4  and  O2_5 
REMARK    4  A    between atoms: O2_5  and  C4_6 
REMARK    5  A    between atoms: C10_15  and  N3_16 
REMARK    6  A    between atoms: N3_16  and  C11_17 
REMARK    7  A    between atoms: C19_27  and  O3_28 
REMARK    8  A    between atoms: O3_28  and  C20_29 
REMARK    9  A    between atoms: C20_29  and  C21_30 
REMARK   10  A    between atoms: C21_30  and  O4_31 
ROOT
HETATM    1  C4  UNL     1      -0.981  52.866 -25.301  1.00  0.00     0.104 A 
HETATM    2  C5  UNL     1       0.089  53.080 -24.426  1.00  0.00     0.070 A 
HETATM    3  C6  UNL     1       0.011  52.759 -23.078  1.00  0.00     0.047 A 
HETATM    4  N1  UNL     1       1.082  52.994 -22.305  1.00  0.00    -0.364 N 
ATOM      5  H1  UNL     1       1.930  53.401 -22.698  1.00  0.00     0.165 HD
HETATM    6  C7  UNL     1       1.011  52.678 -20.992  1.00  0.00     0.113 A 
HETATM    7  C8  UNL     1      -0.101  52.120 -20.391  1.00  0.00     0.087 A 
HETATM    8  C9  UNL     1      -0.060  51.807 -18.999  1.00  0.00     0.103 C 
HETATM    9  N2  UNL     1      -0.041  51.559 -17.865  1.00  0.00    -0.191 NA
HETATM   10  C10 UNL     1      -1.228  51.874 -21.188  1.00  0.00     0.067 A 
HETATM   11  C17 UNL     1      -1.179  52.199 -22.574  1.00  0.00     0.022 A 
HETATM   12  C18 UNL     1      -2.266  51.997 -23.456  1.00  0.00     0.055 A 
HETATM   13  C19 UNL     1      -2.177  52.319 -24.811  1.00  0.00     0.103 A 
ENDROOT
BRANCH  10  14
HETATM   14  N3  UNL     1      -2.383  51.238 -20.646  1.00  0.00    -0.353 N 
HETATM   15  H10 UNL     1      -2.628  51.599 -19.719  1.00  0.00     0.166 HD
BRANCH  14  16
HETATM   16  C11 UNL     1      -2.647  49.836 -20.667  1.00  0.00     0.054 A 
HETATM   17  C12 UNL     1      -1.631  48.892 -20.878  1.00  0.00     0.033 A 
HETATM   18  C13 UNL     1      -1.929  47.529 -20.967  1.00  0.00     0.026 A 
HETATM   19  C14 UNL     1      -3.249  47.095 -20.866  1.00  0.00     0.035 A 
HETATM   20 CL1  UNL     1      -3.606  45.417 -20.984  1.00  0.00    -0.084 Cl
HETATM   21  C15 UNL     1      -4.279  48.010 -20.682  1.00  0.00     0.050 A 
HETATM   22  C16 UNL     1      -3.978  49.370 -20.593  1.00  0.00     0.062 A 
HETATM   23 CL2  UNL     1      -5.286  50.483 -20.384  1.00  0.00    -0.082 Cl
ENDBRANCH  14  16
ENDBRANCH  10  14
BRANCH  13  24
HETATM   24  O3  UNL     1      -3.176  52.132 -25.729  1.00  0.00    -0.346 OA
BRANCH  24  25
HETATM   25  C20 UNL     1      -3.426  50.823 -26.238  1.00  0.00     0.201 C 
BRANCH  25  26
HETATM   26  C21 UNL     1      -3.065  50.723 -27.721  1.00  0.00     0.193 C 
BRANCH  26  27
HETATM   27  O4  UNL     1      -3.609  49.547 -28.319  1.00  0.00    -0.394 OA
HETATM   28  C22 UNL     1      -3.871  48.516 -27.376  1.00  0.00     0.201 C 
ENDBRANCH  26  27
ENDBRANCH  25  26
ENDBRANCH  24  25
ENDBRANCH  13  24
BRANCH   1  29
HETATM   29  O2  UNL     1      -0.959  53.156 -26.643  1.00  0.00    -0.346 OA
BRANCH  29  30
HETATM   30  C3  UNL     1       0.310  53.307 -27.275  1.00  0.00     0.201 C 
BRANCH  30  31
HETATM   31  C2  UNL     1       0.612  52.033 -28.064  1.00  0.00     0.193 C 
BRANCH  31  32
HETATM   32  O1  UNL     1       2.006  51.724 -28.069  1.00  0.00    -0.394 OA
HETATM   33  C1  UNL     1       2.537  51.537 -26.763  1.00  0.00     0.201 C 
ENDBRANCH  31  32
ENDBRANCH  30  31
ENDBRANCH  29  30
ENDBRANCH   1  29
TORSDOF 10
ENDMDL
