MODEL 1
REMARK minimizedAffinity -8.75122356
REMARK CNNscore 0.683933556
REMARK CNNaffinity 7.79837942
REMARK  10 active torsions:
REMARK  status: ('A' for Active; 'I' for Inactive)
REMARK    1  A    between atoms: C2_2  and  S1_3 
REMARK    2  A    between atoms: S1_3  and  C3_6 
REMARK    3  A    between atoms: C10_13  and  C11_14 
REMARK    4  A    between atoms: C14_18  and  C15_19 
REMARK    5  A    between atoms: C15_19  and  C16_20 
REMARK    6  A    between atoms: C16_20  and  C17_21 
REMARK    7  A    between atoms: C17_21  and  N2_22 
REMARK    8  A    between atoms: N3_25  and  C20_26 
REMARK    9  A    between atoms: C20_26  and  C21_27 
REMARK   10  A    between atoms: C21_27  and  O3_28 
ROOT
HETATM    1  C11 UNL     1      -7.190   6.579  13.876  1.00  0.00     0.040 A 
HETATM    2  N1  UNL     1      -8.381   6.150  13.340  1.00  0.00    -0.359 N 
HETATM    3  C12 UNL     1      -9.402   6.888  13.866  1.00  0.00     0.016 A 
HETATM    4  C13 UNL     1      -8.871   7.802  14.751  1.00  0.00    -0.027 A 
HETATM    5  C14 UNL     1      -7.456   7.618  14.760  1.00  0.00    -0.023 A 
HETATM    6  C24 UNL     1      -9.724   8.782  15.489  1.00  0.00     0.041 C 
HETATM    7  C25 UNL     1     -11.207   8.372  15.446  1.00  0.00     0.005 C 
HETATM    8  C26 UNL     1     -11.646   7.921  14.040  1.00  0.00     0.006 C 
HETATM    9  C27 UNL     1     -10.842   6.707  13.539  1.00  0.00     0.057 C 
HETATM   10  H10 UNL     1      -8.483   5.414  12.655  1.00  0.00     0.166 HD
ENDROOT
BRANCH   1  11
HETATM   11  C10 UNL     1      -6.015   5.895  13.496  1.00  0.00     0.048 C 
HETATM   12  C9  UNL     1      -6.002   4.645  13.012  1.00  0.00     0.047 A 
HETATM   13  C7  UNL     1      -4.795   3.956  12.532  1.00  0.00     0.008 A 
HETATM   14  C28 UNL     1      -7.152   3.679  12.845  1.00  0.00     0.257 A 
HETATM   15  C6  UNL     1      -5.208   2.686  12.116  1.00  0.00     0.046 A 
HETATM   16  C8  UNL     1      -3.469   4.333  12.424  1.00  0.00     0.038 A 
HETATM   17  C5  UNL     1      -4.337   1.750  11.596  1.00  0.00     0.032 A 
HETATM   18  N4  UNL     1      -6.578   2.536  12.301  1.00  0.00    -0.322 N 
HETATM   19  C4  UNL     1      -2.994   2.117  11.478  1.00  0.00     0.026 A 
HETATM   20  C3  UNL     1      -2.574   3.403  11.876  1.00  0.00     0.060 A 
HETATM   21  H38 UNL     1      -7.122   1.713  12.088  1.00  0.00     0.169 HD
HETATM   22  O4  UNL     1      -8.326   3.819  13.119  1.00  0.00    -0.267 OA
BRANCH  20  23
HETATM   23  S1  UNL     1      -0.859   3.857  11.712  1.00  0.00     0.175 S 
HETATM   24  O1  UNL     1      -0.753   4.730  10.559  1.00  0.00    -0.223 OA
HETATM   25  O2  UNL     1      -0.092   2.629  11.794  1.00  0.00    -0.223 OA
BRANCH  23  26
HETATM   26  C2  UNL     1      -0.559   4.819  13.184  1.00  0.00     0.141 C 
HETATM   27  C1  UNL     1       0.705   5.643  13.065  1.00  0.00     0.021 C 
ENDBRANCH  23  26
ENDBRANCH  20  23
ENDBRANCH   1  11
BRANCH   5  28
HETATM   28  C15 UNL     1      -6.462   8.396  15.568  1.00  0.00     0.043 C 
BRANCH  28  29
HETATM   29  C16 UNL     1      -5.013   8.260  15.087  1.00  0.00     0.035 C 
BRANCH  29  30
HETATM   30  C17 UNL     1      -4.282   9.608  15.017  1.00  0.00     0.273 C 
BRANCH  30  31
HETATM   31  N2  UNL     1      -2.937   9.491  14.416  1.00  0.00     0.091 N 
HETATM   32  C18 UNL     1      -2.317   8.195  14.775  1.00  0.00     0.302 C 
HETATM   33  C19 UNL     1      -1.811   8.100  16.236  1.00  0.00     0.302 C 
HETATM   34  N3  UNL     1      -0.891   9.186  16.647  1.00  0.00     0.093 N 
HETATM   35  C22 UNL     1      -1.500  10.485  16.278  1.00  0.00     0.302 C 
HETATM   36  C23 UNL     1      -2.023  10.579  14.823  1.00  0.00     0.302 C 
BRANCH  34  37
HETATM   37  C20 UNL     1       0.450   8.995  16.043  1.00  0.00     0.298 C 
BRANCH  37  38
HETATM   38  C21 UNL     1       0.845   7.510  15.995  1.00  0.00     0.194 C 
BRANCH  38  39
HETATM   39  O3  UNL     1       2.149   7.335  16.545  1.00  0.00    -0.399 OA
HETATM   40  H25 UNL     1       2.611   8.180  16.357  1.00  0.00     0.209 HD
ENDBRANCH  38  39
ENDBRANCH  37  38
ENDBRANCH  34  37
ENDBRANCH  30  31
ENDBRANCH  29  30
ENDBRANCH  28  29
ENDBRANCH   5  28
TORSDOF 10
ENDMDL
