MODEL 1
REMARK minimizedAffinity -8.99990273
REMARK CNNscore 0.393427461
REMARK CNNaffinity 7.24342108
REMARK  8 active torsions:
REMARK  status: ('A' for Active; 'I' for Inactive)
REMARK    1  A    between atoms: N2_5  and  C4_6 
REMARK    2  A    between atoms: C4_6  and  C5_7 
REMARK    3  A    between atoms: C8_10  and  N3_11 
REMARK       I    between atoms: N3_11  and  C9_12 
REMARK    4  A    between atoms: C9_12  and  C10_14 
REMARK    5  A    between atoms: C14_19  and  C15_20 
REMARK    6  A    between atoms: C16_21  and  C17_22 
REMARK    7  A    between atoms: C20_27  and  N5_28 
REMARK    8  A    between atoms: C28_37  and  C29_38 
ROOT
HETATM    1  C10 UNL     1       1.495  51.332 -15.216  1.00  0.00     0.033 A 
HETATM    2  C11 UNL     1       0.586  50.293 -14.985  1.00  0.00     0.019 A 
HETATM    3  C12 UNL     1      -0.312  49.915 -15.985  1.00  0.00     0.026 A 
HETATM    4  C13 UNL     1      -0.293  50.565 -17.223  1.00  0.00     0.052 A 
HETATM    5 CL1  UNL     1      -1.421  50.039 -18.424  1.00  0.00    -0.083 Cl
HETATM    6  C14 UNL     1       0.627  51.596 -17.467  1.00  0.00     0.040 A 
HETATM    7  C26 UNL     1       1.522  51.980 -16.459  1.00  0.00     0.039 A 
ENDROOT
BRANCH   1   8
HETATM    8  C9  UNL     1       2.454  51.684 -14.134  1.00  0.00     0.256 C 
HETATM    9  N3  UNL     1       1.869  52.044 -12.933  1.00  0.00    -0.323 N 
HETATM   10  H12 UNL     1       0.863  51.953 -12.864  1.00  0.00     0.169 HD
HETATM   11  O1  UNL     1       3.649  51.601 -14.383  1.00  0.00    -0.267 OA
BRANCH   9  12
HETATM   12  C8  UNL     1       2.533  52.438 -11.752  1.00  0.00     0.035 A 
HETATM   13  C7  UNL     1       2.619  51.650 -10.610  1.00  0.00     0.030 A 
HETATM   14  C6  UNL     1       3.301  52.111  -9.479  1.00  0.00     0.012 A 
HETATM   15  C5  UNL     1       3.910  53.376  -9.460  1.00  0.00    -0.015 A 
HETATM   16  C28 UNL     1       3.823  54.193 -10.609  1.00  0.00     0.058 A 
HETATM   17  C27 UNL     1       3.141  53.699 -11.745  1.00  0.00     0.046 A 
BRANCH  15  18
HETATM   18  C4  UNL     1       4.645  53.810  -8.206  1.00  0.00     0.311 C 
BRANCH  18  19
HETATM   19  N2  UNL     1       3.874  54.764  -7.406  1.00  0.00     0.096 N 
HETATM   20  C3  UNL     1       2.476  54.333  -7.255  1.00  0.00     0.303 C 
HETATM   21  C2  UNL     1       1.599  55.355  -6.481  1.00  0.00     0.302 C 
HETATM   22  N1  UNL     1       2.341  56.266  -5.591  1.00  0.00     0.087 N 
HETATM   23  C1  UNL     1       1.473  56.850  -4.576  1.00  0.00     0.310 C 
HETATM   24  C31 UNL     1       3.506  55.593  -5.008  1.00  0.00     0.302 C 
HETATM   25  C30 UNL     1       4.474  55.011  -6.076  1.00  0.00     0.303 C 
ENDBRANCH  18  19
ENDBRANCH  15  18
BRANCH  16  26
HETATM   26  C29 UNL     1       4.455  55.568 -10.691  1.00  0.00     0.418 C 
HETATM   27  F1  UNL     1       4.413  56.067 -11.967  1.00  0.00    -0.166 F 
HETATM   28  F2  UNL     1       3.836  56.520  -9.936  1.00  0.00    -0.166 F 
HETATM   29  F3  UNL     1       5.771  55.582 -10.353  1.00  0.00    -0.166 F 
ENDBRANCH  16  26
ENDBRANCH   9  12
ENDBRANCH   1   8
BRANCH   6  30
HETATM   30  C15 UNL     1       0.700  52.253 -18.739  1.00  0.00    -0.060 C 
HETATM   31  C16 UNL     1       0.789  52.747 -19.831  1.00  0.00    -0.060 C 
BRANCH  31  32
HETATM   32  C17 UNL     1       0.920  53.264 -21.155  1.00  0.00     0.035 A 
HETATM   33  C18 UNL     1       1.545  54.475 -21.402  1.00  0.00     0.108 A 
HETATM   34  N4  UNL     1       1.698  54.994 -22.637  1.00  0.00    -0.372 N 
HETATM   35  C19 UNL     1       1.197  54.257 -23.667  1.00  0.00     0.116 A 
ATOM     36  H4  UNL     1       2.163  55.888 -22.791  1.00  0.00     0.164 HD
HETATM   37  C20 UNL     1       0.531  53.028 -23.558  1.00  0.00     0.047 A 
HETATM   38  C25 UNL     1       0.413  52.548 -22.246  1.00  0.00     0.052 A 
BRANCH  37  39
HETATM   39  N5  UNL     1       0.028  52.337 -24.646  1.00  0.00    -0.376 N 
HETATM   40  C21 UNL     1       0.897  51.775 -25.696  1.00  0.00     0.149 C 
HETATM   41  C22 UNL     1       0.107  51.610 -27.006  1.00  0.00     0.187 C 
HETATM   42  O2  UNL     1      -1.037  50.753 -26.891  1.00  0.00    -0.388 OA
HETATM   43  C23 UNL     1      -1.612  50.743 -25.577  1.00  0.00     0.187 C 
HETATM   44  C24 UNL     1      -1.410  52.050 -24.792  1.00  0.00     0.149 C 
ENDBRANCH  37  39
ENDBRANCH  31  32
ENDBRANCH   6  30
TORSDOF 8
ENDMDL
