MODEL 1
REMARK minimizedAffinity -9.07747936
REMARK CNNscore 0.785214782
REMARK CNNaffinity 7.56887579
REMARK  10 active torsions:
REMARK  status: ('A' for Active; 'I' for Inactive)
REMARK    1  A    between atoms: C3_5  and  C4_6 
REMARK    2  A    between atoms: C13_19  and  N3_20 
REMARK    3  A    between atoms: N3_20  and  C14_21 
REMARK    4  A    between atoms: C18_25  and  C19_26 
REMARK    5  A    between atoms: C19_26  and  O2_27 
REMARK    6  A    between atoms: O2_27  and  C20_28 
REMARK    7  A    between atoms: C20_28  and  C21_29 
REMARK    8  A    between atoms: C21_29  and  O3_30 
REMARK    9  A    between atoms: C21_29  and  C22_31 
REMARK   10  A    between atoms: C22_31  and  O4_32 
ROOT
HETATM    1  C1  UNL     1      -1.293  49.753 -20.777  1.00  0.00     0.161 C 
HETATM    2  N1  UNL     1      -0.744  50.806 -21.614  1.00  0.00    -0.303 N 
HETATM    3  C2  UNL     1      -0.909  50.753 -22.988  1.00  0.00     0.260 A 
HETATM    4  O1  UNL     1      -1.505  49.848 -23.571  1.00  0.00    -0.267 OA
HETATM    5  C3  UNL     1      -0.319  51.878 -23.790  1.00  0.00     0.047 A 
HETATM    6  C10 UNL     1       0.338  52.881 -23.187  1.00  0.00     0.034 A 
HETATM    7  C11 UNL     1       0.476  52.876 -21.740  1.00  0.00     0.026 A 
HETATM    8  C12 UNL     1       1.130  53.861 -21.041  1.00  0.00     0.121 A 
HETATM    9  N2  UNL     1       1.261  53.864 -19.700  1.00  0.00    -0.201 N 
ATOM     10  H2  UNL     1       1.756  54.614 -19.217  1.00  0.00     0.183 HD
HETATM   11  C13 UNL     1       0.716  52.840 -19.025  1.00  0.00     0.684 A 
HETATM   12  N4  UNL     1       0.061  51.836 -19.623  1.00  0.00    -0.175 N 
ATOM     13  H4  UNL     1      -0.340  51.073 -19.078  1.00  0.00     0.186 HD
HETATM   14  C24 UNL     1      -0.053  51.862 -20.967  1.00  0.00     0.137 A 
ENDROOT
BRANCH  11  15
HETATM   15  N3  UNL     1       0.883  52.897 -17.645  1.00  0.00    -0.192 N 
HETATM   16  H9  UNL     1       0.066  53.328 -17.235  1.00  0.00     0.184 HD
BRANCH  15  17
HETATM   17  C14 UNL     1       1.867  52.447 -16.760  1.00  0.00     0.049 A 
HETATM   18  C15 UNL     1       3.207  52.837 -16.817  1.00  0.00     0.030 A 
HETATM   19  C16 UNL     1       4.142  52.357 -15.894  1.00  0.00     0.003 A 
HETATM   20  C17 UNL     1       3.751  51.473 -14.891  1.00  0.00     0.009 A 
HETATM   21  C18 UNL     1       2.419  51.057 -14.806  1.00  0.00    -0.032 A 
HETATM   22  C23 UNL     1       1.492  51.559 -15.737  1.00  0.00     0.039 A 
BRANCH  21  23
HETATM   23  C19 UNL     1       1.977  50.120 -13.710  1.00  0.00     0.206 C 
BRANCH  23  24
HETATM   24  O2  UNL     1       1.778  48.792 -14.198  1.00  0.00    -0.384 OA
BRANCH  24  25
HETATM   25  C20 UNL     1       2.896  47.930 -13.968  1.00  0.00     0.201 C 
BRANCH  25  26
HETATM   26  C21 UNL     1       2.505  46.705 -13.130  1.00  0.00     0.165 C 
BRANCH  26  27
HETATM   27  O3  UNL     1       3.307  46.663 -11.943  1.00  0.00    -0.391 OA
HETATM   28  H18 UNL     1       4.160  46.276 -12.232  1.00  0.00     0.210 HD
ENDBRANCH  26  27
BRANCH  26  29
HETATM   29  C22 UNL     1       2.702  45.392 -13.898  1.00  0.00     0.198 C 
BRANCH  29  30
HETATM   30  O4  UNL     1       2.117  45.516 -15.198  1.00  0.00    -0.398 OA
HETATM   31  H21 UNL     1       2.211  44.647 -15.628  1.00  0.00     0.209 HD
ENDBRANCH  29  30
ENDBRANCH  26  29
ENDBRANCH  25  26
ENDBRANCH  24  25
ENDBRANCH  23  24
ENDBRANCH  21  23
ENDBRANCH  15  17
ENDBRANCH  11  15
BRANCH   5  32
HETATM   32  C4  UNL     1      -0.464  51.878 -25.260  1.00  0.00     0.023 A 
HETATM   33  C5  UNL     1      -1.697  52.179 -25.865  1.00  0.00     0.046 A 
HETATM   34 CL1  UNL     1      -3.113  52.531 -24.931  1.00  0.00    -0.083 Cl
HETATM   35  C6  UNL     1      -1.827  52.195 -27.259  1.00  0.00     0.025 A 
HETATM   36  C7  UNL     1      -0.729  51.913 -28.069  1.00  0.00     0.003 A 
HETATM   37  C8  UNL     1       0.500  51.612 -27.486  1.00  0.00     0.025 A 
HETATM   38  C9  UNL     1       0.634  51.595 -26.093  1.00  0.00     0.046 A 
HETATM   39 CL2  UNL     1       2.192  51.199 -25.451  1.00  0.00    -0.083 Cl
ENDBRANCH   5  32
TORSDOF 10
ENDMDL
