MODEL 1
REMARK minimizedAffinity -8.38132477
REMARK  5 active torsions:
REMARK  status: ('A' for Active; 'I' for Inactive)
REMARK    1  A    between atoms: N1_2  and  C3_4 
REMARK    2  A    between atoms: C3_4  and  C4_5 
REMARK    3  A    between atoms: C4_5  and  C5_6 
REMARK    4  A    between atoms: C5_6  and  C6_7 
REMARK    5  A    between atoms: C7_8  and  C8_9 
ROOT
HETATM    1  C6  UNL     1      -7.835   7.132  14.751  1.00  0.00    -0.023 A 
HETATM    2  C7  UNL     1      -7.741   6.165  13.748  1.00  0.00     0.040 A 
HETATM    3  N3  UNL     1      -9.000   6.012  13.213  1.00  0.00    -0.359 N 
HETATM    4  C17 UNL     1      -9.878   6.846  13.842  1.00  0.00     0.016 A 
HETATM    5  C18 UNL     1      -9.194   7.561  14.797  1.00  0.00    -0.027 A 
HETATM    6  C19 UNL     1      -9.866   8.558  15.681  1.00  0.00     0.041 C 
HETATM    7  C20 UNL     1     -11.248   8.952  15.123  1.00  0.00     0.005 C 
HETATM    8  C21 UNL     1     -12.049   7.728  14.636  1.00  0.00     0.006 C 
HETATM    9  C22 UNL     1     -11.323   6.967  13.512  1.00  0.00     0.057 C 
HETATM   10  H18 UNL     1      -9.250   5.377  12.461  1.00  0.00     0.166 HD
ENDROOT
BRANCH   2  11
HETATM   11  C8  UNL     1      -6.619   5.419  13.283  1.00  0.00     0.048 C 
HETATM   12  C9  UNL     1      -6.555   4.154  12.832  1.00  0.00     0.047 A 
HETATM   13  C10 UNL     1      -7.626   3.103  12.657  1.00  0.00     0.257 A 
HETATM   14  C16 UNL     1      -5.292   3.525  12.395  1.00  0.00     0.009 A 
HETATM   15  O1  UNL     1      -8.819   3.188  12.883  1.00  0.00    -0.267 OA
HETATM   16  N2  UNL     1      -6.972   1.986  12.164  1.00  0.00    -0.322 N 
HETATM   17  C11 UNL     1      -5.613   2.219  12.006  1.00  0.00     0.046 A 
HETATM   18  H14 UNL     1      -7.454   1.127  11.950  1.00  0.00     0.169 HD
HETATM   19  C12 UNL     1      -4.672   1.324  11.533  1.00  0.00     0.033 A 
HETATM   20  C13 UNL     1      -3.353   1.769  11.454  1.00  0.00     0.044 A 
HETATM   21  C14 UNL     1      -3.023   3.076  11.842  1.00  0.00     0.117 A 
HETATM   22  F1  UNL     1      -1.746   3.476  11.758  1.00  0.00    -0.206 F 
HETATM   23  C15 UNL     1      -3.983   3.969  12.317  1.00  0.00     0.057 A 
ENDBRANCH   2  11
BRANCH   1  24
HETATM   24  C5  UNL     1      -6.733   7.646  15.634  1.00  0.00     0.043 C 
BRANCH  24  25
HETATM   25  C4  UNL     1      -5.432   6.863  15.434  1.00  0.00     0.035 C 
BRANCH  25  26
HETATM   26  C3  UNL     1      -4.196   7.769  15.363  1.00  0.00     0.271 C 
BRANCH  26  27
HETATM   27  N1  UNL     1      -2.949   7.144  15.836  1.00  0.00     0.080 N 
HETATM   28  C1  UNL     1      -2.422   6.238  14.812  1.00  0.00     0.309 C 
HETATM   29  C2  UNL     1      -1.933   8.140  16.183  1.00  0.00     0.309 C 
ENDBRANCH  26  27
ENDBRANCH  25  26
ENDBRANCH  24  25
ENDBRANCH   1  24
TORSDOF 5
ENDMDL
