MODEL 1
REMARK minimizedAffinity -9.84532547
REMARK  8 active torsions:
REMARK  status: ('A' for Active; 'I' for Inactive)
REMARK    1  A    between atoms: O1_2  and  C2_3 
REMARK    2  A    between atoms: C6_7  and  C7_8 
REMARK    3  A    between atoms: N1_10  and  C9_11 
REMARK    4  A    between atoms: C12_14  and  O2_15 
REMARK    5  A    between atoms: O2_15  and  C13_16 
REMARK    6  A    between atoms: C13_16  and  C14_17 
REMARK    7  A    between atoms: C14_17  and  N2_18 
REMARK    8  A    between atoms: C22_32  and  N6_33 
ROOT
HETATM    1  C7  UNL     1      -0.568  52.480 -23.685  1.00  0.00     0.007 A 
HETATM    2  C8  UNL     1      -1.374  51.410 -24.012  1.00  0.00     0.112 A 
HETATM    3  N1  UNL     1      -1.704  51.460 -25.359  1.00  0.00    -0.307 N 
HETATM    4  C20 UNL     1      -1.087  52.600 -25.887  1.00  0.00     0.127 A 
HETATM    5  N4  UNL     1      -1.130  53.018 -27.169  1.00  0.00    -0.337 N 
ATOM      6  H4  UNL     1      -1.639  52.526 -27.904  1.00  0.00     0.168 HD
HETATM    7  C21 UNL     1      -0.438  54.142 -27.378  1.00  0.00     0.183 A 
HETATM    8  N5  UNL     1       0.253  54.864 -26.483  1.00  0.00    -0.343 N 
ATOM      9  H5  UNL     1       0.733  55.721 -26.759  1.00  0.00     0.167 HD
HETATM   10  C22 UNL     1       0.294  54.428 -25.213  1.00  0.00     0.093 A 
HETATM   11  C23 UNL     1      -0.386  53.245 -24.869  1.00  0.00     0.059 A 
ENDROOT
BRANCH   3  12
HETATM   12  C9  UNL     1      -2.524  50.492 -26.040  1.00  0.00     0.040 A 
HETATM   13  C10 UNL     1      -3.019  49.368 -25.357  1.00  0.00     0.033 A 
HETATM   14  C11 UNL     1      -3.816  48.413 -26.008  1.00  0.00     0.039 A 
HETATM   15  C12 UNL     1      -4.131  48.561 -27.355  1.00  0.00     0.069 A 
HETATM   16  C18 UNL     1      -3.651  49.677 -28.039  1.00  0.00     0.039 A 
HETATM   17  C19 UNL     1      -2.857  50.633 -27.393  1.00  0.00     0.033 A 
BRANCH  15  18
HETATM   18  O2  UNL     1      -4.887  47.708 -28.106  1.00  0.00    -0.350 OA
BRANCH  18  19
HETATM   19  C13 UNL     1      -5.312  48.170 -29.391  1.00  0.00     0.196 C 
BRANCH  19  20
HETATM   20  C14 UNL     1      -5.767  46.970 -30.219  1.00  0.00     0.156 C 
BRANCH  20  21
HETATM   21  N2  UNL     1      -5.263  47.016 -31.580  1.00  0.00    -0.350 N 
HETATM   22  C15 UNL     1      -5.227  48.111 -32.396  1.00  0.00     0.108 A 
HETATM   23  C16 UNL     1      -4.682  47.655 -33.575  1.00  0.00     0.106 A 
HETATM   24  N3  UNL     1      -4.397  46.314 -33.496  1.00  0.00    -0.361 N 
HETATM   25  C17 UNL     1      -4.760  45.957 -32.284  1.00  0.00     0.182 A 
ATOM     26  H3  UNL     1      -3.991  45.723 -34.221  1.00  0.00     0.166 HD
ENDBRANCH  20  21
ENDBRANCH  19  20
ENDBRANCH  18  19
ENDBRANCH  15  18
ENDBRANCH   3  12
BRANCH   1  27
HETATM   27  C6  UNL     1      -0.032  52.664 -22.347  1.00  0.00    -0.021 A 
HETATM   28  C5  UNL     1       1.046  53.528 -22.129  1.00  0.00     0.012 A 
HETATM   29  C4  UNL     1       1.557  53.697 -20.843  1.00  0.00     0.004 A 
HETATM   30  C3  UNL     1       0.993  52.997 -19.774  1.00  0.00     0.037 A 
HETATM   31  C2  UNL     1      -0.084  52.130 -19.978  1.00  0.00     0.069 A 
HETATM   32  C24 UNL     1      -0.599  51.972 -21.266  1.00  0.00     0.049 A 
BRANCH  31  33
HETATM   33  O1  UNL     1      -0.534  51.504 -18.849  1.00  0.00    -0.356 OA
HETATM   34  C1  UNL     1      -1.908  51.679 -18.523  1.00  0.00     0.210 C 
ENDBRANCH  31  33
ENDBRANCH   1  27
BRANCH  10  35
HETATM   35  N6  UNL     1       1.009  55.211 -24.318  1.00  0.00    -0.288 NA
HETATM   36  H20 UNL     1       0.689  55.158 -23.360  1.00  0.00     0.125 HD
HETATM   37  H21 UNL     1       1.145  56.145 -24.691  1.00  0.00     0.125 HD
ENDBRANCH  10  35
TORSDOF 8
ENDMDL
