MODEL 1
REMARK minimizedAffinity -9.98764133
REMARK  4 active torsions:
REMARK  status: ('A' for Active; 'I' for Inactive)
REMARK    1  A    between atoms: CL1_1  and  C16_22 
REMARK    2  A    between atoms: C4_5  and  C5_6 
REMARK    3  A    between atoms: C9_10  and  N1_11 
REMARK    4  A    between atoms: N1_11  and  C10_12 
ROOT
HETATM    1  C10 UNL     1       0.287  52.825 -25.380  1.00  0.00     0.117 A 
HETATM    2  N2  UNL     1       0.572  54.093 -25.725  1.00  0.00    -0.338 N 
ATOM      3  H2  UNL     1       1.264  54.613 -25.187  1.00  0.00     0.168 HD
HETATM    4  C11 UNL     1      -0.045  54.697 -26.780  1.00  0.00     0.182 A 
HETATM    5  N3  UNL     1      -0.972  54.036 -27.519  1.00  0.00    -0.352 N 
ATOM      6  H3  UNL     1      -1.426  54.502 -28.305  1.00  0.00     0.166 HD
HETATM    7  C12 UNL     1      -1.296  52.746 -27.207  1.00  0.00     0.047 A 
HETATM    8  C13 UNL     1      -2.234  52.038 -27.931  1.00  0.00     0.069 A 
HETATM    9  C14 UNL     1      -2.540  50.740 -27.587  1.00  0.00     0.102 A 
HETATM   10  C15 UNL     1      -1.891  50.155 -26.508  1.00  0.00     0.101 A 
HETATM   11  C16 UNL     1      -0.958  50.821 -25.769  1.00  0.00     0.161 A 
HETATM   12  C17 UNL     1      -0.665  52.129 -26.130  1.00  0.00     0.036 A 
HETATM   13  O1  UNL     1      -2.230  48.855 -26.204  1.00  0.00    -0.349 OA
HETATM   14  C18 UNL     1      -3.524  48.320 -26.440  1.00  0.00     0.202 C 
HETATM   15  C19 UNL     1      -4.241  48.969 -27.586  1.00  0.00     0.202 C 
HETATM   16  O2  UNL     1      -3.462  49.959 -28.252  1.00  0.00    -0.346 OA
ENDROOT
BRANCH   1  17
HETATM   17  N1  UNL     1       0.897  52.150 -24.288  1.00  0.00    -0.342 N 
HETATM   18  H8  UNL     1       1.426  51.269 -24.539  1.00  0.00     0.167 HD
BRANCH  17  19
HETATM   19  C9  UNL     1       0.832  52.581 -22.947  1.00  0.00     0.034 A 
HETATM   20  C8  UNL     1       1.178  53.886 -22.631  1.00  0.00     0.029 A 
HETATM   21  C7  UNL     1       1.146  54.378 -21.343  1.00  0.00     0.003 A 
HETATM   22  C6  UNL     1       0.751  53.522 -20.338  1.00  0.00     0.012 A 
HETATM   23  C5  UNL     1       0.395  52.200 -20.624  1.00  0.00    -0.024 A 
HETATM   24  C20 UNL     1       0.446  51.764 -21.932  1.00  0.00     0.041 A 
BRANCH  23  25
HETATM   25  C4  UNL     1      -0.007  51.378 -19.505  1.00  0.00    -0.026 A 
HETATM   26  C3  UNL     1      -0.542  50.118 -19.616  1.00  0.00     0.012 A 
HETATM   27  C2  UNL     1      -0.906  49.386 -18.494  1.00  0.00     0.001 A 
HETATM   28  C1  UNL     1      -0.748  49.882 -17.216  1.00  0.00     0.000 A 
HETATM   29  C22 UNL     1      -0.212  51.146 -17.096  1.00  0.00     0.001 A 
HETATM   30  C21 UNL     1       0.147  51.868 -18.209  1.00  0.00     0.012 A 
ENDBRANCH  23  25
ENDBRANCH  17  19
ENDBRANCH   1  17
BRANCH  11  31
HETATM   31 CL1  UNL     1       0.606  50.855 -26.385  1.00  0.00    -0.219 Cl
HETATM   32  H1  UNL     1       1.980  50.875 -26.387  1.00  0.00     0.129 HD
ENDBRANCH  11  31
TORSDOF 4
ENDMDL
