MODEL 1
REMARK minimizedAffinity -9.4974041
REMARK CNNscore 0.367612869
REMARK CNNaffinity 7.5218749
REMARK  9 active torsions:
REMARK  status: ('A' for Active; 'I' for Inactive)
REMARK    1  A    between atoms: C2_2  and  S1_3 
REMARK    2  A    between atoms: S1_3  and  C3_6 
REMARK    3  A    between atoms: C10_13  and  C11_14 
REMARK    4  A    between atoms: C14_18  and  C15_19 
REMARK    5  A    between atoms: C15_19  and  C16_20 
REMARK    6  A    between atoms: C16_20  and  C17_21 
REMARK    7  A    between atoms: C17_21  and  N2_22 
REMARK       I    between atoms: N3_25  and  C20_26 
REMARK    8  A    between atoms: C20_26  and  C21_28 
REMARK    9  A    between atoms: C21_28  and  O4_29 
ROOT
HETATM    1  C11 UNL     1      -6.795   6.128  13.612  1.00  0.00     0.040 A 
HETATM    2  N1  UNL     1      -7.977   5.986  12.923  1.00  0.00    -0.359 N 
HETATM    3  C12 UNL     1      -8.996   6.552  13.632  1.00  0.00     0.016 A 
HETATM    4  C13 UNL     1      -8.480   7.091  14.787  1.00  0.00    -0.027 A 
HETATM    5  C14 UNL     1      -7.079   6.832  14.783  1.00  0.00    -0.023 A 
HETATM    6  C24 UNL     1      -9.340   7.763  15.803  1.00  0.00     0.041 C 
HETATM    7  C25 UNL     1     -10.730   8.102  15.232  1.00  0.00     0.005 C 
HETATM    8  C26 UNL     1     -11.318   6.955  14.384  1.00  0.00     0.006 C 
HETATM    9  C27 UNL     1     -10.417   6.578  13.195  1.00  0.00     0.057 C 
HETATM   10  H10 UNL     1      -8.092   5.504  12.036  1.00  0.00     0.166 HD
ENDROOT
BRANCH   1  11
HETATM   11  C10 UNL     1      -5.564   5.609  13.125  1.00  0.00     0.048 C 
HETATM   12  C9  UNL     1      -5.293   4.407  12.589  1.00  0.00     0.047 A 
HETATM   13  C7  UNL     1      -3.924   3.985  12.225  1.00  0.00     0.008 A 
HETATM   14  C28 UNL     1      -6.187   3.227  12.292  1.00  0.00     0.257 A 
HETATM   15  C6  UNL     1      -4.020   2.652  11.804  1.00  0.00     0.046 A 
HETATM   16  C8  UNL     1      -2.693   4.621  12.253  1.00  0.00     0.038 A 
HETATM   17  C5  UNL     1      -2.924   1.908  11.409  1.00  0.00     0.032 A 
HETATM   18  N4  UNL     1      -5.339   2.224  11.845  1.00  0.00    -0.322 N 
HETATM   19  C4  UNL     1      -1.675   2.531  11.448  1.00  0.00     0.026 A 
HETATM   20  C3  UNL     1      -1.567   3.872  11.878  1.00  0.00     0.060 A 
HETATM   21  H36 UNL     1      -5.674   1.313  11.572  1.00  0.00     0.169 HD
HETATM   22  O5  UNL     1      -7.394   3.145  12.400  1.00  0.00    -0.267 OA
BRANCH  20  23
HETATM   23  S1  UNL     1       0.036   4.646  11.947  1.00  0.00     0.175 S 
HETATM   24  O1  UNL     1       0.896   3.889  11.057  1.00  0.00    -0.223 OA
HETATM   25  O2  UNL     1       0.383   4.821  13.344  1.00  0.00    -0.223 OA
BRANCH  23  26
HETATM   26  C2  UNL     1      -0.217   6.256  11.230  1.00  0.00     0.141 C 
HETATM   27  C1  UNL     1       0.812   6.619  10.178  1.00  0.00     0.021 C 
ENDBRANCH  23  26
ENDBRANCH  20  23
ENDBRANCH   1  11
BRANCH   5  28
HETATM   28  C15 UNL     1      -6.112   7.227  15.859  1.00  0.00     0.043 C 
BRANCH  28  29
HETATM   29  C16 UNL     1      -5.104   8.277  15.376  1.00  0.00     0.035 C 
BRANCH  29  30
HETATM   30  C17 UNL     1      -3.703   7.664  15.248  1.00  0.00     0.273 C 
BRANCH  30  31
HETATM   31  N2  UNL     1      -2.624   8.647  15.411  1.00  0.00     0.091 N 
HETATM   32  C18 UNL     1      -1.629   8.562  14.321  1.00  0.00     0.292 C 
HETATM   33  C19 UNL     1      -0.318   7.838  14.682  1.00  0.00     0.156 C 
HETATM   34  N3  UNL     1       0.324   8.412  15.868  1.00  0.00    -0.347 N 
HETATM   35  C20 UNL     1       1.684   8.391  16.121  1.00  0.00     0.243 C 
HETATM   36  C22 UNL     1      -0.559   9.143  16.779  1.00  0.00     0.156 C 
HETATM   37  O3  UNL     1       2.187   9.009  17.064  1.00  0.00    -0.271 OA
HETATM   38  C23 UNL     1      -1.993   8.586  16.748  1.00  0.00     0.292 C 
BRANCH  35  39
HETATM   39  C21 UNL     1       2.574   7.560  15.181  1.00  0.00     0.267 C 
BRANCH  39  40
HETATM   40  O4  UNL     1       3.326   6.544  15.821  1.00  0.00    -0.392 OA
HETATM   41  H23 UNL     1       3.858   6.988  16.505  1.00  0.00     0.210 HD
ENDBRANCH  39  40
ENDBRANCH  35  39
ENDBRANCH  30  31
ENDBRANCH  29  30
ENDBRANCH  28  29
ENDBRANCH   5  28
TORSDOF 9
ENDMDL
