MODEL 1
REMARK minimizedAffinity -9.62808418
REMARK  3 active torsions:
REMARK  status: ('A' for Active; 'I' for Inactive)
REMARK    1  A    between atoms: C3_4  and  C4_5 
REMARK    2  A    between atoms: C13_17  and  N2_18 
REMARK    3  A    between atoms: N2_18  and  C14_19 
ROOT
HETATM    1  F1  UNL     1      -0.598  50.821 -19.178  1.00  0.00    -0.204 F 
HETATM    2  C1  UNL     1      -0.016  51.766 -19.933  1.00  0.00     0.143 A 
HETATM    3  C2  UNL     1      -0.076  51.650 -21.320  1.00  0.00     0.059 A 
HETATM    4  C3  UNL     1       0.511  52.622 -22.145  1.00  0.00     0.001 A 
HETATM    5  C11 UNL     1       1.142  53.710 -21.520  1.00  0.00     0.017 A 
HETATM    6  C12 UNL     1       1.197  53.816 -20.121  1.00  0.00     0.034 A 
HETATM    7  C13 UNL     1       0.641  52.831 -19.303  1.00  0.00     0.072 A 
ENDROOT
BRANCH   7   8
HETATM    8  N2  UNL     1       0.612  52.920 -17.892  1.00  0.00    -0.339 N 
HETATM    9  H8  UNL     1      -0.290  52.601 -17.543  1.00  0.00     0.167 HD
BRANCH   8  10
HETATM   10  C14 UNL     1       1.631  52.574 -16.967  1.00  0.00     0.119 A 
HETATM   11  N3  UNL     1       2.791  53.255 -16.983  1.00  0.00    -0.338 N 
HETATM   12  C15 UNL     1       3.729  52.872 -16.113  1.00  0.00     0.182 A 
ATOM     13  H3  UNL     1       2.948  54.029 -17.631  1.00  0.00     0.168 HD
HETATM   14  N4  UNL     1       3.623  51.880 -15.223  1.00  0.00    -0.351 N 
HETATM   15  C16 UNL     1       2.463  51.217 -15.197  1.00  0.00     0.048 A 
ATOM     16  H4  UNL     1       4.390  51.640 -14.594  1.00  0.00     0.166 HD
HETATM   17  C17 UNL     1       2.315  50.188 -14.277  1.00  0.00     0.054 A 
HETATM   18  C21 UNL     1       1.397  51.522 -16.057  1.00  0.00     0.035 A 
HETATM   19  C18 UNL     1       1.129  49.461 -14.188  1.00  0.00     0.036 A 
HETATM   20 CL1  UNL     1       0.986  48.195 -13.032  1.00  0.00    -0.084 Cl
HETATM   21  C19 UNL     1       0.060  49.756 -15.022  1.00  0.00     0.025 A 
HETATM   22  C20 UNL     1       0.190  50.784 -15.954  1.00  0.00     0.019 A 
ENDBRANCH   8  10
ENDBRANCH   7   8
BRANCH   4  23
HETATM   23  C4  UNL     1       0.421  52.455 -23.612  1.00  0.00     0.085 A 
HETATM   24  N1  UNL     1       1.463  52.188 -24.376  1.00  0.00    -0.349 N 
HETATM   25  C5  UNL     1       1.084  52.092 -25.704  1.00  0.00     0.050 A 
ATOM     26  H1  UNL     1       2.416  52.069 -24.035  1.00  0.00     0.166 HD
HETATM   27  C6  UNL     1       1.939  51.815 -26.790  1.00  0.00     0.031 A 
HETATM   28  C10 UNL     1      -0.272  52.295 -25.953  1.00  0.00     0.033 A 
HETATM   29  C7  UNL     1       1.418  51.747 -28.086  1.00  0.00     0.002 A 
HETATM   30  C8  UNL     1       0.061  51.953 -28.311  1.00  0.00     0.002 A 
HETATM   31  C9  UNL     1      -0.808  52.231 -27.250  1.00  0.00     0.021 A 
HETATM   32  S1  UNL     1      -1.067  52.612 -24.464  1.00  0.00    -0.070 SA
ENDBRANCH   4  23
TORSDOF 3
ENDMDL
