MODEL 1
REMARK minimizedAffinity -8.31299591
REMARK CNNscore 0.389320612
REMARK CNNaffinity 6.50094175
REMARK  7 active torsions:
REMARK  status: ('A' for Active; 'I' for Inactive)
REMARK    1  A    between atoms: O1_2  and  C2_3 
REMARK    2  A    between atoms: C2_3  and  C3_4 
REMARK       I    between atoms: C3_4  and  N1_6 
REMARK    3  A    between atoms: C7_10  and  C8_11 
REMARK    4  A    between atoms: C13_18  and  C14_19 
REMARK       I    between atoms: C14_19  and  N3_21 
REMARK    5  A    between atoms: N3_21  and  C15_22 
REMARK    6  A    between atoms: C17_24  and  C18_25 
REMARK    7  A    between atoms: C24_37  and  N5_38 
ROOT
HETATM    1  C8  UNL     1      -6.864  49.577 -10.352  1.00  0.00     0.094 A 
HETATM    2  N2  UNL     1      -6.252  50.712 -10.060  1.00  0.00    -0.342 N 
ATOM      3  H2  UNL     1      -6.633  51.499  -9.535  1.00  0.00     0.167 HD
HETATM    4  C9  UNL     1      -4.997  50.614 -10.611  1.00  0.00     0.077 A 
HETATM    5  C10 UNL     1      -4.013  51.659 -10.469  1.00  0.00     0.032 A 
HETATM    6  C11 UNL     1      -4.208  52.886 -11.114  1.00  0.00     0.018 A 
HETATM    7  C12 UNL     1      -3.266  53.911 -10.975  1.00  0.00     0.018 A 
HETATM    8  C13 UNL     1      -2.134  53.727 -10.166  1.00  0.00     0.035 A 
HETATM    9  C21 UNL     1      -1.940  52.495  -9.527  1.00  0.00     0.060 A 
HETATM   10  C22 UNL     1      -2.877  51.477  -9.678  1.00  0.00     0.130 A 
HETATM   11  F4  UNL     1      -2.674  50.317  -9.033  1.00  0.00    -0.205 F 
HETATM   12  C23 UNL     1      -4.857  49.431 -11.302  1.00  0.00     0.106 A 
HETATM   13  C24 UNL     1      -3.824  48.803 -12.091  1.00  0.00     0.107 A 
HETATM   14  N6  UNL     1      -4.019  47.606 -12.595  1.00  0.00    -0.354 N 
ATOM     15  H6  UNL     1      -3.296  47.157 -13.158  1.00  0.00     0.166 HD
HETATM   16  C25 UNL     1      -5.216  46.963 -12.351  1.00  0.00     0.107 A 
HETATM   17  C26 UNL     1      -6.221  47.497 -11.641  1.00  0.00     0.116 A 
HETATM   18  N7  UNL     1      -6.045  48.761 -11.109  1.00  0.00    -0.305 N 
ENDROOT
BRANCH   1  19
HETATM   19  C7  UNL     1      -8.241  49.177  -9.890  1.00  0.00     0.072 C 
HETATM   20  C6  UNL     1      -8.324  49.075  -8.348  1.00  0.00     0.015 C 
HETATM   21  C5  UNL     1      -8.323  47.624  -7.870  1.00  0.00     0.021 C 
HETATM   22  C4  UNL     1      -9.507  46.863  -8.469  1.00  0.00     0.126 C 
HETATM   23  N1  UNL     1      -9.732  47.185  -9.879  1.00  0.00    -0.350 N 
HETATM   24  C3  UNL     1     -10.865  46.803 -10.595  1.00  0.00     0.243 C 
HETATM   25  C27 UNL     1      -8.638  47.855 -10.576  1.00  0.00     0.138 C 
HETATM   26  O2  UNL     1     -11.030  47.135 -11.770  1.00  0.00    -0.271 OA
BRANCH  24  27
HETATM   27  C2  UNL     1     -11.904  45.942  -9.842  1.00  0.00     0.269 C 
BRANCH  27  28
HETATM   28  O1  UNL     1     -11.874  44.539 -10.062  1.00  0.00    -0.387 OA
HETATM   29  C1  UNL     1     -12.842  44.109 -11.009  1.00  0.00     0.202 C 
ENDBRANCH  27  28
ENDBRANCH  24  27
ENDBRANCH   1  19
BRANCH  13  30
HETATM   30  N5  UNL     1      -2.625  49.387 -12.386  1.00  0.00    -0.287 NA
HETATM   31  H20 UNL     1      -2.146  48.896 -13.132  1.00  0.00     0.125 HD
HETATM   32  H21 UNL     1      -2.634  50.392 -12.506  1.00  0.00     0.125 HD
ENDBRANCH  13  30
BRANCH   8  33
HETATM   33  C14 UNL     1      -1.105  54.792  -9.960  1.00  0.00     0.257 C 
HETATM   34  O3  UNL     1      -1.486  55.948  -9.800  1.00  0.00    -0.267 OA
HETATM   35  N3  UNL     1       0.204  54.379 -10.015  1.00  0.00    -0.309 N 
HETATM   36  H15 UNL     1       0.434  53.435 -10.293  1.00  0.00     0.170 HD
BRANCH  35  37
HETATM   37  C15 UNL     1       1.359  55.142  -9.837  1.00  0.00     0.108 A 
HETATM   38  C16 UNL     1       1.721  55.756  -8.646  1.00  0.00     0.064 A 
HETATM   39  C17 UNL     1       2.914  56.492  -8.593  1.00  0.00     0.052 A 
HETATM   40  C19 UNL     1       3.693  56.586  -9.748  1.00  0.00     0.033 A 
HETATM   41  C20 UNL     1       3.254  55.942 -10.892  1.00  0.00     0.090 A 
HETATM   42  N4  UNL     1       2.114  55.223 -10.954  1.00  0.00    -0.352 N 
ATOM     43  H4  UNL     1       1.832  54.755 -11.815  1.00  0.00     0.166 HD
BRANCH  39  44
HETATM   44  C18 UNL     1       3.334  57.205  -7.336  1.00  0.00     0.417 C 
HETATM   45  F1  UNL     1       4.679  57.418  -7.294  1.00  0.00    -0.166 F 
HETATM   46  F2  UNL     1       3.034  56.494  -6.212  1.00  0.00    -0.166 F 
HETATM   47  F3  UNL     1       2.752  58.423  -7.172  1.00  0.00    -0.166 F 
ENDBRANCH  39  44
ENDBRANCH  35  37
ENDBRANCH   8  33
TORSDOF 7
ENDMDL
