MODEL 1
REMARK minimizedAffinity -8.62916946
REMARK  8 active torsions:
REMARK  status: ('A' for Active; 'I' for Inactive)
REMARK    1  A    between atoms: O1_2  and  C2_3 
REMARK    2  A    between atoms: C5_6  and  N1_7 
REMARK    3  A    between atoms: N1_7  and  C6_8 
REMARK    4  A    between atoms: C17_24  and  O3_25 
REMARK    5  A    between atoms: O3_25  and  C18_26 
REMARK    6  A    between atoms: C18_26  and  C19_27 
REMARK    7  A    between atoms: C19_27  and  C20_28 
REMARK    8  A    between atoms: C20_28  and  N4_29 
ROOT
HETATM    1  C2  UNL     1      -1.500  50.192 -21.204  1.00  0.00     0.102 A 
HETATM    2  C3  UNL     1      -0.927  50.897 -20.145  1.00  0.00     0.057 A 
HETATM    3  C4  UNL     1      -0.072  52.005 -20.381  1.00  0.00     0.038 A 
HETATM    4  C5  UNL     1       0.554  52.776 -19.380  1.00  0.00     0.119 A 
HETATM    5  N2  UNL     1       1.316  53.844 -19.675  1.00  0.00    -0.338 N 
ATOM      6  H2  UNL     1       1.746  54.411 -18.945  1.00  0.00     0.168 HD
HETATM    7  C14 UNL     1       1.481  54.127 -20.969  1.00  0.00     0.182 A 
HETATM    8  N3  UNL     1       0.961  53.449 -21.997  1.00  0.00    -0.351 N 
ATOM      9  H3  UNL     1       1.146  53.719 -22.964  1.00  0.00     0.166 HD
HETATM   10  C15 UNL     1       0.188  52.402 -21.698  1.00  0.00     0.050 A 
HETATM   11  C16 UNL     1      -0.379  51.684 -22.744  1.00  0.00     0.070 A 
HETATM   12  C17 UNL     1      -1.211  50.581 -22.521  1.00  0.00     0.104 A 
ENDROOT
BRANCH   4  13
HETATM   13  N1  UNL     1       0.382  52.407 -18.020  1.00  0.00    -0.341 N 
HETATM   14  H5  UNL     1      -0.398  51.768 -17.930  1.00  0.00     0.167 HD
BRANCH  13  15
HETATM   15  C6  UNL     1       1.380  52.148 -17.055  1.00  0.00     0.046 A 
HETATM   16  C7  UNL     1       2.600  52.861 -17.040  1.00  0.00     0.030 A 
HETATM   17  C8  UNL     1       3.584  52.644 -16.069  1.00  0.00     0.005 A 
HETATM   18  C9  UNL     1       3.392  51.713 -15.049  1.00  0.00     0.038 A 
HETATM   19  C10 UNL     1       2.181  51.029 -15.060  1.00  0.00     0.087 A 
HETATM   20  O2  UNL     1       1.806  50.092 -14.145  1.00  0.00    -0.322 OA
HETATM   21  C13 UNL     1       1.180  51.212 -16.011  1.00  0.00     0.026 A 
HETATM   22  C11 UNL     1       0.568  49.665 -14.499  1.00  0.00     0.143 A 
HETATM   23  C12 UNL     1       0.136  50.317 -15.631  1.00  0.00     0.041 A 
ENDBRANCH  13  15
ENDBRANCH   4  13
BRANCH   1  24
HETATM   24  O1  UNL     1      -2.327  49.108 -21.056  1.00  0.00    -0.353 OA
HETATM   25  C1  UNL     1      -3.607  49.329 -20.482  1.00  0.00     0.210 C 
ENDBRANCH   1  24
BRANCH  12  26
HETATM   26  O3  UNL     1      -1.802  49.841 -23.514  1.00  0.00    -0.348 OA
BRANCH  26  27
HETATM   27  C18 UNL     1      -2.403  50.542 -24.606  1.00  0.00     0.177 C 
BRANCH  27  28
HETATM   28  C19 UNL     1      -1.888  49.916 -25.896  1.00  0.00     0.057 C 
BRANCH  28  29
HETATM   29  C20 UNL     1      -1.912  50.840 -27.119  1.00  0.00     0.274 C 
BRANCH  29  30
HETATM   30  N4  UNL     1      -0.608  51.457 -27.394  1.00  0.00     0.092 N 
HETATM   31  C21 UNL     1      -0.604  52.928 -27.232  1.00  0.00     0.298 C 
HETATM   32  C22 UNL     1       0.056  53.408 -25.928  1.00  0.00     0.198 C 
HETATM   33  O4  UNL     1       1.420  52.987 -25.797  1.00  0.00    -0.388 OA
HETATM   34  C23 UNL     1       1.693  51.748 -26.467  1.00  0.00     0.198 C 
HETATM   35  C24 UNL     1       0.455  50.846 -26.563  1.00  0.00     0.298 C 
ENDBRANCH  29  30
ENDBRANCH  28  29
ENDBRANCH  27  28
ENDBRANCH  26  27
ENDBRANCH  12  26
TORSDOF 8
ENDMDL
