MODEL 1
REMARK minimizedAffinity -9.65962029
REMARK  7 active torsions:
REMARK  status: ('A' for Active; 'I' for Inactive)
REMARK    1  A    between atoms: C1_2  and  O2_3 
REMARK    2  A    between atoms: C1_2  and  C2_4 
REMARK    3  A    between atoms: C2_4  and  C3_5 
REMARK    4  A    between atoms: C3_5  and  C4_6 
REMARK    5  A    between atoms: C5_7  and  C6_8 
REMARK    6  A    between atoms: C12_16  and  C13_17 
REMARK    7  A    between atoms: C13_17  and  O5_19 
ROOT
HETATM    1  C4  UNL     1      -4.225   3.874  12.107  1.00  0.00    -0.023 A 
HETATM    2  C5  UNL     1      -3.307   4.853  12.497  1.00  0.00     0.040 A 
HETATM    3  N2  UNL     1      -3.954   5.682  13.387  1.00  0.00    -0.359 N 
HETATM    4  C16 UNL     1      -5.237   5.255  13.573  1.00  0.00     0.016 A 
HETATM    5  C17 UNL     1      -5.446   4.142  12.791  1.00  0.00    -0.027 A 
HETATM    6  C18 UNL     1      -6.751   3.415  12.776  1.00  0.00     0.041 C 
HETATM    7  C19 UNL     1      -7.873   4.271  13.394  1.00  0.00     0.005 C 
HETATM    8  C20 UNL     1      -7.426   4.972  14.690  1.00  0.00     0.006 C 
HETATM    9  C21 UNL     1      -6.233   5.918  14.456  1.00  0.00     0.057 C 
HETATM   10  H12 UNL     1      -3.546   6.491  13.845  1.00  0.00     0.166 HD
ENDROOT
BRANCH   2  11
HETATM   11  C6  UNL     1      -1.949   5.054  12.118  1.00  0.00     0.048 C 
HETATM   12  C7  UNL     1      -1.035   5.909  12.609  1.00  0.00     0.047 A 
HETATM   13  C8  UNL     1      -1.125   6.938  13.712  1.00  0.00     0.257 A 
HETATM   14  C15 UNL     1       0.348   5.986  12.093  1.00  0.00     0.007 A 
HETATM   15  O3  UNL     1      -2.080   7.219  14.411  1.00  0.00    -0.267 OA
HETATM   16  N1  UNL     1       0.129   7.521  13.778  1.00  0.00    -0.322 N 
HETATM   17  C9  UNL     1       0.995   6.976  12.840  1.00  0.00     0.046 A 
HETATM   18  H7  UNL     1       0.354   8.251  14.436  1.00  0.00     0.169 HD
HETATM   19  C10 UNL     1       2.314   7.326  12.636  1.00  0.00     0.031 A 
HETATM   20  C11 UNL     1       3.009   6.647  11.631  1.00  0.00     0.020 A 
HETATM   21  C12 UNL     1       2.376   5.644  10.862  1.00  0.00     0.038 A 
HETATM   22  C14 UNL     1       1.031   5.309  11.094  1.00  0.00     0.033 A 
BRANCH  21  23
HETATM   23  C13 UNL     1       3.178   4.967   9.814  1.00  0.00     0.176 C 
HETATM   24  O4  UNL     1       3.816   5.520   8.937  1.00  0.00    -0.646 OA
BRANCH  23  25
HETATM   25  O5  UNL     1       3.141   3.627   9.915  1.00  0.00    -0.773 OA
HETATM   26  H10 UNL     1       3.699   3.316   9.171  1.00  0.00     0.167 HD
ENDBRANCH  23  25
ENDBRANCH  21  23
ENDBRANCH   2  11
BRANCH   1  27
HETATM   27  C3  UNL     1      -3.987   2.735  11.160  1.00  0.00     0.052 C 
BRANCH  27  28
HETATM   28  C2  UNL     1      -3.010   1.715  11.733  1.00  0.00     0.115 C 
BRANCH  28  29
HETATM   29  C1  UNL     1      -1.732   1.697  10.947  1.00  0.00     0.139 C 
HETATM   30  O1  UNL     1      -0.678   1.168  11.254  1.00  0.00    -0.650 OA
BRANCH  29  31
HETATM   31  O2  UNL     1      -1.854   2.347   9.772  1.00  0.00    -0.776 OA
HETATM   32  H1  UNL     1      -0.969   2.264   9.359  1.00  0.00     0.167 HD
ENDBRANCH  29  31
ENDBRANCH  28  29
ENDBRANCH  27  28
ENDBRANCH   1  27
TORSDOF 7
ENDMDL
