MODEL 1
REMARK minimizedAffinity -9.66799831
REMARK  8 active torsions:
REMARK  status: ('A' for Active; 'I' for Inactive)
REMARK    1  A    between atoms: C2_2  and  S1_3 
REMARK    2  A    between atoms: S1_3  and  C3_6 
REMARK    3  A    between atoms: C10_13  and  C11_14 
REMARK    4  A    between atoms: C14_18  and  C15_19 
REMARK    5  A    between atoms: C15_19  and  C16_20 
REMARK    6  A    between atoms: C16_20  and  C17_21 
REMARK    7  A    between atoms: C17_21  and  N2_22 
REMARK    8  A    between atoms: C20_25  and  O3_26 
ROOT
HETATM    1  C11 UNL     1      -3.274   4.315  11.779  1.00  0.00     0.040 A 
HETATM    2  N1  UNL     1      -3.541   3.009  11.443  1.00  0.00    -0.359 N 
HETATM    3  C12 UNL     1      -4.805   2.685  11.843  1.00  0.00     0.016 A 
HETATM    4  C13 UNL     1      -5.362   3.786  12.458  1.00  0.00    -0.027 A 
HETATM    5  C14 UNL     1      -4.390   4.832  12.428  1.00  0.00    -0.023 A 
HETATM    6  C23 UNL     1      -6.759   3.781  12.986  1.00  0.00     0.041 C 
HETATM    7  C24 UNL     1      -7.297   2.344  13.121  1.00  0.00     0.005 C 
HETATM    8  C25 UNL     1      -6.967   1.481  11.889  1.00  0.00     0.006 C 
HETATM    9  C26 UNL     1      -5.451   1.359  11.654  1.00  0.00     0.057 C 
HETATM   10  H10 UNL     1      -2.910   2.390  10.950  1.00  0.00     0.166 HD
ENDROOT
BRANCH   1  11
HETATM   11  C10 UNL     1      -1.993   4.821  11.463  1.00  0.00     0.048 C 
HETATM   12  C9  UNL     1      -1.125   5.286  12.373  1.00  0.00     0.047 A 
HETATM   13  C7  UNL     1       0.224   5.780  12.060  1.00  0.00     0.008 A 
HETATM   14  C27 UNL     1      -1.304   5.426  13.868  1.00  0.00     0.257 A 
HETATM   15  C6  UNL     1       0.793   6.163  13.279  1.00  0.00     0.046 A 
HETATM   16  C8  UNL     1       0.942   5.903  10.882  1.00  0.00     0.038 A 
HETATM   17  C5  UNL     1       2.074   6.670  13.381  1.00  0.00     0.032 A 
HETATM   18  N3  UNL     1      -0.101   5.953  14.321  1.00  0.00    -0.322 N 
HETATM   19  C4  UNL     1       2.809   6.801  12.201  1.00  0.00     0.026 A 
HETATM   20  C3  UNL     1       2.237   6.434  10.965  1.00  0.00     0.060 A 
HETATM   21  H35 UNL     1       0.063   6.148  15.296  1.00  0.00     0.169 HD
HETATM   22  O4  UNL     1      -2.266   5.166  14.561  1.00  0.00    -0.267 OA
BRANCH  20  23
HETATM   23  S1  UNL     1       3.198   6.594   9.473  1.00  0.00     0.175 S 
HETATM   24  O1  UNL     1       2.988   5.375   8.714  1.00  0.00    -0.223 OA
HETATM   25  O2  UNL     1       4.535   7.007   9.853  1.00  0.00    -0.223 OA
BRANCH  23  26
HETATM   26  C2  UNL     1       2.424   7.929   8.585  1.00  0.00     0.141 C 
HETATM   27  C1  UNL     1       1.904   7.528   7.219  1.00  0.00     0.021 C 
ENDBRANCH  23  26
ENDBRANCH  20  23
ENDBRANCH   1  11
BRANCH   5  28
HETATM   28  C15 UNL     1      -4.558   6.213  12.984  1.00  0.00     0.043 C 
BRANCH  28  29
HETATM   29  C16 UNL     1      -5.997   6.540  13.401  1.00  0.00     0.035 C 
BRANCH  29  30
HETATM   30  C17 UNL     1      -6.089   7.054  14.847  1.00  0.00     0.272 C 
BRANCH  30  31
HETATM   31  N2  UNL     1      -7.441   7.365  15.327  1.00  0.00     0.088 N 
HETATM   32  C18 UNL     1      -7.848   8.752  15.094  1.00  0.00     0.275 C 
HETATM   33  C19 UNL     1      -9.267   8.996  15.608  1.00  0.00     0.062 C 
HETATM   34  C20 UNL     1     -10.279   8.079  14.922  1.00  0.00     0.121 C 
HETATM   35  C21 UNL     1      -9.620   6.914  14.185  1.00  0.00     0.062 C 
HETATM   36  C22 UNL     1      -8.445   6.356  14.980  1.00  0.00     0.275 C 
BRANCH  34  37
HETATM   37  O3  UNL     1     -11.051   8.842  13.994  1.00  0.00    -0.395 OA
HETATM   38  H22 UNL     1     -11.703   8.241  13.594  1.00  0.00     0.210 HD
ENDBRANCH  34  37
ENDBRANCH  30  31
ENDBRANCH  29  30
ENDBRANCH  28  29
ENDBRANCH   5  28
TORSDOF 8
ENDMDL
