MODEL 1
REMARK minimizedAffinity -8.38135338
REMARK CNNscore 0.657296121
REMARK CNNaffinity 6.99299383
REMARK  4 active torsions:
REMARK  status: ('A' for Active; 'I' for Inactive)
REMARK    1  A    between atoms: C5_6  and  C6_7 
REMARK    2  A    between atoms: C6_7  and  N1_8 
REMARK    3  A    between atoms: C10_19  and  N6_20 
REMARK    4  A    between atoms: N6_20  and  C11_21 
ROOT
HETATM    1  N1  UNL     1      -0.289  52.125 -22.248  1.00  0.00    -0.370 N 
HETATM    2  C7  UNL     1       0.181  52.520 -21.029  1.00  0.00     0.134 A 
HETATM    3  N2  UNL     1       0.763  53.745 -20.783  1.00  0.00    -0.283 N 
HETATM    4  N3  UNL     1       1.051  53.984 -19.489  1.00  0.00    -0.283 N 
ATOM      5  H3  UNL     1       1.442  54.831 -19.074  1.00  0.00     0.188 HD
HETATM    6  C8  UNL     1       0.702  52.850 -18.877  1.00  0.00     0.138 A 
HETATM    7  N4  UNL     1       0.802  52.582 -17.555  1.00  0.00    -0.337 N 
ATOM      8  H4  UNL     1       1.158  53.233 -16.856  1.00  0.00     0.168 HD
HETATM    9  C9  UNL     1       0.363  51.327 -17.287  1.00  0.00     0.183 A 
HETATM   10  N5  UNL     1      -0.118  50.355 -18.129  1.00  0.00    -0.338 N 
ATOM     11  H5  UNL     1      -0.407  49.452 -17.753  1.00  0.00     0.168 HD
HETATM   12  C10 UNL     1      -0.209  50.599 -19.470  1.00  0.00     0.124 A 
HETATM   13  C17 UNL     1       0.197  51.898 -19.800  1.00  0.00     0.098 A 
HETATM   14  H6  UNL     1      -1.098  51.499 -22.240  1.00  0.00     0.161 HD
HETATM   15  H7  UNL     1       0.958  54.482 -21.449  1.00  0.00     0.188 HD
ENDROOT
BRANCH   1  16
HETATM   16  C6  UNL     1      -0.330  53.019 -23.399  1.00  0.00     0.160 C 
BRANCH  16  17
HETATM   17  C5  UNL     1      -0.101  52.209 -24.651  1.00  0.00    -0.039 A 
HETATM   18  C4  UNL     1      -1.115  51.378 -25.152  1.00  0.00     0.009 A 
HETATM   19  C3  UNL     1      -0.921  50.646 -26.325  1.00  0.00     0.002 A 
HETATM   20  C2  UNL     1       0.288  50.741 -27.014  1.00  0.00     0.024 A 
HETATM   21  C1  UNL     1       1.296  51.571 -26.528  1.00  0.00     0.034 A 
HETATM   22 CL1  UNL     1       2.786  51.694 -27.379  1.00  0.00    -0.084 Cl
HETATM   23  C18 UNL     1       1.107  52.305 -25.356  1.00  0.00     0.032 A 
ENDBRANCH  16  17
ENDBRANCH   1  16
BRANCH  12  24
HETATM   24  N6  UNL     1      -0.598  49.643 -20.417  1.00  0.00    -0.342 N 
HETATM   25  H9  UNL     1       0.116  48.931 -20.521  1.00  0.00     0.167 HD
BRANCH  24  26
HETATM   26  C11 UNL     1      -1.855  49.289 -20.935  1.00  0.00     0.035 A 
HETATM   27  C12 UNL     1      -3.017  49.202 -20.158  1.00  0.00     0.029 A 
HETATM   28  C13 UNL     1      -4.252  48.880 -20.731  1.00  0.00     0.004 A 
HETATM   29  C14 UNL     1      -4.349  48.653 -22.101  1.00  0.00     0.024 A 
HETATM   30  C15 UNL     1      -3.208  48.756 -22.890  1.00  0.00     0.036 A 
HETATM   31 CL2  UNL     1      -3.316  48.491 -24.588  1.00  0.00    -0.084 Cl
HETATM   32  C16 UNL     1      -1.975  49.077 -22.318  1.00  0.00     0.053 A 
ENDBRANCH  24  26
ENDBRANCH  12  24
TORSDOF 4
ENDMDL
