MODEL 1
REMARK minimizedAffinity -6.41622734
REMARK CNNscore 0.78815496
REMARK CNNaffinity 7.18370819
REMARK  9 active torsions:
REMARK  status: ('A' for Active; 'I' for Inactive)
REMARK    1  A    between atoms: C2_2  and  C3_3 
REMARK       I    between atoms: C3_3  and  N1_5 
REMARK    2  A    between atoms: C7_9  and  C8_10 
REMARK       I    between atoms: C8_10  and  N2_12 
REMARK    3  A    between atoms: N2_12  and  C9_13 
REMARK    4  A    between atoms: C12_16  and  N3_17 
REMARK    5  A    between atoms: N3_17  and  C13_18 
REMARK    6  A    between atoms: C22_33  and  O3_34 
REMARK    7  A    between atoms: O3_34  and  C23_35 
REMARK    8  A    between atoms: C23_35  and  C24_36 
REMARK    9  A    between atoms: C24_36  and  O4_37 
ROOT
HETATM    1  C9  UNL     1      13.125  59.173   4.638  1.00  0.00     0.069 A 
HETATM    2  C10 UNL     1      12.972  60.364   3.928  1.00  0.00     0.050 A 
HETATM    3  C11 UNL     1      13.368  60.464   2.569  1.00  0.00     0.037 A 
HETATM    4  C12 UNL     1      13.261  61.624   1.774  1.00  0.00     0.119 A 
HETATM    5  N4  UNL     1      13.622  61.632   0.477  1.00  0.00    -0.338 N 
ATOM      6  H4  UNL     1      13.526  62.468  -0.099  1.00  0.00     0.168 HD
HETATM    7  C19 UNL     1      14.113  60.494  -0.020  1.00  0.00     0.182 A 
HETATM    8  N5  UNL     1      14.276  59.346   0.646  1.00  0.00    -0.351 N 
ATOM      9  H5  UNL     1      14.667  58.517   0.197  1.00  0.00     0.166 HD
HETATM   10  C20 UNL     1      13.902  59.339   1.927  1.00  0.00     0.049 A 
HETATM   11  C21 UNL     1      14.049  58.159   2.643  1.00  0.00     0.069 A 
HETATM   12  C22 UNL     1      13.680  58.059   3.986  1.00  0.00     0.097 A 
ENDROOT
BRANCH   1  13
HETATM   13  N2  UNL     1      12.747  59.012   5.988  1.00  0.00    -0.323 N 
HETATM   14  C8  UNL     1      12.951  59.875   7.051  1.00  0.00     0.245 C 
HETATM   15  O2  UNL     1      13.541  60.952   6.988  1.00  0.00    -0.271 OA
HETATM   16  H11 UNL     1      12.303  58.111   6.201  1.00  0.00     0.169 HD
BRANCH  14  17
HETATM   17  C7  UNL     1      12.325  59.357   8.370  1.00  0.00     0.180 C 
HETATM   18  N1  UNL     1      12.740  60.183   9.511  1.00  0.00    -0.335 N 
HETATM   19  C3  UNL     1      13.933  59.945  10.146  1.00  0.00     0.243 C 
HETATM   20  C4  UNL     1      11.625  60.974  10.016  1.00  0.00     0.127 C 
HETATM   21  O1  UNL     1      14.735  59.100   9.752  1.00  0.00    -0.268 OA
HETATM   22  C5  UNL     1      10.539  60.839   8.960  1.00  0.00     0.022 C 
HETATM   23  C6  UNL     1      10.797  59.453   8.381  1.00  0.00     0.037 C 
BRANCH  19  24
HETATM   24  C2  UNL     1      14.244  60.724  11.365  1.00  0.00     0.064 C 
HETATM   25  C1  UNL     1      15.057  60.249  12.318  1.00  0.00     0.017 C 
ENDBRANCH  19  24
ENDBRANCH  14  17
ENDBRANCH   1  13
BRANCH  12  26
HETATM   26  O3  UNL     1      13.786  56.924   4.749  1.00  0.00    -0.347 OA
BRANCH  26  27
HETATM   27  C23 UNL     1      13.797  55.654   4.100  1.00  0.00     0.201 C 
BRANCH  27  28
HETATM   28  C24 UNL     1      14.361  54.574   5.022  1.00  0.00     0.193 C 
BRANCH  28  29
HETATM   29  O4  UNL     1      15.461  55.053   5.795  1.00  0.00    -0.394 OA
HETATM   30  C25 UNL     1      16.706  54.504   5.385  1.00  0.00     0.201 C 
ENDBRANCH  28  29
ENDBRANCH  27  28
ENDBRANCH  26  27
ENDBRANCH  12  26
BRANCH   4  31
HETATM   31  N3  UNL     1      12.754  62.815   2.354  1.00  0.00    -0.339 N 
HETATM   32  H13 UNL     1      12.032  62.591   3.039  1.00  0.00     0.167 HD
BRANCH  31  33
HETATM   33  C13 UNL     1      13.469  63.972   2.750  1.00  0.00     0.074 A 
HETATM   34  C14 UNL     1      14.565  64.466   2.034  1.00  0.00     0.033 A 
HETATM   35  C15 UNL     1      15.214  65.640   2.431  1.00  0.00     0.004 A 
HETATM   36  C16 UNL     1      14.764  66.348   3.545  1.00  0.00     0.027 A 
HETATM   37  C17 UNL     1      13.658  65.884   4.254  1.00  0.00     0.074 A 
HETATM   38 CL1  UNL     1      13.102  66.767   5.624  1.00  0.00    -0.081 Cl
HETATM   39  C18 UNL     1      13.014  64.715   3.851  1.00  0.00     0.164 A 
HETATM   40  F1  UNL     1      11.943  64.266   4.529  1.00  0.00    -0.202 F 
ENDBRANCH  31  33
ENDBRANCH   4  31
TORSDOF 9
ENDMDL
