MODEL 1
REMARK minimizedAffinity -10.3410006
REMARK CNNscore 0.60653317
REMARK CNNaffinity 7.39118719
REMARK  8 active torsions:
REMARK  status: ('A' for Active; 'I' for Inactive)
REMARK    1  A    between atoms: C6_9  and  C7_10 
REMARK    2  A    between atoms: C9_12  and  N3_13 
REMARK    3  A    between atoms: N3_13  and  C10_14 
REMARK    4  A    between atoms: C10_14  and  C11_15 
REMARK    5  A    between atoms: C10_14  and  C12_17 
REMARK    6  A    between atoms: C11_15  and  O1_16 
REMARK    7  A    between atoms: C19_26  and  C20_27 
REMARK    8  A    between atoms: C25_33  and  O2_34 
ROOT
HETATM    1  C7  UNL     1      -2.244   5.617  12.765  1.00  0.00     0.004 A 
HETATM    2  C8  UNL     1      -0.912   6.082  12.803  1.00  0.00     0.045 A 
HETATM    3  C9  UNL     1       0.162   5.328  12.321  1.00  0.00     0.045 A 
HETATM    4  C18 UNL     1      -0.186   4.122  11.729  1.00  0.00     0.117 A 
HETATM    5  N4  UNL     1      -1.444   3.615  11.660  1.00  0.00    -0.362 N 
ATOM      6  H4  UNL     1      -1.625   2.717  11.211  1.00  0.00     0.165 HD
HETATM    7  C19 UNL     1      -2.459   4.344  12.209  1.00  0.00     0.056 A 
ENDROOT
BRANCH   1   8
HETATM    8  C6  UNL     1      -3.316   6.502  13.251  1.00  0.00    -0.023 A 
HETATM    9  C5  UNL     1      -3.431   7.819  12.770  1.00  0.00     0.014 A 
HETATM   10  C4  UNL     1      -4.441   8.685  13.208  1.00  0.00     0.033 A 
HETATM   11  C3  UNL     1      -5.334   8.188  14.159  1.00  0.00     0.060 A 
HETATM   12  N2  UNL     1      -6.410   8.759  14.783  1.00  0.00    -0.300 N 
HETATM   13  C27 UNL     1      -5.255   6.902  14.673  1.00  0.00     0.016 A 
HETATM   14  N1  UNL     1      -7.035   7.950  15.654  1.00  0.00    -0.304 N 
HETATM   15  H4  UNL     1      -6.770   9.698  14.655  1.00  0.00     0.187 HD
HETATM   16  C2  UNL     1      -6.334   6.811  15.595  1.00  0.00     0.034 A 
ATOM     17  H1  UNL     1      -7.853   8.156  16.227  1.00  0.00     0.186 HD
HETATM   18  C1  UNL     1      -6.719   5.648  16.428  1.00  0.00     0.070 C 
HETATM   19  C26 UNL     1      -4.232   6.046  14.221  1.00  0.00     0.028 A 
ENDBRANCH   1   8
BRANCH   7  20
HETATM   20  C20 UNL     1      -3.776   3.668  12.106  1.00  0.00     0.025 A 
HETATM   21  C21 UNL     1      -4.976   4.325  12.443  1.00  0.00     0.020 A 
HETATM   22  C22 UNL     1      -6.215   3.691  12.310  1.00  0.00     0.043 A 
HETATM   23  C23 UNL     1      -6.272   2.382  11.850  1.00  0.00     0.119 A 
HETATM   24  F1  UNL     1      -7.461   1.780  11.721  1.00  0.00    -0.206 F 
HETATM   25  C24 UNL     1      -5.114   1.688  11.538  1.00  0.00     0.079 A 
HETATM   26  C25 UNL     1      -3.882   2.324  11.683  1.00  0.00     0.081 A 
BRANCH  26  27
HETATM   27  O2  UNL     1      -2.774   1.567  11.401  1.00  0.00    -0.360 OA
HETATM   28  H22 UNL     1      -2.014   2.026  11.824  1.00  0.00     0.217 HD
ENDBRANCH  26  27
ENDBRANCH   7  20
BRANCH   3  29
HETATM   29  N3  UNL     1       1.437   5.890  12.346  1.00  0.00    -0.378 N 
HETATM   30  H8  UNL     1       2.151   5.206  12.109  1.00  0.00     0.160 HD
BRANCH  29  31
HETATM   31  C10 UNL     1       1.721   7.224  11.792  1.00  0.00     0.138 C 
BRANCH  31  32
HETATM   32  C11 UNL     1       3.006   7.853  12.399  1.00  0.00     0.194 C 
BRANCH  32  33
HETATM   33  O1  UNL     1       3.531   7.159  13.533  1.00  0.00    -0.399 OA
HETATM   34  H12 UNL     1       3.833   6.288  13.222  1.00  0.00     0.209 HD
ENDBRANCH  32  33
ENDBRANCH  31  32
BRANCH  31  35
HETATM   35  C12 UNL     1       1.821   7.142  10.269  1.00  0.00    -0.034 A 
HETATM   36  C13 UNL     1       1.100   8.049   9.475  1.00  0.00     0.009 A 
HETATM   37  C14 UNL     1       1.189   8.003   8.081  1.00  0.00     0.001 A 
HETATM   38  C15 UNL     1       2.000   7.055   7.463  1.00  0.00     0.000 A 
HETATM   39  C16 UNL     1       2.724   6.149   8.234  1.00  0.00     0.001 A 
HETATM   40  C17 UNL     1       2.636   6.192   9.627  1.00  0.00     0.009 A 
ENDBRANCH  31  35
ENDBRANCH  29  31
ENDBRANCH   3  29
TORSDOF 8
ENDMDL
