MODEL 1
REMARK minimizedAffinity -9.2267828
REMARK CNNscore 0.469491005
REMARK CNNaffinity 7.20398855
REMARK  3 active torsions:
REMARK  status: ('A' for Active; 'I' for Inactive)
REMARK    1  A    between atoms: C3_4  and  C4_5 
REMARK    2  A    between atoms: C13_17  and  N2_18 
REMARK    3  A    between atoms: N2_18  and  C14_19 
ROOT
HETATM    1  F1  UNL     1      -3.207  52.729 -22.926  1.00  0.00    -0.204 F 
HETATM    2  C1  UNL     1      -2.530  51.692 -22.406  1.00  0.00     0.143 A 
HETATM    3  C2  UNL     1      -1.856  51.866 -21.199  1.00  0.00     0.059 A 
HETATM    4  C3  UNL     1      -1.146  50.805 -20.618  1.00  0.00     0.001 A 
HETATM    5  C11 UNL     1      -1.154  49.572 -21.291  1.00  0.00     0.017 A 
HETATM    6  C12 UNL     1      -1.837  49.408 -22.506  1.00  0.00     0.034 A 
HETATM    7  C13 UNL     1      -2.515  50.474 -23.099  1.00  0.00     0.072 A 
ENDROOT
BRANCH   7   8
HETATM    8  N2  UNL     1      -3.271  50.348 -24.288  1.00  0.00    -0.339 N 
HETATM    9  H8  UNL     1      -4.205  50.729 -24.147  1.00  0.00     0.167 HD
BRANCH   8  10
HETATM   10  C14 UNL     1      -2.855  50.584 -25.624  1.00  0.00     0.119 A 
HETATM   11  N3  UNL     1      -3.756  50.492 -26.618  1.00  0.00    -0.338 N 
HETATM   12  C15 UNL     1      -3.308  50.695 -27.860  1.00  0.00     0.182 A 
ATOM     13  H3  UNL     1      -4.736  50.278 -26.433  1.00  0.00     0.168 HD
HETATM   14  N4  UNL     1      -2.051  50.986 -28.209  1.00  0.00    -0.351 N 
HETATM   15  C16 UNL     1      -1.161  51.094 -27.217  1.00  0.00     0.048 A 
ATOM     16  H4  UNL     1      -1.783  51.119 -29.184  1.00  0.00     0.166 HD
HETATM   17  C17 UNL     1       0.151  51.407 -27.543  1.00  0.00     0.054 A 
HETATM   18  C21 UNL     1      -1.504  50.907 -25.869  1.00  0.00     0.035 A 
HETATM   19  C18 UNL     1       1.129  51.545 -26.560  1.00  0.00     0.036 A 
HETATM   20 CL1  UNL     1       2.743  51.936 -27.007  1.00  0.00    -0.084 Cl
HETATM   21  C19 UNL     1       0.807  51.375 -25.221  1.00  0.00     0.025 A 
HETATM   22  C20 UNL     1      -0.505  51.059 -24.873  1.00  0.00     0.019 A 
ENDBRANCH   8  10
ENDBRANCH   7   8
BRANCH   4  23
HETATM   23  C4  UNL     1      -0.446  51.039 -19.336  1.00  0.00     0.085 A 
HETATM   24  N1  UNL     1      -0.374  50.137 -18.375  1.00  0.00    -0.349 N 
HETATM   25  C5  UNL     1       0.335  50.630 -17.294  1.00  0.00     0.050 A 
ATOM     26  H1  UNL     1      -0.785  49.205 -18.423  1.00  0.00     0.166 HD
HETATM   27  C6  UNL     1       0.605  49.937 -16.097  1.00  0.00     0.031 A 
HETATM   28  C10 UNL     1       0.807  51.934 -17.435  1.00  0.00     0.033 A 
HETATM   29  C7  UNL     1       1.338  50.561 -15.081  1.00  0.00     0.002 A 
HETATM   30  C8  UNL     1       1.799  51.863 -15.245  1.00  0.00     0.002 A 
HETATM   31  C9  UNL     1       1.542  52.572 -16.422  1.00  0.00     0.021 A 
HETATM   32  S1  UNL     1       0.334  52.531 -18.975  1.00  0.00    -0.070 SA
ENDBRANCH   4  23
TORSDOF 3
ENDMDL
