MODEL 1
REMARK minimizedAffinity -7.14522505
REMARK CNNscore 0.266634911
REMARK CNNaffinity 5.82377672
REMARK  10 active torsions:
REMARK  status: ('A' for Active; 'I' for Inactive)
REMARK    1  A    between atoms: N1_2  and  S1_3 
REMARK    2  A    between atoms: S1_3  and  C2_6 
REMARK    3  A    between atoms: C9_13  and  C10_14 
REMARK    4  A    between atoms: C13_18  and  C14_19 
REMARK    5  A    between atoms: C14_19  and  C15_20 
REMARK    6  A    between atoms: C15_20  and  C16_21 
REMARK    7  A    between atoms: C16_21  and  N3_22 
REMARK    8  A    between atoms: N4_25  and  C19_26 
REMARK    9  A    between atoms: C19_26  and  C20_27 
REMARK   10  A    between atoms: C20_27  and  O3_28 
ROOT
HETATM    1  C10 UNL     1     -11.142   9.733  22.946  1.00  0.00     0.040 A 
HETATM    2  N2  UNL     1     -10.660  10.562  23.935  1.00  0.00    -0.359 N 
HETATM    3  C11 UNL     1     -10.077  11.661  23.380  1.00  0.00     0.016 A 
HETATM    4  C12 UNL     1     -10.171  11.566  22.012  1.00  0.00    -0.027 A 
HETATM    5  C13 UNL     1     -10.837  10.337  21.722  1.00  0.00    -0.023 A 
HETATM    6  C23 UNL     1      -9.604  12.607  21.104  1.00  0.00     0.041 C 
HETATM    7  C24 UNL     1      -9.299  13.910  21.872  1.00  0.00     0.005 C 
HETATM    8  C25 UNL     1      -8.599  13.639  23.217  1.00  0.00     0.006 C 
HETATM    9  C26 UNL     1      -9.461  12.774  24.154  1.00  0.00     0.057 C 
HETATM   10  H9  UNL     1     -10.710  10.380  24.933  1.00  0.00     0.166 HD
ENDROOT
BRANCH   1  11
HETATM   11  C9  UNL     1     -11.821   8.516  23.241  1.00  0.00     0.048 C 
HETATM   12  C8  UNL     1     -12.693   8.235  24.225  1.00  0.00     0.047 A 
HETATM   13  C6  UNL     1     -13.307   6.901  24.396  1.00  0.00     0.008 A 
HETATM   14  C27 UNL     1     -13.244   9.091  25.344  1.00  0.00     0.257 A 
HETATM   15  C5  UNL     1     -14.119   6.981  25.533  1.00  0.00     0.046 A 
HETATM   16  C7  UNL     1     -13.228   5.718  23.681  1.00  0.00     0.040 A 
HETATM   17  C4  UNL     1     -14.854   5.913  26.010  1.00  0.00     0.032 A 
HETATM   18  N5  UNL     1     -14.074   8.258  26.074  1.00  0.00    -0.322 N 
HETATM   19  C3  UNL     1     -14.774   4.712  25.302  1.00  0.00     0.027 A 
HETATM   20  C2  UNL     1     -13.981   4.627  24.138  1.00  0.00     0.080 A 
HETATM   21  H37 UNL     1     -14.579   8.576  26.887  1.00  0.00     0.169 HD
HETATM   22  O4  UNL     1     -13.038  10.267  25.571  1.00  0.00    -0.267 OA
BRANCH  20  23
HETATM   23  S1  UNL     1     -13.907   3.090  23.243  1.00  0.00     0.258 S 
HETATM   24  O1  UNL     1     -14.832   2.170  23.864  1.00  0.00    -0.201 OA
HETATM   25  O2  UNL     1     -13.958   3.396  21.831  1.00  0.00    -0.201 OA
BRANCH  23  26
HETATM   26  N1  UNL     1     -12.375   2.536  23.614  1.00  0.00    -0.320 N 
HETATM   27  C1  UNL     1     -12.061   1.994  24.925  1.00  0.00     0.159 C 
HETATM   28  H4  UNL     1     -11.763   2.357  22.821  1.00  0.00     0.171 HD
ENDBRANCH  23  26
ENDBRANCH  20  23
ENDBRANCH   1  11
BRANCH   5  29
HETATM   29  C14 UNL     1     -11.122   9.806  20.346  1.00  0.00     0.043 C 
BRANCH  29  30
HETATM   30  C15 UNL     1     -12.119  10.651  19.551  1.00  0.00     0.035 C 
BRANCH  30  31
HETATM   31  C16 UNL     1     -11.453  11.494  18.455  1.00  0.00     0.273 C 
BRANCH  31  32
HETATM   32  N3  UNL     1     -11.730  10.940  17.126  1.00  0.00     0.091 N 
HETATM   33  C17 UNL     1     -11.346  11.875  16.053  1.00  0.00     0.302 C 
HETATM   34  C18 UNL     1     -11.531  11.218  14.667  1.00  0.00     0.302 C 
HETATM   35  N4  UNL     1     -10.652  10.047  14.432  1.00  0.00     0.093 N 
HETATM   36  C21 UNL     1     -10.164   9.490  15.709  1.00  0.00     0.302 C 
HETATM   37  C22 UNL     1     -11.131   9.606  16.915  1.00  0.00     0.302 C 
BRANCH  35  38
HETATM   38  C19 UNL     1     -11.334   9.019  13.617  1.00  0.00     0.298 C 
BRANCH  38  39
HETATM   39  C20 UNL     1     -12.515   9.556  12.785  1.00  0.00     0.194 C 
BRANCH  39  40
HETATM   40  O3  UNL     1     -12.135   9.840  11.441  1.00  0.00    -0.399 OA
HETATM   41  H24 UNL     1     -12.931  10.167  10.989  1.00  0.00     0.209 HD
ENDBRANCH  39  40
ENDBRANCH  38  39
ENDBRANCH  35  38
ENDBRANCH  31  32
ENDBRANCH  30  31
ENDBRANCH  29  30
ENDBRANCH   5  29
TORSDOF 10
ENDMDL
