MODEL 1
REMARK minimizedAffinity -9.8597393
REMARK CNNscore 0.625585139
REMARK CNNaffinity 7.47450447
REMARK  5 active torsions:
REMARK  status: ('A' for Active; 'I' for Inactive)
REMARK    1  A    between atoms: O1_2  and  C2_3 
REMARK    2  A    between atoms: C6_7  and  N1_8 
REMARK    3  A    between atoms: C10_15  and  N3_16 
REMARK    4  A    between atoms: N3_16  and  C11_17 
REMARK    5  A    between atoms: C14_20  and  N4_21 
ROOT
HETATM    1  N1  UNL     1       0.010  51.945 -22.606  1.00  0.00    -0.110 N 
HETATM    2  C7  UNL     1       0.613  52.757 -21.632  1.00  0.00     0.282 A 
HETATM    3  O2  UNL     1       1.277  53.770 -21.839  1.00  0.00    -0.266 OA
HETATM    4  C8  UNL     1       0.491  52.345 -20.225  1.00  0.00     0.095 A 
HETATM    5  C9  UNL     1       1.066  53.058 -19.203  1.00  0.00     0.127 A 
HETATM    6  N2  UNL     1       0.985  52.692 -17.903  1.00  0.00    -0.201 N 
ATOM      7  H2  UNL     1       1.429  53.247 -17.172  1.00  0.00     0.183 HD
HETATM    8  C10 UNL     1       0.302  51.576 -17.605  1.00  0.00     0.684 A 
HETATM    9  N6  UNL     1      -0.297  50.823 -18.542  1.00  0.00    -0.174 N 
ATOM     10  H6  UNL     1      -0.818  49.984 -18.291  1.00  0.00     0.186 HD
HETATM   11  C22 UNL     1      -0.185  51.219 -19.833  1.00  0.00     0.162 A 
HETATM   12  N7  UNL     1      -0.778  50.458 -20.853  1.00  0.00    -0.128 N 
HETATM   13  C23 UNL     1      -1.527  49.300 -20.753  1.00  0.00     0.086 A 
HETATM   14  C24 UNL     1      -1.935  48.490 -19.682  1.00  0.00     0.033 A 
HETATM   15  C25 UNL     1      -2.713  47.366 -19.983  1.00  0.00     0.002 A 
HETATM   16  C26 UNL     1      -3.069  47.063 -21.296  1.00  0.00     0.002 A 
HETATM   17  C27 UNL     1      -2.657  47.882 -22.353  1.00  0.00     0.032 A 
HETATM   18  C28 UNL     1      -1.877  49.014 -22.069  1.00  0.00     0.077 A 
HETATM   19  N8  UNL     1      -1.367  49.947 -22.929  1.00  0.00    -0.188 N 
ATOM     20  H8  UNL     1      -1.489  49.976 -23.942  1.00  0.00     0.184 HD
HETATM   21  C29 UNL     1      -0.687  50.803 -22.192  1.00  0.00     0.701 A 
ENDROOT
BRANCH   8  22
HETATM   22  N3  UNL     1       0.154  51.118 -16.303  1.00  0.00    -0.192 N 
HETATM   23  H8  UNL     1      -0.394  50.270 -16.305  1.00  0.00     0.184 HD
BRANCH  22  24
HETATM   24  C11 UNL     1       0.688  51.504 -15.071  1.00  0.00     0.049 A 
HETATM   25  C12 UNL     1       2.055  51.314 -14.841  1.00  0.00     0.032 A 
HETATM   26  C13 UNL     1       2.650  51.671 -13.621  1.00  0.00     0.031 A 
HETATM   27  C14 UNL     1       1.913  52.224 -12.567  1.00  0.00     0.030 A 
HETATM   28  C20 UNL     1       0.542  52.394 -12.804  1.00  0.00     0.031 A 
HETATM   29  C21 UNL     1      -0.059  52.040 -14.025  1.00  0.00     0.032 A 
BRANCH  27  30
HETATM   30  N4  UNL     1       2.500  52.582 -11.366  1.00  0.00    -0.378 N 
HETATM   31  C15 UNL     1       2.140  53.830 -10.673  1.00  0.00     0.153 C 
HETATM   32  C16 UNL     1       2.397  53.723  -9.151  1.00  0.00     0.291 C 
HETATM   33  N5  UNL     1       3.766  53.332  -8.751  1.00  0.00     0.087 N 
HETATM   34  C17 UNL     1       4.564  54.487  -8.352  1.00  0.00     0.310 C 
HETATM   35  C18 UNL     1       4.444  52.576  -9.826  1.00  0.00     0.291 C 
HETATM   36  C19 UNL     1       3.491  51.724 -10.696  1.00  0.00     0.153 C 
ENDBRANCH  27  30
ENDBRANCH  22  24
ENDBRANCH   8  22
BRANCH   1  37
HETATM   37  C6  UNL     1       0.059  52.260 -24.009  1.00  0.00     0.063 A 
HETATM   38  C5  UNL     1       0.095  51.263 -24.998  1.00  0.00     0.031 A 
HETATM   39  C4  UNL     1       0.150  51.585 -26.358  1.00  0.00     0.005 A 
HETATM   40  C3  UNL     1       0.175  52.917 -26.765  1.00  0.00     0.037 A 
HETATM   41  C2  UNL     1       0.151  53.929 -25.811  1.00  0.00     0.070 A 
HETATM   42  C30 UNL     1       0.097  53.596 -24.448  1.00  0.00     0.067 A 
BRANCH  41  43
HETATM   43  O1  UNL     1       0.164  55.275 -26.069  1.00  0.00    -0.356 OA
HETATM   44  C1  UNL     1       0.684  56.119 -25.051  1.00  0.00     0.210 C 
ENDBRANCH  41  43
ENDBRANCH   1  37
TORSDOF 5
ENDMDL
