MODEL 1
REMARK minimizedAffinity -8.37207127
REMARK CNNscore 0.347025752
REMARK CNNaffinity 7.10962486
REMARK  16 active torsions:
REMARK  status: ('A' for Active; 'I' for Inactive)
REMARK    1  A    between atoms: O1_2  and  C2_3 
REMARK    2  A    between atoms: C6_7  and  C7_8 
REMARK    3  A    between atoms: N1_10  and  C9_11 
REMARK    4  A    between atoms: C12_14  and  C13_15 
REMARK    5  A    between atoms: C13_15  and  C14_16 
REMARK    6  A    between atoms: C14_16  and  N2_17 
REMARK    7  A    between atoms: N2_17  and  C16_19 
REMARK    8  A    between atoms: C16_19  and  C17_20 
REMARK    9  A    between atoms: C17_20  and  O2_21 
REMARK   10  A    between atoms: O2_21  and  P1_22 
REMARK   11  A    between atoms: P1_22  and  O4_24 
REMARK   12  A    between atoms: P1_22  and  C18_25 
REMARK   13  A    between atoms: C18_25  and  P2_26 
REMARK   14  A    between atoms: P2_26  and  O6_28 
REMARK   15  A    between atoms: P2_26  and  O7_29 
REMARK   16  A    between atoms: C23_38  and  N5_39 
ROOT
HETATM    1  C9  UNL     1       0.128  51.589 -19.657  1.00  0.00     0.040 A 
HETATM    2  C10 UNL     1       0.690  52.499 -18.753  1.00  0.00     0.030 A 
HETATM    3  C11 UNL     1       0.792  52.185 -17.392  1.00  0.00     0.009 A 
HETATM    4  C12 UNL     1       0.331  50.958 -16.905  1.00  0.00    -0.056 A 
HETATM    5  C19 UNL     1      -0.236  50.049 -17.802  1.00  0.00     0.009 A 
HETATM    6  C20 UNL     1      -0.331  50.356 -19.164  1.00  0.00     0.030 A 
ENDROOT
BRANCH   1   7
HETATM    7  N1  UNL     1       0.030  51.891 -21.057  1.00  0.00    -0.307 N 
HETATM    8  C8  UNL     1      -0.686  51.141 -21.978  1.00  0.00     0.112 A 
HETATM    9  C7  UNL     1      -0.542  51.692 -23.233  1.00  0.00     0.007 A 
HETATM   10  C24 UNL     1       0.271  52.848 -23.100  1.00  0.00     0.059 A 
HETATM   11  C21 UNL     1       0.619  52.950 -21.755  1.00  0.00     0.127 A 
HETATM   12  C23 UNL     1       0.763  53.839 -23.968  1.00  0.00     0.093 A 
HETATM   13  N3  UNL     1       1.374  53.939 -21.231  1.00  0.00    -0.337 N 
HETATM   14  C22 UNL     1       1.787  54.821 -22.151  1.00  0.00     0.183 A 
ATOM     15  H3  UNL     1       1.606  54.007 -20.241  1.00  0.00     0.168 HD
HETATM   16  N4  UNL     1       1.536  54.821 -23.468  1.00  0.00    -0.343 N 
ATOM     17  H4  UNL     1       1.920  55.544 -24.075  1.00  0.00     0.167 HD
BRANCH   9  18
HETATM   18  C6  UNL     1      -1.134  51.100 -24.411  1.00  0.00    -0.021 A 
HETATM   19  C5  UNL     1      -0.388  50.963 -25.584  1.00  0.00     0.012 A 
HETATM   20  C4  UNL     1      -0.967  50.375 -26.708  1.00  0.00     0.004 A 
HETATM   21  C3  UNL     1      -2.289  49.921 -26.665  1.00  0.00     0.037 A 
HETATM   22  C2  UNL     1      -3.041  50.057 -25.496  1.00  0.00     0.069 A 
HETATM   23  C25 UNL     1      -2.458  50.646 -24.371  1.00  0.00     0.049 A 
BRANCH  22  24
HETATM   24  O1  UNL     1      -4.337  49.656 -25.322  1.00  0.00    -0.356 OA
HETATM   25  C1  UNL     1      -4.707  48.405 -25.889  1.00  0.00     0.210 C 
ENDBRANCH  22  24
ENDBRANCH   9  18
BRANCH  12  26
HETATM   26  N5  UNL     1       0.504  53.882 -25.328  1.00  0.00    -0.288 NA
HETATM   27  H29 UNL     1       0.270  52.998 -25.760  1.00  0.00     0.125 HD
HETATM   28  H30 UNL     1       1.171  54.467 -25.814  1.00  0.00     0.125 HD
ENDBRANCH  12  26
ENDBRANCH   1   7
BRANCH   4  29
HETATM   29  C13 UNL     1       0.422  50.635 -15.432  1.00  0.00     0.068 C 
BRANCH  29  30
HETATM   30  C14 UNL     1      -0.917  50.112 -14.882  1.00  0.00     0.276 C 
BRANCH  30  31
HETATM   31  N2  UNL     1      -1.440  50.919 -13.756  1.00  0.00     0.086 N 
HETATM   32  C15 UNL     1      -2.835  51.304 -13.993  1.00  0.00     0.310 C 
BRANCH  31  33
HETATM   33  C16 UNL     1      -0.587  52.113 -13.568  1.00  0.00     0.298 C 
BRANCH  33  34
HETATM   34  C17 UNL     1      -0.268  52.425 -12.099  1.00  0.00     0.208 C 
BRANCH  34  35
HETATM   35  O2  UNL     1      -1.299  53.252 -11.573  1.00  0.00    -0.317 OA
BRANCH  35  36
HETATM   36  P1  UNL     1      -1.006  54.047 -10.200  1.00  0.00     0.249 P 
HETATM   37  O3  UNL     1      -1.271  55.513 -10.293  1.00  0.00    -0.653 OA
BRANCH  36  38
HETATM   38  O4  UNL     1      -2.041  53.306  -9.223  1.00  0.00    -0.329 OA
HETATM   39  H21 UNL     1      -2.953  53.630  -9.351  1.00  0.00     0.220 HD
ENDBRANCH  36  38
BRANCH  36  40
HETATM   40  C18 UNL     1       0.608  53.516  -9.687  1.00  0.00     0.249 C 
BRANCH  40  41
HETATM   41  P2  UNL     1       1.946  54.678  -9.648  1.00  0.00     0.247 P 
HETATM   42  O5  UNL     1       3.307  54.178  -9.309  1.00  0.00    -0.653 OA
BRANCH  41  43
HETATM   43  O6  UNL     1       1.893  55.439 -11.062  1.00  0.00    -0.329 OA
HETATM   44  H24 UNL     1       1.011  55.555 -11.458  1.00  0.00     0.220 HD
ENDBRANCH  41  43
BRANCH  41  45
HETATM   45  O7  UNL     1       1.470  55.880  -8.705  1.00  0.00    -0.329 OA
HETATM   46  H25 UNL     1       2.206  56.499  -8.525  1.00  0.00     0.220 HD
ENDBRANCH  41  45
ENDBRANCH  40  41
ENDBRANCH  36  40
ENDBRANCH  35  36
ENDBRANCH  34  35
ENDBRANCH  33  34
ENDBRANCH  31  33
ENDBRANCH  30  31
ENDBRANCH  29  30
ENDBRANCH   4  29
TORSDOF 16
ENDMDL
