MODEL 1
REMARK minimizedAffinity -10.2926111
REMARK  6 active torsions:
REMARK  status: ('A' for Active; 'I' for Inactive)
REMARK    1  A    between atoms: N2_5  and  C4_6 
REMARK    2  A    between atoms: C7_9  and  N3_10 
REMARK    3  A    between atoms: N3_10  and  C8_11 
REMARK    4  A    between atoms: C11_18  and  N6_19 
REMARK    5  A    between atoms: N6_19  and  C12_20 
REMARK    6  A    between atoms: N7_26  and  C18_27 
ROOT
HETATM    1  C8  UNL     1      -3.600  49.273 -26.662  1.00  0.00     0.684 A 
HETATM    2  N4  UNL     1      -4.476  49.638 -25.703  1.00  0.00    -0.199 N 
ATOM      3  H4  UNL     1      -5.439  49.304 -25.734  1.00  0.00     0.183 HD
HETATM    4  C9  UNL     1      -4.069  50.451 -24.696  1.00  0.00     0.140 A 
HETATM    5  C10 UNL     1      -2.759  50.897 -24.671  1.00  0.00     0.110 A 
HETATM    6  N5  UNL     1      -2.062  51.683 -23.799  1.00  0.00    -0.186 N 
ATOM      7  H5  UNL     1      -2.423  52.137 -22.960  1.00  0.00     0.184 HD
HETATM    8  C11 UNL     1      -0.827  51.736 -24.259  1.00  0.00     0.687 A 
HETATM    9  N7  UNL     1      -0.735  51.064 -25.476  1.00  0.00    -0.160 N 
HETATM   10  C23 UNL     1      -1.955  50.476 -25.709  1.00  0.00     0.168 A 
HETATM   11  N8  UNL     1      -2.311  49.666 -26.717  1.00  0.00    -0.173 N 
ATOM     12  H8  UNL     1      -1.669  49.375 -27.454  1.00  0.00     0.186 HD
ENDROOT
BRANCH   1  13
HETATM   13  N3  UNL     1      -3.978  48.431 -27.707  1.00  0.00    -0.192 N 
HETATM   14  H10 UNL     1      -3.149  48.023 -28.112  1.00  0.00     0.184 HD
BRANCH  13  15
HETATM   15  C7  UNL     1      -5.204  48.048 -28.256  1.00  0.00     0.049 A 
HETATM   16  C6  UNL     1      -6.187  47.528 -27.408  1.00  0.00     0.032 A 
HETATM   17  C5  UNL     1      -7.440  47.130 -27.898  1.00  0.00     0.031 A 
HETATM   18  C4  UNL     1      -7.773  47.240 -29.255  1.00  0.00     0.030 A 
HETATM   19  C25 UNL     1      -6.776  47.741 -30.101  1.00  0.00     0.031 A 
HETATM   20  C24 UNL     1      -5.521  48.142 -29.610  1.00  0.00     0.032 A 
BRANCH  18  21
HETATM   21  N2  UNL     1      -9.036  46.822 -29.703  1.00  0.00    -0.378 N 
HETATM   22  C3  UNL     1      -9.926  47.833 -30.310  1.00  0.00     0.153 C 
HETATM   23  C2  UNL     1     -11.172  47.166 -30.937  1.00  0.00     0.291 C 
HETATM   24  N1  UNL     1     -11.942  46.285 -30.031  1.00  0.00     0.087 N 
HETATM   25  C1  UNL     1     -12.662  47.050 -29.016  1.00  0.00     0.310 C 
HETATM   26  C27 UNL     1     -11.009  45.311 -29.421  1.00  0.00     0.291 C 
HETATM   27  C26 UNL     1      -9.738  45.910 -28.768  1.00  0.00     0.153 C 
ENDBRANCH  18  21
ENDBRANCH  13  15
ENDBRANCH   1  13
BRANCH   9  28
HETATM   28  C18 UNL     1       0.438  50.968 -26.316  1.00  0.00     0.109 C 
HETATM   29  C19 UNL     1       0.243  51.568 -27.710  1.00  0.00     0.026 C 
HETATM   30  C20 UNL     1       1.654  51.837 -28.238  1.00  0.00     0.002 C 
HETATM   31  C21 UNL     1       2.610  51.593 -27.070  1.00  0.00     0.002 C 
HETATM   32  C22 UNL     1       1.732  51.629 -25.826  1.00  0.00     0.026 C 
ENDBRANCH   9  28
BRANCH   8  33
HETATM   33  N6  UNL     1       0.263  52.308 -23.687  1.00  0.00    -0.191 N 
HETATM   34  H12 UNL     1       1.112  52.429 -24.226  1.00  0.00     0.184 HD
BRANCH  33  35
HETATM   35  C12 UNL     1       0.469  52.623 -22.325  1.00  0.00     0.049 A 
HETATM   36  C13 UNL     1       1.072  53.803 -21.874  1.00  0.00     0.030 A 
HETATM   37  C14 UNL     1       1.240  54.056 -20.508  1.00  0.00     0.002 A 
HETATM   38  C15 UNL     1       0.803  53.131 -19.564  1.00  0.00     0.000 A 
HETATM   39  C16 UNL     1       0.204  51.949 -19.987  1.00  0.00     0.002 A 
HETATM   40  C17 UNL     1       0.042  51.699 -21.353  1.00  0.00     0.030 A 
ENDBRANCH  33  35
ENDBRANCH   8  33
TORSDOF 6
ENDMDL
