MODEL 1
REMARK minimizedAffinity -8.5812006
REMARK  8 active torsions:
REMARK  status: ('A' for Active; 'I' for Inactive)
REMARK    1  A    between atoms: O1_2  and  C2_3 
REMARK    2  A    between atoms: C5_6  and  N1_7 
REMARK    3  A    between atoms: N1_7  and  C6_8 
REMARK    4  A    between atoms: C17_25  and  O4_26 
REMARK    5  A    between atoms: O4_26  and  C18_27 
REMARK    6  A    between atoms: C18_27  and  C19_28 
REMARK    7  A    between atoms: C19_28  and  C20_29 
REMARK    8  A    between atoms: C20_29  and  N4_30 
ROOT
HETATM    1  C2  UNL     1      -1.298  50.119 -21.080  1.00  0.00     0.102 A 
HETATM    2  C3  UNL     1      -0.722  50.799 -20.005  1.00  0.00     0.057 A 
HETATM    3  C4  UNL     1       0.038  51.979 -20.209  1.00  0.00     0.038 A 
HETATM    4  C5  UNL     1       0.652  52.735 -19.188  1.00  0.00     0.119 A 
HETATM    5  N2  UNL     1       1.395  53.824 -19.458  1.00  0.00    -0.338 N 
ATOM      6  H2  UNL     1       1.852  54.356 -18.718  1.00  0.00     0.168 HD
HETATM    7  C14 UNL     1       1.507  54.175 -20.741  1.00  0.00     0.182 A 
HETATM    8  N3  UNL     1       0.950  53.546 -21.782  1.00  0.00    -0.351 N 
ATOM      9  H3  UNL     1       1.072  53.883 -22.737  1.00  0.00     0.166 HD
HETATM   10  C15 UNL     1       0.229  52.456 -21.511  1.00  0.00     0.050 A 
HETATM   11  C16 UNL     1      -0.354  51.772 -22.571  1.00  0.00     0.070 A 
HETATM   12  C17 UNL     1      -1.122  50.618 -22.380  1.00  0.00     0.104 A 
ENDROOT
BRANCH   4  13
HETATM   13  N1  UNL     1       0.472  52.335 -17.839  1.00  0.00    -0.339 N 
HETATM   14  H5  UNL     1      -0.323  52.827 -17.435  1.00  0.00     0.167 HD
BRANCH  13  15
HETATM   15  C6  UNL     1       1.456  52.164 -16.832  1.00  0.00     0.070 A 
HETATM   16  C7  UNL     1       2.748  52.693 -16.943  1.00  0.00     0.032 A 
HETATM   17  C8  UNL     1       3.713  52.443 -15.962  1.00  0.00     0.005 A 
HETATM   18  C9  UNL     1       3.401  51.650 -14.859  1.00  0.00     0.040 A 
HETATM   19  C10 UNL     1       2.128  51.102 -14.739  1.00  0.00     0.104 A 
HETATM   20  C11 UNL     1       1.168  51.330 -15.734  1.00  0.00     0.128 A 
HETATM   21  O3  UNL     1       1.893  50.339 -13.623  1.00  0.00    -0.346 OA
HETATM   22  O2  UNL     1      -0.098  50.781 -15.687  1.00  0.00    -0.344 OA
HETATM   23  C12 UNL     1      -0.165  49.712 -14.737  1.00  0.00     0.202 C 
HETATM   24  C13 UNL     1       0.493  50.116 -13.429  1.00  0.00     0.202 C 
ENDBRANCH  13  15
ENDBRANCH   4  13
BRANCH   1  25
HETATM   25  O1  UNL     1      -2.049  48.977 -20.965  1.00  0.00    -0.353 OA
HETATM   26  C1  UNL     1      -1.378  47.775 -20.614  1.00  0.00     0.210 C 
ENDBRANCH   1  25
BRANCH  12  27
HETATM   27  O4  UNL     1      -1.715  49.898 -23.384  1.00  0.00    -0.348 OA
BRANCH  27  28
HETATM   28  C18 UNL     1      -2.943  50.353 -23.951  1.00  0.00     0.177 C 
BRANCH  28  29
HETATM   29  C19 UNL     1      -2.684  51.117 -25.248  1.00  0.00     0.057 C 
BRANCH  29  30
HETATM   30  C20 UNL     1      -1.887  50.263 -26.238  1.00  0.00     0.274 C 
BRANCH  30  31
HETATM   31  N4  UNL     1      -1.049  51.064 -27.142  1.00  0.00     0.092 N 
HETATM   32  C21 UNL     1      -1.498  52.473 -27.227  1.00  0.00     0.298 C 
HETATM   33  C22 UNL     1      -0.361  53.417 -27.645  1.00  0.00     0.198 C 
HETATM   34  O5  UNL     1       0.706  53.455 -26.688  1.00  0.00    -0.388 OA
HETATM   35  C23 UNL     1       0.865  52.220 -25.975  1.00  0.00     0.198 C 
HETATM   36  C24 UNL     1       0.381  50.997 -26.769  1.00  0.00     0.298 C 
ENDBRANCH  30  31
ENDBRANCH  29  30
ENDBRANCH  28  29
ENDBRANCH  27  28
ENDBRANCH  12  27
TORSDOF 8
ENDMDL
