MODEL 1
REMARK minimizedAffinity -7.98353052
REMARK CNNscore 0.387908727
REMARK CNNaffinity 6.37620878
REMARK  5 active torsions:
REMARK  status: ('A' for Active; 'I' for Inactive)
REMARK    1  A    between atoms: O1_1  and  C1_2 
REMARK    2  A    between atoms: C5_6  and  N1_7 
REMARK    3  A    between atoms: N1_7  and  C6_8 
REMARK    4  A    between atoms: C7_11  and  C8_12 
REMARK    5  A    between atoms: C9_13  and  C10_14 
ROOT
HETATM    1  C6  UNL     1      -0.346  50.821 -13.197  1.00  0.00     0.119 A 
HETATM    2  N2  UNL     1      -0.327  51.275 -14.461  1.00  0.00    -0.328 N 
ATOM      3  H2  UNL     1      -1.164  51.661 -14.897  1.00  0.00     0.169 HD
HETATM    4  C7  UNL     1       0.832  51.199 -15.127  1.00  0.00     0.107 A 
HETATM    5  N3  UNL     1       1.978  50.711 -14.637  1.00  0.00    -0.342 N 
ATOM      6  H3  UNL     1       2.827  50.677 -15.201  1.00  0.00     0.167 HD
HETATM    7  C17 UNL     1       1.959  50.269 -13.377  1.00  0.00     0.047 A 
HETATM    8  C18 UNL     1       3.134  49.759 -12.838  1.00  0.00     0.030 A 
HETATM    9  C19 UNL     1       3.202  49.287 -11.525  1.00  0.00     0.002 A 
HETATM   10  C20 UNL     1       2.072  49.328 -10.719  1.00  0.00     0.001 A 
HETATM   11  C21 UNL     1       0.882  49.836 -11.237  1.00  0.00     0.017 A 
HETATM   12  C22 UNL     1       0.808  50.302 -12.576  1.00  0.00     0.035 A 
ENDROOT
BRANCH   4  13
HETATM   13  C8  UNL     1       0.880  51.696 -16.503  1.00  0.00     0.049 C 
HETATM   14  C9  UNL     1       0.290  51.096 -17.548  1.00  0.00     0.016 C 
BRANCH  14  15
HETATM   15  C10 UNL     1       0.370  51.630 -18.915  1.00  0.00    -0.016 A 
HETATM   16  C11 UNL     1       1.028  52.856 -19.121  1.00  0.00     0.052 A 
HETATM   17  C12 UNL     1       1.086  53.364 -20.402  1.00  0.00     0.105 A 
HETATM   18  C13 UNL     1       0.523  52.705 -21.469  1.00  0.00     0.106 A 
HETATM   19  O3  UNL     1       1.679  54.532 -20.767  1.00  0.00    -0.323 OA
HETATM   20  C14 UNL     1      -0.137  51.506 -21.316  1.00  0.00     0.059 A 
HETATM   21  O2  UNL     1       0.695  53.376 -22.639  1.00  0.00    -0.323 OA
HETATM   22  C15 UNL     1      -0.216  50.967 -20.024  1.00  0.00     0.024 A 
HETATM   23 BR1  UNL     1      -1.130  49.309 -19.836  1.00  0.00    -0.050 Br
HETATM   24  C16 UNL     1       1.428  54.535 -22.187  1.00  0.00     0.352 A 
ENDBRANCH  14  15
ENDBRANCH   4  13
BRANCH   1  25
HETATM   25  N1  UNL     1      -1.567  50.843 -12.466  1.00  0.00    -0.342 N 
HETATM   26  H5  UNL     1      -2.254  50.298 -12.975  1.00  0.00     0.167 HD
BRANCH  25  27
HETATM   27  C5  UNL     1      -2.167  51.939 -11.800  1.00  0.00     0.036 A 
HETATM   28  C4  UNL     1      -3.548  52.179 -11.835  1.00  0.00     0.029 A 
HETATM   29  C3  UNL     1      -4.103  53.308 -11.221  1.00  0.00     0.005 A 
HETATM   30  C2  UNL     1      -3.277  54.226 -10.580  1.00  0.00     0.036 A 
HETATM   31  C1  UNL     1      -1.905  54.021 -10.574  1.00  0.00     0.067 A 
HETATM   32  C23 UNL     1      -1.345  52.898 -11.186  1.00  0.00     0.066 A 
BRANCH  31  33
HETATM   33  O1  UNL     1      -1.127  54.955  -9.953  1.00  0.00    -0.361 OA
HETATM   34  H1  UNL     1      -0.198  54.688 -10.027  1.00  0.00     0.217 HD
ENDBRANCH  31  33
ENDBRANCH  25  27
ENDBRANCH   1  25
TORSDOF 5
ENDMDL
