MODEL 1
REMARK minimizedAffinity -7.74202442
REMARK  5 active torsions:
REMARK  status: ('A' for Active; 'I' for Inactive)
REMARK    1  A    between atoms: C2_2  and  N1_5 
REMARK    2  A    between atoms: C5_8  and  C6_9 
REMARK    3  A    between atoms: C10_15  and  O1_16 
REMARK    4  A    between atoms: O1_16  and  C11_17 
REMARK    5  A    between atoms: C19_25  and  C20_26 
REMARK       I    between atoms: C20_26  and  N4_27 
ROOT
HETATM    1  N1  UNL     1       8.843  35.322  19.836  1.00  0.00    -0.267 N 
HETATM    2  N2  UNL     1       9.640  35.694  18.810  1.00  0.00    -0.294 N 
ATOM      3  H2  UNL     1       9.370  36.213  17.976  1.00  0.00     0.187 HD
HETATM    4  C5  UNL     1      10.861  35.237  19.119  1.00  0.00     0.079 A 
HETATM    5  C19 UNL     1      10.869  34.627  20.406  1.00  0.00     0.105 A 
HETATM    6  C21 UNL     1       9.547  34.660  20.823  1.00  0.00     0.134 A 
HETATM    7  N5  UNL     1       9.013  34.175  21.970  1.00  0.00    -0.383 N 
HETATM    8  H24 UNL     1       9.577  33.504  22.505  1.00  0.00     0.157 HD
HETATM    9  H25 UNL     1       8.021  34.009  22.096  1.00  0.00     0.157 HD
ENDROOT
BRANCH   4  10
HETATM   10  C6  UNL     1      11.946  35.393  18.158  1.00  0.00     0.009 A 
HETATM   11  C7  UNL     1      11.732  36.010  16.933  1.00  0.00     0.102 A 
HETATM   12  N3  UNL     1      12.690  36.201  15.991  1.00  0.00    -0.364 N 
HETATM   13  C8  UNL     1      13.926  35.737  16.247  1.00  0.00     0.045 A 
ATOM     14  H3  UNL     1      12.479  36.681  15.116  1.00  0.00     0.165 HD
HETATM   15  C9  UNL     1      14.924  35.900  15.297  1.00  0.00     0.067 A 
HETATM   16  C17 UNL     1      14.246  35.078  17.454  1.00  0.00    -0.008 A 
HETATM   17  C10 UNL     1      16.213  35.416  15.519  1.00  0.00     0.071 A 
HETATM   18  C15 UNL     1      16.537  34.791  16.716  1.00  0.00     0.038 A 
HETATM   19  C16 UNL     1      15.553  34.614  17.683  1.00  0.00     0.016 A 
HETATM   20  C18 UNL     1      13.231  34.908  18.408  1.00  0.00     0.029 A 
BRANCH  17  21
HETATM   21  O1  UNL     1      17.218  35.572  14.598  1.00  0.00    -0.346 OA
BRANCH  21  22
HETATM   22  C11 UNL     1      17.431  34.455  13.705  1.00  0.00     0.129 C 
HETATM   23  C12 UNL     1      18.631  34.553  12.724  1.00  0.00     0.032 C 
HETATM   24  C13 UNL     1      17.727  33.917  11.652  1.00  0.00     0.005 C 
HETATM   25  C14 UNL     1      16.520  34.443  12.450  1.00  0.00     0.032 C 
ENDBRANCH  21  22
ENDBRANCH  17  21
ENDBRANCH   4  10
BRANCH   5  26
HETATM   26  C20 UNL     1      11.959  34.051  21.171  1.00  0.00     0.255 C 
HETATM   27  N4  UNL     1      12.897  34.929  21.638  1.00  0.00    -0.366 N 
HETATM   28  H22 UNL     1      12.731  35.926  21.649  1.00  0.00     0.159 HD
HETATM   29  H23 UNL     1      13.578  34.557  22.286  1.00  0.00     0.159 HD
HETATM   30  O2  UNL     1      12.045  32.858  21.436  1.00  0.00    -0.268 OA
ENDBRANCH   5  26
BRANCH   1  31
HETATM   31  C2  UNL     1       7.400  35.642  19.766  1.00  0.00     0.044 C 
HETATM   32  C1  UNL     1       6.575  34.379  19.450  1.00  0.00     0.039 C 
HETATM   33  C3  UNL     1       6.869  36.198  21.116  1.00  0.00     0.039 C 
HETATM   34  C4  UNL     1       7.146  36.732  18.706  1.00  0.00     0.039 C 
ENDBRANCH   1  31
TORSDOF 5
ENDMDL
