MODEL 1
REMARK minimizedAffinity -9.63610363
REMARK CNNscore 0.635436118
REMARK CNNaffinity 7.65800333
REMARK  6 active torsions:
REMARK  status: ('A' for Active; 'I' for Inactive)
REMARK    1  A    between atoms: N1_2  and  S1_3 
REMARK    2  A    between atoms: S1_3  and  C2_6 
REMARK    3  A    between atoms: C9_13  and  C10_14 
REMARK    4  A    between atoms: C13_18  and  C14_19 
REMARK    5  A    between atoms: C14_19  and  C15_20 
REMARK    6  A    between atoms: C15_20  and  C16_21 
REMARK       I    between atoms: C16_21  and  N3_23 
ROOT
HETATM    1  C10 UNL     1      -7.198   6.299  13.821  1.00  0.00     0.040 A 
HETATM    2  N2  UNL     1      -8.433   6.039  13.273  1.00  0.00    -0.359 N 
HETATM    3  C11 UNL     1      -9.370   6.860  13.828  1.00  0.00     0.016 A 
HETATM    4  C12 UNL     1      -8.751   7.669  14.754  1.00  0.00    -0.027 A 
HETATM    5  C13 UNL     1      -7.370   7.318  14.765  1.00  0.00    -0.023 A 
HETATM    6  C22 UNL     1      -9.499   8.710  15.521  1.00  0.00     0.041 C 
HETATM    7  C23 UNL     1     -11.019   8.454  15.466  1.00  0.00     0.005 C 
HETATM    8  C24 UNL     1     -11.494   8.114  14.041  1.00  0.00     0.006 C 
HETATM    9  C25 UNL     1     -10.819   6.845  13.491  1.00  0.00     0.057 C 
HETATM   10  H9  UNL     1      -8.627   5.354  12.548  1.00  0.00     0.166 HD
ENDROOT
BRANCH   1  11
HETATM   11  C9  UNL     1      -6.027   5.592  13.423  1.00  0.00     0.048 C 
HETATM   12  C8  UNL     1      -5.903   4.352  12.920  1.00  0.00     0.047 A 
HETATM   13  C6  UNL     1      -4.607   3.789  12.488  1.00  0.00     0.008 A 
HETATM   14  C26 UNL     1      -6.935   3.284  12.641  1.00  0.00     0.257 A 
HETATM   15  C5  UNL     1      -4.876   2.511  11.988  1.00  0.00     0.046 A 
HETATM   16  C7  UNL     1      -3.313   4.281  12.481  1.00  0.00     0.040 A 
HETATM   17  C4  UNL     1      -3.895   1.680  11.480  1.00  0.00     0.032 A 
HETATM   18  N5  UNL     1      -6.232   2.228  12.082  1.00  0.00    -0.322 N 
HETATM   19  C3  UNL     1      -2.585   2.165  11.466  1.00  0.00     0.027 A 
HETATM   20  C2  UNL     1      -2.305   3.458  11.951  1.00  0.00     0.080 A 
HETATM   21  H33 UNL     1      -6.681   1.371  11.793  1.00  0.00     0.169 HD
HETATM   22  O4  UNL     1      -8.131   3.308  12.856  1.00  0.00    -0.267 OA
BRANCH  20  23
HETATM   23  S1  UNL     1      -0.640   4.070  11.913  1.00  0.00     0.258 S 
HETATM   24  O1  UNL     1       0.171   3.179  11.116  1.00  0.00    -0.201 OA
HETATM   25  O2  UNL     1      -0.281   4.433  13.266  1.00  0.00    -0.201 OA
BRANCH  23  26
HETATM   26  N1  UNL     1      -0.822   5.512  11.072  1.00  0.00    -0.320 N 
HETATM   27  C1  UNL     1       0.373   6.279  10.741  1.00  0.00     0.159 C 
HETATM   28  H4  UNL     1      -1.655   6.023  11.364  1.00  0.00     0.171 HD
ENDBRANCH  23  26
ENDBRANCH  20  23
ENDBRANCH   1  11
BRANCH   5  29
HETATM   29  C14 UNL     1      -6.303   7.942  15.625  1.00  0.00     0.051 C 
BRANCH  29  30
HETATM   30  C15 UNL     1      -5.319   8.793  14.820  1.00  0.00     0.107 C 
BRANCH  30  31
HETATM   31  C16 UNL     1      -4.276   9.483  15.685  1.00  0.00     0.220 C 
HETATM   32  O3  UNL     1      -4.531  10.518  16.302  1.00  0.00    -0.273 OA
HETATM   33  N3  UNL     1      -3.030   8.867  15.771  1.00  0.00    -0.349 N 
HETATM   34  C17 UNL     1      -2.029   9.479  16.650  1.00  0.00     0.156 C 
HETATM   35  C21 UNL     1      -2.792   7.449  15.486  1.00  0.00     0.156 C 
HETATM   36  C18 UNL     1      -0.590   9.165  16.202  1.00  0.00     0.291 C 
HETATM   37  N4  UNL     1      -0.362   7.714  16.029  1.00  0.00     0.087 N 
HETATM   38  C19 UNL     1       1.007   7.464  15.577  1.00  0.00     0.310 C 
HETATM   39  C20 UNL     1      -1.336   7.178  15.059  1.00  0.00     0.291 C 
ENDBRANCH  30  31
ENDBRANCH  29  30
ENDBRANCH   5  29
TORSDOF 6
ENDMDL
