MODEL 1
REMARK minimizedAffinity -8.87395382
REMARK  8 active torsions:
REMARK  status: ('A' for Active; 'I' for Inactive)
REMARK    1  A    between atoms: O1_2  and  C2_3 
REMARK    2  A    between atoms: C5_6  and  N1_7 
REMARK    3  A    between atoms: N1_7  and  C6_8 
REMARK    4  A    between atoms: C18_25  and  O2_26 
REMARK    5  A    between atoms: O2_26  and  C19_27 
REMARK    6  A    between atoms: C19_27  and  C20_28 
REMARK    7  A    between atoms: C20_28  and  C21_29 
REMARK    8  A    between atoms: C21_29  and  N5_30 
ROOT
HETATM    1  C2  UNL     1      -1.413  50.097 -21.261  1.00  0.00     0.102 A 
HETATM    2  C3  UNL     1      -0.847  50.761 -20.173  1.00  0.00     0.057 A 
HETATM    3  C4  UNL     1      -0.047  51.919 -20.358  1.00  0.00     0.038 A 
HETATM    4  C5  UNL     1       0.559  52.661 -19.323  1.00  0.00     0.119 A 
HETATM    5  N3  UNL     1       1.267  53.777 -19.569  1.00  0.00    -0.338 N 
ATOM      6  H3  UNL     1       1.686  54.320 -18.814  1.00  0.00     0.168 HD
HETATM    7  C15 UNL     1       1.397  54.140 -20.846  1.00  0.00     0.182 A 
HETATM    8  N4  UNL     1       0.885  53.503 -21.903  1.00  0.00    -0.351 N 
ATOM      9  H4  UNL     1       1.037  53.836 -22.855  1.00  0.00     0.166 HD
HETATM   10  C16 UNL     1       0.165  52.407 -21.652  1.00  0.00     0.050 A 
HETATM   11  C17 UNL     1      -0.397  51.729 -22.728  1.00  0.00     0.070 A 
HETATM   12  C18 UNL     1      -1.172  50.579 -22.559  1.00  0.00     0.104 A 
ENDROOT
BRANCH   4  13
HETATM   13  N1  UNL     1       0.421  52.211 -17.984  1.00  0.00    -0.341 N 
HETATM   14  H5  UNL     1      -0.245  51.452 -17.940  1.00  0.00     0.167 HD
BRANCH  13  15
HETATM   15  C6  UNL     1       1.435  52.052 -17.013  1.00  0.00     0.046 A 
HETATM   16  C7  UNL     1       2.617  52.818 -17.058  1.00  0.00     0.030 A 
HETATM   17  C8  UNL     1       3.614  52.696 -16.092  1.00  0.00     0.005 A 
HETATM   18  C9  UNL     1       3.471  51.812 -15.024  1.00  0.00     0.030 A 
HETATM   19  C10 UNL     1       2.290  51.060 -14.950  1.00  0.00     0.046 A 
HETATM   20  C11 UNL     1       1.278  51.164 -15.912  1.00  0.00     0.019 A 
HETATM   21  N2  UNL     1       1.872  50.130 -14.017  1.00  0.00    -0.360 N 
HETATM   22  C12 UNL     1       0.244  50.261 -15.515  1.00  0.00     0.033 A 
HETATM   23  C13 UNL     1       0.640  49.638 -14.354  1.00  0.00     0.092 A 
HETATM   24  C14 UNL     1       2.626  49.725 -12.852  1.00  0.00     0.155 C 
ENDBRANCH  13  15
ENDBRANCH   4  13
BRANCH   1  25
HETATM   25  O1  UNL     1      -2.207  48.983 -21.168  1.00  0.00    -0.353 OA
HETATM   26  C1  UNL     1      -1.599  47.767 -20.751  1.00  0.00     0.210 C 
ENDBRANCH   1  25
BRANCH  12  27
HETATM   27  O2  UNL     1      -1.757  49.869 -23.575  1.00  0.00    -0.348 OA
BRANCH  27  28
HETATM   28  C19 UNL     1      -2.298  50.550 -24.700  1.00  0.00     0.177 C 
BRANCH  28  29
HETATM   29  C20 UNL     1      -1.895  49.918 -26.036  1.00  0.00     0.057 C 
BRANCH  29  30
HETATM   30  C21 UNL     1      -1.763  50.914 -27.205  1.00  0.00     0.274 C 
BRANCH  30  31
HETATM   31  N5  UNL     1      -0.409  51.437 -27.441  1.00  0.00     0.092 N 
HETATM   32  C22 UNL     1      -0.369  52.915 -27.363  1.00  0.00     0.298 C 
HETATM   33  C23 UNL     1       0.070  53.443 -25.989  1.00  0.00     0.198 C 
HETATM   34  O3  UNL     1       1.378  53.000 -25.595  1.00  0.00    -0.388 OA
HETATM   35  C24 UNL     1       1.773  51.783 -26.242  1.00  0.00     0.198 C 
HETATM   36  C25 UNL     1       0.586  50.848 -26.518  1.00  0.00     0.298 C 
ENDBRANCH  30  31
ENDBRANCH  29  30
ENDBRANCH  28  29
ENDBRANCH  27  28
ENDBRANCH  12  27
TORSDOF 8
ENDMDL
