MODEL 1
REMARK minimizedAffinity -9.45806313
REMARK  7 active torsions:
REMARK  status: ('A' for Active; 'I' for Inactive)
REMARK    1  A    between atoms: N1_2  and  S1_3 
REMARK    2  A    between atoms: S1_3  and  C2_6 
REMARK    3  A    between atoms: C9_13  and  C10_14 
REMARK    4  A    between atoms: C13_18  and  C14_19 
REMARK    5  A    between atoms: C14_19  and  C15_20 
REMARK    6  A    between atoms: C15_20  and  C16_21 
REMARK    7  A    between atoms: C16_21  and  N3_22 
ROOT
HETATM    1  C10 UNL     1      -0.750   5.522  12.254  1.00  0.00     0.040 A 
HETATM    2  N2  UNL     1       0.004   5.508  11.103  1.00  0.00    -0.359 N 
HETATM    3  C11 UNL     1       1.225   6.070  11.341  1.00  0.00     0.016 A 
HETATM    4  C12 UNL     1       1.275   6.467  12.657  1.00  0.00    -0.027 A 
HETATM    5  C13 UNL     1       0.032   6.106  13.253  1.00  0.00    -0.023 A 
HETATM    6  C21 UNL     1       2.484   7.113  13.250  1.00  0.00     0.041 C 
HETATM    7  C22 UNL     1       3.443   7.611  12.151  1.00  0.00     0.005 C 
HETATM    8  C23 UNL     1       3.627   6.573  11.029  1.00  0.00     0.006 C 
HETATM    9  C24 UNL     1       2.298   6.235  10.325  1.00  0.00     0.057 C 
HETATM   10  H9  UNL     1      -0.287   5.125  10.208  1.00  0.00     0.166 HD
ENDROOT
BRANCH   1  11
HETATM   11  C9  UNL     1      -2.079   5.014  12.300  1.00  0.00     0.048 C 
HETATM   12  C8  UNL     1      -2.563   3.832  11.887  1.00  0.00     0.047 A 
HETATM   13  C6  UNL     1      -3.983   3.456  12.031  1.00  0.00     0.008 A 
HETATM   14  C25 UNL     1      -1.882   2.646  11.244  1.00  0.00     0.257 A 
HETATM   15  C5  UNL     1      -4.100   2.148  11.547  1.00  0.00     0.046 A 
HETATM   16  C7  UNL     1      -5.098   4.123  12.509  1.00  0.00     0.040 A 
HETATM   17  C4  UNL     1      -5.296   1.457  11.532  1.00  0.00     0.032 A 
HETATM   18  N4  UNL     1      -2.871   1.688  11.094  1.00  0.00    -0.322 N 
HETATM   19  C3  UNL     1      -6.426   2.117  12.017  1.00  0.00     0.027 A 
HETATM   20  C2  UNL     1      -6.323   3.444  12.485  1.00  0.00     0.080 A 
HETATM   21  H32 UNL     1      -2.690   0.781  10.689  1.00  0.00     0.169 HD
HETATM   22  O4  UNL     1      -0.720   2.531  10.905  1.00  0.00    -0.267 OA
BRANCH  20  23
HETATM   23  S1  UNL     1      -7.786   4.265  13.077  1.00  0.00     0.258 S 
HETATM   24  O1  UNL     1      -8.934   3.482  12.679  1.00  0.00    -0.201 OA
HETATM   25  O2  UNL     1      -7.661   5.668  12.752  1.00  0.00    -0.201 OA
BRANCH  23  26
HETATM   26  N1  UNL     1      -7.618   4.137  14.734  1.00  0.00    -0.320 N 
HETATM   27  C1  UNL     1      -7.576   5.321  15.574  1.00  0.00     0.159 C 
HETATM   28  H4  UNL     1      -7.863   3.234  15.136  1.00  0.00     0.171 HD
ENDBRANCH  23  26
ENDBRANCH  20  23
ENDBRANCH   1  11
BRANCH   5  29
HETATM   29  C14 UNL     1      -0.336   6.310  14.692  1.00  0.00     0.043 C 
BRANCH  29  30
HETATM   30  C15 UNL     1      -0.900   7.707  14.968  1.00  0.00     0.035 C 
BRANCH  30  31
HETATM   31  C16 UNL     1      -2.167   7.613  15.827  1.00  0.00     0.273 C 
BRANCH  31  32
HETATM   32  N3  UNL     1      -3.251   8.457  15.308  1.00  0.00     0.092 N 
HETATM   33  C17 UNL     1      -2.912   9.135  14.037  1.00  0.00     0.298 C 
HETATM   34  C18 UNL     1      -3.591   8.518  12.802  1.00  0.00     0.198 C 
HETATM   35  O3  UNL     1      -5.022   8.506  12.890  1.00  0.00    -0.388 OA
HETATM   36  C19 UNL     1      -5.500   8.379  14.237  1.00  0.00     0.198 C 
HETATM   37  C20 UNL     1      -4.498   7.673  15.162  1.00  0.00     0.298 C 
ENDBRANCH  31  32
ENDBRANCH  30  31
ENDBRANCH  29  30
ENDBRANCH   5  29
TORSDOF 7
ENDMDL
