MODEL 1
REMARK minimizedAffinity -8.93186283
REMARK CNNscore 0.769776464
REMARK CNNaffinity 7.94793129
REMARK  8 active torsions:
REMARK  status: ('A' for Active; 'I' for Inactive)
REMARK    1  A    between atoms: C2_2  and  C3_3 
REMARK       I    between atoms: C3_3  and  N1_5 
REMARK    2  A    between atoms: N2_8  and  C6_9 
REMARK    3  A    between atoms: C6_9  and  C7_10 
REMARK    4  A    between atoms: C7_10  and  C8_11 
REMARK    5  A    between atoms: C8_11  and  C9_12 
REMARK    6  A    between atoms: C10_13  and  C11_14 
REMARK    7  A    between atoms: C17_22  and  S1_23 
REMARK    8  A    between atoms: S1_23  and  N4_26 
ROOT
HETATM    1  C9  UNL     1      -7.245   6.790  14.806  1.00  0.00    -0.023 A 
HETATM    2  C10 UNL     1      -6.998   6.082  13.627  1.00  0.00     0.040 A 
HETATM    3  N5  UNL     1      -8.193   5.999  12.947  1.00  0.00    -0.359 N 
HETATM    4  C21 UNL     1      -9.182   6.598  13.671  1.00  0.00     0.016 A 
HETATM    5  C22 UNL     1      -8.632   7.114  14.822  1.00  0.00    -0.027 A 
HETATM    6  C23 UNL     1      -9.451   7.823  15.851  1.00  0.00     0.041 C 
HETATM    7  C24 UNL     1     -10.834   8.213  15.294  1.00  0.00     0.005 C 
HETATM    8  C25 UNL     1     -11.473   7.077  14.472  1.00  0.00     0.006 C 
HETATM    9  C26 UNL     1     -10.608   6.683  13.259  1.00  0.00     0.057 C 
HETATM   10  H25 UNL     1      -8.332   5.542  12.051  1.00  0.00     0.166 HD
ENDROOT
BRANCH   2  11
HETATM   11  C11 UNL     1      -5.794   5.504  13.133  1.00  0.00     0.048 C 
HETATM   12  C12 UNL     1      -5.567   4.269  12.655  1.00  0.00     0.047 A 
HETATM   13  C13 UNL     1      -6.494   3.093  12.450  1.00  0.00     0.257 A 
HETATM   14  C20 UNL     1      -4.227   3.807  12.236  1.00  0.00     0.008 A 
HETATM   15  O2  UNL     1      -7.695   3.031  12.637  1.00  0.00    -0.267 OA
HETATM   16  N3  UNL     1      -5.692   2.064  11.985  1.00  0.00    -0.322 N 
HETATM   17  C14 UNL     1      -4.370   2.467  11.855  1.00  0.00     0.046 A 
HETATM   18  H17 UNL     1      -6.059   1.153  11.751  1.00  0.00     0.169 HD
HETATM   19  C15 UNL     1      -3.314   1.697  11.409  1.00  0.00     0.032 A 
HETATM   20  C16 UNL     1      -2.056   2.301  11.353  1.00  0.00     0.027 A 
HETATM   21  C17 UNL     1      -1.896   3.648  11.745  1.00  0.00     0.080 A 
HETATM   22  C19 UNL     1      -2.985   4.420  12.175  1.00  0.00     0.040 A 
BRANCH  21  23
HETATM   23  S1  UNL     1      -0.289   4.397  11.627  1.00  0.00     0.258 S 
HETATM   24  O3  UNL     1       0.626   3.393  11.127  1.00  0.00    -0.201 OA
HETATM   25  O4  UNL     1      -0.427   5.691  10.993  1.00  0.00    -0.201 OA
BRANCH  23  26
HETATM   26  N4  UNL     1       0.109   4.627  13.240  1.00  0.00    -0.320 N 
HETATM   27  C18 UNL     1      -0.462   5.761  13.955  1.00  0.00     0.159 C 
HETATM   28  H20 UNL     1       1.072   4.361  13.446  1.00  0.00     0.171 HD
ENDBRANCH  23  26
ENDBRANCH  21  23
ENDBRANCH   2  11
BRANCH   1  29
HETATM   29  C8  UNL     1      -6.263   7.127  15.890  1.00  0.00     0.043 C 
BRANCH  29  30
HETATM   30  C7  UNL     1      -4.974   7.728  15.316  1.00  0.00     0.035 C 
BRANCH  30  31
HETATM   31  C6  UNL     1      -5.067   9.246  15.108  1.00  0.00     0.273 C 
BRANCH  31  32
HETATM   32  N2  UNL     1      -3.867   9.971  15.538  1.00  0.00     0.091 N 
HETATM   33  C5  UNL     1      -3.065   9.182  16.484  1.00  0.00     0.292 C 
HETATM   34  C4  UNL     1      -1.855   9.974  17.011  1.00  0.00     0.156 C 
HETATM   35  N1  UNL     1      -2.241  11.229  17.662  1.00  0.00    -0.349 N 
HETATM   36  C3  UNL     1      -1.417  11.967  18.497  1.00  0.00     0.219 C 
HETATM   37  C28 UNL     1      -3.621  11.663  17.454  1.00  0.00     0.156 C 
HETATM   38  O1  UNL     1      -1.823  12.951  19.112  1.00  0.00    -0.273 OA
HETATM   39  C27 UNL     1      -4.151  11.334  16.042  1.00  0.00     0.292 C 
BRANCH  36  40
HETATM   40  C2  UNL     1       0.022  11.487  18.619  1.00  0.00     0.098 C 
HETATM   41  C1  UNL     1       0.370  11.064  20.038  1.00  0.00     0.014 C 
ENDBRANCH  36  40
ENDBRANCH  31  32
ENDBRANCH  30  31
ENDBRANCH  29  30
ENDBRANCH   1  29
TORSDOF 8
ENDMDL
