MODEL 1
REMARK minimizedAffinity -9.97343063
REMARK CNNscore 0.870204628
REMARK CNNaffinity 8.17769718
REMARK  9 active torsions:
REMARK  status: ('A' for Active; 'I' for Inactive)
REMARK    1  A    between atoms: N1_2  and  C3_4 
REMARK    2  A    between atoms: C3_4  and  C4_5 
REMARK    3  A    between atoms: C4_5  and  C5_6 
REMARK    4  A    between atoms: C5_6  and  C6_7 
REMARK    5  A    between atoms: C7_8  and  C8_9 
REMARK    6  A    between atoms: C14_17  and  S1_18 
REMARK    7  A    between atoms: S1_18  and  N3_21 
REMARK    8  A    between atoms: N3_21  and  C15_22 
REMARK    9  A    between atoms: C15_22  and  C16_23 
ROOT
HETATM    1  C8  UNL     1      -6.397   5.560  13.438  1.00  0.00     0.048 C 
HETATM    2  C9  UNL     1      -6.269   4.329  12.914  1.00  0.00     0.047 A 
HETATM    3  C10 UNL     1      -7.293   3.258  12.625  1.00  0.00     0.257 A 
HETATM    4  O1  UNL     1      -8.498   3.298  12.789  1.00  0.00    -0.267 OA
HETATM    5  N2  UNL     1      -6.580   2.191  12.106  1.00  0.00    -0.322 N 
HETATM    6  C11 UNL     1      -5.223   2.479  12.023  1.00  0.00     0.046 A 
HETATM    7  C12 UNL     1      -4.232   1.643  11.547  1.00  0.00     0.032 A 
HETATM    8  C13 UNL     1      -2.926   2.138  11.535  1.00  0.00     0.027 A 
HETATM    9  C14 UNL     1      -2.660   3.446  11.991  1.00  0.00     0.080 A 
HETATM   10  C22 UNL     1      -3.677   4.274  12.489  1.00  0.00     0.040 A 
HETATM   11  C23 UNL     1      -4.968   3.771  12.496  1.00  0.00     0.008 A 
HETATM   12  H14 UNL     1      -7.025   1.337  11.812  1.00  0.00     0.169 HD
ENDROOT
BRANCH   1  13
HETATM   13  C7  UNL     1      -7.561   6.247  13.890  1.00  0.00     0.040 A 
HETATM   14  C6  UNL     1      -7.723   7.208  14.895  1.00  0.00    -0.023 A 
HETATM   15  C25 UNL     1      -9.103   7.576  14.900  1.00  0.00    -0.027 A 
HETATM   16  C24 UNL     1      -9.728   6.837  13.921  1.00  0.00     0.016 A 
HETATM   17  C26 UNL     1      -9.851   8.541  15.762  1.00  0.00     0.041 C 
HETATM   18  N4  UNL     1      -8.797   6.039  13.320  1.00  0.00    -0.359 N 
HETATM   19  C29 UNL     1     -11.162   6.903  13.536  1.00  0.00     0.057 C 
HETATM   20  H25 UNL     1      -9.001   5.387  12.567  1.00  0.00     0.166 HD
HETATM   21  C28 UNL     1     -11.958   7.658  14.618  1.00  0.00     0.006 C 
HETATM   22  C27 UNL     1     -11.212   8.902  15.136  1.00  0.00     0.005 C 
BRANCH  14  23
HETATM   23  C5  UNL     1      -6.663   7.778  15.798  1.00  0.00     0.043 C 
BRANCH  23  24
HETATM   24  C4  UNL     1      -5.759   8.816  15.126  1.00  0.00     0.035 C 
BRANCH  24  25
HETATM   25  C3  UNL     1      -4.298   8.828  15.604  1.00  0.00     0.271 C 
BRANCH  25  26
HETATM   26  N1  UNL     1      -3.343   8.236  14.648  1.00  0.00     0.080 N 
HETATM   27  C1  UNL     1      -3.830   8.264  13.272  1.00  0.00     0.309 C 
HETATM   28  C2  UNL     1      -3.047   6.852  15.038  1.00  0.00     0.309 C 
ENDBRANCH  25  26
ENDBRANCH  24  25
ENDBRANCH  23  24
ENDBRANCH  14  23
ENDBRANCH   1  13
BRANCH   9  29
HETATM   29  S1  UNL     1      -0.993   4.070  11.959  1.00  0.00     0.259 S 
HETATM   30  O2  UNL     1      -0.628   4.394  13.319  1.00  0.00    -0.201 OA
HETATM   31  O3  UNL     1      -0.200   3.183  11.139  1.00  0.00    -0.201 OA
BRANCH  29  32
HETATM   32  N3  UNL     1      -1.165   5.515  11.142  1.00  0.00    -0.311 N 
HETATM   33  H17 UNL     1      -1.605   5.461  10.226  1.00  0.00     0.172 HD
BRANCH  32  34
HETATM   34  C15 UNL     1      -0.267   6.621  11.434  1.00  0.00     0.170 C 
BRANCH  34  35
HETATM   35  C16 UNL     1       0.523   7.025  10.213  1.00  0.00    -0.040 A 
HETATM   36  C17 UNL     1       0.134   8.127   9.431  1.00  0.00     0.012 A 
HETATM   37  C18 UNL     1       0.871   8.487   8.301  1.00  0.00     0.043 A 
HETATM   38  C19 UNL     1       1.995   7.747   7.951  1.00  0.00     0.116 A 
HETATM   39  F1  UNL     1       2.698   8.095   6.865  1.00  0.00    -0.206 F 
HETATM   40  C20 UNL     1       2.399   6.656   8.711  1.00  0.00     0.043 A 
HETATM   41  C21 UNL     1       1.664   6.293   9.840  1.00  0.00     0.012 A 
ENDBRANCH  34  35
ENDBRANCH  32  34
ENDBRANCH  29  32
ENDBRANCH   9  29
TORSDOF 9
ENDMDL
