MODEL 1
REMARK minimizedAffinity -8.76069736
REMARK  8 active torsions:
REMARK  status: ('A' for Active; 'I' for Inactive)
REMARK    1  A    between atoms: O1_2  and  C2_3 
REMARK    2  A    between atoms: C5_6  and  N1_7 
REMARK    3  A    between atoms: N1_7  and  C6_8 
REMARK    4  A    between atoms: C16_26  and  O4_27 
REMARK    5  A    between atoms: O4_27  and  C17_28 
REMARK    6  A    between atoms: C17_28  and  C18_29 
REMARK    7  A    between atoms: C18_29  and  C19_30 
REMARK    8  A    between atoms: C19_30  and  N4_31 
ROOT
HETATM    1  C2  UNL     1      -0.599  50.192 -19.565  1.00  0.00     0.102 A 
HETATM    2  C3  UNL     1      -0.308  50.661 -20.847  1.00  0.00     0.057 A 
HETATM    3  C4  UNL     1       0.245  51.953 -21.046  1.00  0.00     0.038 A 
HETATM    4  C5  UNL     1       0.569  52.516 -22.298  1.00  0.00     0.119 A 
HETATM    5  N2  UNL     1       1.129  53.734 -22.409  1.00  0.00    -0.338 N 
ATOM      6  H2  UNL     1       1.377  54.126 -23.316  1.00  0.00     0.168 HD
HETATM    7  C13 UNL     1       1.343  54.404 -21.274  1.00  0.00     0.182 A 
HETATM    8  N3  UNL     1       1.058  53.976 -20.041  1.00  0.00    -0.351 N 
ATOM      9  H3  UNL     1       1.244  54.551 -19.220  1.00  0.00     0.166 HD
HETATM   10  C14 UNL     1       0.517  52.760 -19.935  1.00  0.00     0.050 A 
HETATM   11  C15 UNL     1       0.218  52.282 -18.666  1.00  0.00     0.070 A 
HETATM   12  C16 UNL     1      -0.342  51.017 -18.460  1.00  0.00     0.104 A 
ENDROOT
BRANCH   4  13
HETATM   13  N1  UNL     1       0.288  51.775 -23.477  1.00  0.00    -0.339 N 
HETATM   14  H5  UNL     1       0.570  50.805 -23.343  1.00  0.00     0.167 HD
BRANCH  13  15
HETATM   15  C6  UNL     1      -0.854  51.840 -24.298  1.00  0.00     0.070 A 
HETATM   16  C7  UNL     1      -2.121  51.381 -23.912  1.00  0.00     0.032 A 
HETATM   17  C8  UNL     1      -3.245  51.535 -24.748  1.00  0.00     0.005 A 
HETATM   18  C9  UNL     1      -3.132  52.176 -25.983  1.00  0.00     0.040 A 
HETATM   19  C10 UNL     1      -1.889  52.652 -26.339  1.00  0.00     0.114 A 
HETATM   20  C11 UNL     1      -0.791  52.497 -25.520  1.00  0.00     0.138 A 
HETATM   21  O3  UNL     1      -1.596  53.314 -27.488  1.00  0.00    -0.256 OA
HETATM   22  O2  UNL     1       0.337  53.049 -26.057  1.00  0.00    -0.253 OA
HETATM   23  C12 UNL     1      -0.199  53.558 -27.286  1.00  0.00     0.498 A 
HETATM   24  F1  UNL     1       0.491  53.006 -28.314  1.00  0.00    -0.147 F 
HETATM   25  F2  UNL     1       0.016  54.896 -27.323  1.00  0.00    -0.147 F 
ENDBRANCH  13  15
ENDBRANCH   4  13
BRANCH   1  26
HETATM   26  O1  UNL     1      -1.137  48.960 -19.292  1.00  0.00    -0.353 OA
HETATM   27  C1  UNL     1      -1.221  48.020 -20.354  1.00  0.00     0.210 C 
ENDBRANCH   1  26
BRANCH  12  28
HETATM   28  O4  UNL     1      -0.649  50.487 -17.233  1.00  0.00    -0.348 OA
BRANCH  28  29
HETATM   29  C17 UNL     1      -1.957  50.674 -16.687  1.00  0.00     0.177 C 
BRANCH  29  30
HETATM   30  C18 UNL     1      -1.897  50.690 -15.160  1.00  0.00     0.057 C 
BRANCH  30  31
HETATM   31  C19 UNL     1      -3.110  51.373 -14.523  1.00  0.00     0.274 C 
BRANCH  31  32
HETATM   32  N4  UNL     1      -2.825  52.048 -13.250  1.00  0.00     0.092 N 
HETATM   33  C20 UNL     1      -3.873  53.034 -12.897  1.00  0.00     0.298 C 
HETATM   34  C21 UNL     1      -3.930  53.300 -11.383  1.00  0.00     0.198 C 
HETATM   35  O5  UNL     1      -4.293  52.133 -10.633  1.00  0.00    -0.388 OA
HETATM   36  C22 UNL     1      -3.877  50.912 -11.257  1.00  0.00     0.198 C 
HETATM   37  C23 UNL     1      -2.636  51.078 -12.145  1.00  0.00     0.298 C 
ENDBRANCH  31  32
ENDBRANCH  30  31
ENDBRANCH  29  30
ENDBRANCH  28  29
ENDBRANCH  12  28
TORSDOF 8
ENDMDL
