MODEL 1
REMARK minimizedAffinity -8.36948109
REMARK CNNscore 0.364691794
REMARK CNNaffinity 6.46306086
REMARK  7 active torsions:
REMARK  status: ('A' for Active; 'I' for Inactive)
REMARK    1  A    between atoms: O1_2  and  C2_3 
REMARK    2  A    between atoms: C2_3  and  C3_4 
REMARK       I    between atoms: C3_4  and  N1_6 
REMARK    3  A    between atoms: C7_10  and  C8_11 
REMARK    4  A    between atoms: C13_18  and  C14_19 
REMARK       I    between atoms: C14_19  and  N3_21 
REMARK    5  A    between atoms: N3_21  and  C15_22 
REMARK    6  A    between atoms: C17_24  and  C18_25 
REMARK    7  A    between atoms: C24_37  and  N5_38 
ROOT
HETATM    1  C8  UNL     1      -6.887  49.523 -10.388  1.00  0.00     0.094 A 
HETATM    2  N2  UNL     1      -6.284  50.670 -10.124  1.00  0.00    -0.342 N 
ATOM      3  H2  UNL     1      -6.690  51.487  -9.669  1.00  0.00     0.167 HD
HETATM    4  C9  UNL     1      -4.998  50.533 -10.590  1.00  0.00     0.077 A 
HETATM    5  C10 UNL     1      -4.015  51.579 -10.446  1.00  0.00     0.032 A 
HETATM    6  C11 UNL     1      -4.159  52.769 -11.170  1.00  0.00     0.018 A 
HETATM    7  C12 UNL     1      -3.218  53.795 -11.031  1.00  0.00     0.018 A 
HETATM    8  C13 UNL     1      -2.140  53.651 -10.144  1.00  0.00     0.035 A 
HETATM    9  C21 UNL     1      -1.996  52.456  -9.426  1.00  0.00     0.060 A 
HETATM   10  C22 UNL     1      -2.932  51.436  -9.577  1.00  0.00     0.130 A 
HETATM   11  F4  UNL     1      -2.779  50.314  -8.856  1.00  0.00    -0.205 F 
HETATM   12  C23 UNL     1      -4.827  49.313 -11.203  1.00  0.00     0.106 A 
HETATM   13  C24 UNL     1      -3.753  48.635 -11.890  1.00  0.00     0.107 A 
HETATM   14  N6  UNL     1      -3.928  47.412 -12.336  1.00  0.00    -0.354 N 
ATOM     15  H6  UNL     1      -3.176  46.928 -12.828  1.00  0.00     0.166 HD
HETATM   16  C25 UNL     1      -5.143  46.791 -12.131  1.00  0.00     0.107 A 
HETATM   17  C26 UNL     1      -6.185  47.370 -11.516  1.00  0.00     0.116 A 
HETATM   18  N7  UNL     1      -6.030  48.662 -11.047  1.00  0.00    -0.305 N 
ENDROOT
BRANCH   1  19
HETATM   19  C7  UNL     1      -8.293  49.158  -9.991  1.00  0.00     0.072 C 
HETATM   20  C6  UNL     1      -8.464  49.115  -8.454  1.00  0.00     0.015 C 
HETATM   21  C5  UNL     1      -8.511  47.683  -7.923  1.00  0.00     0.021 C 
HETATM   22  C4  UNL     1      -9.670  46.915  -8.560  1.00  0.00     0.126 C 
HETATM   23  N1  UNL     1      -9.811  47.186  -9.991  1.00  0.00    -0.350 N 
HETATM   24  C3  UNL     1     -10.907  46.791 -10.756  1.00  0.00     0.243 C 
HETATM   25  C27 UNL     1      -8.670  47.816 -10.650  1.00  0.00     0.138 C 
HETATM   26  O2  UNL     1     -11.001  47.081 -11.950  1.00  0.00    -0.271 OA
BRANCH  24  27
HETATM   27  C2  UNL     1     -12.000  45.972 -10.031  1.00  0.00     0.269 C 
BRANCH  27  28
HETATM   28  O1  UNL     1     -13.113  46.684  -9.511  1.00  0.00    -0.387 OA
HETATM   29  C1  UNL     1     -14.131  46.899 -10.479  1.00  0.00     0.202 C 
ENDBRANCH  27  28
ENDBRANCH  24  27
ENDBRANCH   1  19
BRANCH  13  30
HETATM   30  N5  UNL     1      -2.533  49.195 -12.143  1.00  0.00    -0.287 NA
HETATM   31  H20 UNL     1      -2.013  48.659 -12.829  1.00  0.00     0.125 HD
HETATM   32  H21 UNL     1      -2.526  50.191 -12.319  1.00  0.00     0.125 HD
ENDBRANCH  13  30
BRANCH   8  33
HETATM   33  C14 UNL     1      -1.116  54.720  -9.936  1.00  0.00     0.257 C 
HETATM   34  O3  UNL     1      -1.503  55.869  -9.744  1.00  0.00    -0.267 OA
HETATM   35  N3  UNL     1       0.195  54.320 -10.025  1.00  0.00    -0.309 N 
HETATM   36  H15 UNL     1       0.428  53.384 -10.328  1.00  0.00     0.170 HD
BRANCH  35  37
HETATM   37  C15 UNL     1       1.347  55.089  -9.853  1.00  0.00     0.108 A 
HETATM   38  C16 UNL     1       1.692  55.738  -8.676  1.00  0.00     0.064 A 
HETATM   39  C17 UNL     1       2.884  56.476  -8.628  1.00  0.00     0.052 A 
HETATM   40  C19 UNL     1       3.679  56.537  -9.774  1.00  0.00     0.033 A 
HETATM   41  C20 UNL     1       3.257  55.859 -10.904  1.00  0.00     0.090 A 
HETATM   42  N4  UNL     1       2.118  55.138 -10.961  1.00  0.00    -0.352 N 
ATOM     43  H4  UNL     1       1.848  54.645 -11.812  1.00  0.00     0.166 HD
BRANCH  39  44
HETATM   44  C18 UNL     1       3.285  57.226  -7.386  1.00  0.00     0.417 C 
HETATM   45  F1  UNL     1       4.528  57.772  -7.498  1.00  0.00    -0.166 F 
HETATM   46  F2  UNL     1       3.328  56.422  -6.286  1.00  0.00    -0.166 F 
HETATM   47  F3  UNL     1       2.449  58.251  -7.066  1.00  0.00    -0.166 F 
ENDBRANCH  39  44
ENDBRANCH  35  37
ENDBRANCH   8  33
TORSDOF 7
ENDMDL
