MODEL 1
REMARK minimizedAffinity -9.56475925
REMARK  7 active torsions:
REMARK  status: ('A' for Active; 'I' for Inactive)
REMARK    1  A    between atoms: C2_2  and  S1_3 
REMARK    2  A    between atoms: S1_3  and  C3_6 
REMARK    3  A    between atoms: C10_13  and  C11_14 
REMARK    4  A    between atoms: C14_18  and  C15_19 
REMARK    5  A    between atoms: C15_19  and  C16_20 
REMARK    6  A    between atoms: C16_20  and  C17_21 
REMARK    7  A    between atoms: C17_21  and  N2_22 
ROOT
HETATM    1  C11 UNL     1      -3.068   4.289  11.857  1.00  0.00     0.040 A 
HETATM    2  N1  UNL     1      -3.349   3.006  11.443  1.00  0.00    -0.359 N 
HETATM    3  C12 UNL     1      -4.622   2.670  11.800  1.00  0.00     0.016 A 
HETATM    4  C13 UNL     1      -5.187   3.732  12.467  1.00  0.00    -0.027 A 
HETATM    5  C14 UNL     1      -4.207   4.768  12.509  1.00  0.00    -0.023 A 
HETATM    6  C22 UNL     1      -6.592   3.700  12.970  1.00  0.00     0.041 C 
HETATM    7  C23 UNL     1      -7.151   2.263  12.982  1.00  0.00     0.005 C 
HETATM    8  C24 UNL     1      -6.788   1.482  11.704  1.00  0.00     0.006 C 
HETATM    9  C25 UNL     1      -5.265   1.359  11.514  1.00  0.00     0.057 C 
HETATM   10  H10 UNL     1      -2.719   2.400  10.929  1.00  0.00     0.166 HD
ENDROOT
BRANCH   1  11
HETATM   11  C10 UNL     1      -1.813   4.915  11.604  1.00  0.00     0.048 C 
HETATM   12  C9  UNL     1      -0.910   5.408  12.470  1.00  0.00     0.047 A 
HETATM   13  C7  UNL     1       0.375   5.997  12.040  1.00  0.00     0.008 A 
HETATM   14  C26 UNL     1      -0.918   5.484  13.979  1.00  0.00     0.257 A 
HETATM   15  C6  UNL     1       1.057   6.357  13.210  1.00  0.00     0.046 A 
HETATM   16  C8  UNL     1       0.954   6.219  10.802  1.00  0.00     0.038 A 
HETATM   17  C5  UNL     1       2.312   6.934  13.202  1.00  0.00     0.032 A 
HETATM   18  N3  UNL     1       0.296   6.052  14.329  1.00  0.00    -0.322 N 
HETATM   19  C4  UNL     1       2.906   7.162  11.960  1.00  0.00     0.026 A 
HETATM   20  C3  UNL     1       2.223   6.819  10.775  1.00  0.00     0.060 A 
HETATM   21  H33 UNL     1       0.562   6.212  15.289  1.00  0.00     0.169 HD
HETATM   22  O4  UNL     1      -1.792   5.142  14.753  1.00  0.00    -0.267 OA
BRANCH  20  23
HETATM   23  S1  UNL     1       3.014   7.127   9.206  1.00  0.00     0.175 S 
HETATM   24  O1  UNL     1       3.509   5.856   8.716  1.00  0.00    -0.223 OA
HETATM   25  O2  UNL     1       3.904   8.255   9.400  1.00  0.00    -0.223 OA
BRANCH  23  26
HETATM   26  C2  UNL     1       1.655   7.641   8.171  1.00  0.00     0.141 C 
HETATM   27  C1  UNL     1       1.860   7.217   6.730  1.00  0.00     0.021 C 
ENDBRANCH  23  26
ENDBRANCH  20  23
ENDBRANCH   1  11
BRANCH   5  28
HETATM   28  C15 UNL     1      -4.399   6.125  13.123  1.00  0.00     0.043 C 
BRANCH  28  29
HETATM   29  C16 UNL     1      -5.878   6.461  13.328  1.00  0.00     0.035 C 
BRANCH  29  30
HETATM   30  C17 UNL     1      -6.257   6.877  14.758  1.00  0.00     0.273 C 
BRANCH  30  31
HETATM   31  N2  UNL     1      -7.662   6.659  15.137  1.00  0.00     0.092 N 
HETATM   32  C18 UNL     1      -8.144   7.724  16.049  1.00  0.00     0.298 C 
HETATM   33  C19 UNL     1      -8.881   8.860  15.325  1.00  0.00     0.198 C 
HETATM   34  O3  UNL     1     -10.042   8.420  14.607  1.00  0.00    -0.388 OA
HETATM   35  C20 UNL     1      -9.996   7.027  14.272  1.00  0.00     0.198 C 
HETATM   36  C21 UNL     1      -8.567   6.544  13.971  1.00  0.00     0.298 C 
ENDBRANCH  30  31
ENDBRANCH  29  30
ENDBRANCH  28  29
ENDBRANCH   5  28
TORSDOF 7
ENDMDL
