MODEL 1
REMARK minimizedAffinity -8.69048786
REMARK  8 active torsions:
REMARK  status: ('A' for Active; 'I' for Inactive)
REMARK    1  A    between atoms: O1_2  and  C2_3 
REMARK    2  A    between atoms: C5_6  and  N1_7 
REMARK    3  A    between atoms: N1_7  and  C6_8 
REMARK    4  A    between atoms: C17_25  and  O2_26 
REMARK    5  A    between atoms: O2_26  and  C18_27 
REMARK    6  A    between atoms: C18_27  and  C19_28 
REMARK    7  A    between atoms: C19_28  and  C20_29 
REMARK    8  A    between atoms: C20_29  and  N5_30 
ROOT
HETATM    1  C2  UNL     1      -1.249  50.093 -21.191  1.00  0.00     0.102 A 
HETATM    2  C3  UNL     1      -0.685  50.761 -20.105  1.00  0.00     0.057 A 
HETATM    3  C4  UNL     1       0.039  51.969 -20.286  1.00  0.00     0.038 A 
HETATM    4  C5  UNL     1       0.638  52.717 -19.252  1.00  0.00     0.119 A 
HETATM    5  N3  UNL     1       1.358  53.826 -19.498  1.00  0.00    -0.338 N 
ATOM      6  H3  UNL     1       1.810  54.347 -18.747  1.00  0.00     0.168 HD
HETATM    7  C14 UNL     1       1.455  54.213 -20.773  1.00  0.00     0.182 A 
HETATM    8  N4  UNL     1       0.898  53.603 -21.826  1.00  0.00    -0.351 N 
ATOM      9  H4  UNL     1       1.001  53.970 -22.772  1.00  0.00     0.166 HD
HETATM   10  C15 UNL     1       0.202  52.490 -21.577  1.00  0.00     0.050 A 
HETATM   11  C16 UNL     1      -0.388  51.829 -22.647  1.00  0.00     0.070 A 
HETATM   12  C17 UNL     1      -1.106  50.642 -22.471  1.00  0.00     0.104 A 
ENDROOT
BRANCH   4  13
HETATM   13  N1  UNL     1       0.457  52.296 -17.908  1.00  0.00    -0.340 N 
HETATM   14  H5  UNL     1      -0.452  52.589 -17.579  1.00  0.00     0.167 HD
BRANCH  13  15
HETATM   15  C6  UNL     1       1.420  52.207 -16.887  1.00  0.00     0.061 A 
HETATM   16  C7  UNL     1       2.757  52.599 -17.092  1.00  0.00     0.032 A 
HETATM   17  C8  UNL     1       3.735  52.469 -16.107  1.00  0.00     0.003 A 
HETATM   18  C9  UNL     1       3.417  51.918 -14.866  1.00  0.00     0.015 A 
HETATM   19  C10 UNL     1       2.096  51.493 -14.615  1.00  0.00     0.016 A 
HETATM   20  C11 UNL     1       1.446  50.894 -13.496  1.00  0.00     0.061 A 
HETATM   21  C13 UNL     1       1.134  51.648 -15.621  1.00  0.00     0.071 A 
HETATM   22 CL1  UNL     1       2.184  50.488 -12.017  1.00  0.00    -0.082 Cl
HETATM   23  C12 UNL     1       0.125  50.712 -13.819  1.00  0.00     0.113 A 
HETATM   24  N2  UNL     1      -0.053  51.166 -15.099  1.00  0.00    -0.362 N 
HETATM   25  H10 UNL     1      -0.935  51.165 -15.587  1.00  0.00     0.165 HD
ENDBRANCH  13  15
ENDBRANCH   4  13
BRANCH   1  26
HETATM   26  O1  UNL     1      -1.958  48.924 -21.097  1.00  0.00    -0.353 OA
HETATM   27  C1  UNL     1      -1.206  47.728 -20.902  1.00  0.00     0.210 C 
ENDBRANCH   1  26
BRANCH  12  28
HETATM   28  O2  UNL     1      -1.727  49.984 -23.503  1.00  0.00    -0.348 OA
BRANCH  28  29
HETATM   29  C18 UNL     1      -2.956  50.566 -23.955  1.00  0.00     0.177 C 
BRANCH  29  30
HETATM   30  C19 UNL     1      -2.756  51.122 -25.362  1.00  0.00     0.057 C 
BRANCH  30  31
HETATM   31  C20 UNL     1      -1.814  50.327 -26.285  1.00  0.00     0.274 C 
BRANCH  31  32
HETATM   32  N5  UNL     1      -1.031  51.135 -27.241  1.00  0.00     0.092 N 
HETATM   33  C21 UNL     1      -1.519  52.534 -27.325  1.00  0.00     0.298 C 
HETATM   34  C22 UNL     1      -0.405  53.541 -27.672  1.00  0.00     0.198 C 
HETATM   35  O3  UNL     1       0.624  53.595 -26.674  1.00  0.00    -0.388 OA
HETATM   36  C23 UNL     1       0.825  52.338 -26.014  1.00  0.00     0.198 C 
HETATM   37  C24 UNL     1       0.410  51.134 -26.875  1.00  0.00     0.298 C 
ENDBRANCH  31  32
ENDBRANCH  30  31
ENDBRANCH  29  30
ENDBRANCH  28  29
ENDBRANCH  12  28
TORSDOF 8
ENDMDL
