MODEL 1
REMARK minimizedAffinity -10.4294567
REMARK CNNscore 0.932223141
REMARK CNNaffinity 7.65253019
REMARK  8 active torsions:
REMARK  status: ('A' for Active; 'I' for Inactive)
REMARK    1  A    between atoms: C4_4  and  C5_5 
REMARK    2  A    between atoms: C7_7  and  O1_8 
REMARK    3  A    between atoms: C13_19  and  N3_20 
REMARK    4  A    between atoms: N3_20  and  C14_21 
REMARK    5  A    between atoms: C18_25  and  S1_26 
REMARK    6  A    between atoms: S1_26  and  C19_27 
REMARK    7  A    between atoms: C19_27  and  C20_28 
REMARK    8  A    between atoms: C20_28  and  N4_29 
ROOT
HETATM    1  C1  UNL     1      -1.229  49.964 -21.539  1.00  0.00     0.050 C 
HETATM    2  C2  UNL     1      -0.532  51.142 -22.167  1.00  0.00    -0.032 A 
HETATM    3  C3  UNL     1      -0.502  51.260 -23.568  1.00  0.00     0.021 A 
HETATM    4  C4  UNL     1       0.148  52.333 -24.182  1.00  0.00    -0.021 A 
HETATM    5  C11 UNL     1       0.765  53.285 -23.362  1.00  0.00     0.045 A 
HETATM    6  C12 UNL     1       0.744  53.175 -21.976  1.00  0.00     0.077 A 
HETATM    7  N1  UNL     1       1.343  54.095 -21.215  1.00  0.00    -0.284 N 
ATOM      8  H1  UNL     1       1.821  54.887 -21.645  1.00  0.00     0.187 HD
HETATM    9  N2  UNL     1       1.311  53.965 -19.856  1.00  0.00    -0.131 N 
ATOM     10  H2  UNL     1       1.768  54.662 -19.269  1.00  0.00     0.205 HD
HETATM   11  C13 UNL     1       0.678  52.921 -19.285  1.00  0.00     0.697 A 
HETATM   12  N5  UNL     1       0.062  51.982 -20.016  1.00  0.00    -0.188 N 
ATOM     13  H5  UNL     1      -0.416  51.199 -19.569  1.00  0.00     0.184 HD
HETATM   14  C26 UNL     1       0.092  52.099 -21.357  1.00  0.00     0.083 A 
ENDROOT
BRANCH  11  15
HETATM   15  N3  UNL     1       0.703  52.879 -17.891  1.00  0.00    -0.190 N 
HETATM   16  H10 UNL     1      -0.194  53.172 -17.533  1.00  0.00     0.184 HD
BRANCH  15  17
HETATM   17  C14 UNL     1       1.675  52.534 -16.944  1.00  0.00     0.050 A 
HETATM   18  C15 UNL     1       3.045  52.749 -17.118  1.00  0.00     0.030 A 
HETATM   19  C16 UNL     1       3.967  52.386 -16.131  1.00  0.00     0.004 A 
HETATM   20  C17 UNL     1       3.531  51.788 -14.951  1.00  0.00     0.018 A 
HETATM   21  C18 UNL     1       2.172  51.547 -14.756  1.00  0.00     0.002 A 
HETATM   22  C25 UNL     1       1.257  51.933 -15.744  1.00  0.00     0.048 A 
BRANCH  21  23
HETATM   23  S1  UNL     1       1.573  50.791 -13.256  1.00  0.00    -0.128 SA
BRANCH  23  24
HETATM   24  C19 UNL     1       1.521  52.246 -12.150  1.00  0.00     0.109 C 
BRANCH  24  25
HETATM   25  C20 UNL     1       2.783  52.501 -11.300  1.00  0.00     0.283 C 
BRANCH  25  26
HETATM   26  N4  UNL     1       3.276  53.859 -11.074  1.00  0.00     0.089 N 
HETATM   27  C21 UNL     1       2.283  54.858 -10.704  1.00  0.00     0.272 C 
HETATM   28  C22 UNL     1       3.140  56.074 -10.377  1.00  0.00     0.032 C 
HETATM   29  C23 UNL     1       4.515  55.514 -10.021  1.00  0.00     0.032 C 
HETATM   30  C24 UNL     1       4.363  54.001 -10.116  1.00  0.00     0.272 C 
ENDBRANCH  25  26
ENDBRANCH  24  25
ENDBRANCH  23  24
ENDBRANCH  21  23
ENDBRANCH  15  17
ENDBRANCH  11  15
BRANCH   4  31
HETATM   31  C5  UNL     1       0.176  52.463 -25.645  1.00  0.00    -0.001 A 
HETATM   32  C6  UNL     1      -0.837  53.206 -26.284  1.00  0.00     0.050 A 
HETATM   33  C7  UNL     1      -0.838  53.353 -27.669  1.00  0.00     0.066 A 
HETATM   34  C8  UNL     1       0.153  52.770 -28.448  1.00  0.00     0.038 A 
HETATM   35  C9  UNL     1       1.164  52.030 -27.836  1.00  0.00     0.027 A 
HETATM   36  C10 UNL     1       1.178  51.877 -26.445  1.00  0.00     0.045 A 
HETATM   37 CL1  UNL     1       2.457  50.935 -25.758  1.00  0.00    -0.083 Cl
BRANCH  33  38
HETATM   38  O1  UNL     1      -1.803  54.072 -28.308  1.00  0.00    -0.361 OA
HETATM   39  H6  UNL     1      -2.408  54.452 -27.648  1.00  0.00     0.217 HD
ENDBRANCH  33  38
ENDBRANCH   4  31
TORSDOF 8
ENDMDL
