MODEL 1
REMARK minimizedAffinity -10.4710608
REMARK CNNscore 0.906708062
REMARK CNNaffinity 7.56148291
REMARK  8 active torsions:
REMARK  status: ('A' for Active; 'I' for Inactive)
REMARK    1  A    between atoms: C4_4  and  C5_5 
REMARK    2  A    between atoms: C7_7  and  O1_8 
REMARK    3  A    between atoms: C13_19  and  N3_20 
REMARK    4  A    between atoms: N3_20  and  C14_21 
REMARK    5  A    between atoms: C18_25  and  O2_26 
REMARK    6  A    between atoms: O2_26  and  C19_27 
REMARK    7  A    between atoms: C19_27  and  C20_28 
REMARK    8  A    between atoms: C20_28  and  N4_29 
ROOT
HETATM    1  C1  UNL     1      -1.373  50.130 -21.590  1.00  0.00     0.050 C 
HETATM    2  C2  UNL     1      -0.601  51.254 -22.229  1.00  0.00    -0.032 A 
HETATM    3  C3  UNL     1      -0.556  51.351 -23.630  1.00  0.00     0.021 A 
HETATM    4  C4  UNL     1       0.157  52.378 -24.254  1.00  0.00    -0.021 A 
HETATM    5  C11 UNL     1       0.815  53.308 -23.441  1.00  0.00     0.045 A 
HETATM    6  C12 UNL     1       0.777  53.221 -22.054  1.00  0.00     0.077 A 
HETATM    7  N1  UNL     1       1.416  54.121 -21.299  1.00  0.00    -0.284 N 
ATOM      8  H1  UNL     1       1.936  54.883 -21.734  1.00  0.00     0.187 HD
HETATM    9  N2  UNL     1       1.365  54.010 -19.938  1.00  0.00    -0.131 N 
ATOM     10  H2  UNL     1       1.851  54.692 -19.356  1.00  0.00     0.205 HD
HETATM   11  C13 UNL     1       0.676  53.005 -19.360  1.00  0.00     0.697 A 
HETATM   12  N5  UNL     1       0.021  52.089 -20.084  1.00  0.00    -0.188 N 
ATOM     13  H5  UNL     1      -0.499  51.337 -19.631  1.00  0.00     0.184 HD
HETATM   14  C26 UNL     1       0.067  52.187 -21.426  1.00  0.00     0.083 A 
ENDROOT
BRANCH  11  15
HETATM   15  N3  UNL     1       0.689  52.977 -17.965  1.00  0.00    -0.190 N 
HETATM   16  H10 UNL     1      -0.187  53.336 -17.614  1.00  0.00     0.184 HD
BRANCH  15  17
HETATM   17  C14 UNL     1       1.634  52.587 -17.009  1.00  0.00     0.051 A 
HETATM   18  C15 UNL     1       3.009  52.788 -17.139  1.00  0.00     0.030 A 
HETATM   19  C16 UNL     1       3.898  52.372 -16.143  1.00  0.00     0.005 A 
HETATM   20  C17 UNL     1       3.426  51.743 -14.992  1.00  0.00     0.037 A 
HETATM   21  C18 UNL     1       2.060  51.528 -14.835  1.00  0.00     0.070 A 
HETATM   22  C25 UNL     1       1.180  51.949 -15.841  1.00  0.00     0.066 A 
BRANCH  21  23
HETATM   23  O2  UNL     1       1.456  50.926 -13.764  1.00  0.00    -0.349 OA
BRANCH  23  24
HETATM   24  C19 UNL     1       0.270  51.545 -13.257  1.00  0.00     0.206 C 
BRANCH  24  25
HETATM   25  C20 UNL     1       0.658  52.371 -12.020  1.00  0.00     0.299 C 
BRANCH  25  26
HETATM   26  N4  UNL     1      -0.349  53.373 -11.648  1.00  0.00     0.090 N 
HETATM   27  C21 UNL     1       0.203  54.497 -10.887  1.00  0.00     0.272 C 
HETATM   28  C22 UNL     1      -1.028  55.136 -10.257  1.00  0.00     0.032 C 
HETATM   29  C23 UNL     1      -2.086  54.040 -10.240  1.00  0.00     0.032 C 
HETATM   30  C24 UNL     1      -1.382  52.805 -10.778  1.00  0.00     0.272 C 
ENDBRANCH  25  26
ENDBRANCH  24  25
ENDBRANCH  23  24
ENDBRANCH  21  23
ENDBRANCH  15  17
ENDBRANCH  11  15
BRANCH   4  31
HETATM   31  C5  UNL     1       0.203  52.484 -25.719  1.00  0.00    -0.001 A 
HETATM   32  C6  UNL     1      -0.796  53.221 -26.382  1.00  0.00     0.050 A 
HETATM   33  C7  UNL     1      -0.787  53.347 -27.769  1.00  0.00     0.066 A 
HETATM   34  C8  UNL     1       0.206  52.749 -28.534  1.00  0.00     0.038 A 
HETATM   35  C9  UNL     1       1.204  52.011 -27.897  1.00  0.00     0.027 A 
HETATM   36  C10 UNL     1       1.204  51.878 -26.502  1.00  0.00     0.045 A 
HETATM   37 CL1  UNL     1       2.465  50.926 -25.795  1.00  0.00    -0.083 Cl
BRANCH  33  38
HETATM   38  O1  UNL     1      -1.784  54.075 -28.344  1.00  0.00    -0.361 OA
HETATM   39  H6  UNL     1      -1.646  54.099 -29.306  1.00  0.00     0.217 HD
ENDBRANCH  33  38
ENDBRANCH   4  31
TORSDOF 8
ENDMDL
