MODEL 1
REMARK minimizedAffinity -9.59805584
REMARK CNNscore 0.83085382
REMARK CNNaffinity 7.22224188
REMARK  4 active torsions:
REMARK  status: ('A' for Active; 'I' for Inactive)
REMARK    1  A    between atoms: O1_2  and  C2_3 
REMARK    2  A    between atoms: C6_7  and  N1_8 
REMARK    3  A    between atoms: N1_8  and  C7_9 
REMARK    4  A    between atoms: C10_16  and  C11_17 
ROOT
HETATM    1  C7  UNL     1       0.766  52.955 -19.131  1.00  0.00     0.697 A 
HETATM    2  N2  UNL     1       1.295  53.954 -19.858  1.00  0.00    -0.131 N 
ATOM      3  H2  UNL     1       1.779  54.721 -19.390  1.00  0.00     0.205 HD
HETATM    4  N3  UNL     1       1.190  53.950 -21.220  1.00  0.00    -0.284 N 
ATOM      5  H3  UNL     1       1.593  54.709 -21.770  1.00  0.00     0.187 HD
HETATM    6  C8  UNL     1       0.554  52.942 -21.824  1.00  0.00     0.077 A 
HETATM    7  C9  UNL     1       0.433  52.915 -23.210  1.00  0.00     0.045 A 
HETATM    8  C10 UNL     1      -0.228  51.873 -23.868  1.00  0.00    -0.020 A 
HETATM    9  C17 UNL     1      -0.770  50.845 -23.092  1.00  0.00     0.021 A 
HETATM   10  C18 UNL     1      -0.653  50.862 -21.691  1.00  0.00    -0.032 A 
HETATM   11  C19 UNL     1      -1.248  49.738 -20.886  1.00  0.00     0.050 C 
HETATM   12  C20 UNL     1       0.011  51.912 -21.043  1.00  0.00     0.083 A 
HETATM   13  N4  UNL     1       0.121  51.924 -19.700  1.00  0.00    -0.188 N 
ATOM     14  H4  UNL     1      -0.273  51.173 -19.133  1.00  0.00     0.184 HD
ENDROOT
BRANCH   1  15
HETATM   15  N1  UNL     1       0.840  52.906 -17.740  1.00  0.00    -0.190 N 
HETATM   16  H7  UNL     1      -0.008  53.293 -17.353  1.00  0.00     0.184 HD
BRANCH  15  17
HETATM   17  C6  UNL     1       1.797  52.438 -16.832  1.00  0.00     0.051 A 
HETATM   18  C5  UNL     1       3.106  52.941 -16.928  1.00  0.00     0.030 A 
HETATM   19  C4  UNL     1       4.112  52.516 -16.058  1.00  0.00     0.005 A 
HETATM   20  C3  UNL     1       3.822  51.577 -15.075  1.00  0.00     0.037 A 
HETATM   21  C2  UNL     1       2.533  51.058 -14.955  1.00  0.00     0.070 A 
HETATM   22  C21 UNL     1       1.532  51.489 -15.834  1.00  0.00     0.066 A 
BRANCH  21  23
HETATM   23  O1  UNL     1       2.381  50.141 -13.949  1.00  0.00    -0.356 OA
HETATM   24  C1  UNL     1       3.568  49.542 -13.442  1.00  0.00     0.210 C 
ENDBRANCH  21  23
ENDBRANCH  15  17
ENDBRANCH   1  15
BRANCH   8  25
HETATM   25  C11 UNL     1      -0.348  51.859 -25.335  1.00  0.00     0.018 A 
HETATM   26  C12 UNL     1       0.765  51.594 -26.161  1.00  0.00     0.046 A 
HETATM   27 CL1  UNL     1       2.330  51.258 -25.497  1.00  0.00    -0.083 Cl
HETATM   28  C13 UNL     1       0.651  51.584 -27.556  1.00  0.00     0.025 A 
HETATM   29  C14 UNL     1      -0.577  51.839 -28.161  1.00  0.00     0.003 A 
HETATM   30  C15 UNL     1      -1.691  52.103 -27.369  1.00  0.00     0.025 A 
HETATM   31  C16 UNL     1      -1.579  52.114 -25.974  1.00  0.00     0.046 A 
HETATM   32 CL2  UNL     1      -3.020  52.450 -25.071  1.00  0.00    -0.083 Cl
ENDBRANCH   8  25
TORSDOF 4
ENDMDL
