MODEL 1
REMARK minimizedAffinity -7.37397528
REMARK CNNscore 0.756590247
REMARK CNNaffinity 6.87167931
REMARK  5 active torsions:
REMARK  status: ('A' for Active; 'I' for Inactive)
REMARK    1  A    between atoms: O1_1  and  C1_2 
REMARK    2  A    between atoms: C5_6  and  N1_7 
REMARK    3  A    between atoms: N1_7  and  C6_8 
REMARK    4  A    between atoms: C7_11  and  C8_12 
REMARK    5  A    between atoms: C9_13  and  C10_14 
ROOT
HETATM    1  C6  UNL     1      13.629  56.884   3.817  1.00  0.00     0.119 A 
HETATM    2  N2  UNL     1      13.497  57.817   4.775  1.00  0.00    -0.328 N 
ATOM      3  H2  UNL     1      13.571  57.576   5.763  1.00  0.00     0.169 HD
HETATM    4  C7  UNL     1      13.263  59.076   4.382  1.00  0.00     0.107 A 
HETATM    5  N3  UNL     1      13.151  59.484   3.112  1.00  0.00    -0.342 N 
ATOM      6  H3  UNL     1      12.967  60.460   2.881  1.00  0.00     0.167 HD
HETATM    7  C17 UNL     1      13.293  58.556   2.162  1.00  0.00     0.047 A 
HETATM    8  C18 UNL     1      13.186  58.949   0.833  1.00  0.00     0.030 A 
HETATM    9  C19 UNL     1      13.331  58.043  -0.220  1.00  0.00     0.002 A 
HETATM   10  C20 UNL     1      13.598  56.708   0.051  1.00  0.00     0.001 A 
HETATM   11  C21 UNL     1      13.710  56.289   1.377  1.00  0.00     0.017 A 
HETATM   12  C22 UNL     1      13.547  57.207   2.448  1.00  0.00     0.035 A 
ENDROOT
BRANCH   4  13
HETATM   13  C8  UNL     1      13.125  60.112   5.406  1.00  0.00     0.049 C 
HETATM   14  C9  UNL     1      13.139  59.879   6.728  1.00  0.00     0.016 C 
BRANCH  14  15
HETATM   15  C10 UNL     1      12.991  60.954   7.721  1.00  0.00    -0.016 A 
HETATM   16  C11 UNL     1      14.032  61.889   7.860  1.00  0.00     0.052 A 
HETATM   17  C12 UNL     1      13.899  62.885   8.805  1.00  0.00     0.105 A 
HETATM   18  C13 UNL     1      12.783  62.983   9.602  1.00  0.00     0.106 A 
HETATM   19  O3  UNL     1      14.811  63.859   9.065  1.00  0.00    -0.323 OA
HETATM   20  C14 UNL     1      11.741  62.087   9.507  1.00  0.00     0.059 A 
HETATM   21  O2  UNL     1      12.854  64.034  10.462  1.00  0.00    -0.323 OA
HETATM   22  C15 UNL     1      11.851  61.061   8.558  1.00  0.00     0.024 A 
HETATM   23 BR1  UNL     1      10.399  59.836   8.442  1.00  0.00    -0.050 Br
HETATM   24  C16 UNL     1      14.143  64.585  10.118  1.00  0.00     0.352 A 
ENDBRANCH  14  15
ENDBRANCH   4  13
BRANCH   1  25
HETATM   25  N1  UNL     1      13.837  55.526   4.191  1.00  0.00    -0.342 N 
HETATM   26  H5  UNL     1      13.114  55.263   4.853  1.00  0.00     0.167 HD
BRANCH  25  27
HETATM   27  C5  UNL     1      15.061  54.876   4.477  1.00  0.00     0.036 A 
HETATM   28  C4  UNL     1      16.304  55.411   4.111  1.00  0.00     0.029 A 
HETATM   29  C3  UNL     1      17.493  54.713   4.351  1.00  0.00     0.005 A 
HETATM   30  C2  UNL     1      17.452  53.454   4.942  1.00  0.00     0.036 A 
HETATM   31  C1  UNL     1      16.225  52.896   5.272  1.00  0.00     0.067 A 
HETATM   32  C23 UNL     1      15.035  53.586   5.034  1.00  0.00     0.066 A 
BRANCH  31  33
HETATM   33  O1  UNL     1      16.225  51.650   5.831  1.00  0.00    -0.361 OA
HETATM   34  H1  UNL     1      15.308  51.386   6.006  1.00  0.00     0.217 HD
ENDBRANCH  31  33
ENDBRANCH  25  27
ENDBRANCH   1  25
TORSDOF 5
ENDMDL
