MODEL 1
REMARK minimizedAffinity -9.21073627
REMARK CNNscore 0.832227826
REMARK CNNaffinity 7.55202818
REMARK  8 active torsions:
REMARK  status: ('A' for Active; 'I' for Inactive)
REMARK    1  A    between atoms: C8_8  and  C9_9 
REMARK    2  A    between atoms: C14_16  and  N2_17 
REMARK    3  A    between atoms: N2_17  and  C15_18 
REMARK    4  A    between atoms: C19_22  and  C20_23 
REMARK       I    between atoms: C20_23  and  N3_25 
REMARK    5  A    between atoms: N3_25  and  C21_26 
REMARK    6  A    between atoms: C21_26  and  C22_27 
REMARK    7  A    between atoms: C22_27  and  C23_28 
REMARK    8  A    between atoms: C23_28  and  N4_29 
ROOT
HETATM    1  C9  UNL     1      -0.323  51.850 -23.862  1.00  0.00    -0.022 A 
HETATM    2  C10 UNL     1      -0.822  50.780 -23.115  1.00  0.00     0.021 A 
HETATM    3  C11 UNL     1      -0.705  50.762 -21.716  1.00  0.00    -0.032 A 
HETATM    4  C12 UNL     1      -1.253  49.593 -20.942  1.00  0.00     0.050 C 
HETATM    5  C13 UNL     1      -0.084  51.820 -21.039  1.00  0.00     0.083 A 
HETATM    6  N1  UNL     1       0.027  51.799 -19.697  1.00  0.00    -0.188 N 
ATOM      7  H1  UNL     1      -0.341  51.018 -19.152  1.00  0.00     0.184 HD
HETATM    8  C14 UNL     1       0.635  52.831 -19.097  1.00  0.00     0.697 A 
HETATM    9  N5  UNL     1       1.122  53.876 -19.796  1.00  0.00    -0.131 N 
ATOM     10  H5  UNL     1       1.577  54.647 -19.307  1.00  0.00     0.205 HD
HETATM   11  N6  UNL     1       1.011  53.908 -21.157  1.00  0.00    -0.284 N 
ATOM     12  H6  UNL     1       1.379  54.700 -21.685  1.00  0.00     0.187 HD
HETATM   13  C27 UNL     1       0.416  52.894 -21.791  1.00  0.00     0.077 A 
HETATM   14  C28 UNL     1       0.294  52.901 -23.176  1.00  0.00     0.045 A 
ENDROOT
BRANCH   8  15
HETATM   15  N2  UNL     1       0.807  52.886 -17.714  1.00  0.00    -0.190 N 
HETATM   16  H14 UNL     1      -0.019  53.286 -17.290  1.00  0.00     0.184 HD
BRANCH  15  17
HETATM   17  C15 UNL     1       1.862  52.570 -16.851  1.00  0.00     0.050 A 
HETATM   18  C16 UNL     1       3.210  52.585 -17.225  1.00  0.00     0.030 A 
HETATM   19  C17 UNL     1       4.223  52.270 -16.312  1.00  0.00     0.003 A 
HETATM   20  C18 UNL     1       3.904  51.922 -15.001  1.00  0.00     0.017 A 
HETATM   21  C19 UNL     1       2.565  51.881 -14.607  1.00  0.00     0.034 A 
HETATM   22  C26 UNL     1       1.559  52.213 -15.527  1.00  0.00     0.047 A 
BRANCH  21  23
HETATM   23  C20 UNL     1       2.160  51.522 -13.220  1.00  0.00     0.251 C 
HETATM   24  O1  UNL     1       1.711  50.407 -12.982  1.00  0.00    -0.268 OA
HETATM   25  N3  UNL     1       2.355  52.493 -12.256  1.00  0.00    -0.357 N 
HETATM   26  H18 UNL     1       3.002  53.238 -12.473  1.00  0.00     0.162 HD
BRANCH  25  27
HETATM   27  C21 UNL     1       2.156  52.186 -10.849  1.00  0.00     0.124 C 
BRANCH  27  28
HETATM   28  C22 UNL     1       3.399  52.533 -10.036  1.00  0.00     0.050 C 
BRANCH  28  29
HETATM   29  C23 UNL     1       3.420  54.000  -9.590  1.00  0.00     0.273 C 
BRANCH  29  30
HETATM   30  N4  UNL     1       4.207  54.882 -10.467  1.00  0.00     0.080 N 
HETATM   31  C24 UNL     1       3.513  56.139 -10.751  1.00  0.00     0.309 C 
HETATM   32  C25 UNL     1       5.509  55.166  -9.856  1.00  0.00     0.309 C 
ENDBRANCH  29  30
ENDBRANCH  28  29
ENDBRANCH  27  28
ENDBRANCH  25  27
ENDBRANCH  21  23
ENDBRANCH  15  17
ENDBRANCH   8  15
BRANCH   1  33
HETATM   33  C8  UNL     1      -0.440  51.872 -25.329  1.00  0.00    -0.014 A 
HETATM   34  C2  UNL     1       0.696  51.644 -26.146  1.00  0.00    -0.050 A 
HETATM   35  C1  UNL     1       2.055  51.376 -25.552  1.00  0.00     0.049 C 
HETATM   36  C3  UNL     1       0.566  51.671 -27.544  1.00  0.00     0.007 A 
HETATM   37  C4  UNL     1      -0.666  51.916 -28.139  1.00  0.00     0.001 A 
HETATM   38  C5  UNL     1      -1.788  52.139 -27.347  1.00  0.00     0.007 A 
HETATM   39  C6  UNL     1      -1.693  52.120 -25.947  1.00  0.00    -0.050 A 
HETATM   40  C7  UNL     1      -2.939  52.367 -25.135  1.00  0.00     0.049 C 
ENDBRANCH   1  33
TORSDOF 8
ENDMDL
