MODEL 1
REMARK minimizedAffinity -7.6369586
REMARK CNNscore 0.414602578
REMARK CNNaffinity 7.33781433
REMARK  10 active torsions:
REMARK  status: ('A' for Active; 'I' for Inactive)
REMARK    1  A    between atoms: O1_2  and  C2_3 
REMARK    2  A    between atoms: C5_9  and  N2_10 
REMARK    3  A    between atoms: N2_10  and  C6_11 
REMARK    4  A    between atoms: C10_19  and  O2_20 
REMARK    5  A    between atoms: O2_20  and  C11_21 
REMARK    6  A    between atoms: C11_21  and  C12_22 
REMARK    7  A    between atoms: C12_22  and  C13_23 
REMARK    8  A    between atoms: C13_23  and  N5_24 
REMARK    9  A    between atoms: C19_31  and  O4_32 
REMARK   10  A    between atoms: O4_32  and  C20_33 
ROOT
HETATM    1  C6  UNL     1      -0.358  52.088 -23.887  1.00  0.00     0.122 A 
HETATM    2  N3  UNL     1       0.940  52.315 -24.167  1.00  0.00    -0.338 N 
ATOM      3  H3  UNL     1       1.556  52.783 -23.502  1.00  0.00     0.168 HD
HETATM    4  C7  UNL     1       1.382  51.901 -25.353  1.00  0.00     0.182 A 
HETATM    5  N4  UNL     1       0.658  51.279 -26.285  1.00  0.00    -0.351 N 
ATOM      6  H4  UNL     1       1.065  50.997 -27.176  1.00  0.00     0.166 HD
HETATM    7  C8  UNL     1      -0.625  51.042 -25.999  1.00  0.00     0.052 A 
HETATM    8  C9  UNL     1      -1.396  50.427 -26.975  1.00  0.00     0.067 A 
HETATM    9  C10 UNL     1      -2.754  50.159 -26.800  1.00  0.00     0.073 A 
HETATM   10  C18 UNL     1      -3.351  50.470 -25.589  1.00  0.00     0.074 A 
HETATM   11  C19 UNL     1      -2.586  51.055 -24.572  1.00  0.00     0.088 A 
HETATM   12  C25 UNL     1      -1.217  51.398 -24.779  1.00  0.00     0.068 A 
ENDROOT
BRANCH   1  13
HETATM   13  N2  UNL     1      -0.874  52.560 -22.652  1.00  0.00    -0.339 N 
HETATM   14  H5  UNL     1      -1.372  53.435 -22.821  1.00  0.00     0.167 HD
BRANCH  13  15
HETATM   15  C5  UNL     1      -0.223  52.573 -21.395  1.00  0.00     0.075 A 
HETATM   16  C4  UNL     1       0.735  53.545 -21.068  1.00  0.00     0.130 A 
HETATM   17  N1  UNL     1       1.384  53.639 -19.888  1.00  0.00    -0.352 N 
HETATM   18 CL1  UNL     1       1.208  54.753 -22.205  1.00  0.00    -0.062 Cl
HETATM   19  C3  UNL     1       1.060  52.706 -18.966  1.00  0.00     0.126 A 
ATOM     20  H1  UNL     1       2.074  54.368 -19.705  1.00  0.00     0.166 HD
HETATM   21  C2  UNL     1       0.120  51.697 -19.158  1.00  0.00     0.085 A 
HETATM   22  C26 UNL     1      -0.526  51.642 -20.392  1.00  0.00     0.071 A 
BRANCH  21  23
HETATM   23  O1  UNL     1      -0.073  50.854 -18.103  1.00  0.00    -0.355 OA
HETATM   24  C1  UNL     1      -0.789  49.653 -18.365  1.00  0.00     0.210 C 
ENDBRANCH  21  23
ENDBRANCH  13  15
ENDBRANCH   1  13
BRANCH  11  25
HETATM   25  O4  UNL     1      -3.183  51.370 -23.370  1.00  0.00    -0.345 OA
BRANCH  25  26
HETATM   26  C20 UNL     1      -4.261  50.477 -23.011  1.00  0.00     0.133 C 
HETATM   27  C21 UNL     1      -5.031  51.091 -21.840  1.00  0.00     0.058 C 
HETATM   28  C22 UNL     1      -4.207  51.045 -20.562  1.00  0.00     0.170 C 
HETATM   29  O5  UNL     1      -3.825  49.703 -20.272  1.00  0.00    -0.391 OA
HETATM   30  C23 UNL     1      -2.964  49.171 -21.278  1.00  0.00     0.170 C 
HETATM   31  C24 UNL     1      -3.675  49.117 -22.622  1.00  0.00     0.058 C 
ENDBRANCH  25  26
ENDBRANCH  11  25
BRANCH   9  32
HETATM   32  O2  UNL     1      -3.369  49.586 -27.876  1.00  0.00    -0.351 OA
BRANCH  32  33
HETATM   33  C11 UNL     1      -4.266  48.503 -27.622  1.00  0.00     0.177 C 
BRANCH  33  34
HETATM   34  C12 UNL     1      -5.102  48.245 -28.879  1.00  0.00     0.057 C 
BRANCH  34  35
HETATM   35  C13 UNL     1      -6.173  47.156 -28.692  1.00  0.00     0.274 C 
BRANCH  35  36
HETATM   36  N5  UNL     1      -7.372  47.311 -29.522  1.00  0.00     0.092 N 
HETATM   37  C14 UNL     1      -8.182  48.479 -29.107  1.00  0.00     0.298 C 
HETATM   38  C15 UNL     1      -8.981  48.257 -27.812  1.00  0.00     0.198 C 
HETATM   39  O3  UNL     1      -9.825  47.103 -27.909  1.00  0.00    -0.388 OA
HETATM   40  C16 UNL     1      -9.054  45.936 -28.222  1.00  0.00     0.198 C 
HETATM   41  C17 UNL     1      -8.251  46.121 -29.522  1.00  0.00     0.298 C 
ENDBRANCH  35  36
ENDBRANCH  34  35
ENDBRANCH  33  34
ENDBRANCH  32  33
ENDBRANCH   9  32
TORSDOF 10
ENDMDL
