MODEL 1
REMARK minimizedAffinity -9.95698929
REMARK CNNscore 0.240701318
REMARK CNNaffinity 7.06943941
REMARK  5 active torsions:
REMARK  status: ('A' for Active; 'I' for Inactive)
REMARK    1  A    between atoms: C3_3  and  C4_4 
REMARK    2  A    between atoms: C6_6  and  N1_7 
REMARK    3  A    between atoms: N1_7  and  C7_8 
REMARK    4  A    between atoms: C18_28  and  N7_29 
REMARK       I    between atoms: N7_29  and  C19_30 
REMARK    5  A    between atoms: C19_30  and  C20_32 
ROOT
HETATM    1  C4  UNL     1      -5.055   5.783  13.268  1.00  0.00     0.061 A 
HETATM    2  C5  UNL     1      -6.385   6.129  13.807  1.00  0.00     0.067 A 
HETATM    3  C6  UNL     1      -7.327   5.177  13.900  1.00  0.00     0.106 A 
HETATM    4  C14 UNL     1      -6.961   3.806  13.366  1.00  0.00     0.286 A 
HETATM    5  O1  UNL     1      -7.738   2.855  13.325  1.00  0.00    -0.264 OA
HETATM    6  N5  UNL     1      -5.682   3.656  12.884  1.00  0.00    -0.264 N 
HETATM    7  N6  UNL     1      -4.719   4.616  12.822  1.00  0.00    -0.297 N 
ATOM      8  H6  UNL     1      -3.790   4.427  12.448  1.00  0.00     0.187 HD
HETATM    9  H16 UNL     1      -5.434   2.740  12.528  1.00  0.00     0.190 HD
ENDROOT
BRANCH   1  10
HETATM   10  C3  UNL     1      -4.061   6.880  13.244  1.00  0.00     0.000 A 
HETATM   11  C2  UNL     1      -2.708   6.646  12.895  1.00  0.00    -0.020 A 
HETATM   12  C1  UNL     1      -2.261   5.268  12.471  1.00  0.00     0.052 C 
HETATM   13  C18 UNL     1      -1.792   7.725  12.970  1.00  0.00     0.081 A 
HETATM   14  C17 UNL     1      -2.261   8.982  13.396  1.00  0.00     0.143 A 
HETATM   15  C16 UNL     1      -3.602   9.197  13.707  1.00  0.00     0.045 A 
HETATM   16  F1  UNL     1      -1.429  10.006  13.627  1.00  0.00    -0.204 F 
HETATM   17  C15 UNL     1      -4.507   8.149  13.634  1.00  0.00     0.017 A 
BRANCH  13  18
HETATM   18  N7  UNL     1      -0.429   7.477  12.667  1.00  0.00    -0.319 N 
HETATM   19  C19 UNL     1       0.292   7.897  11.560  1.00  0.00     0.263 C 
HETATM   20  O2  UNL     1      -0.195   8.449  10.580  1.00  0.00    -0.267 OA
HETATM   21  H19 UNL     1       0.074   6.845  13.273  1.00  0.00     0.169 HD
BRANCH  19  22
HETATM   22  C20 UNL     1       1.720   7.581  11.610  1.00  0.00     0.074 A 
HETATM   23  C21 UNL     1       2.627   8.046  12.540  1.00  0.00     0.037 A 
HETATM   24  C22 UNL     1       3.958   7.552  12.343  1.00  0.00    -0.018 A 
HETATM   25  C23 UNL     1       5.145   7.778  13.081  1.00  0.00     0.013 A 
HETATM   26  C27 UNL     1       4.025   6.720  11.224  1.00  0.00     0.016 A 
HETATM   27  C24 UNL     1       6.345   7.176  12.692  1.00  0.00     0.001 A 
HETATM   28  C25 UNL     1       6.387   6.359  11.572  1.00  0.00     0.001 A 
HETATM   29  C26 UNL     1       5.233   6.122  10.821  1.00  0.00     0.019 A 
HETATM   30  S1  UNL     1       2.485   6.559  10.471  1.00  0.00    -0.084 SA
ENDBRANCH  19  22
ENDBRANCH  13  18
ENDBRANCH   1  10
BRANCH   3  31
HETATM   31  N1  UNL     1      -8.602   5.465  14.368  1.00  0.00    -0.337 N 
HETATM   32  H5  UNL     1      -9.017   4.715  14.907  1.00  0.00     0.167 HD
BRANCH  31  33
HETATM   33  C7  UNL     1      -9.378   6.566  14.309  1.00  0.00     0.122 A 
HETATM   34  C8  UNL     1      -9.257   7.739  15.094  1.00  0.00     0.078 A 
HETATM   35  C9  UNL     1     -10.249   8.584  14.643  1.00  0.00     0.060 A 
HETATM   36  N2  UNL     1     -10.857   7.909  13.629  1.00  0.00    -0.291 N 
HETATM   37  C13 UNL     1     -10.722   9.924  15.073  1.00  0.00     0.330 C 
HETATM   38  N3  UNL     1     -10.325   6.702  13.375  1.00  0.00    -0.283 N 
HETATM   39  C10 UNL     1     -11.957   8.428  12.843  1.00  0.00     0.179 C 
ATOM     40  H3  UNL     1     -10.583   6.043  12.639  1.00  0.00     0.189 HD
HETATM   41  C11 UNL     1     -12.581   9.645  13.533  1.00  0.00     0.294 C 
HETATM   42  N4  UNL     1     -11.546  10.569  14.029  1.00  0.00     0.091 N 
HETATM   43  C12 UNL     1     -12.144  11.797  14.549  1.00  0.00     0.310 C 
ENDBRANCH  31  33
ENDBRANCH   3  31
TORSDOF 5
ENDMDL
