MODEL 1
REMARK minimizedAffinity -7.03722954
REMARK CNNscore 0.74723953
REMARK CNNaffinity 7.61458349
REMARK  7 active torsions:
REMARK  status: ('A' for Active; 'I' for Inactive)
REMARK    1  A    between atoms: O1_2  and  C2_3 
REMARK    2  A    between atoms: C2_3  and  C3_4 
REMARK    3  A    between atoms: C3_4  and  O2_5 
REMARK    4  A    between atoms: O2_5  and  C4_6 
REMARK    5  A    between atoms: C10_15  and  N3_16 
REMARK    6  A    between atoms: N3_16  and  C11_17 
REMARK    7  A    between atoms: C19_27  and  O3_28 
ROOT
HETATM    1  C4  UNL     1      -2.951  49.703 -24.459  1.00  0.00     0.104 A 
HETATM    2  C5  UNL     1      -1.780  50.393 -24.783  1.00  0.00     0.070 A 
HETATM    3  C6  UNL     1      -1.110  51.180 -23.856  1.00  0.00     0.047 A 
HETATM    4  N1  UNL     1       0.010  51.804 -24.249  1.00  0.00    -0.364 N 
ATOM      5  H1  UNL     1       0.351  51.712 -25.206  1.00  0.00     0.165 HD
HETATM    6  C7  UNL     1       0.676  52.558 -23.347  1.00  0.00     0.113 A 
HETATM    7  C8  UNL     1       0.278  52.730 -22.033  1.00  0.00     0.087 A 
HETATM    8  C9  UNL     1       1.117  53.496 -21.165  1.00  0.00     0.103 C 
HETATM    9  N2  UNL     1       1.818  54.103 -20.469  1.00  0.00    -0.191 NA
HETATM   10  C10 UNL     1      -0.911  52.110 -21.620  1.00  0.00     0.067 A 
HETATM   11  C17 UNL     1      -1.619  51.292 -22.547  1.00  0.00     0.022 A 
HETATM   12  C18 UNL     1      -2.813  50.606 -22.222  1.00  0.00     0.055 A 
HETATM   13  C19 UNL     1      -3.482  49.823 -23.165  1.00  0.00     0.102 A 
ENDROOT
BRANCH  10  14
HETATM   14  N3  UNL     1      -1.366  52.147 -20.263  1.00  0.00    -0.353 N 
HETATM   15  H10 UNL     1      -2.380  52.035 -20.259  1.00  0.00     0.166 HD
BRANCH  14  16
HETATM   16  C11 UNL     1      -0.769  51.510 -19.142  1.00  0.00     0.054 A 
HETATM   17  C12 UNL     1       0.007  52.300 -18.274  1.00  0.00     0.033 A 
HETATM   18  C13 UNL     1       0.630  51.746 -17.152  1.00  0.00     0.026 A 
HETATM   19  C14 UNL     1       0.499  50.387 -16.890  1.00  0.00     0.035 A 
HETATM   20 CL1  UNL     1       1.270  49.705 -15.512  1.00  0.00    -0.084 Cl
HETATM   21  C15 UNL     1      -0.236  49.573 -17.745  1.00  0.00     0.050 A 
HETATM   22  C16 UNL     1      -0.861  50.127 -18.869  1.00  0.00     0.062 A 
HETATM   23 CL2  UNL     1      -1.685  49.020 -19.915  1.00  0.00    -0.082 Cl
ENDBRANCH  14  16
ENDBRANCH  10  14
BRANCH  13  24
HETATM   24  O3  UNL     1      -4.641  49.131 -22.918  1.00  0.00    -0.353 OA
HETATM   25  C20 UNL     1      -4.751  48.451 -21.675  1.00  0.00     0.210 C 
ENDBRANCH  13  24
BRANCH   1  26
HETATM   26  O2  UNL     1      -3.663  48.914 -25.326  1.00  0.00    -0.346 OA
BRANCH  26  27
HETATM   27  C3  UNL     1      -3.064  48.504 -26.553  1.00  0.00     0.201 C 
BRANCH  27  28
HETATM   28  C2  UNL     1      -4.093  48.465 -27.684  1.00  0.00     0.193 C 
BRANCH  28  29
HETATM   29  O1  UNL     1      -3.870  49.493 -28.650  1.00  0.00    -0.394 OA
HETATM   30  C1  UNL     1      -3.104  50.577 -28.141  1.00  0.00     0.201 C 
ENDBRANCH  28  29
ENDBRANCH  27  28
ENDBRANCH  26  27
ENDBRANCH   1  26
TORSDOF 7
ENDMDL
