MODEL 1
REMARK minimizedAffinity -10.1891298
REMARK CNNscore 0.236191496
REMARK CNNaffinity 7.79595995
REMARK  6 active torsions:
REMARK  status: ('A' for Active; 'I' for Inactive)
REMARK    1  A    between atoms: C2_2  and  C3_3 
REMARK       I    between atoms: C3_3  and  N1_5 
REMARK    2  A    between atoms: C7_9  and  C8_10 
REMARK    3  A    between atoms: C13_17  and  C14_18 
REMARK       I    between atoms: C14_18  and  N3_20 
REMARK    4  A    between atoms: N3_20  and  C15_21 
REMARK    5  A    between atoms: C17_23  and  C18_24 
REMARK    6  A    between atoms: C24_36  and  N5_37 
ROOT
HETATM    1  C8  UNL     1      -4.099   4.419  12.391  1.00  0.00     0.094 A 
HETATM    2  N2  UNL     1      -4.773   5.294  13.116  1.00  0.00    -0.342 N 
ATOM      3  H2  UNL     1      -4.419   6.166  13.509  1.00  0.00     0.167 HD
HETATM    4  C9  UNL     1      -6.046   4.794  13.234  1.00  0.00     0.077 A 
HETATM    5  C10 UNL     1      -7.078   5.517  13.931  1.00  0.00     0.032 A 
HETATM    6  C11 UNL     1      -7.026   5.625  15.325  1.00  0.00     0.018 A 
HETATM    7  C12 UNL     1      -7.986   6.378  16.010  1.00  0.00     0.018 A 
HETATM    8  C13 UNL     1      -8.993   7.055  15.302  1.00  0.00     0.035 A 
HETATM    9  C21 UNL     1      -9.053   6.928  13.907  1.00  0.00     0.060 A 
HETATM   10  C22 UNL     1      -8.099   6.167  13.236  1.00  0.00     0.130 A 
HETATM   11  F4  UNL     1      -8.178   6.081  11.900  1.00  0.00    -0.205 F 
HETATM   12  C23 UNL     1      -6.137   3.553  12.647  1.00  0.00     0.106 A 
HETATM   13  C24 UNL     1      -7.167   2.553  12.499  1.00  0.00     0.107 A 
HETATM   14  N6  UNL     1      -6.905   1.433  11.865  1.00  0.00    -0.354 N 
ATOM     15  H6  UNL     1      -7.625   0.717  11.761  1.00  0.00     0.166 HD
HETATM   16  C25 UNL     1      -5.645   1.237  11.342  1.00  0.00     0.107 A 
HETATM   17  C26 UNL     1      -4.644   2.125  11.447  1.00  0.00     0.116 A 
HETATM   18  N7  UNL     1      -4.887   3.316  12.109  1.00  0.00    -0.305 N 
ENDROOT
BRANCH   1  19
HETATM   19  C7  UNL     1      -2.674   4.635  11.964  1.00  0.00     0.072 C 
HETATM   20  C6  UNL     1      -1.783   3.400  12.139  1.00  0.00     0.015 C 
HETATM   21  C5  UNL     1      -0.341   3.646  11.678  1.00  0.00     0.021 C 
HETATM   22  C4  UNL     1      -0.028   5.115  11.400  1.00  0.00     0.126 C 
HETATM   23  N1  UNL     1      -0.604   5.976  12.432  1.00  0.00    -0.351 N 
HETATM   24  C3  UNL     1       0.229   6.885  13.099  1.00  0.00     0.232 C 
HETATM   25  C27 UNL     1      -2.058   5.893  12.598  1.00  0.00     0.138 C 
HETATM   26  O1  UNL     1       1.453   6.870  12.894  1.00  0.00    -0.272 OA
BRANCH  24  27
HETATM   27  C2  UNL     1      -0.387   7.883  14.122  1.00  0.00     0.080 C 
HETATM   28  C1  UNL     1      -1.262   8.949  13.453  1.00  0.00     0.030 C 
HETATM   29  C28 UNL     1      -1.174   7.205  15.277  1.00  0.00     0.188 C 
HETATM   30  O3  UNL     1      -0.533   8.061  16.258  1.00  0.00    -0.389 OA
HETATM   31  C29 UNL     1       0.489   8.393  15.287  1.00  0.00     0.188 C 
ENDBRANCH  24  27
ENDBRANCH   1  19
BRANCH  13  32
HETATM   32  N5  UNL     1      -8.429   2.670  13.001  1.00  0.00    -0.287 NA
HETATM   33  H18 UNL     1      -8.529   3.188  13.864  1.00  0.00     0.125 HD
HETATM   34  H19 UNL     1      -8.918   1.782  13.001  1.00  0.00     0.125 HD
ENDBRANCH  13  32
BRANCH   8  35
HETATM   35  C14 UNL     1     -10.022   7.905  15.973  1.00  0.00     0.257 C 
HETATM   36  O2  UNL     1      -9.737   8.428  17.045  1.00  0.00    -0.267 OA
HETATM   37  N3  UNL     1     -11.234   7.995  15.333  1.00  0.00    -0.309 N 
HETATM   38  H13 UNL     1     -11.426   7.446  14.508  1.00  0.00     0.170 HD
BRANCH  37  39
HETATM   39  C15 UNL     1     -12.351   8.748  15.700  1.00  0.00     0.108 A 
HETATM   40  C16 UNL     1     -12.448  10.125  15.575  1.00  0.00     0.064 A 
HETATM   41  C17 UNL     1     -13.631  10.767  15.971  1.00  0.00     0.052 A 
HETATM   42  C19 UNL     1     -14.672   9.991  16.484  1.00  0.00     0.033 A 
HETATM   43  C20 UNL     1     -14.487   8.624  16.574  1.00  0.00     0.090 A 
HETATM   44  N4  UNL     1     -13.355   7.992  16.193  1.00  0.00    -0.352 N 
ATOM     45  H4  UNL     1     -13.263   6.980  16.275  1.00  0.00     0.166 HD
BRANCH  41  46
HETATM   46  C18 UNL     1     -13.748  12.265  15.868  1.00  0.00     0.417 C 
HETATM   47  F1  UNL     1     -14.503  12.651  14.804  1.00  0.00    -0.166 F 
HETATM   48  F2  UNL     1     -12.545  12.886  15.717  1.00  0.00    -0.166 F 
HETATM   49  F3  UNL     1     -14.320  12.830  16.965  1.00  0.00    -0.166 F 
ENDBRANCH  41  46
ENDBRANCH  37  39
ENDBRANCH   8  35
TORSDOF 6
ENDMDL
