MODEL 1
REMARK minimizedAffinity -5.5960927
REMARK CNNscore 0.498717546
REMARK CNNaffinity 4.91583109
REMARK  1 active torsions:
REMARK  status: ('A' for Active; 'I' for Inactive)
REMARK    1  A    between atoms: O1_2  and  C2_3 
ROOT
HETATM    1  C2  UNL     1     -15.770  49.165  -9.999  1.00  0.00     0.103 A 
HETATM    2  C3  UNL     1     -15.367  48.195 -10.929  1.00  0.00     0.070 A 
HETATM    3  C4  UNL     1     -14.344  47.282 -10.660  1.00  0.00     0.049 A 
HETATM    4  N1  UNL     1     -14.015  46.362 -11.575  1.00  0.00    -0.351 N 
ATOM      5  H1  UNL     1     -14.488  46.313 -12.478  1.00  0.00     0.166 HD
HETATM    6  C5  UNL     1     -13.032  45.507 -11.251  1.00  0.00     0.182 A 
HETATM    7  N2  UNL     1     -12.313  45.508 -10.121  1.00  0.00    -0.342 N 
ATOM      8  H2  UNL     1     -11.572  44.828  -9.948  1.00  0.00     0.167 HD
HETATM    9  C6  UNL     1     -12.631  46.462  -9.232  1.00  0.00     0.098 A 
HETATM   10  C7  UNL     1     -13.692  47.356  -9.429  1.00  0.00     0.032 A 
HETATM   11  C8  UNL     1     -14.129  48.283  -8.470  1.00  0.00     0.056 A 
HETATM   12  C9  UNL     1     -15.129  49.198  -8.760  1.00  0.00     0.103 A 
HETATM   13  O2  UNL     1     -15.487  50.043  -7.744  1.00  0.00    -0.348 OA
HETATM   14  C10 UNL     1     -14.982  51.368  -7.953  1.00  0.00     0.176 C 
HETATM   15  C11 UNL     1     -14.857  52.065  -6.594  1.00  0.00     0.027 C 
HETATM   16  C12 UNL     1     -13.516  51.863  -5.869  1.00  0.00     0.004 C 
HETATM   17  C13 UNL     1     -13.108  50.402  -5.664  1.00  0.00     0.019 C 
HETATM   18  C14 UNL     1     -11.890  50.266  -4.738  1.00  0.00     0.117 C 
HETATM   19  N3  UNL     1     -11.499  48.887  -4.427  1.00  0.00    -0.413 N 
HETATM   20  C15 UNL     1     -10.461  48.801  -3.412  1.00  0.00     0.143 C 
HETATM   21  C16 UNL     1     -11.349  47.922  -5.529  1.00  0.00     0.156 C 
HETATM   22  C17 UNL     1     -10.532  48.273  -6.766  1.00  0.00    -0.019 A 
HETATM   23  C18 UNL     1      -9.463  49.187  -6.718  1.00  0.00     0.012 A 
HETATM   24  C19 UNL     1      -8.722  49.514  -7.857  1.00  0.00     0.020 A 
HETATM   25  C20 UNL     1      -9.021  48.908  -9.068  1.00  0.00     0.012 A 
HETATM   26 BR1  UNL     1      -8.017  49.339 -10.609  1.00  0.00    -0.051 Br
HETATM   27  C21 UNL     1     -10.043  47.968  -9.146  1.00  0.00     0.043 A 
HETATM   28  C22 UNL     1     -10.807  47.641  -8.006  1.00  0.00     0.023 A 
HETATM   29  N4  UNL     1     -11.775  46.577  -8.095  1.00  0.00    -0.244 NA
HETATM   30  H25 UNL     1     -11.210  45.726  -8.188  1.00  0.00     0.135 HD
ENDROOT
BRANCH   1  31
HETATM   31  O1  UNL     1     -16.763  50.085 -10.197  1.00  0.00    -0.353 OA
HETATM   32  C1  UNL     1     -18.105  49.626 -10.113  1.00  0.00     0.210 C 
ENDBRANCH   1  31
TORSDOF 1
ENDMDL
