MODEL 1
REMARK minimizedAffinity -9.64328861
REMARK  6 active torsions:
REMARK  status: ('A' for Active; 'I' for Inactive)
REMARK    1  A    between atoms: C2_2  and  S1_3 
REMARK    2  A    between atoms: S1_3  and  C3_6 
REMARK    3  A    between atoms: C10_13  and  C11_14 
REMARK    4  A    between atoms: C14_18  and  C15_19 
REMARK    5  A    between atoms: C15_19  and  C16_20 
REMARK    6  A    between atoms: C16_20  and  C17_21 
REMARK       I    between atoms: C17_21  and  N2_22 
ROOT
HETATM    1  C11 UNL     1      -3.281   5.198  12.553  1.00  0.00     0.040 A 
HETATM    2  N1  UNL     1      -4.032   5.919  13.453  1.00  0.00    -0.359 N 
HETATM    3  C12 UNL     1      -5.255   5.332  13.605  1.00  0.00     0.016 A 
HETATM    4  C13 UNL     1      -5.319   4.227  12.787  1.00  0.00    -0.027 A 
HETATM    5  C14 UNL     1      -4.068   4.133  12.110  1.00  0.00    -0.023 A 
HETATM    6  C18 UNL     1      -6.529   3.353  12.733  1.00  0.00     0.041 C 
HETATM    7  C19 UNL     1      -7.759   4.078  13.312  1.00  0.00     0.005 C 
HETATM    8  C20 UNL     1      -7.438   4.785  14.642  1.00  0.00     0.006 C 
HETATM    9  C21 UNL     1      -6.339   5.852  14.482  1.00  0.00     0.057 C 
HETATM   10  H10 UNL     1      -3.720   6.747  13.954  1.00  0.00     0.166 HD
ENDROOT
BRANCH   1  11
HETATM   11  C10 UNL     1      -1.950   5.564  12.209  1.00  0.00     0.048 C 
HETATM   12  C9  UNL     1      -1.037   6.249  12.915  1.00  0.00     0.047 A 
HETATM   13  C7  UNL     1       0.350   6.430  12.448  1.00  0.00     0.008 A 
HETATM   14  C22 UNL     1      -1.114   6.908  14.270  1.00  0.00     0.257 A 
HETATM   15  C6  UNL     1       1.024   7.111  13.464  1.00  0.00     0.046 A 
HETATM   16  C8  UNL     1       1.022   6.040  11.303  1.00  0.00     0.038 A 
HETATM   17  C5  UNL     1       2.365   7.431  13.389  1.00  0.00     0.032 A 
HETATM   18  N3  UNL     1       0.160   7.388  14.517  1.00  0.00    -0.322 N 
HETATM   19  C4  UNL     1       3.058   7.033  12.244  1.00  0.00     0.026 A 
HETATM   20  C3  UNL     1       2.391   6.328  11.222  1.00  0.00     0.060 A 
HETATM   21  H25 UNL     1       0.402   7.872  15.369  1.00  0.00     0.169 HD
HETATM   22  O4  UNL     1      -2.077   7.013  15.007  1.00  0.00    -0.267 OA
BRANCH  20  23
HETATM   23  S1  UNL     1       3.296   5.828   9.772  1.00  0.00     0.175 S 
HETATM   24  O1  UNL     1       4.653   6.319   9.913  1.00  0.00    -0.223 OA
HETATM   25  O2  UNL     1       3.049   4.407   9.595  1.00  0.00    -0.223 OA
BRANCH  23  26
HETATM   26  C2  UNL     1       2.506   6.686   8.429  1.00  0.00     0.141 C 
HETATM   27  C1  UNL     1       2.918   8.138   8.298  1.00  0.00     0.021 C 
ENDBRANCH  23  26
ENDBRANCH  20  23
ENDBRANCH   1  11
BRANCH   5  28
HETATM   28  C15 UNL     1      -3.671   3.069  11.122  1.00  0.00     0.051 C 
BRANCH  28  29
HETATM   29  C16 UNL     1      -2.256   3.255  10.590  1.00  0.00     0.107 C 
BRANCH  29  30
HETATM   30  C17 UNL     1      -1.347   2.123  11.002  1.00  0.00     0.215 C 
HETATM   31  N2  UNL     1      -1.940   0.893  11.030  1.00  0.00    -0.370 N 
HETATM   32  H15 UNL     1      -2.938   0.827  11.187  1.00  0.00     0.159 HD
HETATM   33  H16 UNL     1      -1.377   0.148  11.422  1.00  0.00     0.159 HD
HETATM   34  O3  UNL     1      -0.158   2.257  11.275  1.00  0.00    -0.274 OA
ENDBRANCH  29  30
ENDBRANCH  28  29
ENDBRANCH   5  28
TORSDOF 6
ENDMDL
