MODEL 1
REMARK minimizedAffinity -8.82921505
REMARK  10 active torsions:
REMARK  status: ('A' for Active; 'I' for Inactive)
REMARK    1  A    between atoms: N1_2  and  C3_4 
REMARK    2  A    between atoms: C3_4  and  C4_5 
REMARK    3  A    between atoms: C4_5  and  N2_6 
REMARK    4  A    between atoms: N2_6  and  C5_7 
REMARK    5  A    between atoms: C7_9  and  C8_10 
REMARK    6  A    between atoms: C8_10  and  C9_11 
REMARK    7  A    between atoms: C16_18  and  N3_19 
REMARK    8  A    between atoms: C17_20  and  C18_21 
REMARK       I    between atoms: C18_21  and  N4_23 
REMARK    9  A    between atoms: N4_23  and  N5_24 
REMARK   10  A    between atoms: C19_26  and  C20_27 
ROOT
HETATM    1  C5  UNL     1      -0.037  53.719 -24.993  1.00  0.00     0.081 A 
HETATM    2  C6  UNL     1      -1.247  53.036 -24.979  1.00  0.00     0.050 A 
HETATM    3  C7  UNL     1      -1.727  52.413 -23.808  1.00  0.00    -0.035 A 
HETATM    4  C15 UNL     1      -0.906  52.506 -22.650  1.00  0.00     0.032 A 
HETATM    5  C16 UNL     1      -0.991  51.992 -21.302  1.00  0.00     0.062 A 
HETATM    6  C17 UNL     1       0.059  52.390 -20.489  1.00  0.00     0.103 A 
HETATM    7  S1  UNL     1       1.169  53.359 -21.359  1.00  0.00    -0.064 SA
HETATM    8  C25 UNL     1       0.263  53.247 -22.790  1.00  0.00     0.089 A 
HETATM    9  N7  UNL     1       0.721  53.857 -23.899  1.00  0.00    -0.341 N 
ATOM     10  H7  UNL     1       1.590  54.391 -23.905  1.00  0.00     0.167 HD
ENDROOT
BRANCH   6  11
HETATM   11  C18 UNL     1       0.285  52.053 -19.081  1.00  0.00     0.279 C 
HETATM   12  O1  UNL     1       0.016  50.939 -18.623  1.00  0.00    -0.265 OA
HETATM   13  N4  UNL     1       0.844  53.078 -18.312  1.00  0.00    -0.266 N 
HETATM   14  H22 UNL     1       1.236  53.868 -18.821  1.00  0.00     0.190 HD
BRANCH  13  15
HETATM   15  N5  UNL     1       1.321  52.961 -17.030  1.00  0.00    -0.307 N 
HETATM   16  C19 UNL     1       1.052  51.880 -16.367  1.00  0.00     0.136 C 
ATOM     17  H5  UNL     1       1.874  53.707 -16.609  1.00  0.00     0.186 HD
BRANCH  16  18
HETATM   18  C20 UNL     1       1.562  51.708 -15.025  1.00  0.00     0.050 A 
HETATM   19  C21 UNL     1       0.848  51.464 -13.861  1.00  0.00     0.032 A 
HETATM   20  C22 UNL     1       1.762  51.356 -12.790  1.00  0.00     0.019 A 
HETATM   21  C23 UNL     1       3.019  51.540 -13.313  1.00  0.00     0.091 A 
HETATM   22  N6  UNL     1       2.892  51.756 -14.662  1.00  0.00    -0.360 N 
HETATM   23  C24 UNL     1       4.003  52.003 -15.556  1.00  0.00     0.155 C 
ENDBRANCH  16  18
ENDBRANCH  13  15
ENDBRANCH   6  11
BRANCH   5  24
HETATM   24  N3  UNL     1      -1.987  51.190 -20.851  1.00  0.00    -0.397 N 
HETATM   25  H20 UNL     1      -2.516  50.592 -21.480  1.00  0.00     0.156 HD
HETATM   26  H21 UNL     1      -1.888  50.756 -19.928  1.00  0.00     0.156 HD
ENDBRANCH   5  24
BRANCH   3  27
HETATM   27  C8  UNL     1      -3.065  51.707 -23.880  1.00  0.00     0.078 C 
BRANCH  27  28
HETATM   28  C9  UNL     1      -3.179  50.631 -24.940  1.00  0.00    -0.054 A 
HETATM   29  C10 UNL     1      -3.294  49.269 -24.621  1.00  0.00     0.007 A 
HETATM   30  C11 UNL     1      -3.440  48.309 -25.625  1.00  0.00     0.001 A 
HETATM   31  C12 UNL     1      -3.483  48.696 -26.963  1.00  0.00     0.000 A 
HETATM   32  C13 UNL     1      -3.382  50.044 -27.296  1.00  0.00     0.001 A 
HETATM   33  C14 UNL     1      -3.236  51.004 -26.292  1.00  0.00     0.007 A 
ENDBRANCH  27  28
ENDBRANCH   3  27
BRANCH   1  34
HETATM   34  N2  UNL     1       0.337  54.346 -26.191  1.00  0.00    -0.277 NA
HETATM   35  H11 UNL     1       0.150  55.349 -26.154  1.00  0.00     0.129 HD
BRANCH  34  36
HETATM   36  C4  UNL     1      -0.266  53.786 -27.403  1.00  0.00     0.124 C 
BRANCH  36  37
HETATM   37  C3  UNL     1       0.670  52.696 -27.978  1.00  0.00     0.286 C 
BRANCH  37  38
HETATM   38  N1  UNL     1       1.374  51.904 -26.937  1.00  0.00     0.081 N 
HETATM   39  C1  UNL     1       2.764  51.635 -27.311  1.00  0.00     0.309 C 
HETATM   40  C2  UNL     1       0.667  50.638 -26.716  1.00  0.00     0.309 C 
ENDBRANCH  37  38
ENDBRANCH  36  37
ENDBRANCH  34  36
ENDBRANCH   1  34
TORSDOF 10
ENDMDL
