MODEL 1
REMARK minimizedAffinity -9.81568432
REMARK CNNscore 0.378489703
REMARK CNNaffinity 6.57223511
REMARK  4 active torsions:
REMARK  status: ('A' for Active; 'I' for Inactive)
REMARK    1  A    between atoms: CL1_1  and  C16_22 
REMARK    2  A    between atoms: C4_5  and  C5_6 
REMARK    3  A    between atoms: C9_10  and  N1_11 
REMARK    4  A    between atoms: N1_11  and  C10_12 
ROOT
HETATM    1  C10 UNL     1      -0.350  52.173 -20.609  1.00  0.00     0.117 A 
HETATM    2  N2  UNL     1       0.286  53.236 -21.132  1.00  0.00    -0.338 N 
ATOM      3  H2  UNL     1       0.092  53.509 -22.096  1.00  0.00     0.168 HD
HETATM    4  C11 UNL     1       1.185  53.955 -20.403  1.00  0.00     0.182 A 
HETATM    5  N3  UNL     1       1.469  53.621 -19.119  1.00  0.00    -0.352 N 
ATOM      6  H3  UNL     1       2.145  54.169 -18.586  1.00  0.00     0.166 HD
HETATM    7  C12 UNL     1       0.849  52.549 -18.542  1.00  0.00     0.047 A 
HETATM    8  C13 UNL     1       1.110  52.173 -17.240  1.00  0.00     0.069 A 
HETATM    9  C14 UNL     1       0.469  51.085 -16.690  1.00  0.00     0.102 A 
HETATM   10  C15 UNL     1      -0.442  50.375 -17.462  1.00  0.00     0.101 A 
HETATM   11  C16 UNL     1      -0.727  50.715 -18.751  1.00  0.00     0.161 A 
HETATM   12  C17 UNL     1      -0.070  51.814 -19.287  1.00  0.00     0.036 A 
HETATM   13  O1  UNL     1      -1.057  49.295 -16.868  1.00  0.00    -0.349 OA
HETATM   14  C18 UNL     1      -0.432  48.506 -15.867  1.00  0.00     0.202 C 
HETATM   15  C19 UNL     1       0.575  49.261 -15.050  1.00  0.00     0.202 C 
HETATM   16  O2  UNL     1       0.668  50.638 -15.400  1.00  0.00    -0.346 OA
ENDROOT
BRANCH   1  17
HETATM   17  N1  UNL     1      -1.291  51.387 -21.326  1.00  0.00    -0.342 N 
HETATM   18  H8  UNL     1      -1.777  50.636 -20.761  1.00  0.00     0.167 HD
BRANCH  17  19
HETATM   19  C9  UNL     1      -1.595  51.553 -22.693  1.00  0.00     0.034 A 
HETATM   20  C8  UNL     1      -2.914  51.728 -23.084  1.00  0.00     0.029 A 
HETATM   21  C7  UNL     1      -3.289  51.892 -24.401  1.00  0.00     0.003 A 
HETATM   22  C6  UNL     1      -2.297  51.878 -25.357  1.00  0.00     0.012 A 
HETATM   23  C5  UNL     1      -0.958  51.705 -24.996  1.00  0.00    -0.024 A 
HETATM   24  C20 UNL     1      -0.642  51.546 -23.662  1.00  0.00     0.041 A 
BRANCH  23  25
HETATM   25  C4  UNL     1       0.011  51.705 -26.069  1.00  0.00    -0.026 A 
HETATM   26  C3  UNL     1      -0.305  51.790 -27.404  1.00  0.00     0.012 A 
HETATM   27  C2  UNL     1       0.681  51.783 -28.381  1.00  0.00     0.001 A 
HETATM   28  C1  UNL     1       2.021  51.693 -28.065  1.00  0.00     0.000 A 
HETATM   29  C22 UNL     1       2.346  51.608 -26.728  1.00  0.00     0.001 A 
HETATM   30  C21 UNL     1       1.368  51.615 -25.764  1.00  0.00     0.012 A 
ENDBRANCH  23  25
ENDBRANCH  17  19
ENDBRANCH   1  17
BRANCH  11  31
HETATM   31 CL1  UNL     1      -1.856  51.941 -18.974  1.00  0.00    -0.219 Cl
HETATM   32  H1  UNL     1      -2.873  52.653 -19.564  1.00  0.00     0.129 HD
ENDBRANCH  11  31
TORSDOF 4
ENDMDL
