MODEL 1
REMARK minimizedAffinity -7.32803869
REMARK  5 active torsions:
REMARK  status: ('A' for Active; 'I' for Inactive)
REMARK       I    between atoms: N1_1  and  C1_2 
REMARK    1  A    between atoms: C1_2  and  C2_4 
REMARK    2  A    between atoms: C3_5  and  N2_6 
REMARK    3  A    between atoms: N2_6  and  C4_7 
REMARK    4  A    between atoms: C10_16  and  N5_17 
REMARK    5  A    between atoms: C12_19  and  C13_20 
ROOT
HETATM    1  C2  UNL     1      13.312  34.749  19.131  1.00  0.00     0.122 A 
HETATM    2  C3  UNL     1      11.996  35.158  18.768  1.00  0.00     0.140 A 
HETATM    3  N3  UNL     1      11.972  35.702  17.550  1.00  0.00    -0.275 N 
ATOM      4  H3  UNL     1      11.166  36.089  17.061  1.00  0.00     0.189 HD
HETATM    5  N4  UNL     1      13.248  35.630  17.101  1.00  0.00    -0.226 N 
HETATM    6  C10 UNL     1      13.735  36.088  15.850  1.00  0.00     0.104 A 
HETATM    7  C11 UNL     1      15.049  35.980  15.595  1.00  0.00     0.069 A 
HETATM    8  C12 UNL     1      15.883  35.355  16.663  1.00  0.00     0.018 A 
HETATM    9  N6  UNL     1      15.450  34.926  17.812  1.00  0.00    -0.343 N 
ATOM     10  H6  UNL     1      16.075  34.506  18.501  1.00  0.00     0.167 HD
HETATM   11  C16 UNL     1      14.106  35.069  18.044  1.00  0.00     0.148 A 
ENDROOT
BRANCH   2  12
HETATM   12  N2  UNL     1      10.948  34.997  19.618  1.00  0.00    -0.341 N 
HETATM   13  H3  UNL     1      11.150  34.489  20.481  1.00  0.00     0.167 HD
BRANCH  12  14
HETATM   14  C4  UNL     1       9.587  35.358  19.531  1.00  0.00     0.033 A 
HETATM   15  C5  UNL     1       8.564  34.723  20.244  1.00  0.00     0.029 A 
HETATM   16  C6  UNL     1       7.228  35.119  20.103  1.00  0.00     0.002 A 
HETATM   17  C7  UNL     1       6.892  36.156  19.238  1.00  0.00     0.000 A 
HETATM   18  C8  UNL     1       7.892  36.798  18.514  1.00  0.00     0.002 A 
HETATM   19  C9  UNL     1       9.224  36.400  18.660  1.00  0.00     0.029 A 
ENDBRANCH  12  14
ENDBRANCH   2  12
BRANCH   1  20
HETATM   20  C1  UNL     1      13.725  34.133  20.376  1.00  0.00     0.257 C 
HETATM   21  N1  UNL     1      15.070  34.032  20.578  1.00  0.00    -0.366 N 
HETATM   22  H1  UNL     1      15.411  33.609  21.427  1.00  0.00     0.159 HD
HETATM   23  H2  UNL     1      15.724  34.374  19.879  1.00  0.00     0.159 HD
HETATM   24  O1  UNL     1      12.928  33.722  21.215  1.00  0.00    -0.268 OA
ENDBRANCH   1  20
BRANCH   6  25
HETATM   25  N5  UNL     1      12.822  36.640  14.955  1.00  0.00    -0.287 NA
HETATM   26  H9  UNL     1      11.943  36.869  15.433  1.00  0.00     0.125 HD
HETATM   27  H10 UNL     1      13.188  37.421  14.420  1.00  0.00     0.125 HD
ENDBRANCH   6  25
BRANCH   8  28
HETATM   28  C13 UNL     1      17.345  35.191  16.430  1.00  0.00     0.036 A 
HETATM   29  C14 UNL     1      17.903  34.216  15.421  1.00  0.00     0.011 A 
HETATM   30  C15 UNL     1      18.036  35.696  15.188  1.00  0.00     0.011 A 
ENDBRANCH   8  28
TORSDOF 5
ENDMDL
