MODEL 1
REMARK minimizedAffinity -9.34257603
REMARK CNNscore 0.564816594
REMARK CNNaffinity 7.65261793
REMARK  10 active torsions:
REMARK  status: ('A' for Active; 'I' for Inactive)
REMARK    1  A    between atoms: C2_2  and  S1_3 
REMARK    2  A    between atoms: S1_3  and  C3_6 
REMARK    3  A    between atoms: C10_13  and  C11_14 
REMARK    4  A    between atoms: C14_18  and  C15_19 
REMARK    5  A    between atoms: C15_19  and  C16_20 
REMARK    6  A    between atoms: C16_20  and  C17_21 
REMARK    7  A    between atoms: C17_21  and  N2_22 
REMARK    8  A    between atoms: N3_25  and  C20_26 
REMARK    9  A    between atoms: C20_26  and  C21_27 
REMARK   10  A    between atoms: C21_27  and  O4_29 
ROOT
HETATM    1  C11 UNL     1      -6.881   6.697  14.226  1.00  0.00     0.040 A 
HETATM    2  N1  UNL     1      -8.147   6.201  13.998  1.00  0.00    -0.359 N 
HETATM    3  C12 UNL     1      -9.082   7.091  14.436  1.00  0.00     0.016 A 
HETATM    4  C13 UNL     1      -8.436   8.182  14.969  1.00  0.00    -0.027 A 
HETATM    5  C14 UNL     1      -7.035   7.920  14.888  1.00  0.00    -0.023 A 
HETATM    6  C24 UNL     1      -9.175   9.375  15.483  1.00  0.00     0.041 C 
HETATM    7  C25 UNL     1     -10.684   9.093  15.627  1.00  0.00     0.005 C 
HETATM    8  C26 UNL     1     -11.259   8.248  14.471  1.00  0.00     0.006 C 
HETATM    9  C27 UNL     1     -10.553   6.889  14.356  1.00  0.00     0.057 C 
HETATM   10  H10 UNL     1      -8.367   5.314  13.556  1.00  0.00     0.166 HD
ENDROOT
BRANCH   1  11
HETATM   11  C10 UNL     1      -5.707   6.012  13.800  1.00  0.00     0.048 C 
HETATM   12  C9  UNL     1      -5.582   4.846  13.145  1.00  0.00     0.047 A 
HETATM   13  C7  UNL     1      -4.282   4.317  12.683  1.00  0.00     0.008 A 
HETATM   14  C28 UNL     1      -6.621   3.849  12.683  1.00  0.00     0.257 A 
HETATM   15  C6  UNL     1      -4.556   3.124  12.003  1.00  0.00     0.046 A 
HETATM   16  C8  UNL     1      -2.980   4.783  12.772  1.00  0.00     0.038 A 
HETATM   17  C5  UNL     1      -3.578   2.366  11.389  1.00  0.00     0.032 A 
HETATM   18  N4  UNL     1      -5.916   2.855  12.023  1.00  0.00    -0.322 N 
HETATM   19  C4  UNL     1      -2.262   2.830  11.466  1.00  0.00     0.026 A 
HETATM   20  C3  UNL     1      -1.972   4.019  12.166  1.00  0.00     0.060 A 
HETATM   21  H36 UNL     1      -6.372   2.069  11.582  1.00  0.00     0.169 HD
HETATM   22  O5  UNL     1      -7.832   3.889  12.829  1.00  0.00    -0.267 OA
BRANCH  20  23
HETATM   23  S1  UNL     1      -0.292   4.617  12.213  1.00  0.00     0.175 S 
HETATM   24  O1  UNL     1       0.090   4.734  13.606  1.00  0.00    -0.223 OA
HETATM   25  O2  UNL     1       0.470   3.777  11.309  1.00  0.00    -0.223 OA
BRANCH  23  26
HETATM   26  C2  UNL     1      -0.380   6.250  11.506  1.00  0.00     0.141 C 
HETATM   27  C1  UNL     1       0.556   6.451  10.332  1.00  0.00     0.021 C 
ENDBRANCH  23  26
ENDBRANCH  20  23
ENDBRANCH   1  11
BRANCH   5  28
HETATM   28  C15 UNL     1      -5.954   8.810  15.428  1.00  0.00     0.043 C 
BRANCH  28  29
HETATM   29  C16 UNL     1      -4.859   9.127  14.406  1.00  0.00     0.035 C 
BRANCH  29  30
HETATM   30  C17 UNL     1      -3.579   9.625  15.090  1.00  0.00     0.273 C 
BRANCH  30  31
HETATM   31  N2  UNL     1      -3.163   8.728  16.179  1.00  0.00     0.091 N 
HETATM   32  C18 UNL     1      -2.741   7.405  15.679  1.00  0.00     0.302 C 
HETATM   33  C19 UNL     1      -1.368   7.386  14.974  1.00  0.00     0.303 C 
HETATM   34  N3  UNL     1      -0.295   7.923  15.834  1.00  0.00     0.101 N 
HETATM   35  C22 UNL     1      -0.665   9.271  16.307  1.00  0.00     0.303 C 
HETATM   36  C23 UNL     1      -2.058   9.299  16.985  1.00  0.00     0.302 C 
BRANCH  34  37
HETATM   37  C20 UNL     1       1.002   7.956  15.122  1.00  0.00     0.381 C 
BRANCH  37  38
HETATM   38  C21 UNL     1       2.194   7.765  16.059  1.00  0.00     0.169 C 
HETATM   39  O3  UNL     1       2.602   8.496  16.947  1.00  0.00    -0.649 OA
BRANCH  38  40
HETATM   40  O4  UNL     1       2.841   6.600  15.812  1.00  0.00    -0.775 OA
HETATM   41  H23 UNL     1       3.579   6.607  16.458  1.00  0.00     0.167 HD
ENDBRANCH  38  40
ENDBRANCH  37  38
ENDBRANCH  34  37
ENDBRANCH  30  31
ENDBRANCH  29  30
ENDBRANCH  28  29
ENDBRANCH   5  28
TORSDOF 10
ENDMDL
