MODEL 1
REMARK minimizedAffinity -7.6259923
REMARK CNNscore 0.72556144
REMARK CNNaffinity 7.38709116
REMARK  10 active torsions:
REMARK  status: ('A' for Active; 'I' for Inactive)
REMARK    1  A    between atoms: C2_2  and  N1_3 
REMARK    2  A    between atoms: N1_3  and  C3_4 
REMARK    3  A    between atoms: N1_3  and  C5_6 
REMARK    4  A    between atoms: C5_6  and  C6_7 
REMARK    5  A    between atoms: C6_7  and  C7_8 
REMARK    6  A    between atoms: C7_8  and  C8_9 
REMARK    7  A    between atoms: C8_9  and  N2_10 
REMARK    8  A    between atoms: N2_10  and  C9_11 
REMARK    9  A    between atoms: C12_16  and  O1_17 
REMARK   10  A    between atoms: C13_18  and  C14_19 
ROOT
HETATM    1  C9  UNL     1       0.772  52.711 -18.892  1.00  0.00     0.082 A 
HETATM    2  C10 UNL     1       1.159  53.493 -19.978  1.00  0.00     0.072 A 
HETATM    3  C11 UNL     1       0.781  53.151 -21.264  1.00  0.00     0.049 A 
HETATM    4  N3  UNL     1       1.157  53.926 -22.299  1.00  0.00    -0.336 N 
ATOM      5  H3  UNL     1       1.717  54.767 -22.158  1.00  0.00     0.168 HD
HETATM    6  C12 UNL     1       0.763  53.543 -23.528  1.00  0.00     0.151 A 
HETATM    7  C13 UNL     1       0.002  52.421 -23.833  1.00  0.00     0.029 A 
HETATM    8  C20 UNL     1      -0.380  51.631 -22.746  1.00  0.00     0.032 A 
HETATM    9  C21 UNL     1       0.011  51.994 -21.444  1.00  0.00     0.007 A 
HETATM   10  C22 UNL     1      -0.326  51.259 -20.312  1.00  0.00     0.103 A 
HETATM   11  N4  UNL     1       0.040  51.594 -19.056  1.00  0.00    -0.356 N 
ATOM     12  H4  UNL     1      -0.230  51.020 -18.258  1.00  0.00     0.166 HD
ENDROOT
BRANCH   1  13
HETATM   13  N2  UNL     1       1.216  53.091 -17.613  1.00  0.00    -0.279 NA
HETATM   14  H19 UNL     1       0.445  53.528 -17.115  1.00  0.00     0.129 HD
BRANCH  13  15
HETATM   15  C8  UNL     1       1.833  52.016 -16.839  1.00  0.00     0.094 C 
BRANCH  15  16
HETATM   16  C7  UNL     1       3.134  52.535 -16.219  1.00  0.00     0.016 C 
BRANCH  16  17
HETATM   17  C6  UNL     1       3.468  51.886 -14.871  1.00  0.00     0.021 C 
BRANCH  17  18
HETATM   18  C5  UNL     1       2.236  51.670 -13.983  1.00  0.00     0.117 C 
BRANCH  18  19
HETATM   19  N1  UNL     1       1.953  50.289 -13.614  1.00  0.00    -0.413 N 
BRANCH  19  20
HETATM   20  C2  UNL     1       3.080  49.410 -13.340  1.00  0.00     0.112 C 
HETATM   21  C1  UNL     1       3.765  49.592 -11.991  1.00  0.00     0.026 C 
ENDBRANCH  19  20
BRANCH  19  22
HETATM   22  C3  UNL     1       0.729  49.689 -14.125  1.00  0.00     0.112 C 
HETATM   23  C4  UNL     1       0.901  48.577 -15.151  1.00  0.00     0.026 C 
ENDBRANCH  19  22
ENDBRANCH  18  19
ENDBRANCH  17  18
ENDBRANCH  16  17
ENDBRANCH  15  16
ENDBRANCH  13  15
ENDBRANCH   1  13
BRANCH   6  24
HETATM   24  O1  UNL     1       1.192  54.387 -24.503  1.00  0.00    -0.345 OA
HETATM   25  H21 UNL     1       1.684  55.031 -23.961  1.00  0.00     0.219 HD
ENDBRANCH   6  24
BRANCH   7  26
HETATM   26  C14 UNL     1      -0.386  52.077 -25.208  1.00  0.00     0.022 A 
HETATM   27  C15 UNL     1      -1.722  52.194 -25.645  1.00  0.00     0.046 A 
HETATM   28 CL1  UNL     1      -2.985  52.722 -24.582  1.00  0.00    -0.083 Cl
HETATM   29  C16 UNL     1      -2.087  51.877 -26.959  1.00  0.00     0.025 A 
HETATM   30  C17 UNL     1      -1.128  51.440 -27.868  1.00  0.00     0.003 A 
HETATM   31  C18 UNL     1       0.197  51.314 -27.462  1.00  0.00     0.025 A 
HETATM   32  C19 UNL     1       0.565  51.629 -26.148  1.00  0.00     0.046 A 
HETATM   33 CL2  UNL     1       2.235  51.426 -25.728  1.00  0.00    -0.083 Cl
ENDBRANCH   7  26
TORSDOF 10
ENDMDL
