MODEL 1
REMARK minimizedAffinity -8.90741348
REMARK CNNscore 0.416637599
REMARK CNNaffinity 7.37633944
REMARK  18 active torsions:
REMARK  status: ('A' for Active; 'I' for Inactive)
REMARK    1  A    between atoms: C2_2  and  O1_3 
REMARK    2  A    between atoms: O1_3  and  P1_4 
REMARK    3  A    between atoms: P1_4  and  O3_6 
REMARK    4  A    between atoms: P1_4  and  C3_7 
REMARK    5  A    between atoms: C5_9  and  C6_10 
REMARK    6  A    between atoms: C6_10  and  C7_11 
REMARK    7  A    between atoms: C7_11  and  N1_12 
REMARK    8  A    between atoms: C7_11  and  C10_16 
REMARK       I    between atoms: N1_12  and  C8_13 
REMARK       I    between atoms: C10_16  and  N2_18 
REMARK    9  A    between atoms: N2_18  and  C11_19 
REMARK   10  A    between atoms: C11_19  and  C13_21 
REMARK   11  A    between atoms: C16_24  and  O6_25 
REMARK   12  A    between atoms: O6_25  and  C17_26 
REMARK   13  A    between atoms: C17_26  and  C18_27 
REMARK   14  A    between atoms: C24_33  and  C25_34 
REMARK       I    between atoms: C25_34  and  N3_35 
REMARK   15  A    between atoms: C29_40  and  O8_41 
REMARK   16  A    between atoms: O8_41  and  C30_42 
REMARK   17  A    between atoms: C30_42  and  C31_43 
REMARK   18  A    between atoms: C31_43  and  O10_45 
ROOT
HETATM    1  C7  UNL     1      -1.447   5.728  12.863  1.00  0.00     0.180 C 
ENDROOT
BRANCH   1   2
HETATM    2  C6  UNL     1      -0.181   5.637  13.733  1.00  0.00     0.073 C 
BRANCH   2   3
HETATM    3  C5  UNL     1       1.042   6.309  13.148  1.00  0.00    -0.054 A 
HETATM    4  C4  UNL     1       1.663   5.788  12.008  1.00  0.00     0.029 A 
HETATM    5  C3  UNL     1       2.767   6.426  11.411  1.00  0.00     0.084 A 
HETATM    6  C29 UNL     1       3.259   7.608  11.983  1.00  0.00     0.087 A 
HETATM    7  C28 UNL     1       2.660   8.117  13.139  1.00  0.00     0.038 A 
HETATM    8  C27 UNL     1       1.559   7.474  13.714  1.00  0.00     0.010 A 
BRANCH   5   9
HETATM    9  P1  UNL     1       3.456   5.707   9.958  1.00  0.00     0.276 P 
HETATM   10  O2  UNL     1       2.868   4.419   9.450  1.00  0.00    -0.650 OA
BRANCH   9  11
HETATM   11  O1  UNL     1       3.530   6.821   8.791  1.00  0.00    -0.316 OA
BRANCH  11  12
HETATM   12  C2  UNL     1       2.300   7.356   8.333  1.00  0.00     0.174 C 
HETATM   13  C1  UNL     1       2.060   6.873   6.919  1.00  0.00     0.034 C 
ENDBRANCH  11  12
ENDBRANCH   9  11
BRANCH   9  14
HETATM   14  O3  UNL     1       5.028   5.480  10.232  1.00  0.00    -0.325 OA
HETATM   15  H6  UNL     1       5.427   4.992   9.491  1.00  0.00     0.220 HD
ENDBRANCH   9  14
ENDBRANCH   5   9
BRANCH   6  16
HETATM   16  O8  UNL     1       4.320   8.178  11.336  1.00  0.00    -0.340 OA
BRANCH  16  17
HETATM   17  C30 UNL     1       5.258   8.933  12.086  1.00  0.00     0.285 C 
BRANCH  17  18
HETATM   18  C31 UNL     1       6.062   9.959  11.302  1.00  0.00     0.164 C 
HETATM   19  O9  UNL     1       5.807  11.151  11.216  1.00  0.00    -0.648 OA
BRANCH  18  20
HETATM   20  O10 UNL     1       7.154   9.451  10.698  1.00  0.00    -0.775 OA
HETATM   21  H42 UNL     1       7.565  10.219  10.250  1.00  0.00     0.167 HD
ENDBRANCH  18  20
ENDBRANCH  17  18
ENDBRANCH  16  17
ENDBRANCH   6  16
ENDBRANCH   2   3
ENDBRANCH   1   2
BRANCH   1  22
HETATM   22  N1  UNL     1      -2.119   4.435  12.728  1.00  0.00    -0.348 N 
HETATM   23  C8  UNL     1      -1.881   3.641  11.630  1.00  0.00     0.214 C 
HETATM   24  C9  UNL     1      -2.824   2.475  11.494  1.00  0.00     0.117 C 
HETATM   25  O4  UNL     1      -0.967   3.836  10.836  1.00  0.00    -0.274 OA
HETATM   26  H11 UNL     1      -3.067   4.422  13.091  1.00  0.00     0.163 HD
ENDBRANCH   1  22
BRANCH   1  27
HETATM   27  C10 UNL     1      -2.459   6.745  13.431  1.00  0.00     0.241 C 
HETATM   28  O5  UNL     1      -2.877   7.696  12.771  1.00  0.00    -0.271 OA
HETATM   29  N2  UNL     1      -2.894   6.465  14.709  1.00  0.00    -0.351 N 
HETATM   30  H15 UNL     1      -2.368   5.806  15.268  1.00  0.00     0.163 HD
BRANCH  29  31
HETATM   31  C11 UNL     1      -3.811   7.343  15.424  1.00  0.00     0.113 C 
HETATM   32  C12 UNL     1      -3.351   8.792  15.264  1.00  0.00     0.037 C 
BRANCH  31  33
HETATM   33  C13 UNL     1      -5.232   7.055  14.965  1.00  0.00    -0.035 A 
HETATM   34  C14 UNL     1      -6.251   7.958  15.317  1.00  0.00     0.012 A 
HETATM   35  C15 UNL     1      -7.582   7.738  14.944  1.00  0.00     0.038 A 
HETATM   36  C16 UNL     1      -7.935   6.601  14.215  1.00  0.00     0.084 A 
HETATM   37  C24 UNL     1      -6.927   5.694  13.861  1.00  0.00     0.065 A 
HETATM   38  C26 UNL     1      -5.590   5.913  14.236  1.00  0.00     0.029 A 
BRANCH  36  39
HETATM   39  O6  UNL     1      -9.199   6.353  13.754  1.00  0.00    -0.350 OA
BRANCH  39  40
HETATM   40  C17 UNL     1     -10.235   7.215  14.229  1.00  0.00     0.180 C 
BRANCH  40  41
HETATM   41  C18 UNL     1     -11.420   7.143  13.251  1.00  0.00     0.010 C 
HETATM   42  C19 UNL     1     -12.690   6.630  13.963  1.00  0.00     0.007 C 
HETATM   43  C20 UNL     1     -13.956   7.066  13.234  1.00  0.00     0.000 C 
HETATM   44  C21 UNL     1     -14.087   8.589  13.195  1.00  0.00     0.000 C 
HETATM   45  C22 UNL     1     -12.742   9.317  13.201  1.00  0.00     0.000 C 
HETATM   46  C23 UNL     1     -11.644   8.491  12.540  1.00  0.00     0.007 C 
ENDBRANCH  40  41
ENDBRANCH  39  40
ENDBRANCH  36  39
BRANCH  37  47
HETATM   47  C25 UNL     1      -7.248   4.456  13.119  1.00  0.00     0.252 C 
HETATM   48  N3  UNL     1      -8.218   3.668  13.680  1.00  0.00    -0.366 N 
HETATM   49  H35 UNL     1      -8.333   2.753  13.263  1.00  0.00     0.159 HD
HETATM   50  H36 UNL     1      -8.470   3.776  14.653  1.00  0.00     0.159 HD
HETATM   51  O7  UNL     1      -6.707   4.163  12.064  1.00  0.00    -0.268 OA
ENDBRANCH  37  47
ENDBRANCH  31  33
ENDBRANCH  29  31
ENDBRANCH   1  27
TORSDOF 18
ENDMDL
