MODEL 1
REMARK minimizedAffinity -7.55472946
REMARK CNNscore 0.759160519
REMARK CNNaffinity 6.17691803
REMARK  9 active torsions:
REMARK  status: ('A' for Active; 'I' for Inactive)
REMARK    1  A    between atoms: C2_2  and  O2_4 
REMARK    2  A    between atoms: O2_4  and  C3_5 
REMARK    3  A    between atoms: C3_5  and  C6_8 
REMARK    4  A    between atoms: C7_9  and  C8_10 
REMARK    5  A    between atoms: C8_10  and  C9_12 
REMARK    6  A    between atoms: C9_12  and  O4_14 
REMARK    7  A    between atoms: C9_12  and  C11_15 
REMARK    8  A    between atoms: C12_16  and  O5_17 
REMARK    9  A    between atoms: C22_27  and  O6_28 
ROOT
HETATM    1  C11 UNL     1     -12.016  45.486 -27.269  1.00  0.00     0.066 C 
HETATM    2  C12 UNL     1     -13.130  45.287 -28.329  1.00  0.00     0.127 C 
HETATM    3  C13 UNL     1     -12.538  45.697 -29.699  1.00  0.00     0.042 C 
HETATM    4  C14 UNL     1     -11.034  45.943 -29.444  1.00  0.00    -0.029 C 
HETATM    5  C15 UNL     1     -10.346  44.545 -29.556  1.00  0.00     0.016 C 
HETATM    6  C16 UNL     1     -10.367  46.985 -30.410  1.00  0.00     0.014 C 
HETATM    7  C17 UNL     1     -10.341  46.543 -31.890  1.00  0.00     0.034 C 
HETATM    8  C18 UNL     1      -9.244  45.574 -32.195  1.00  0.00    -0.022 C 
HETATM    9  C19 UNL     1      -8.031  45.644 -31.610  1.00  0.00    -0.063 C 
HETATM   10  C20 UNL     1      -7.734  46.883 -30.764  1.00  0.00     0.034 C 
HETATM   11  C21 UNL     1      -6.415  46.763 -29.987  1.00  0.00     0.050 C 
HETATM   12  C22 UNL     1      -5.247  46.408 -30.893  1.00  0.00     0.189 C 
HETATM   13  C23 UNL     1      -5.539  45.291 -31.887  1.00  0.00     0.167 C 
HETATM   14  O7  UNL     1      -4.646  44.957 -32.678  1.00  0.00    -0.294 OA
HETATM   15  C24 UNL     1      -6.917  44.603 -31.852  1.00  0.00     0.039 C 
HETATM   16  C25 UNL     1      -6.902  43.545 -30.735  1.00  0.00     0.028 C 
HETATM   17  C26 UNL     1      -7.085  43.843 -33.192  1.00  0.00     0.028 C 
HETATM   18  C27 UNL     1      -8.948  47.496 -29.930  1.00  0.00     0.029 C 
HETATM   19  C28 UNL     1      -8.904  49.034 -30.236  1.00  0.00     0.025 C 
HETATM   20  C29 UNL     1      -8.741  47.426 -28.379  1.00  0.00     0.137 C 
HETATM   21  O8  UNL     1      -7.842  48.079 -27.829  1.00  0.00    -0.297 OA
HETATM   22  C30 UNL     1      -9.614  46.547 -27.491  1.00  0.00     0.089 C 
HETATM   23  C31 UNL     1     -11.060  46.510 -27.975  1.00  0.00    -0.021 C 
HETATM   24  C32 UNL     1     -11.659  47.936 -27.840  1.00  0.00     0.017 C 
ENDROOT
BRANCH   1  25
HETATM   25  C9  UNL     1     -12.472  45.685 -25.790  1.00  0.00     0.125 C 
HETATM   26  C10 UNL     1     -12.506  44.341 -25.032  1.00  0.00     0.055 C 
BRANCH  25  27
HETATM   27  C8  UNL     1     -13.832  46.418 -25.551  1.00  0.00     0.183 C 
HETATM   28  O3  UNL     1     -13.959  47.638 -25.674  1.00  0.00    -0.290 OA
BRANCH  27  29
HETATM   29  C7  UNL     1     -15.031  45.614 -25.158  1.00  0.00     0.052 C 
HETATM   30  C6  UNL     1     -15.818  46.023 -24.149  1.00  0.00     0.014 C 
BRANCH  30  31
HETATM   31  C3  UNL     1     -17.098  45.357 -23.665  1.00  0.00     0.081 C 
HETATM   32  C4  UNL     1     -16.767  43.900 -23.318  1.00  0.00     0.051 C 
HETATM   33  C5  UNL     1     -17.592  46.138 -22.440  1.00  0.00     0.051 C 
BRANCH  31  34
HETATM   34  O2  UNL     1     -18.061  45.433 -24.747  1.00  0.00    -0.307 OA
BRANCH  34  35
HETATM   35  C2  UNL     1     -19.200  46.157 -24.604  1.00  0.00     0.255 C 
HETATM   36  C1  UNL     1     -20.303  45.270 -24.114  1.00  0.00     0.126 C 
HETATM   37  O1  UNL     1     -19.337  47.349 -24.842  1.00  0.00    -0.266 OA
ENDBRANCH  34  35
ENDBRANCH  31  34
ENDBRANCH  30  31
ENDBRANCH  27  29
ENDBRANCH  25  27
BRANCH  25  38
HETATM   38  O4  UNL     1     -11.438  46.474 -25.167  1.00  0.00    -0.382 OA
HETATM   39  H15 UNL     1     -10.860  45.890 -24.641  1.00  0.00     0.211 HD
ENDBRANCH  25  38
ENDBRANCH   1  25
BRANCH   2  40
HETATM   40  O5  UNL     1     -13.552  43.934 -28.331  1.00  0.00    -0.395 OA
HETATM   41  H18 UNL     1     -14.133  43.800 -29.101  1.00  0.00     0.210 HD
ENDBRANCH   2  40
BRANCH  12  42
HETATM   42  O6  UNL     1      -4.863  47.563 -31.644  1.00  0.00    -0.388 OA
HETATM   43  H32 UNL     1      -4.130  47.276 -32.224  1.00  0.00     0.210 HD
ENDBRANCH  12  42
TORSDOF 9
ENDMDL
