REMARK  4 active torsions:
REMARK  status: ('A' for Active; 'I' for Inactive)
REMARK       I    between atoms: N1_1  and  C1_2 
REMARK       I    between atoms: C1_2  and  N2_4 
REMARK    1  A    between atoms: N2_4  and  N3_5 
REMARK    2  A    between atoms: C2_7  and  C3_8 
REMARK    3  A    between atoms: C6_11  and  O2_12 
REMARK    4  A    between atoms: O2_12  and  C7_13 
ROOT
HETATM    1  C3  UNL     1      -1.436  -0.421   0.085  1.00  0.00    -0.019 A 
HETATM    2  C4  UNL     1      -0.824  -1.678   0.106  1.00  0.00     0.015 A 
HETATM    3  C5  UNL     1       0.534  -1.784   0.412  1.00  0.00     0.038 A 
HETATM    4  C6  UNL     1       1.279  -0.634   0.680  1.00  0.00     0.076 A 
HETATM    5  C13 UNL     1       0.663   0.621   0.683  1.00  0.00     0.038 A 
HETATM    6  C14 UNL     1      -0.695   0.729   0.378  1.00  0.00     0.015 A 
ENDROOT
BRANCH   1   7
HETATM    7  C2  UNL     1      -2.871  -0.277  -0.236  1.00  0.00     0.118 C 
HETATM    8  N3  UNL     1      -3.612  -1.305  -0.511  1.00  0.00    -0.307 N 
ATOM      9  H3  UNL     1      -3.219  -2.246  -0.545  1.00  0.00     0.186 HD
BRANCH   8  10
HETATM   10  N2  UNL     1      -4.944  -1.081  -0.755  1.00  0.00    -0.252 N 
HETATM   11  C1  UNL     1      -5.734  -0.167  -0.082  1.00  0.00     0.332 C 
HETATM   12  N1  UNL     1      -7.053  -0.268  -0.423  1.00  0.00    -0.351 N 
HETATM   13  O1  UNL     1      -5.375   0.694   0.711  1.00  0.00    -0.246 OA
HETATM   14  H1  UNL     1      -7.644   0.336   0.136  1.00  0.00     0.160 HD
HETATM   15  H2  UNL     1      -7.433  -1.188  -0.586  1.00  0.00     0.160 HD
HETATM   16  H3  UNL     1      -5.418  -1.888  -1.138  1.00  0.00     0.191 HD
ENDBRANCH   8  10
ENDBRANCH   1   7
BRANCH   4  17
HETATM   17  O2  UNL     1       2.604  -0.810   1.007  1.00  0.00    -0.311 OA
BRANCH  17  18
HETATM   18  C7  UNL     1       3.520   0.011   0.390  1.00  0.00     0.076 A 
HETATM   19  C8  UNL     1       4.511   0.573   1.199  1.00  0.00     0.040 A 
HETATM   20  C9  UNL     1       5.491   1.387   0.630  1.00  0.00     0.045 A 
HETATM   21  C10 UNL     1       5.478   1.618  -0.742  1.00  0.00     0.116 A 
HETATM   22  F1  UNL     1       6.419   2.399  -1.287  1.00  0.00    -0.206 F 
HETATM   23  C11 UNL     1       4.508   1.045  -1.558  1.00  0.00     0.045 A 
HETATM   24  C12 UNL     1       3.527   0.229  -0.992  1.00  0.00     0.040 A 
ENDBRANCH  17  18
ENDBRANCH   4  17
TORSDOF 4
