REMARK  6 active torsions:
REMARK  status: ('A' for Active; 'I' for Inactive)
REMARK    1  A    between atoms: N1_2  and  C2_3 
REMARK    2  A    between atoms: C4_5  and  N4_35 
REMARK    3  A    between atoms: C5_7  and  N2_12 
REMARK    4  A    between atoms: C7_9  and  O2_10 
REMARK    5  A    between atoms: C18_25  and  O4_26 
REMARK    6  A    between atoms: C27_36  and  C28_37 
ROOT
HETATM    1  C2  UNL     1      -2.939  -1.235   0.783  1.00  0.00     0.257 C 
HETATM    2  C3  UNL     1      -1.782  -2.307   0.661  1.00  0.00     0.092 C 
HETATM    3  C4  UNL     1      -0.571  -1.490   0.341  1.00  0.00     0.234 C 
HETATM    4  O1  UNL     1      -0.910  -0.865  -0.904  1.00  0.00    -0.333 OA
HETATM    5  C5  UNL     1      -1.404   0.455  -0.655  1.00  0.00     0.168 C 
HETATM    6  C6  UNL     1      -1.926   0.927  -2.022  1.00  0.00     0.074 C 
HETATM    7  C7  UNL     1      -2.529   0.307   0.457  1.00  0.00     0.209 C 
ENDROOT
BRANCH   1   8
HETATM    8  N1  UNL     1      -4.209  -1.748   0.233  1.00  0.00     0.086 N 
HETATM    9  C1  UNL     1      -4.266  -1.788  -1.222  1.00  0.00     0.307 C 
HETATM   10  H4  UNL     1      -4.969  -1.140   0.544  1.00  0.00     0.316 HD
ENDBRANCH   1   8
BRANCH   7  11
HETATM   11  O2  UNL     1      -3.691   1.104   0.164  1.00  0.00    -0.384 OA
HETATM   12  C8  UNL     1      -4.381   1.544   1.329  1.00  0.00     0.202 C 
ENDBRANCH   7  11
BRANCH   3  13
HETATM   13  N4  UNL     1       0.816  -1.768   0.219  1.00  0.00    -0.316 N 
HETATM   14  C26 UNL     1       1.599  -2.873   0.359  1.00  0.00     0.048 A 
HETATM   15  C21 UNL     1       2.942  -2.419   0.323  1.00  0.00     0.004 A 
HETATM   16  C25 UNL     1       1.267  -4.224   0.525  1.00  0.00     0.030 A 
HETATM   17  C20 UNL     1       2.929  -0.992   0.170  1.00  0.00     0.021 A 
HETATM   18  C22 UNL     1       3.965  -3.381   0.463  1.00  0.00     0.014 A 
HETATM   19  C19 UNL     1       3.769   0.122   0.114  1.00  0.00     0.045 A 
HETATM   20  C27 UNL     1       1.601  -0.659   0.069  1.00  0.00     0.077 A 
HETATM   21  C16 UNL     1       3.324   1.468   0.018  1.00  0.00     0.061 A 
HETATM   22  C18 UNL     1       5.195   0.257   0.194  1.00  0.00     0.155 A 
HETATM   23  C15 UNL     1       1.978   1.869  -0.065  1.00  0.00     0.022 C 
HETATM   24  C17 UNL     1       4.544   2.287   0.055  1.00  0.00     0.259 A 
HETATM   25  C14 UNL     1       1.183   3.055  -0.090  1.00  0.00     0.004 A 
HETATM   26  C28 UNL     1       1.077   0.823  -0.095  1.00  0.00     0.078 C 
HETATM   27  C9  UNL     1      -0.175   2.673  -0.164  1.00  0.00     0.049 A 
HETATM   28  C13 UNL     1       1.486   4.433  -0.030  1.00  0.00     0.014 A 
HETATM   29  N2  UNL     1      -0.218   1.288  -0.269  1.00  0.00    -0.308 N 
HETATM   30  C10 UNL     1      -1.207   3.628  -0.157  1.00  0.00     0.030 A 
HETATM   31  C11 UNL     1      -0.869   4.982  -0.090  1.00  0.00     0.002 A 
HETATM   32  C12 UNL     1       0.459   5.381  -0.032  1.00  0.00     0.001 A 
HETATM   33  O3  UNL     1       4.566   3.502   0.001  1.00  0.00    -0.267 OA
HETATM   34  N3  UNL     1       5.655   1.460   0.162  1.00  0.00    -0.303 N 
ATOM     35  H3  UNL     1       6.633   1.746   0.206  1.00  0.00     0.171 HD
HETATM   36  C23 UNL     1       3.638  -4.733   0.623  1.00  0.00     0.001 A 
HETATM   37  C24 UNL     1       2.310  -5.145   0.654  1.00  0.00     0.002 A 
BRANCH  22  38
HETATM   38  O4  UNL     1       5.990  -0.800   0.296  1.00  0.00    -0.345 OA
HETATM   39  H20 UNL     1       6.909  -0.483   0.332  1.00  0.00     0.219 HD
ENDBRANCH  22  38
ENDBRANCH   3  13
TORSDOF 6
