REMARK  5 active torsions:
REMARK  status: ('A' for Active; 'I' for Inactive)
REMARK    1  A    between atoms: N1_2  and  C2_3 
REMARK    2  A    between atoms: C4_5  and  N3_29 
REMARK    3  A    between atoms: C5_7  and  N2_12 
REMARK    4  A    between atoms: C7_9  and  O2_10 
REMARK    5  A    between atoms: C28_35  and  O4_36 
ROOT
HETATM    1  C2  UNL     1      -3.142  -1.286   0.860  1.00  0.00     0.257 C 
HETATM    2  C3  UNL     1      -1.970  -2.344   0.938  1.00  0.00     0.092 C 
HETATM    3  C4  UNL     1      -0.729  -1.520   0.771  1.00  0.00     0.234 C 
HETATM    4  O1  UNL     1      -0.852  -0.492   1.757  1.00  0.00    -0.333 OA
HETATM    5  C5  UNL     1      -1.414   0.682   1.147  1.00  0.00     0.168 C 
HETATM    6  C6  UNL     1      -1.759   1.567   2.358  1.00  0.00     0.074 C 
HETATM    7  C7  UNL     1      -2.709   0.191   0.348  1.00  0.00     0.209 C 
ENDROOT
BRANCH   1   8
HETATM    8  N1  UNL     1      -4.348  -1.846   0.215  1.00  0.00     0.086 N 
HETATM    9  C1  UNL     1      -4.206  -2.166  -1.197  1.00  0.00     0.307 C 
HETATM   10  H4  UNL     1      -5.108  -1.172   0.334  1.00  0.00     0.316 HD
ENDBRANCH   1   8
BRANCH   7  11
HETATM   11  O2  UNL     1      -3.807   1.102   0.547  1.00  0.00    -0.384 OA
HETATM   12  C8  UNL     1      -4.456   1.494  -0.656  1.00  0.00     0.202 C 
ENDBRANCH   7  11
BRANCH   3  13
HETATM   13  N3  UNL     1       0.661  -1.799   0.721  1.00  0.00    -0.316 N 
HETATM   14  C24 UNL     1       1.425  -2.922   0.812  1.00  0.00     0.048 A 
HETATM   15  C19 UNL     1       2.739  -2.539   0.445  1.00  0.00     0.004 A 
HETATM   16  C23 UNL     1       1.098  -4.237   1.167  1.00  0.00     0.030 A 
HETATM   17  C18 UNL     1       2.724  -1.141   0.114  1.00  0.00     0.022 A 
HETATM   18  C20 UNL     1       3.739  -3.534   0.444  1.00  0.00     0.014 A 
HETATM   19  C17 UNL     1       3.550  -0.113  -0.361  1.00  0.00     0.057 A 
HETATM   20  C25 UNL     1       1.434  -0.737   0.340  1.00  0.00     0.077 A 
HETATM   21  C16 UNL     1       3.116   1.232  -0.645  1.00  0.00     0.020 A 
HETATM   22  C27 UNL     1       4.972  -0.192  -0.713  1.00  0.00     0.255 A 
HETATM   23  C15 UNL     1       1.788   1.666  -0.435  1.00  0.00     0.017 A 
HETATM   24  C28 UNL     1       4.299   2.008  -1.154  1.00  0.00     0.257 A 
HETATM   25  C14 UNL     1       1.010   2.842  -0.643  1.00  0.00     0.004 A 
HETATM   26  C26 UNL     1       0.923   0.735   0.095  1.00  0.00     0.077 A 
HETATM   27  C9  UNL     1      -0.303   2.586  -0.195  1.00  0.00     0.049 A 
HETATM   28  C13 UNL     1       1.305   4.108  -1.195  1.00  0.00     0.014 A 
HETATM   29  N2  UNL     1      -0.324   1.299   0.334  1.00  0.00    -0.308 N 
HETATM   30  C10 UNL     1      -1.307   3.565  -0.299  1.00  0.00     0.030 A 
HETATM   31  C11 UNL     1      -0.983   4.807  -0.853  1.00  0.00     0.002 A 
HETATM   32  C12 UNL     1       0.305   5.078  -1.294  1.00  0.00     0.001 A 
HETATM   33  N4  UNL     1       5.336   1.035  -1.215  1.00  0.00    -0.326 N 
HETATM   34  H24 UNL     1       6.294   1.245  -1.454  1.00  0.00     0.165 HD
HETATM   35  O3  UNL     1       5.709  -1.150  -0.598  1.00  0.00    -0.268 OA
HETATM   36  C21 UNL     1       3.419  -4.848   0.804  1.00  0.00     0.001 A 
HETATM   37  C22 UNL     1       2.118  -5.191   1.159  1.00  0.00     0.002 A 
BRANCH  24  38
HETATM   38  O4  UNL     1       4.118   2.478  -2.464  1.00  0.00    -0.372 OA
HETATM   39  H26 UNL     1       3.849   1.701  -2.982  1.00  0.00     0.212 HD
ENDBRANCH  24  38
ENDBRANCH   3  13
TORSDOF 5
