REMARK  13 active torsions:
REMARK  status: ('A' for Active; 'I' for Inactive)
REMARK    1  A    between atoms: C2_2  and  C3_3 
REMARK    2  A    between atoms: C3_3  and  C4_4 
REMARK    3  A    between atoms: C4_4  and  C5_5 
REMARK    4  A    between atoms: C5_5  and  C6_6 
REMARK    5  A    between atoms: C6_6  and  C7_7 
REMARK    6  A    between atoms: C7_7  and  C8_8 
REMARK    7  A    between atoms: C8_8  and  C9_9 
REMARK    8  A    between atoms: C9_9  and  C10_10 
REMARK    9  A    between atoms: C10_10  and  C11_11 
REMARK   10  A    between atoms: C11_11  and  C12_12 
REMARK   11  A    between atoms: C12_12  and  C13_13 
REMARK   12  A    between atoms: C13_13  and  O2_15 
REMARK   13  A    between atoms: O2_15  and  C14_16 
ROOT
HETATM    1  C14 UNL     1      -1.367  -1.215  -1.764  1.00  0.00     0.140 C 
HETATM    2  C15 UNL     1      -2.107  -2.226  -2.669  1.00  0.00     0.034 C 
HETATM    3  C16 UNL     1      -3.606  -1.896  -2.555  1.00  0.00     0.008 C 
HETATM    4  C17 UNL     1      -3.637  -0.592  -1.764  1.00  0.00     0.001 C 
HETATM    5  C18 UNL     1      -4.936  -0.175  -1.069  1.00  0.00    -0.004 C 
HETATM    6  C19 UNL     1      -6.106  -0.055  -2.065  1.00  0.00     0.010 C 
HETATM    7  C20 UNL     1      -7.412   0.412  -1.407  1.00  0.00     0.035 C 
HETATM    8  C21 UNL     1      -7.190   0.797   0.036  1.00  0.00    -0.068 C 
HETATM    9  C22 UNL     1      -7.904   0.190   1.001  1.00  0.00     0.053 C 
HETATM   10  C23 UNL     1      -7.538   0.330   2.428  1.00  0.00     0.149 C 
HETATM   11  O3  UNL     1      -8.270  -0.138   3.294  1.00  0.00    -0.293 OA
HETATM   12  C24 UNL     1      -6.203   0.952   2.740  1.00  0.00     0.084 C 
HETATM   13  C25 UNL     1      -5.960   2.130   1.810  1.00  0.00     0.022 C 
HETATM   14  C26 UNL     1      -6.036   1.774   0.296  1.00  0.00    -0.016 C 
HETATM   15  C27 UNL     1      -6.352   3.120  -0.418  1.00  0.00     0.020 C 
HETATM   16  C28 UNL     1      -4.706   1.197  -0.349  1.00  0.00     0.002 C 
HETATM   17  C29 UNL     1      -3.450   1.184   0.558  1.00  0.00     0.007 C 
HETATM   18  C30 UNL     1      -2.194   0.628  -0.141  1.00  0.00     0.012 C 
HETATM   19  C31 UNL     1      -2.460  -0.741  -0.780  1.00  0.00    -0.013 C 
HETATM   20  C32 UNL     1      -2.678  -1.796   0.336  1.00  0.00     0.018 C 
ENDROOT
BRANCH   1  21
HETATM   21  O2  UNL     1      -0.262  -1.809  -1.079  1.00  0.00    -0.315 OA
BRANCH  21  22
HETATM   22  C13 UNL     1       0.855  -2.008  -1.832  1.00  0.00     0.259 C 
HETATM   23  O1  UNL     1       0.970  -1.728  -3.017  1.00  0.00    -0.265 OA
BRANCH  22  24
HETATM   24  C12 UNL     1       1.938  -2.650  -0.999  1.00  0.00     0.111 C 
BRANCH  24  25
HETATM   25  C11 UNL     1       3.273  -1.924  -1.140  1.00  0.00     0.010 C 
BRANCH  25  26
HETATM   26  C10 UNL     1       3.285  -0.494  -0.586  1.00  0.00     0.000 C 
BRANCH  26  27
HETATM   27  C9  UNL     1       2.964  -0.358   0.907  1.00  0.00     0.000 C 
BRANCH  27  28
HETATM   28  C8  UNL     1       3.853  -1.171   1.854  1.00  0.00     0.000 C 
BRANCH  28  29
HETATM   29  C7  UNL     1       5.359  -0.916   1.730  1.00  0.00     0.000 C 
BRANCH  29  30
HETATM   30  C6  UNL     1       5.755   0.527   2.052  1.00  0.00     0.000 C 
BRANCH  30  31
HETATM   31  C5  UNL     1       7.271   0.754   2.045  1.00  0.00     0.000 C 
BRANCH  31  32
HETATM   32  C4  UNL     1       7.893   0.618   0.652  1.00  0.00     0.000 C 
BRANCH  32  33
HETATM   33  C3  UNL     1       9.381   0.979   0.673  1.00  0.00    -0.000 C 
BRANCH  33  34
HETATM   34  C2  UNL     1      10.071   0.778  -0.679  1.00  0.00    -0.005 C 
HETATM   35  C1  UNL     1       9.566   1.719  -1.762  1.00  0.00     0.005 C 
ENDBRANCH  33  34
ENDBRANCH  32  33
ENDBRANCH  31  32
ENDBRANCH  30  31
ENDBRANCH  29  30
ENDBRANCH  28  29
ENDBRANCH  27  28
ENDBRANCH  26  27
ENDBRANCH  25  26
ENDBRANCH  24  25
ENDBRANCH  22  24
ENDBRANCH  21  22
ENDBRANCH   1  21
TORSDOF 13
