REMARK  7 active torsions:
REMARK  status: ('A' for Active; 'I' for Inactive)
REMARK    1  A    between atoms: N1_2  and  C2_3 
REMARK    2  A    between atoms: C4_5  and  N4_34 
REMARK    3  A    between atoms: C5_7  and  N2_12 
REMARK    4  A    between atoms: C7_9  and  O2_10 
REMARK    5  A    between atoms: C18_24  and  O3_25 
REMARK    6  A    between atoms: C19_26  and  C20_27 
REMARK    7  A    between atoms: C27_35  and  C28_36 
ROOT
HETATM    1  C2  UNL     1      -2.092  -0.942   0.516  1.00  0.00     0.257 C 
HETATM    2  C3  UNL     1      -1.669  -2.010  -0.491  1.00  0.00     0.092 C 
HETATM    3  C4  UNL     1      -0.622  -1.486  -1.472  1.00  0.00     0.234 C 
HETATM    4  O1  UNL     1      -0.867  -0.192  -2.011  1.00  0.00    -0.333 OA
HETATM    5  C5  UNL     1      -1.399   0.845  -1.152  1.00  0.00     0.168 C 
HETATM    6  C6  UNL     1      -1.912   1.849  -2.211  1.00  0.00     0.074 C 
HETATM    7  C7  UNL     1      -2.557   0.332  -0.239  1.00  0.00     0.209 C 
ENDROOT
BRANCH   1   8
HETATM    8  N1  UNL     1      -3.058  -1.398   1.545  1.00  0.00     0.086 N 
HETATM    9  C1  UNL     1      -4.088  -2.322   1.091  1.00  0.00     0.307 C 
HETATM   10  H4  UNL     1      -2.541  -1.854   2.300  1.00  0.00     0.316 HD
ENDBRANCH   1   8
BRANCH   7  11
HETATM   11  O2  UNL     1      -3.706   0.018  -1.058  1.00  0.00    -0.384 OA
HETATM   12  C8  UNL     1      -4.867   0.741  -0.663  1.00  0.00     0.202 C 
ENDBRANCH   7  11
BRANCH   3  13
HETATM   13  N4  UNL     1       0.745  -1.558  -0.968  1.00  0.00    -0.316 N 
HETATM   14  C26 UNL     1       1.568  -2.669  -1.018  1.00  0.00     0.048 A 
HETATM   15  C21 UNL     1       2.797  -2.304  -0.438  1.00  0.00     0.004 A 
HETATM   16  C25 UNL     1       1.336  -3.962  -1.523  1.00  0.00     0.030 A 
HETATM   17  C20 UNL     1       2.689  -0.940  -0.023  1.00  0.00     0.021 A 
HETATM   18  C22 UNL     1       3.813  -3.283  -0.375  1.00  0.00     0.014 A 
HETATM   19  C27 UNL     1       1.411  -0.537  -0.373  1.00  0.00     0.077 A 
HETATM   20  C23 UNL     1       3.589  -4.569  -0.877  1.00  0.00     0.001 A 
HETATM   21  C24 UNL     1       2.365  -4.902  -1.442  1.00  0.00     0.002 A 
BRANCH  17  22
HETATM   22  C19 UNL     1       3.451   0.052   0.608  1.00  0.00     0.037 A 
HETATM   23  C16 UNL     1       2.997   1.358   0.918  1.00  0.00    -0.012 A 
HETATM   24  C15 UNL     1       1.701   1.794   0.603  1.00  0.00     0.015 C 
HETATM   25  C17 UNL     1       4.115   2.075   1.624  1.00  0.00     0.162 A 
HETATM   26  C14 UNL     1       0.913   2.954   0.826  1.00  0.00     0.004 A 
HETATM   27  C28 UNL     1       0.893   0.895  -0.065  1.00  0.00     0.077 C 
HETATM   28  C9  UNL     1      -0.366   2.707   0.295  1.00  0.00     0.049 A 
HETATM   29  C13 UNL     1       1.163   4.179   1.482  1.00  0.00     0.014 A 
HETATM   30  N2  UNL     1      -0.318   1.466  -0.347  1.00  0.00    -0.308 N 
HETATM   31  C10 UNL     1      -1.402   3.646   0.466  1.00  0.00     0.030 A 
HETATM   32  C11 UNL     1      -1.128   4.848   1.127  1.00  0.00     0.002 A 
HETATM   33  C12 UNL     1       0.141   5.119   1.620  1.00  0.00     0.001 A 
HETATM   34  N3  UNL     1       5.255   1.114   1.699  1.00  0.00    -0.366 N 
HETATM   35  C18 UNL     1       4.799   0.048   1.123  1.00  0.00     0.148 A 
ATOM     36  H3  UNL     1       6.177   1.263   2.108  1.00  0.00     0.162 HD
BRANCH  35  37
HETATM   37  O3  UNL     1       5.569  -1.028   1.012  1.00  0.00    -0.346 OA
HETATM   38  H22 UNL     1       6.425  -0.808   1.417  1.00  0.00     0.219 HD
ENDBRANCH  35  37
ENDBRANCH  17  22
ENDBRANCH   3  13
TORSDOF 7
