REMARK  16 active torsions:
REMARK  status: ('A' for Active; 'I' for Inactive)
REMARK    1  A    between atoms: C2_2  and  N1_3 
REMARK    2  A    between atoms: N1_3  and  C3_4 
REMARK    3  A    between atoms: C3_4  and  C4_5 
REMARK    4  A    between atoms: C9_11  and  S1_12 
REMARK    5  A    between atoms: S1_12  and  N2_15 
REMARK    6  A    between atoms: N2_15  and  C10_16 
REMARK    7  A    between atoms: N2_15  and  C14_20 
REMARK    8  A    between atoms: C10_16  and  C11_17 
REMARK    9  A    between atoms: C14_20  and  C15_21 
REMARK   10  A    between atoms: C15_21  and  O4_22 
REMARK   11  A    between atoms: C15_21  and  C16_23 
REMARK   12  A    between atoms: C16_23  and  C17_24 
REMARK   13  A    between atoms: C16_23  and  N3_31 
REMARK   14  A    between atoms: C17_24  and  C18_25 
REMARK       I    between atoms: N3_31  and  C24_32 
REMARK   15  A    between atoms: C24_32  and  O6_34 
REMARK   16  A    between atoms: O6_34  and  C25_35 
ROOT
HETATM    1  C15 UNL     1      -1.242   1.431   0.448  1.00  0.00     0.155 C 
ENDROOT
BRANCH   1   2
HETATM    2  C14 UNL     1       0.160   1.516   1.075  1.00  0.00     0.141 C 
BRANCH   2   3
HETATM    3  N2  UNL     1       1.228   0.543   0.597  1.00  0.00    -0.204 NA
BRANCH   3   4
HETATM    4  S1  UNL     1       1.869   1.002  -0.963  1.00  0.00     0.243 S 
HETATM    5  O2  UNL     1       0.848   0.852  -1.976  1.00  0.00    -0.206 OA
HETATM    6  O3  UNL     1       2.585   2.249  -0.780  1.00  0.00    -0.206 OA
BRANCH   4   7
HETATM    7  C9  UNL     1       3.076  -0.263  -1.330  1.00  0.00     0.075 A 
HETATM    8  C8  UNL     1       2.640  -1.499  -1.825  1.00  0.00     0.027 A 
HETATM    9  C7  UNL     1       3.564  -2.492  -2.165  1.00  0.00     0.039 A 
HETATM   10  C6  UNL     1       4.912  -2.179  -1.992  1.00  0.00     0.086 A 
HETATM   11  O1  UNL     1       5.953  -3.012  -2.261  1.00  0.00    -0.321 OA
HETATM   12  C32 UNL     1       5.382  -0.958  -1.520  1.00  0.00     0.009 A 
HETATM   13  C5  UNL     1       7.090  -2.333  -1.965  1.00  0.00     0.152 A 
HETATM   14  C4  UNL     1       6.809  -1.062  -1.498  1.00  0.00     0.005 A 
HETATM   15  C31 UNL     1       4.443   0.037  -1.195  1.00  0.00     0.039 A 
BRANCH  14  16
HETATM   16  C3  UNL     1       7.793  -0.040  -1.045  1.00  0.00     0.311 C 
BRANCH  16  17
HETATM   17  N1  UNL     1       8.518   0.544  -2.178  1.00  0.00     0.087 N 
HETATM   18  H6  UNL     1       9.309   1.064  -1.794  1.00  0.00     0.316 HD
BRANCH  17  19
HETATM   19  C2  UNL     1       7.708   1.474  -2.971  1.00  0.00     0.265 C 
HETATM   20  C1  UNL     1       7.311   0.857  -4.302  1.00  0.00     0.037 C 
ENDBRANCH  17  19
ENDBRANCH  16  17
ENDBRANCH  14  16
ENDBRANCH   4   7
ENDBRANCH   3   4
BRANCH   3  21
HETATM   21  C10 UNL     1       2.295   0.429   1.665  1.00  0.00     0.111 C 
BRANCH  21  22
HETATM   22  C11 UNL     1       2.175  -0.857   2.504  1.00  0.00    -0.009 C 
HETATM   23  C12 UNL     1       0.910  -0.909   3.355  1.00  0.00     0.011 C 
HETATM   24  C13 UNL     1       2.306  -2.127   1.669  1.00  0.00     0.011 C 
ENDBRANCH  21  22
ENDBRANCH   3  21
ENDBRANCH   2   3
ENDBRANCH   1   2
BRANCH   1  25
HETATM   25  O4  UNL     1      -1.277   2.042  -0.840  1.00  0.00    -0.392 OA
HETATM   26  H24 UNL     1      -2.152   1.853  -1.223  1.00  0.00     0.210 HD
ENDBRANCH   1  25
BRANCH   1  27
HETATM   27  C16 UNL     1      -1.954   0.046   0.462  1.00  0.00     0.120 C 
BRANCH  27  28
HETATM   28  C17 UNL     1      -1.336  -0.975  -0.516  1.00  0.00     0.066 C 
BRANCH  28  29
HETATM   29  C18 UNL     1      -2.039  -2.318  -0.559  1.00  0.00    -0.056 A 
HETATM   30  C19 UNL     1      -2.166  -3.111   0.589  1.00  0.00     0.007 A 
HETATM   31  C20 UNL     1      -2.808  -4.349   0.525  1.00  0.00     0.001 A 
HETATM   32  C21 UNL     1      -3.318  -4.812  -0.687  1.00  0.00     0.000 A 
HETATM   33  C22 UNL     1      -3.185  -4.038  -1.838  1.00  0.00     0.001 A 
HETATM   34  C23 UNL     1      -2.547  -2.800  -1.776  1.00  0.00     0.007 A 
ENDBRANCH  28  29
ENDBRANCH  27  28
BRANCH  27  35
HETATM   35  N3  UNL     1      -3.384   0.228   0.147  1.00  0.00    -0.329 N 
HETATM   36  C24 UNL     1      -4.260   0.833   0.995  1.00  0.00     0.361 C 
HETATM   37  O5  UNL     1      -3.957   1.391   2.038  1.00  0.00    -0.238 OA
HETATM   38  H33 UNL     1      -3.814  -0.329  -0.586  1.00  0.00     0.165 HD
BRANCH  36  39
HETATM   39  O6  UNL     1      -5.512   0.733   0.489  1.00  0.00    -0.296 OA
BRANCH  39  40
HETATM   40  C25 UNL     1      -6.531   1.434   1.212  1.00  0.00     0.166 C 
HETATM   41  C26 UNL     1      -7.869   0.724   1.091  1.00  0.00     0.204 C 
HETATM   42  O7  UNL     1      -8.877   1.727   1.245  1.00  0.00    -0.358 OA
HETATM   43  C27 UNL     1      -8.280   2.999   0.986  1.00  0.00     0.266 C 
HETATM   44  O8  UNL     1      -8.242   3.808   2.169  1.00  0.00    -0.361 OA
HETATM   45  C30 UNL     1      -6.847   2.767   0.552  1.00  0.00     0.075 C 
HETATM   46  C28 UNL     1      -6.899   4.254   2.388  1.00  0.00     0.171 C 
HETATM   47  C29 UNL     1      -6.124   3.964   1.119  1.00  0.00     0.038 C 
ENDBRANCH  39  40
ENDBRANCH  36  39
ENDBRANCH  27  35
ENDBRANCH   1  27
TORSDOF 16
