REMARK  7 active torsions:
REMARK  status: ('A' for Active; 'I' for Inactive)
REMARK    1  A    between atoms: N1_2  and  C2_3 
REMARK    2  A    between atoms: C4_5  and  N4_34 
REMARK    3  A    between atoms: C5_7  and  N2_12 
REMARK    4  A    between atoms: C7_9  and  O2_10 
REMARK    5  A    between atoms: C18_24  and  O3_25 
REMARK    6  A    between atoms: C19_26  and  C20_27 
REMARK    7  A    between atoms: C27_35  and  C28_36 
ROOT
HETATM    1  C2  UNL     1      -2.933  -1.257  -0.779  1.00  0.00     0.257 C 
HETATM    2  C3  UNL     1      -1.741  -2.221  -0.837  1.00  0.00     0.092 C 
HETATM    3  C4  UNL     1      -0.515  -1.590  -1.509  1.00  0.00     0.234 C 
HETATM    4  O1  UNL     1      -0.760  -0.324  -2.115  1.00  0.00    -0.333 OA
HETATM    5  C5  UNL     1      -1.423   0.690  -1.318  1.00  0.00     0.168 C 
HETATM    6  C6  UNL     1      -2.213   1.423  -2.428  1.00  0.00     0.074 C 
HETATM    7  C7  UNL     1      -2.426   0.109  -0.265  1.00  0.00     0.209 C 
ENDROOT
BRANCH   1   8
HETATM    8  N1  UNL     1      -4.016  -1.744   0.100  1.00  0.00     0.086 N 
HETATM    9  C1  UNL     1      -4.630  -2.982  -0.356  1.00  0.00     0.307 C 
HETATM   10  H4  UNL     1      -3.637  -1.872   1.042  1.00  0.00     0.316 HD
ENDBRANCH   1   8
BRANCH   7  11
HETATM   11  O2  UNL     1      -1.804  -0.155   1.015  1.00  0.00    -0.384 OA
HETATM   12  C8  UNL     1      -2.243   0.725   2.041  1.00  0.00     0.202 C 
ENDBRANCH   7  11
BRANCH   3  13
HETATM   13  N4  UNL     1       0.702  -1.557  -0.703  1.00  0.00    -0.316 N 
HETATM   14  C26 UNL     1       1.496  -2.661  -0.431  1.00  0.00     0.048 A 
HETATM   15  C21 UNL     1       2.640  -2.198   0.244  1.00  0.00     0.004 A 
HETATM   16  C25 UNL     1       1.308  -4.022  -0.732  1.00  0.00     0.030 A 
HETATM   17  C20 UNL     1       2.516  -0.779   0.379  1.00  0.00     0.021 A 
HETATM   18  C22 UNL     1       3.611  -3.150   0.623  1.00  0.00     0.014 A 
HETATM   19  C27 UNL     1       1.301  -0.445  -0.199  1.00  0.00     0.077 A 
HETATM   20  C23 UNL     1       3.428  -4.505   0.330  1.00  0.00     0.001 A 
HETATM   21  C24 UNL     1       2.290  -4.933  -0.340  1.00  0.00     0.002 A 
BRANCH  17  22
HETATM   22  C19 UNL     1       3.226   0.312   0.900  1.00  0.00     0.037 A 
HETATM   23  C16 UNL     1       2.787   1.659   0.889  1.00  0.00    -0.012 A 
HETATM   24  C15 UNL     1       1.552   2.037   0.343  1.00  0.00     0.015 A 
HETATM   25  C17 UNL     1       3.841   2.491   1.566  1.00  0.00     0.162 A 
HETATM   26  C14 UNL     1       0.789   3.229   0.220  1.00  0.00     0.004 A 
HETATM   27  C28 UNL     1       0.793   1.031  -0.214  1.00  0.00     0.077 A 
HETATM   28  C9  UNL     1      -0.440   2.894  -0.382  1.00  0.00     0.049 A 
HETATM   29  C13 UNL     1       1.026   4.564   0.616  1.00  0.00     0.014 A 
HETATM   30  N2  UNL     1      -0.389   1.536  -0.696  1.00  0.00    -0.308 N 
HETATM   31  C10 UNL     1      -1.438   3.875  -0.540  1.00  0.00     0.030 A 
HETATM   32  C11 UNL     1      -1.176   5.190  -0.137  1.00  0.00     0.002 A 
HETATM   33  C12 UNL     1       0.043   5.535   0.426  1.00  0.00     0.001 A 
HETATM   34  N3  UNL     1       4.930   1.552   1.966  1.00  0.00    -0.366 N 
HETATM   35  C18 UNL     1       4.506   0.396   1.563  1.00  0.00     0.148 A 
ATOM     36  H3  UNL     1       5.804   1.770   2.445  1.00  0.00     0.162 HD
BRANCH  35  37
HETATM   37  O3  UNL     1       5.248  -0.686   1.761  1.00  0.00    -0.346 OA
HETATM   38  H22 UNL     1       6.057  -0.397   2.214  1.00  0.00     0.219 HD
ENDBRANCH  35  37
ENDBRANCH  17  22
ENDBRANCH   3  13
TORSDOF 7
