REMARK  5 active torsions:
REMARK  status: ('A' for Active; 'I' for Inactive)
REMARK    1  A    between atoms: N1_2  and  C2_3 
REMARK    2  A    between atoms: C4_5  and  N4_34 
REMARK    3  A    between atoms: C5_7  and  N2_12 
REMARK    4  A    between atoms: C7_9  and  O2_10 
REMARK    5  A    between atoms: C27_35  and  C28_36 
ROOT
HETATM    1  C2  UNL     1      -3.039  -0.929  -0.336  1.00  0.00     0.257 C 
HETATM    2  C3  UNL     1      -1.990  -2.047  -0.328  1.00  0.00     0.092 C 
HETATM    3  C4  UNL     1      -0.747  -1.685  -1.149  1.00  0.00     0.234 C 
HETATM    4  O1  UNL     1      -0.865  -0.487  -1.908  1.00  0.00    -0.333 OA
HETATM    5  C5  UNL     1      -1.334   0.703  -1.226  1.00  0.00     0.168 C 
HETATM    6  C6  UNL     1      -2.100   1.384  -2.385  1.00  0.00     0.074 C 
HETATM    7  C7  UNL     1      -2.323   0.409  -0.048  1.00  0.00     0.209 C 
ENDROOT
BRANCH   1   8
HETATM    8  N1  UNL     1      -4.106  -1.144   0.663  1.00  0.00     0.086 N 
HETATM    9  C1  UNL     1      -4.912  -2.329   0.414  1.00  0.00     0.307 C 
HETATM   10  H4  UNL     1      -3.679  -1.204   1.591  1.00  0.00     0.316 HD
ENDBRANCH   1   8
BRANCH   7  11
HETATM   11  O2  UNL     1      -1.640   0.234   1.216  1.00  0.00    -0.384 OA
HETATM   12  C8  UNL     1      -1.924   1.271   2.149  1.00  0.00     0.202 C 
ENDBRANCH   7  11
BRANCH   3  13
HETATM   13  N4  UNL     1       0.521  -1.715  -0.427  1.00  0.00    -0.316 N 
HETATM   14  C26 UNL     1       1.185  -2.874  -0.052  1.00  0.00     0.048 A 
HETATM   15  C21 UNL     1       2.429  -2.492   0.477  1.00  0.00     0.004 A 
HETATM   16  C25 UNL     1       0.801  -4.224  -0.147  1.00  0.00     0.030 A 
HETATM   17  C20 UNL     1       2.500  -1.067   0.420  1.00  0.00     0.022 A 
HETATM   18  C22 UNL     1       3.302  -3.507   0.925  1.00  0.00     0.014 A 
HETATM   19  C19 UNL     1       3.394  -0.039   0.742  1.00  0.00     0.062 A 
HETATM   20  C27 UNL     1       1.298  -0.639  -0.120  1.00  0.00     0.077 A 
HETATM   21  C16 UNL     1       3.118   1.339   0.566  1.00  0.00     0.062 A 
HETATM   22  C18 UNL     1       4.736  -0.136   1.316  1.00  0.00     0.260 A 
HETATM   23  C15 UNL     1       1.912   1.843   0.059  1.00  0.00     0.022 A 
HETATM   24  C17 UNL     1       4.295   2.069   1.040  1.00  0.00     0.260 A 
HETATM   25  C14 UNL     1       1.287   3.101  -0.179  1.00  0.00     0.004 A 
HETATM   26  C28 UNL     1       0.987   0.882  -0.307  1.00  0.00     0.078 A 
HETATM   27  C9  UNL     1      -0.021   2.853  -0.644  1.00  0.00     0.049 A 
HETATM   28  C13 UNL     1       1.698   4.441   0.007  1.00  0.00     0.014 A 
HETATM   29  N2  UNL     1      -0.157   1.473  -0.781  1.00  0.00    -0.308 N 
HETATM   30  C10 UNL     1      -0.914   3.921  -0.861  1.00  0.00     0.030 A 
HETATM   31  C11 UNL     1      -0.476   5.234  -0.663  1.00  0.00     0.002 A 
HETATM   32  C12 UNL     1       0.818   5.494  -0.244  1.00  0.00     0.001 A 
HETATM   33  O3  UNL     1       4.459   3.272   1.064  1.00  0.00    -0.267 OA
HETATM   34  N3  UNL     1       5.191   1.136   1.457  1.00  0.00    -0.289 N 
HETATM   35  H20 UNL     1       6.097   1.364   1.833  1.00  0.00     0.172 HD
HETATM   36  O4  UNL     1       5.341  -1.146   1.614  1.00  0.00    -0.267 OA
HETATM   37  C23 UNL     1       2.923  -4.851   0.836  1.00  0.00     0.001 A 
HETATM   38  C24 UNL     1       1.688  -5.202   0.307  1.00  0.00     0.002 A 
ENDBRANCH   3  13
TORSDOF 5
