REMARK  6 active torsions:
REMARK  status: ('A' for Active; 'I' for Inactive)
REMARK    1  A    between atoms: N1_2  and  C2_3 
REMARK    2  A    between atoms: C4_5  and  N3_29 
REMARK    3  A    between atoms: C5_7  and  N2_12 
REMARK    4  A    between atoms: C7_9  and  O2_10 
REMARK    5  A    between atoms: C27_32  and  O3_33 
REMARK    6  A    between atoms: C28_36  and  O4_37 
ROOT
HETATM    1  C2  UNL     1      -3.095  -1.310   0.229  1.00  0.00     0.257 C 
HETATM    2  C3  UNL     1      -1.942  -2.320   0.213  1.00  0.00     0.092 C 
HETATM    3  C4  UNL     1      -0.874  -1.963  -0.830  1.00  0.00     0.234 C 
HETATM    4  O1  UNL     1      -1.236  -0.893  -1.700  1.00  0.00    -0.333 OA
HETATM    5  C5  UNL     1      -1.713   0.335  -1.094  1.00  0.00     0.168 C 
HETATM    6  C6  UNL     1      -2.705   0.799  -2.187  1.00  0.00     0.074 C 
HETATM    7  C7  UNL     1      -2.482   0.112   0.253  1.00  0.00     0.209 C 
ENDROOT
BRANCH   1   8
HETATM    8  N1  UNL     1      -3.990  -1.543   1.384  1.00  0.00     0.086 N 
HETATM    9  C1  UNL     1      -4.848  -2.708   1.215  1.00  0.00     0.307 C 
HETATM   10  H4  UNL     1      -4.570  -0.723   1.552  1.00  0.00     0.316 HD
ENDBRANCH   1   8
BRANCH   7  11
HETATM   11  O2  UNL     1      -1.599   0.167   1.391  1.00  0.00    -0.384 OA
HETATM   12  C8  UNL     1      -1.867   1.252   2.265  1.00  0.00     0.202 C 
ENDBRANCH   7  11
BRANCH   3  13
HETATM   13  N3  UNL     1       0.485  -1.789  -0.328  1.00  0.00    -0.316 N 
HETATM   14  C24 UNL     1       1.318  -2.827   0.064  1.00  0.00     0.048 A 
HETATM   15  C19 UNL     1       2.583  -2.273   0.324  1.00  0.00     0.004 A 
HETATM   16  C23 UNL     1       1.063  -4.204   0.198  1.00  0.00     0.030 A 
HETATM   17  C18 UNL     1       2.496  -0.865   0.089  1.00  0.00     0.021 A 
HETATM   18  C20 UNL     1       3.613  -3.149   0.733  1.00  0.00     0.014 A 
HETATM   19  C17 UNL     1       3.302   0.281   0.133  1.00  0.00     0.040 A 
HETATM   20  C25 UNL     1       1.184  -0.623  -0.288  1.00  0.00     0.077 A 
HETATM   21  C16 UNL     1       2.878   1.602  -0.155  1.00  0.00     0.019 A 
HETATM   22  C27 UNL     1       4.691   0.461   0.484  1.00  0.00     0.150 A 
HETATM   23  C15 UNL     1       1.551   1.895  -0.508  1.00  0.00     0.017 A 
HETATM   24  C28 UNL     1       4.057   2.513   0.071  1.00  0.00     0.256 A 
HETATM   25  C14 UNL     1       0.774   3.055  -0.773  1.00  0.00     0.004 A 
HETATM   26  C26 UNL     1       0.689   0.823  -0.598  1.00  0.00     0.077 A 
HETATM   27  C9  UNL     1      -0.559   2.646  -0.974  1.00  0.00     0.049 A 
HETATM   28  C13 UNL     1       1.086   4.432  -0.811  1.00  0.00     0.014 A 
HETATM   29  N2  UNL     1      -0.570   1.252  -0.937  1.00  0.00    -0.308 N 
HETATM   30  C10 UNL     1      -1.575   3.606  -1.148  1.00  0.00     0.030 A 
HETATM   31  C11 UNL     1      -1.236   4.964  -1.173  1.00  0.00     0.002 A 
HETATM   32  C12 UNL     1       0.079   5.374  -1.017  1.00  0.00     0.001 A 
HETATM   33  N4  UNL     1       5.197   1.653   0.474  1.00  0.00    -0.340 N 
ATOM     34  H4  UNL     1       6.153   1.934   0.692  1.00  0.00     0.164 HD
HETATM   35  C21 UNL     1       3.365  -4.519   0.871  1.00  0.00     0.001 A 
HETATM   36  C22 UNL     1       2.105  -5.037   0.607  1.00  0.00     0.002 A 
BRANCH  24  37
HETATM   37  O4  UNL     1       4.333   3.251  -1.098  1.00  0.00    -0.372 OA
HETATM   38  H26 UNL     1       5.300   3.181  -1.168  1.00  0.00     0.212 HD
ENDBRANCH  24  37
BRANCH  22  39
HETATM   39  O3  UNL     1       5.452  -0.577   0.811  1.00  0.00    -0.346 OA
HETATM   40  H24 UNL     1       6.341  -0.239   1.007  1.00  0.00     0.219 HD
ENDBRANCH  22  39
ENDBRANCH   3  13
TORSDOF 6
