REMARK  5 active torsions:
REMARK  status: ('A' for Active; 'I' for Inactive)
REMARK    1  A    between atoms: N1_2  and  C2_3 
REMARK    2  A    between atoms: C4_5  and  N4_34 
REMARK    3  A    between atoms: C5_7  and  N2_12 
REMARK    4  A    between atoms: C7_9  and  O2_10 
REMARK    5  A    between atoms: C27_35  and  C28_36 
ROOT
HETATM    1  C2  UNL     1      -3.055  -0.838   0.285  1.00  0.00     0.257 C 
HETATM    2  C3  UNL     1      -2.023  -1.970   0.378  1.00  0.00     0.092 C 
HETATM    3  C4  UNL     1      -0.842  -1.599   1.284  1.00  0.00     0.234 C 
HETATM    4  O1  UNL     1      -0.988  -0.361   1.975  1.00  0.00    -0.333 OA
HETATM    5  C5  UNL     1      -1.370   0.802   1.200  1.00  0.00     0.168 C 
HETATM    6  C6  UNL     1      -2.178   1.575   2.269  1.00  0.00     0.074 C 
HETATM    7  C7  UNL     1      -2.288   0.472  -0.024  1.00  0.00     0.209 C 
ENDROOT
BRANCH   1   8
HETATM    8  N1  UNL     1      -4.090  -1.120  -0.734  1.00  0.00     0.086 N 
HETATM    9  C1  UNL     1      -4.977  -2.217  -0.368  1.00  0.00     0.307 C 
HETATM   10  H4  UNL     1      -4.651  -0.285  -0.899  1.00  0.00     0.316 HD
ENDBRANCH   1   8
BRANCH   7  11
HETATM   11  O2  UNL     1      -1.498   0.249  -1.210  1.00  0.00    -0.384 OA
HETATM   12  C8  UNL     1      -1.941   0.997  -2.333  1.00  0.00     0.202 C 
ENDBRANCH   7  11
BRANCH   3  13
HETATM   13  N4  UNL     1       0.485  -1.699   0.685  1.00  0.00    -0.316 N 
HETATM   14  C26 UNL     1       1.153  -2.890   0.445  1.00  0.00     0.048 A 
HETATM   15  C21 UNL     1       2.453  -2.564   0.025  1.00  0.00     0.004 A 
HETATM   16  C25 UNL     1       0.726  -4.224   0.575  1.00  0.00     0.030 A 
HETATM   17  C20 UNL     1       2.553  -1.139   0.004  1.00  0.00     0.022 A 
HETATM   18  C22 UNL     1       3.341  -3.620  -0.273  1.00  0.00     0.014 A 
HETATM   19  C19 UNL     1       3.498  -0.149  -0.290  1.00  0.00     0.062 A 
HETATM   20  C27 UNL     1       1.315  -0.658   0.397  1.00  0.00     0.077 A 
HETATM   21  C16 UNL     1       3.236   1.242  -0.231  1.00  0.00     0.062 A 
HETATM   22  C18 UNL     1       4.887  -0.304  -0.720  1.00  0.00     0.260 A 
HETATM   23  C15 UNL     1       1.997   1.797   0.119  1.00  0.00     0.022 A 
HETATM   24  C17 UNL     1       4.469   1.921  -0.633  1.00  0.00     0.260 A 
HETATM   25  C14 UNL     1       1.374   3.076   0.197  1.00  0.00     0.004 A 
HETATM   26  C28 UNL     1       1.023   0.877   0.460  1.00  0.00     0.078 A 
HETATM   27  C9  UNL     1       0.021   2.875   0.541  1.00  0.00     0.049 A 
HETATM   28  C13 UNL     1       1.821   4.393  -0.053  1.00  0.00     0.014 A 
HETATM   29  N2  UNL     1      -0.145   1.515   0.789  1.00  0.00    -0.308 N 
HETATM   30  C10 UNL     1      -0.877   3.960   0.567  1.00  0.00     0.030 A 
HETATM   31  C11 UNL     1      -0.402   5.250   0.309  1.00  0.00     0.002 A 
HETATM   32  C12 UNL     1       0.933   5.468   0.014  1.00  0.00     0.001 A 
HETATM   33  O3  UNL     1       4.663   3.117  -0.710  1.00  0.00    -0.267 OA
HETATM   34  N3  UNL     1       5.379   0.949  -0.903  1.00  0.00    -0.289 N 
HETATM   35  H20 UNL     1       6.323   1.138  -1.198  1.00  0.00     0.172 HD
HETATM   36  O4  UNL     1       5.499  -1.340  -0.885  1.00  0.00    -0.267 OA
HETATM   37  C23 UNL     1       2.921  -4.949  -0.148  1.00  0.00     0.001 A 
HETATM   38  C24 UNL     1       1.630  -5.244   0.270  1.00  0.00     0.002 A 
ENDBRANCH   3  13
TORSDOF 5
