REMARK  6 active torsions:
REMARK  status: ('A' for Active; 'I' for Inactive)
REMARK    1  A    between atoms: C2_2  and  C3_3 
REMARK       I    between atoms: C3_3  and  N1_5 
REMARK    2  A    between atoms: C7_9  and  N2_10 
REMARK    3  A    between atoms: C8_13  and  C9_14 
REMARK    4  A    between atoms: C12_17  and  O2_18 
REMARK    5  A    between atoms: O2_18  and  C13_19 
REMARK    6  A    between atoms: C22_28  and  N4_29 
ROOT
HETATM    1  N2  UNL     1       1.739  -0.808  -0.095  1.00  0.00    -0.269 N 
HETATM    2  N3  UNL     1       0.498  -0.281  -0.163  1.00  0.00    -0.295 N 
ATOM      3  H3  UNL     1       0.237   0.671  -0.420  1.00  0.00     0.187 HD
HETATM    4  C8  UNL     1      -0.316  -1.294   0.184  1.00  0.00     0.075 A 
HETATM    5  C21 UNL     1       0.417  -2.500   0.390  1.00  0.00     0.076 A 
HETATM    6  C22 UNL     1       0.167  -3.845   0.690  1.00  0.00     0.095 A 
HETATM    7  N5  UNL     1       1.214  -4.690   0.797  1.00  0.00    -0.342 N 
ATOM      8  H5  UNL     1       1.067  -5.675   1.017  1.00  0.00     0.167 HD
HETATM    9  C23 UNL     1       2.456  -4.207   0.607  1.00  0.00     0.183 A 
HETATM   10  N6  UNL     1       2.814  -2.951   0.298  1.00  0.00    -0.337 N 
ATOM     11  H6  UNL     1       3.777  -2.648   0.151  1.00  0.00     0.168 HD
HETATM   12  C24 UNL     1       1.743  -2.143   0.206  1.00  0.00     0.139 A 
ENDROOT
BRANCH   4  13
HETATM   13  C9  UNL     1      -1.757  -1.076   0.283  1.00  0.00    -0.007 A 
HETATM   14  C10 UNL     1      -2.471  -1.504   1.410  1.00  0.00     0.016 A 
HETATM   15  C11 UNL     1      -3.852  -1.301   1.490  1.00  0.00     0.038 A 
HETATM   16  C12 UNL     1      -4.521  -0.648   0.456  1.00  0.00     0.076 A 
HETATM   17  C19 UNL     1      -3.821  -0.222  -0.674  1.00  0.00     0.038 A 
HETATM   18  C20 UNL     1      -2.440  -0.424  -0.753  1.00  0.00     0.016 A 
BRANCH  16  19
HETATM   19  O2  UNL     1      -5.885  -0.520   0.580  1.00  0.00    -0.311 OA
BRANCH  19  20
HETATM   20  C13 UNL     1      -6.439   0.706   0.288  1.00  0.00     0.076 A 
HETATM   21  C14 UNL     1      -5.913   1.909   0.764  1.00  0.00     0.037 A 
HETATM   22  C15 UNL     1      -6.551   3.113   0.459  1.00  0.00     0.003 A 
HETATM   23  C16 UNL     1      -7.719   3.111  -0.304  1.00  0.00     0.000 A 
HETATM   24  C17 UNL     1      -8.255   1.906  -0.759  1.00  0.00     0.003 A 
HETATM   25  C18 UNL     1      -7.619   0.702  -0.456  1.00  0.00     0.037 A 
ENDBRANCH  19  20
ENDBRANCH  16  19
ENDBRANCH   4  13
BRANCH   1  26
HETATM   26  C7  UNL     1       2.885   0.036  -0.400  1.00  0.00     0.128 C 
HETATM   27  C6  UNL     1       3.498  -0.303  -1.773  1.00  0.00     0.030 C 
HETATM   28  C5  UNL     1       4.728   0.562  -2.069  1.00  0.00     0.022 C 
HETATM   29  C4  UNL     1       5.741   0.506  -0.922  1.00  0.00     0.126 C 
HETATM   30  N1  UNL     1       5.087   0.877   0.334  1.00  0.00    -0.347 N 
HETATM   31  C3  UNL     1       5.108   2.152   0.882  1.00  0.00     0.242 C 
HETATM   32  C25 UNL     1       3.963   0.003   0.694  1.00  0.00     0.153 C 
HETATM   33  O1  UNL     1       4.236   2.569   1.640  1.00  0.00    -0.268 OA
BRANCH  31  34
HETATM   34  C2  UNL     1       6.267   3.014   0.531  1.00  0.00     0.064 C 
HETATM   35  C1  UNL     1       6.157   4.348   0.584  1.00  0.00     0.017 C 
ENDBRANCH  31  34
ENDBRANCH   1  26
BRANCH   6  36
HETATM   36  N4  UNL     1      -1.093  -4.402   0.861  1.00  0.00    -0.288 NA
HETATM   37  H20 UNL     1      -1.830  -3.967   0.321  1.00  0.00     0.125 HD
HETATM   38  H21 UNL     1      -1.043  -5.412   0.799  1.00  0.00     0.125 HD
ENDBRANCH   6  36
TORSDOF 6
