REMARK  5 active torsions:
REMARK  status: ('A' for Active; 'I' for Inactive)
REMARK    1  A    between atoms: N1_2  and  C2_3 
REMARK    2  A    between atoms: C4_5  and  N3_29 
REMARK    3  A    between atoms: C5_7  and  N2_12 
REMARK    4  A    between atoms: C7_9  and  O2_10 
REMARK    5  A    between atoms: C28_35  and  O4_36 
ROOT
HETATM    1  C2  UNL     1      -2.763  -1.464   1.100  1.00  0.00     0.257 C 
HETATM    2  C3  UNL     1      -1.472  -2.200   0.768  1.00  0.00     0.092 C 
HETATM    3  C4  UNL     1      -0.338  -1.688   1.642  1.00  0.00     0.234 C 
HETATM    4  O1  UNL     1      -0.552  -0.409   2.225  1.00  0.00    -0.333 OA
HETATM    5  C5  UNL     1      -1.289   0.600   1.492  1.00  0.00     0.168 C 
HETATM    6  C6  UNL     1      -1.628   1.558   2.660  1.00  0.00     0.074 C 
HETATM    7  C7  UNL     1      -2.577   0.042   0.771  1.00  0.00     0.209 C 
ENDROOT
BRANCH   1   8
HETATM    8  N1  UNL     1      -3.943  -2.109   0.488  1.00  0.00     0.086 N 
HETATM    9  C1  UNL     1      -3.886  -2.301  -0.953  1.00  0.00     0.307 C 
HETATM   10  H4  UNL     1      -4.770  -1.562   0.734  1.00  0.00     0.316 HD
ENDBRANCH   1   8
BRANCH   7  11
HETATM   11  O2  UNL     1      -3.760   0.762   1.181  1.00  0.00    -0.384 OA
HETATM   12  C8  UNL     1      -4.592   1.172   0.102  1.00  0.00     0.202 C 
ENDBRANCH   7  11
BRANCH   3  13
HETATM   13  N3  UNL     1       0.944  -1.693   0.956  1.00  0.00    -0.316 N 
HETATM   14  C24 UNL     1       1.824  -2.756   0.874  1.00  0.00     0.048 A 
HETATM   15  C19 UNL     1       2.901  -2.338   0.072  1.00  0.00     0.004 A 
HETATM   16  C23 UNL     1       1.764  -4.047   1.429  1.00  0.00     0.030 A 
HETATM   17  C18 UNL     1       2.637  -0.994  -0.338  1.00  0.00     0.022 A 
HETATM   18  C20 UNL     1       3.948  -3.255  -0.164  1.00  0.00     0.014 A 
HETATM   19  C17 UNL     1       3.218   0.013  -1.120  1.00  0.00     0.057 A 
HETATM   20  C25 UNL     1       1.426  -0.649   0.235  1.00  0.00     0.077 A 
HETATM   21  C16 UNL     1       2.643   1.300  -1.351  1.00  0.00     0.020 A 
HETATM   22  C27 UNL     1       4.479  -0.035  -1.874  1.00  0.00     0.255 C 
HETATM   23  C15 UNL     1       1.408   1.675  -0.793  1.00  0.00     0.017 A 
HETATM   24  C28 UNL     1       3.538   2.061  -2.286  1.00  0.00     0.257 C 
HETATM   25  C14 UNL     1       0.549   2.804  -0.855  1.00  0.00     0.004 A 
HETATM   26  C26 UNL     1       0.779   0.748   0.015  1.00  0.00     0.077 A 
HETATM   27  C9  UNL     1      -0.591   2.516  -0.084  1.00  0.00     0.049 A 
HETATM   28  C13 UNL     1       0.631   4.042  -1.530  1.00  0.00     0.014 A 
HETATM   29  N2  UNL     1      -0.388   1.269   0.516  1.00  0.00    -0.308 N 
HETATM   30  C10 UNL     1      -1.657   3.434  -0.024  1.00  0.00     0.030 A 
HETATM   31  C11 UNL     1      -1.554   4.648  -0.709  1.00  0.00     0.002 A 
HETATM   32  C12 UNL     1      -0.421   4.956  -1.447  1.00  0.00     0.001 A 
HETATM   33  N4  UNL     1       4.658   1.201  -2.454  1.00  0.00    -0.326 N 
HETATM   34  H24 UNL     1       5.386   1.351  -3.136  1.00  0.00     0.165 HD
HETATM   35  O3  UNL     1       5.239  -0.973  -1.996  1.00  0.00    -0.268 OA
HETATM   36  C21 UNL     1       3.896  -4.539   0.389  1.00  0.00     0.001 A 
HETATM   37  C22 UNL     1       2.817  -4.928   1.173  1.00  0.00     0.002 A 
BRANCH  24  38
HETATM   38  O4  UNL     1       4.028   3.246  -1.720  1.00  0.00    -0.372 OA
HETATM   39  H26 UNL     1       4.623   2.954  -1.008  1.00  0.00     0.212 HD
ENDBRANCH  24  38
ENDBRANCH   3  13
TORSDOF 5
