REMARK  5 active torsions:
REMARK  status: ('A' for Active; 'I' for Inactive)
REMARK    1  A    between atoms: N1_2  and  C2_3 
REMARK    2  A    between atoms: C4_5  and  N3_29 
REMARK    3  A    between atoms: C5_7  and  N2_12 
REMARK    4  A    between atoms: C7_9  and  O2_10 
REMARK    5  A    between atoms: C28_35  and  O4_36 
ROOT
HETATM    1  C2  UNL     1      -3.116  -1.239  -0.406  1.00  0.00     0.257 C 
HETATM    2  C3  UNL     1      -1.988  -2.278  -0.376  1.00  0.00     0.092 C 
HETATM    3  C4  UNL     1      -0.773  -1.840  -1.203  1.00  0.00     0.234 C 
HETATM    4  O1  UNL     1      -0.978  -0.663  -1.979  1.00  0.00    -0.333 OA
HETATM    5  C5  UNL     1      -1.530   0.500  -1.313  1.00  0.00     0.168 C 
HETATM    6  C6  UNL     1      -2.337   1.114  -2.480  1.00  0.00     0.074 C 
HETATM    7  C7  UNL     1      -2.501   0.152  -0.135  1.00  0.00     0.209 C 
ENDROOT
BRANCH   1   8
HETATM    8  N1  UNL     1      -4.170  -1.515   0.593  1.00  0.00     0.086 N 
HETATM    9  C1  UNL     1      -4.884  -2.762   0.362  1.00  0.00     0.307 C 
HETATM   10  H4  UNL     1      -3.742  -1.528   1.523  1.00  0.00     0.316 HD
ENDBRANCH   1   8
BRANCH   7  11
HETATM   11  O2  UNL     1      -1.818   0.047   1.136  1.00  0.00    -0.384 OA
HETATM   12  C8  UNL     1      -2.172   1.081   2.046  1.00  0.00     0.202 C 
ENDBRANCH   7  11
BRANCH   3  13
HETATM   13  N3  UNL     1       0.492  -1.771  -0.479  1.00  0.00    -0.316 N 
HETATM   14  C24 UNL     1       1.238  -2.874  -0.089  1.00  0.00     0.048 A 
HETATM   15  C19 UNL     1       2.446  -2.394   0.443  1.00  0.00     0.004 A 
HETATM   16  C23 UNL     1       0.954  -4.250  -0.170  1.00  0.00     0.030 A 
HETATM   17  C18 UNL     1       2.413  -0.968   0.371  1.00  0.00     0.022 A 
HETATM   18  C20 UNL     1       3.388  -3.338   0.907  1.00  0.00     0.014 A 
HETATM   19  C17 UNL     1       3.227   0.130   0.687  1.00  0.00     0.057 A 
HETATM   20  C25 UNL     1       1.187  -0.639  -0.183  1.00  0.00     0.077 A 
HETATM   21  C16 UNL     1       2.867   1.500   0.493  1.00  0.00     0.020 A 
HETATM   22  C27 UNL     1       4.577   0.123   1.268  1.00  0.00     0.255 A 
HETATM   23  C15 UNL     1       1.620   1.872  -0.036  1.00  0.00     0.017 A 
HETATM   24  C28 UNL     1       3.983   2.369   0.995  1.00  0.00     0.257 A 
HETATM   25  C14 UNL     1       0.920   3.082  -0.292  1.00  0.00     0.004 A 
HETATM   26  C26 UNL     1       0.769   0.848  -0.392  1.00  0.00     0.077 A 
HETATM   27  C9  UNL     1      -0.365   2.745  -0.760  1.00  0.00     0.049 A 
HETATM   28  C13 UNL     1       1.258   4.442  -0.120  1.00  0.00     0.014 A 
HETATM   29  N2  UNL     1      -0.411   1.355  -0.876  1.00  0.00    -0.308 N 
HETATM   30  C10 UNL     1      -1.318   3.754  -0.998  1.00  0.00     0.030 A 
HETATM   31  C11 UNL     1      -0.956   5.093  -0.814  1.00  0.00     0.002 A 
HETATM   32  C12 UNL     1       0.319   5.437  -0.391  1.00  0.00     0.001 A 
HETATM   33  N4  UNL     1       4.983   1.432   1.374  1.00  0.00    -0.326 N 
HETATM   34  H24 UNL     1       5.868   1.684   1.789  1.00  0.00     0.165 HD
HETATM   35  O3  UNL     1       5.240  -0.838   1.601  1.00  0.00    -0.268 OA
HETATM   36  C21 UNL     1       3.110  -4.707   0.832  1.00  0.00     0.001 A 
HETATM   37  C22 UNL     1       1.908  -5.154   0.300  1.00  0.00     0.002 A 
BRANCH  24  38
HETATM   38  O4  UNL     1       4.549   3.179  -0.003  1.00  0.00    -0.372 OA
HETATM   39  H26 UNL     1       4.533   2.652  -0.819  1.00  0.00     0.212 HD
ENDBRANCH  24  38
ENDBRANCH   3  13
TORSDOF 5
