REMARK  1 active torsions:
REMARK  status: ('A' for Active; 'I' for Inactive)
REMARK    1  A    between atoms: N1_2  and  C2_3 
ROOT
HETATM    1  C2  UNL     1      -0.597  -0.200  -0.341  1.00  0.00     0.164 C 
HETATM    2  C3  UNL     1      -0.641  -0.765  -1.773  1.00  0.00     0.050 C 
HETATM    3  C4  UNL     1      -0.040  -1.235   0.703  1.00  0.00     0.025 C 
HETATM    4  C5  UNL     1       1.342  -1.796   0.305  1.00  0.00     0.007 C 
HETATM    5  C6  UNL     1       2.289  -0.625   0.574  1.00  0.00     0.006 C 
HETATM    6  C7  UNL     1       1.334   0.487   1.039  1.00  0.00    -0.004 C 
HETATM    7  C8  UNL     1       0.349  -0.335   1.880  1.00  0.00     0.012 C 
HETATM    8  C9  UNL     1       0.433   1.019  -0.133  1.00  0.00    -0.008 C 
HETATM    9  C10 UNL     1       1.247   1.404  -1.384  1.00  0.00     0.018 C 
HETATM   10  C11 UNL     1      -0.227   2.342   0.346  1.00  0.00     0.018 C 
ENDROOT
BRANCH   1  11
HETATM   11  N1  UNL     1      -1.967   0.246   0.019  1.00  0.00     0.089 N 
HETATM   12  C1  UNL     1      -2.987  -0.782   0.155  1.00  0.00     0.307 C 
HETATM   13  H4  UNL     1      -2.283   0.930  -0.669  1.00  0.00     0.316 HD
ENDBRANCH   1  11
TORSDOF 1
