REMARK  6 active torsions:
REMARK  status: ('A' for Active; 'I' for Inactive)
REMARK    1  A    between atoms: N1_2  and  C2_3 
REMARK    2  A    between atoms: C4_5  and  N3_29 
REMARK    3  A    between atoms: C5_7  and  N2_12 
REMARK    4  A    between atoms: C7_9  and  O2_10 
REMARK    5  A    between atoms: C27_32  and  O3_33 
REMARK    6  A    between atoms: C28_36  and  O4_37 
ROOT
HETATM    1  C2  UNL     1      -3.006  -1.486   0.190  1.00  0.00     0.257 C 
HETATM    2  C3  UNL     1      -1.794  -2.422   0.282  1.00  0.00     0.092 C 
HETATM    3  C4  UNL     1      -0.714  -2.075  -0.751  1.00  0.00     0.234 C 
HETATM    4  O1  UNL     1      -1.107  -1.097  -1.712  1.00  0.00    -0.333 OA
HETATM    5  C5  UNL     1      -1.681   0.139  -1.215  1.00  0.00     0.168 C 
HETATM    6  C6  UNL     1      -2.667   0.452  -2.365  1.00  0.00     0.074 C 
HETATM    7  C7  UNL     1      -2.478  -0.031   0.124  1.00  0.00     0.209 C 
ENDROOT
BRANCH   1   8
HETATM    8  N1  UNL     1      -3.928  -1.681   1.330  1.00  0.00     0.086 N 
HETATM    9  C1  UNL     1      -4.656  -2.942   1.274  1.00  0.00     0.307 C 
HETATM   10  H4  UNL     1      -4.596  -0.913   1.375  1.00  0.00     0.316 HD
ENDBRANCH   1   8
BRANCH   7  11
HETATM   11  O2  UNL     1      -1.636   0.161   1.278  1.00  0.00    -0.384 OA
HETATM   12  C8  UNL     1      -2.001   1.284   2.065  1.00  0.00     0.202 C 
ENDBRANCH   7  11
BRANCH   3  13
HETATM   13  N3  UNL     1       0.612  -1.779  -0.220  1.00  0.00    -0.316 N 
HETATM   14  C24 UNL     1       1.494  -2.731   0.271  1.00  0.00     0.048 A 
HETATM   15  C19 UNL     1       2.711  -2.080   0.535  1.00  0.00     0.004 A 
HETATM   16  C23 UNL     1       1.321  -4.110   0.494  1.00  0.00     0.030 A 
HETATM   17  C18 UNL     1       2.544  -0.700   0.197  1.00  0.00     0.021 A 
HETATM   18  C20 UNL     1       3.776  -2.856   1.042  1.00  0.00     0.014 A 
HETATM   19  C17 UNL     1       3.278   0.495   0.178  1.00  0.00     0.040 A 
HETATM   20  C25 UNL     1       1.235  -0.569  -0.240  1.00  0.00     0.077 A 
HETATM   21  C16 UNL     1       2.780   1.766  -0.204  1.00  0.00     0.019 A 
HETATM   22  C27 UNL     1       4.654   0.777   0.512  1.00  0.00     0.150 A 
HETATM   23  C15 UNL     1       1.452   1.947  -0.625  1.00  0.00     0.017 A 
HETATM   24  C28 UNL     1       3.912   2.751  -0.068  1.00  0.00     0.256 A 
HETATM   25  C14 UNL     1       0.619   3.031  -1.015  1.00  0.00     0.004 A 
HETATM   26  C26 UNL     1       0.663   0.817  -0.673  1.00  0.00     0.077 A 
HETATM   27  C9  UNL     1      -0.672   2.520  -1.255  1.00  0.00     0.049 A 
HETATM   28  C13 UNL     1       0.845   4.420  -1.136  1.00  0.00     0.014 A 
HETATM   29  N2  UNL     1      -0.603   1.136  -1.095  1.00  0.00    -0.308 N 
HETATM   30  C10 UNL     1      -1.731   3.396  -1.567  1.00  0.00     0.030 A 
HETATM   31  C11 UNL     1      -1.476   4.767  -1.681  1.00  0.00     0.002 A 
HETATM   32  C12 UNL     1      -0.203   5.275  -1.476  1.00  0.00     0.001 A 
HETATM   33  N4  UNL     1       5.094   1.990   0.407  1.00  0.00    -0.340 N 
ATOM     34  H4  UNL     1       6.032   2.340   0.604  1.00  0.00     0.164 HD
HETATM   35  C21 UNL     1       3.610  -4.227   1.268  1.00  0.00     0.001 A 
HETATM   36  C22 UNL     1       2.397  -4.843   0.997  1.00  0.00     0.002 A 
BRANCH  24  37
HETATM   37  O4  UNL     1       3.557   3.787   0.820  1.00  0.00    -0.372 OA
HETATM   38  H26 UNL     1       4.368   3.905   1.342  1.00  0.00     0.212 HD
ENDBRANCH  24  37
BRANCH  22  39
HETATM   39  O3  UNL     1       5.469  -0.191   0.913  1.00  0.00    -0.346 OA
HETATM   40  H24 UNL     1       6.338   0.208   1.081  1.00  0.00     0.219 HD
ENDBRANCH  22  39
ENDBRANCH   3  13
TORSDOF 6
