REMARK  8 active torsions:
REMARK  status: ('A' for Active; 'I' for Inactive)
REMARK    1  A    between atoms: O1_2  and  C2_3 
REMARK    2  A    between atoms: C5_6  and  N1_7 
REMARK    3  A    between atoms: N1_7  and  C6_8 
REMARK    4  A    between atoms: C16_25  and  O4_26 
REMARK    5  A    between atoms: O4_26  and  C17_27 
REMARK    6  A    between atoms: C17_27  and  C18_28 
REMARK    7  A    between atoms: C18_28  and  C19_29 
REMARK    8  A    between atoms: C19_29  and  N4_30 
ROOT
HETATM    1  C2  UNL     1       0.980  -0.447  -0.215  1.00  0.00     0.102 A 
HETATM    2  C3  UNL     1       2.295  -0.433  -0.682  1.00  0.00     0.057 A 
HETATM    3  C4  UNL     1       2.944   0.787  -1.006  1.00  0.00     0.038 A 
HETATM    4  C5  UNL     1       4.268   0.911  -1.474  1.00  0.00     0.119 A 
HETATM    5  N2  UNL     1       4.817   2.097  -1.789  1.00  0.00    -0.338 N 
ATOM      6  H2  UNL     1       5.767   2.170  -2.152  1.00  0.00     0.168 HD
HETATM    7  C13 UNL     1       4.053   3.173  -1.601  1.00  0.00     0.182 A 
HETATM    8  N3  UNL     1       2.792   3.180  -1.152  1.00  0.00    -0.351 N 
ATOM      9  H3  UNL     1       2.270   4.049  -1.037  1.00  0.00     0.166 HD
HETATM   10  C14 UNL     1       2.250   1.994  -0.862  1.00  0.00     0.050 A 
HETATM   11  C15 UNL     1       0.940   1.965  -0.401  1.00  0.00     0.070 A 
HETATM   12  C16 UNL     1       0.292   0.768  -0.079  1.00  0.00     0.104 A 
ENDROOT
BRANCH   4  13
HETATM   13  N1  UNL     1       5.085  -0.222  -1.676  1.00  0.00    -0.338 N 
HETATM   14  H5  UNL     1       4.678  -0.822  -2.389  1.00  0.00     0.167 HD
BRANCH  13  15
HETATM   15  C6  UNL     1       5.676  -1.005  -0.651  1.00  0.00     0.092 A 
HETATM   16  C7  UNL     1       6.130  -2.315  -0.924  1.00  0.00     0.063 A 
HETATM   17 CL1  UNL     1       5.849  -3.031  -2.476  1.00  0.00    -0.082 Cl
HETATM   18  C8  UNL     1       6.787  -3.093   0.049  1.00  0.00     0.029 A 
HETATM   19  C9  UNL     1       7.024  -2.575   1.321  1.00  0.00     0.041 A 
HETATM   20  C10 UNL     1       6.598  -1.289   1.575  1.00  0.00     0.107 A 
HETATM   21  C11 UNL     1       5.953  -0.523   0.625  1.00  0.00     0.133 A 
HETATM   22  O3  UNL     1       6.761  -0.636   2.758  1.00  0.00    -0.323 OA
HETATM   23  O2  UNL     1       5.635   0.710   1.116  1.00  0.00    -0.321 OA
HETATM   24  C12 UNL     1       6.172   0.642   2.448  1.00  0.00     0.352 A 
ENDBRANCH  13  15
ENDBRANCH   4  13
BRANCH   1  25
HETATM   25  O1  UNL     1       0.285  -1.581   0.115  1.00  0.00    -0.353 OA
HETATM   26  C1  UNL     1       1.001  -2.808   0.159  1.00  0.00     0.210 C 
ENDBRANCH   1  25
BRANCH  12  27
HETATM   27  O4  UNL     1      -0.996   0.682   0.386  1.00  0.00    -0.348 OA
BRANCH  27  28
HETATM   28  C17 UNL     1      -1.776   1.874   0.419  1.00  0.00     0.177 C 
BRANCH  28  29
HETATM   29  C18 UNL     1      -3.194   1.536   0.881  1.00  0.00     0.057 C 
BRANCH  29  30
HETATM   30  C19 UNL     1      -3.888   0.560  -0.080  1.00  0.00     0.274 C 
BRANCH  30  31
HETATM   31  N4  UNL     1      -5.267   0.252   0.334  1.00  0.00     0.088 N 
HETATM   32  C20 UNL     1      -5.719  -1.007  -0.289  1.00  0.00     0.272 C 
HETATM   33  C21 UNL     1      -7.245  -1.155  -0.373  1.00  0.00     0.030 C 
HETATM   34  C22 UNL     1      -7.940  -0.415   0.759  1.00  0.00     0.003 C 
HETATM   35  C23 UNL     1      -7.545   1.063   0.769  1.00  0.00     0.030 C 
HETATM   36  C24 UNL     1      -6.209   1.339   0.067  1.00  0.00     0.272 C 
ENDBRANCH  30  31
ENDBRANCH  29  30
ENDBRANCH  28  29
ENDBRANCH  27  28
ENDBRANCH  12  27
TORSDOF 8
