REMARK  5 active torsions:
REMARK  status: ('A' for Active; 'I' for Inactive)
REMARK    1  A    between atoms: N1_2  and  C2_3 
REMARK    2  A    between atoms: C4_5  and  N3_29 
REMARK    3  A    between atoms: C5_7  and  N2_12 
REMARK    4  A    between atoms: C7_9  and  O2_10 
REMARK    5  A    between atoms: C28_35  and  O4_36 
ROOT
HETATM    1  C2  UNL     1      -3.131  -1.264  -0.102  1.00  0.00     0.257 C 
HETATM    2  C3  UNL     1      -2.024  -2.324  -0.082  1.00  0.00     0.092 C 
HETATM    3  C4  UNL     1      -0.855  -1.973  -1.011  1.00  0.00     0.234 C 
HETATM    4  O1  UNL     1      -1.116  -0.890  -1.898  1.00  0.00    -0.333 OA
HETATM    5  C5  UNL     1      -1.618   0.342  -1.322  1.00  0.00     0.168 C 
HETATM    6  C6  UNL     1      -2.543   0.815  -2.468  1.00  0.00     0.074 C 
HETATM    7  C7  UNL     1      -2.475   0.133  -0.026  1.00  0.00     0.209 C 
ENDROOT
BRANCH   1   8
HETATM    8  N1  UNL     1      -4.081  -1.422   1.021  1.00  0.00     0.086 N 
HETATM    9  C1  UNL     1      -4.834  -2.667   0.981  1.00  0.00     0.307 C 
HETATM   10  H4  UNL     1      -3.553  -1.361   1.897  1.00  0.00     0.316 HD
ENDBRANCH   1   8
BRANCH   7  11
HETATM   11  O2  UNL     1      -1.682   0.130   1.183  1.00  0.00    -0.384 OA
HETATM   12  C8  UNL     1      -1.861   1.298   1.972  1.00  0.00     0.202 C 
ENDBRANCH   7  11
BRANCH   3  13
HETATM   13  N3  UNL     1       0.443  -1.821  -0.360  1.00  0.00    -0.316 N 
HETATM   14  C24 UNL     1       1.203  -2.873   0.132  1.00  0.00     0.048 A 
HETATM   15  C19 UNL     1       2.433  -2.340   0.552  1.00  0.00     0.004 A 
HETATM   16  C23 UNL     1       0.915  -4.246   0.232  1.00  0.00     0.030 A 
HETATM   17  C18 UNL     1       2.402  -0.935   0.299  1.00  0.00     0.022 A 
HETATM   18  C20 UNL     1       3.388  -3.223   1.099  1.00  0.00     0.014 A 
HETATM   19  C17 UNL     1       3.234   0.186   0.435  1.00  0.00     0.057 A 
HETATM   20  C25 UNL     1       1.153  -0.668  -0.236  1.00  0.00     0.077 A 
HETATM   21  C16 UNL     1       2.870   1.524   0.093  1.00  0.00     0.020 A 
HETATM   22  C27 UNL     1       4.621   0.234   0.916  1.00  0.00     0.255 A 
HETATM   23  C15 UNL     1       1.601   1.838  -0.421  1.00  0.00     0.017 A 
HETATM   24  C28 UNL     1       4.037   2.421   0.372  1.00  0.00     0.257 A 
HETATM   25  C14 UNL     1       0.897   3.010  -0.807  1.00  0.00     0.004 A 
HETATM   26  C26 UNL     1       0.731   0.786  -0.608  1.00  0.00     0.077 A 
HETATM   27  C9  UNL     1      -0.404   2.628  -1.191  1.00  0.00     0.049 A 
HETATM   28  C13 UNL     1       1.248   4.379  -0.820  1.00  0.00     0.014 A 
HETATM   29  N2  UNL     1      -0.471   1.238  -1.094  1.00  0.00    -0.308 N 
HETATM   30  C10 UNL     1      -1.347   3.610  -1.554  1.00  0.00     0.030 A 
HETATM   31  C11 UNL     1      -0.969   4.957  -1.562  1.00  0.00     0.002 A 
HETATM   32  C12 UNL     1       0.314   5.340  -1.204  1.00  0.00     0.001 A 
HETATM   33  N4  UNL     1       5.014   1.556   0.938  1.00  0.00    -0.326 N 
HETATM   34  H24 UNL     1       5.998   1.774   1.007  1.00  0.00     0.165 HD
HETATM   35  O3  UNL     1       5.341  -0.696   1.218  1.00  0.00    -0.268 OA
HETATM   36  C21 UNL     1       3.103  -4.588   1.209  1.00  0.00     0.001 A 
HETATM   37  C22 UNL     1       1.882  -5.091   0.779  1.00  0.00     0.002 A 
BRANCH  24  38
HETATM   38  O4  UNL     1       3.741   3.376   1.354  1.00  0.00    -0.372 OA
HETATM   39  H26 UNL     1       4.319   3.141   2.096  1.00  0.00     0.212 HD
ENDBRANCH  24  38
ENDBRANCH   3  13
TORSDOF 5
