REMARK  5 active torsions:
REMARK  status: ('A' for Active; 'I' for Inactive)
REMARK    1  A    between atoms: N1_2  and  C2_3 
REMARK    2  A    between atoms: C4_5  and  N4_34 
REMARK    3  A    between atoms: C5_7  and  N2_12 
REMARK    4  A    between atoms: C7_9  and  O2_10 
REMARK    5  A    between atoms: C27_35  and  C28_36 
ROOT
HETATM    1  C2  UNL     1      -2.924  -1.004   0.076  1.00  0.00     0.257 C 
HETATM    2  C3  UNL     1      -1.874  -2.098   0.243  1.00  0.00     0.092 C 
HETATM    3  C4  UNL     1      -0.776  -1.716   1.238  1.00  0.00     0.234 C 
HETATM    4  O1  UNL     1      -0.980  -0.487   1.922  1.00  0.00    -0.333 OA
HETATM    5  C5  UNL     1      -1.380   0.680   1.160  1.00  0.00     0.168 C 
HETATM    6  C6  UNL     1      -2.239   1.405   2.218  1.00  0.00     0.074 C 
HETATM    7  C7  UNL     1      -2.186   0.336  -0.133  1.00  0.00     0.209 C 
ENDROOT
BRANCH   1   8
HETATM    8  N1  UNL     1      -3.813  -1.295  -1.070  1.00  0.00     0.086 N 
HETATM    9  C1  UNL     1      -4.767  -2.363  -0.792  1.00  0.00     0.307 C 
HETATM   10  H4  UNL     1      -4.341  -0.439  -1.268  1.00  0.00     0.316 HD
ENDBRANCH   1   8
BRANCH   7  11
HETATM   11  O2  UNL     1      -3.149   1.362  -0.449  1.00  0.00    -0.384 OA
HETATM   12  C8  UNL     1      -2.914   1.956  -1.724  1.00  0.00     0.202 C 
ENDBRANCH   7  11
BRANCH   3  13
HETATM   13  N4  UNL     1       0.576  -1.774   0.690  1.00  0.00    -0.316 N 
HETATM   14  C26 UNL     1       1.283  -2.945   0.461  1.00  0.00     0.048 A 
HETATM   15  C21 UNL     1       2.571  -2.579   0.039  1.00  0.00     0.004 A 
HETATM   16  C25 UNL     1       0.899  -4.291   0.599  1.00  0.00     0.030 A 
HETATM   17  C20 UNL     1       2.624  -1.152   0.011  1.00  0.00     0.022 A 
HETATM   18  C22 UNL     1       3.493  -3.608  -0.250  1.00  0.00     0.014 A 
HETATM   19  C19 UNL     1       3.541  -0.136  -0.280  1.00  0.00     0.062 A 
HETATM   20  C27 UNL     1       1.367  -0.708   0.393  1.00  0.00     0.077 A 
HETATM   21  C16 UNL     1       3.241   1.245  -0.216  1.00  0.00     0.062 A 
HETATM   22  C18 UNL     1       4.937  -0.252  -0.703  1.00  0.00     0.260 A 
HETATM   23  C15 UNL     1       1.986   1.764   0.136  1.00  0.00     0.022 A 
HETATM   24  C17 UNL     1       4.458   1.960  -0.605  1.00  0.00     0.260 A 
HETATM   25  C14 UNL     1       1.342   3.029   0.245  1.00  0.00     0.004 A 
HETATM   26  C28 UNL     1       1.028   0.817   0.456  1.00  0.00     0.078 A 
HETATM   27  C9  UNL     1      -0.004   2.798   0.594  1.00  0.00     0.049 A 
HETATM   28  C13 UNL     1       1.770   4.360   0.035  1.00  0.00     0.014 A 
HETATM   29  N2  UNL     1      -0.156   1.427   0.791  1.00  0.00    -0.308 N 
HETATM   30  C10 UNL     1      -0.912   3.874   0.671  1.00  0.00     0.030 A 
HETATM   31  C11 UNL     1      -0.457   5.177   0.451  1.00  0.00     0.002 A 
HETATM   32  C12 UNL     1       0.871   5.422   0.147  1.00  0.00     0.001 A 
HETATM   33  O3  UNL     1       4.617   3.161  -0.688  1.00  0.00    -0.267 OA
HETATM   34  N3  UNL     1       5.399   1.015  -0.867  1.00  0.00    -0.289 N 
HETATM   35  H20 UNL     1       6.337   1.231  -1.161  1.00  0.00     0.172 HD
HETATM   36  O4  UNL     1       5.572  -1.271  -0.881  1.00  0.00    -0.267 OA
HETATM   37  C23 UNL     1       3.117  -4.949  -0.117  1.00  0.00     0.001 A 
HETATM   38  C24 UNL     1       1.836  -5.283   0.302  1.00  0.00     0.002 A 
ENDBRANCH   3  13
TORSDOF 5
