REMARK  13 active torsions:
REMARK  status: ('A' for Active; 'I' for Inactive)
REMARK    1  A    between atoms: O1_2  and  C2_3 
REMARK    2  A    between atoms: C2_3  and  C3_5 
REMARK    3  A    between atoms: C3_5  and  C4_6 
REMARK    4  A    between atoms: C3_5  and  N2_16 
REMARK    5  A    between atoms: C4_6  and  C5_7 
REMARK       I    between atoms: N2_16  and  C13_17 
REMARK    6  A    between atoms: C13_17  and  C14_19 
REMARK    7  A    between atoms: C14_19  and  C15_20 
REMARK    8  A    between atoms: C15_20  and  C16_21 
REMARK    9  A    between atoms: C16_21  and  O5_23 
REMARK   10  A    between atoms: O5_23  and  C17_24 
REMARK   11  A    between atoms: C17_24  and  C18_25 
REMARK   12  A    between atoms: C18_25  and  C19_27 
REMARK   13  A    between atoms: C19_27  and  O7_28 
ROOT
HETATM    1  O5  UNL     1       1.249  -0.222   0.844  1.00  0.00    -0.314 OA
ENDROOT
BRANCH   1   2
HETATM    2  C16 UNL     1       1.860  -1.431   0.993  1.00  0.00     0.259 C 
HETATM    3  O4  UNL     1       1.733  -2.376   0.232  1.00  0.00    -0.265 OA
BRANCH   2   4
HETATM    4  C15 UNL     1       2.690  -1.450   2.250  1.00  0.00     0.120 C 
BRANCH   4   5
HETATM    5  C14 UNL     1       3.809  -0.420   2.192  1.00  0.00     0.112 C 
BRANCH   5   6
HETATM    6  C13 UNL     1       4.866  -0.846   1.195  1.00  0.00     0.218 C 
HETATM    7  N2  UNL     1       5.194   0.120   0.272  1.00  0.00    -0.347 N 
HETATM    8  H13 UNL     1       4.505   0.838   0.089  1.00  0.00     0.163 HD
HETATM    9  O3  UNL     1       5.383  -1.957   1.224  1.00  0.00    -0.274 OA
BRANCH   7  10
HETATM   10  C3  UNL     1       6.071  -0.228  -0.854  1.00  0.00     0.188 C 
BRANCH  10  11
HETATM   11  C2  UNL     1       5.203  -0.848  -1.950  1.00  0.00     0.281 C 
HETATM   12  O2  UNL     1       4.029  -0.551  -2.150  1.00  0.00    -0.263 OA
BRANCH  11  13
HETATM   13  O1  UNL     1       5.928  -1.726  -2.698  1.00  0.00    -0.325 OA
HETATM   14  C1  UNL     1       5.181  -2.377  -3.726  1.00  0.00     0.213 C 
ENDBRANCH  11  13
ENDBRANCH  10  11
BRANCH  10  15
HETATM   15  C4  UNL     1       6.769   0.999  -1.452  1.00  0.00     0.076 C 
BRANCH  15  16
HETATM   16  C5  UNL     1       7.729   1.662  -0.511  1.00  0.00    -0.028 A 
HETATM   17  C6  UNL     1       7.559   2.893   0.097  1.00  0.00     0.096 A 
HETATM   18  N1  UNL     1       8.658   3.143   0.873  1.00  0.00    -0.365 N 
HETATM   19  C7  UNL     1       9.552   2.102   0.786  1.00  0.00     0.042 A 
HETATM   20  H8  UNL     1       8.802   3.974   1.429  1.00  0.00     0.165 HD
HETATM   21  C8  UNL     1      10.796   1.930   1.405  1.00  0.00     0.030 A 
HETATM   22  C12 UNL     1       9.000   1.157  -0.080  1.00  0.00    -0.002 A 
HETATM   23  C9  UNL     1      11.498   0.753   1.132  1.00  0.00     0.002 A 
HETATM   24  C10 UNL     1      10.977  -0.208   0.270  1.00  0.00     0.001 A 
HETATM   25  C11 UNL     1       9.733  -0.018  -0.344  1.00  0.00     0.014 A 
ENDBRANCH  15  16
ENDBRANCH  10  15
ENDBRANCH   7  10
ENDBRANCH   5   6
ENDBRANCH   4   5
ENDBRANCH   2   4
ENDBRANCH   1   2
BRANCH   1  26
HETATM   26  C17 UNL     1       0.428  -0.138  -0.321  1.00  0.00     0.260 C 
BRANCH  26  27
HETATM   27  C18 UNL     1      -0.404   1.131  -0.234  1.00  0.00     0.185 C 
HETATM   28  O6  UNL     1      -0.066   2.147  -0.850  1.00  0.00    -0.292 OA
BRANCH  27  29
HETATM   29  C19 UNL     1      -1.679   1.087   0.644  1.00  0.00     0.128 C 
HETATM   30  C20 UNL     1      -2.095   2.496   1.160  1.00  0.00     0.047 C 
HETATM   31  C21 UNL     1      -3.635   2.534   1.152  1.00  0.00     0.009 C 
HETATM   32  C22 UNL     1      -4.051   1.098   0.860  1.00  0.00     0.002 C 
HETATM   33  C23 UNL     1      -5.477   0.838   0.357  1.00  0.00    -0.004 C 
HETATM   34  C36 UNL     1      -2.954   0.598  -0.114  1.00  0.00    -0.002 C 
HETATM   35  C24 UNL     1      -6.532   1.428   1.314  1.00  0.00     0.010 C 
HETATM   36  C33 UNL     1      -5.667  -0.709   0.169  1.00  0.00     0.002 C 
HETATM   37  C25 UNL     1      -7.962   1.048   0.924  1.00  0.00     0.035 C 
HETATM   38  C26 UNL     1      -8.048  -0.451   0.775  1.00  0.00    -0.068 C 
HETATM   39  C27 UNL     1      -8.781  -1.171   1.642  1.00  0.00     0.053 C 
HETATM   40  C31 UNL     1      -7.127  -1.061  -0.289  1.00  0.00    -0.016 C 
HETATM   41  C28 UNL     1      -8.655  -2.647   1.716  1.00  0.00     0.149 C 
HETATM   42  O8  UNL     1      -9.381  -3.281   2.479  1.00  0.00    -0.293 OA
HETATM   43  C29 UNL     1      -7.547  -3.295   0.926  1.00  0.00     0.084 C 
HETATM   44  C30 UNL     1      -7.393  -2.590  -0.410  1.00  0.00     0.022 C 
HETATM   45  C32 UNL     1      -7.450  -0.480  -1.689  1.00  0.00     0.020 C 
HETATM   46  C34 UNL     1      -4.551  -1.309  -0.720  1.00  0.00     0.007 C 
HETATM   47  C35 UNL     1      -3.132  -0.924  -0.257  1.00  0.00     0.013 C 
HETATM   48  C37 UNL     1      -3.035   1.256  -1.518  1.00  0.00     0.019 C 
BRANCH  29  49
HETATM   49  O7  UNL     1      -1.457   0.263   1.792  1.00  0.00    -0.381 OA
HETATM   50  H20 UNL     1      -0.770   0.689   2.338  1.00  0.00     0.211 HD
ENDBRANCH  29  49
ENDBRANCH  27  29
ENDBRANCH  26  27
ENDBRANCH   1  26
TORSDOF 13
