REMARK  7 active torsions:
REMARK  status: ('A' for Active; 'I' for Inactive)
REMARK    1  A    between atoms: C22_25  and  O4_26 
REMARK    2  A    between atoms: C23_27  and  O5_28 
REMARK    3  A    between atoms: C27_33  and  O7_34 
REMARK    4  A    between atoms: C28_35  and  C29_36 
REMARK    5  A    between atoms: C29_36  and  O8_37 
REMARK    6  A    between atoms: C30_38  and  C31_39 
REMARK    7  A    between atoms: C33_41  and  C34_42 
ROOT
HETATM    1  C1  UNL     1      -3.039  -4.643   4.115  1.00  0.00     0.046 C 
HETATM    2  C2  UNL     1      -3.465  -3.573   3.150  1.00  0.00    -0.056 C 
HETATM    3  C3  UNL     1      -2.665  -2.528   2.860  1.00  0.00    -0.004 C 
HETATM    4  C4  UNL     1      -3.102  -1.446   1.909  1.00  0.00     0.150 C 
HETATM    5  C5  UNL     1      -1.983  -0.606   1.313  1.00  0.00     0.270 C 
HETATM    6  O1  UNL     1      -2.031   0.620   1.282  1.00  0.00    -0.264 OA
HETATM    7  O2  UNL     1      -0.962  -1.345   0.808  1.00  0.00    -0.315 OA
HETATM    8  C6  UNL     1       0.128  -0.667   0.138  1.00  0.00     0.139 C 
HETATM    9  C7  UNL     1      -0.317   0.035  -1.147  1.00  0.00     0.065 C 
HETATM   10  C8  UNL     1       0.531   1.263  -1.494  1.00  0.00     0.131 C 
HETATM   11  C9  UNL     1      -0.058   2.631  -1.066  1.00  0.00     0.059 C 
HETATM   12  C10 UNL     1      -1.344   2.998  -1.769  1.00  0.00    -0.022 C 
HETATM   13  C11 UNL     1      -2.272   3.877  -1.336  1.00  0.00    -0.087 C 
HETATM   14  C12 UNL     1      -2.122   4.718  -0.096  1.00  0.00     0.043 C 
HETATM   15  C13 UNL     1      -3.574   4.072  -2.106  1.00  0.00     0.041 C 
HETATM   16  C14 UNL     1      -4.851   3.559  -1.384  1.00  0.00     0.008 C 
HETATM   17  C15 UNL     1      -6.076   3.756  -2.283  1.00  0.00     0.014 C 
HETATM   18  C16 UNL     1      -4.657   2.139  -0.903  1.00  0.00    -0.022 C 
HETATM   19  C17 UNL     1      -5.110   1.000  -1.446  1.00  0.00    -0.003 C 
HETATM   20  C18 UNL     1      -4.565  -0.247  -0.972  1.00  0.00     0.008 C 
HETATM   21  C19 UNL     1      -4.844  -0.822   0.207  1.00  0.00    -0.019 C 
HETATM   22  C20 UNL     1      -5.975  -0.513   1.148  1.00  0.00     0.206 C 
HETATM   23  O3  UNL     1      -6.044  -1.637   2.067  1.00  0.00    -0.375 OA
HETATM   24  C21 UNL     1      -5.247  -2.692   1.466  1.00  0.00     0.194 C 
HETATM   25  C22 UNL     1      -4.806  -3.775   2.479  1.00  0.00     0.179 C 
HETATM   26  C23 UNL     1      -4.079  -1.961   0.817  1.00  0.00     0.128 C 
HETATM   27  O6  UNL     1       1.888   1.120  -1.066  1.00  0.00    -0.349 OA
HETATM   28  C24 UNL     1       2.145   0.791   0.304  1.00  0.00     0.170 C 
HETATM   29  C25 UNL     1       0.922   0.253   1.056  1.00  0.00     0.101 C 
HETATM   30  C26 UNL     1       2.729   2.011   1.030  1.00  0.00     0.100 C 
HETATM   31  C27 UNL     1       4.075   2.417   0.429  1.00  0.00     0.132 C 
HETATM   32  C28 UNL     1       5.040   1.220   0.407  1.00  0.00     0.071 C 
HETATM   33  C30 UNL     1       4.359   0.014  -0.264  1.00  0.00     0.162 C 
HETATM   34  O9  UNL     1       3.099  -0.278   0.348  1.00  0.00    -0.345 OA
ENDROOT
BRANCH  31  35
HETATM   35  O7  UNL     1       3.886   2.968  -0.878  1.00  0.00    -0.395 OA
HETATM   36  H36 UNL     1       3.210   2.427  -1.335  1.00  0.00     0.210 HD
ENDBRANCH  31  35
BRANCH  33  37
HETATM   37  C31 UNL     1       5.176  -1.270  -0.173  1.00  0.00    -0.058 C 
HETATM   38  C32 UNL     1       5.431  -1.811   1.212  1.00  0.00     0.046 C 
HETATM   39  C33 UNL     1       5.632  -1.881  -1.288  1.00  0.00    -0.018 C 
BRANCH  39  40
HETATM   40  C34 UNL     1       6.467  -3.137  -1.362  1.00  0.00     0.000 C 
HETATM   41  C35 UNL     1       5.723  -4.219  -2.144  1.00  0.00     0.013 C 
HETATM   42  C36 UNL     1       7.812  -2.835  -2.023  1.00  0.00     0.013 C 
ENDBRANCH  39  40
ENDBRANCH  33  37
BRANCH  32  43
HETATM   43  C29 UNL     1       6.369   1.575  -0.269  1.00  0.00     0.174 C 
BRANCH  43  44
HETATM   44  O8  UNL     1       7.025   2.609   0.461  1.00  0.00    -0.400 OA
HETATM   45  H40 UNL     1       7.672   3.009  -0.149  1.00  0.00     0.209 HD
ENDBRANCH  43  44
ENDBRANCH  32  43
BRANCH  26  46
HETATM   46  O5  UNL     1      -3.445  -2.773  -0.165  1.00  0.00    -0.381 OA
HETATM   47  H30 UNL     1      -4.083  -2.944  -0.878  1.00  0.00     0.211 HD
ENDBRANCH  26  46
BRANCH  25  48
HETATM   48  O4  UNL     1      -5.811  -3.931   3.480  1.00  0.00    -0.389 OA
HETATM   49  H29 UNL     1      -6.231  -3.051   3.564  1.00  0.00     0.210 HD
ENDBRANCH  25  48
TORSDOF 7
