REMARK  16 active torsions:
REMARK  status: ('A' for Active; 'I' for Inactive)
REMARK    1  A    between atoms: C2_2  and  C3_3 
REMARK    2  A    between atoms: C2_2  and  C29_35 
REMARK    3  A    between atoms: C3_3  and  C4_4 
REMARK    4  A    between atoms: C4_4  and  O1_5 
REMARK    5  A    between atoms: C4_4  and  C5_6 
REMARK    6  A    between atoms: C5_6  and  C7_8 
REMARK    7  A    between atoms: C9_10  and  C10_11 
REMARK    8  A    between atoms: C10_11  and  C11_12 
REMARK    9  A    between atoms: C11_12  and  C12_13 
REMARK   10  A    between atoms: C12_13  and  O2_14 
REMARK   11  A    between atoms: C13_15  and  O3_16 
REMARK   12  A    between atoms: C19_23  and  O5_24 
REMARK   13  A    between atoms: C20_25  and  O6_26 
REMARK   14  A    between atoms: C29_35  and  C32_38 
REMARK   15  A    between atoms: C32_38  and  C33_39 
REMARK   16  A    between atoms: C33_39  and  N1_40 
ROOT
HETATM    1  C7  UNL     1       0.349   0.501   0.169  1.00  0.00     0.003 C 
HETATM    2  C8  UNL     1       0.242   0.980  -1.299  1.00  0.00     0.014 C 
HETATM    3  C9  UNL     1      -1.266   0.892  -1.703  1.00  0.00     0.026 C 
HETATM    4  C13 UNL     1      -1.992   0.659  -0.350  1.00  0.00     0.093 C 
HETATM    5  C14 UNL     1      -3.354   0.013  -0.218  1.00  0.00    -0.036 C 
HETATM    6  C15 UNL     1      -3.980  -0.613  -1.227  1.00  0.00     0.057 C 
HETATM    7  C16 UNL     1      -5.193  -1.425  -1.002  1.00  0.00     0.154 C 
HETATM    8  O4  UNL     1      -5.759  -1.912  -1.979  1.00  0.00    -0.293 OA
HETATM    9  C17 UNL     1      -5.655  -1.671   0.434  1.00  0.00     0.071 C 
HETATM   10  C18 UNL     1      -7.137  -2.097   0.458  1.00  0.00     0.047 C 
HETATM   11  C19 UNL     1      -8.119  -0.933   0.298  1.00  0.00     0.147 C 
HETATM   12  C20 UNL     1      -7.453   0.407  -0.037  1.00  0.00     0.147 C 
HETATM   13  C21 UNL     1      -6.301   0.762   0.913  1.00  0.00     0.044 C 
HETATM   14  C22 UNL     1      -5.380  -0.438   1.332  1.00  0.00    -0.023 C 
HETATM   15  C23 UNL     1      -5.712  -0.779   2.808  1.00  0.00     0.016 C 
HETATM   16  C24 UNL     1      -3.870  -0.004   1.223  1.00  0.00     0.027 C 
HETATM   17  C25 UNL     1      -2.866  -0.809   2.095  1.00  0.00     0.011 C 
HETATM   18  C26 UNL     1      -1.390  -0.373   1.916  1.00  0.00     0.013 C 
HETATM   19  C27 UNL     1      -0.980  -0.267   0.425  1.00  0.00    -0.004 C 
HETATM   20  C28 UNL     1      -0.932  -1.713  -0.141  1.00  0.00     0.019 C 
ENDROOT
BRANCH   1  21
HETATM   21  C5  UNL     1       1.704  -0.127   0.633  1.00  0.00     0.015 C 
HETATM   22  C6  UNL     1       2.584   1.029   1.158  1.00  0.00     0.013 C 
BRANCH  21  23
HETATM   23  C4  UNL     1       2.531  -0.964  -0.394  1.00  0.00     0.126 C 
BRANCH  23  24
HETATM   24  C3  UNL     1       3.481  -2.012   0.252  1.00  0.00     0.066 C 
BRANCH  24  25
HETATM   25  C2  UNL     1       4.827  -1.547   0.792  1.00  0.00    -0.079 C 
HETATM   26  C1  UNL     1       4.964  -1.465   2.131  1.00  0.00     0.015 C 
BRANCH  25  27
HETATM   27  C29 UNL     1       6.031  -1.360  -0.179  1.00  0.00    -0.023 C 
HETATM   28  C30 UNL     1       5.595  -1.060  -1.631  1.00  0.00     0.019 C 
HETATM   29  C31 UNL     1       6.812  -2.693  -0.194  1.00  0.00     0.019 C 
BRANCH  27  30
HETATM   30  C32 UNL     1       6.963  -0.202   0.313  1.00  0.00     0.033 C 
BRANCH  30  31
HETATM   31  C33 UNL     1       8.125   0.167  -0.617  1.00  0.00     0.130 C 
BRANCH  31  32
HETATM   32  N1  UNL     1       8.966   1.201  -0.041  1.00  0.00    -0.352 N 
HETATM   33  C34 UNL     1      10.070   1.005   0.738  1.00  0.00     0.108 A 
HETATM   34  C35 UNL     1      10.532   2.271   1.017  1.00  0.00     0.106 A 
HETATM   35  N2  UNL     1       9.740   3.220   0.425  1.00  0.00    -0.361 N 
HETATM   36  C36 UNL     1       8.806   2.546  -0.208  1.00  0.00     0.182 A 
ATOM     37  H2  UNL     1       9.852   4.233   0.467  1.00  0.00     0.166 HD
ENDBRANCH  31  32
ENDBRANCH  30  31
ENDBRANCH  27  30
ENDBRANCH  25  27
ENDBRANCH  24  25
ENDBRANCH  23  24
BRANCH  23  38
HETATM   38  O1  UNL     1       1.672  -1.702  -1.262  1.00  0.00    -0.395 OA
HETATM   39  H6  UNL     1       2.218  -2.079  -1.974  1.00  0.00     0.210 HD
ENDBRANCH  23  38
ENDBRANCH  21  23
ENDBRANCH   1  21
BRANCH   3  40
HETATM   40  C10 UNL     1      -1.650   2.147  -2.515  1.00  0.00     0.010 C 
BRANCH  40  41
HETATM   41  C11 UNL     1      -3.098   2.182  -2.993  1.00  0.00     0.027 C 
BRANCH  41  42
HETATM   42  C12 UNL     1      -3.383   3.429  -3.821  1.00  0.00     0.164 C 
BRANCH  42  43
HETATM   43  O2  UNL     1      -4.733   3.389  -4.262  1.00  0.00    -0.401 OA
HETATM   44  H21 UNL     1      -4.894   4.207  -4.762  1.00  0.00     0.209 HD
ENDBRANCH  42  43
ENDBRANCH  41  42
ENDBRANCH  40  41
ENDBRANCH   3  40
BRANCH   4  45
HETATM   45  O3  UNL     1      -2.128   1.970   0.222  1.00  0.00    -0.384 OA
HETATM   46  H22 UNL     1      -1.784   1.977   1.127  1.00  0.00     0.211 HD
ENDBRANCH   4  45
BRANCH  12  47
HETATM   47  O6  UNL     1      -8.440   1.444   0.048  1.00  0.00    -0.393 OA
HETATM   48  H30 UNL     1      -8.975   1.390  -0.765  1.00  0.00     0.210 HD
ENDBRANCH  12  47
BRANCH  11  49
HETATM   49  O5  UNL     1      -8.863  -0.788   1.516  1.00  0.00    -0.393 OA
HETATM   50  H28 UNL     1      -9.212   0.126   1.498  1.00  0.00     0.210 HD
ENDBRANCH  11  49
TORSDOF 16
