REMARK  12 active torsions:
REMARK  status: ('A' for Active; 'I' for Inactive)
REMARK    1  A    between atoms: C4_5  and  C5_6 
REMARK    2  A    between atoms: C5_6  and  O2_7 
REMARK    3  A    between atoms: C5_6  and  C6_8 
REMARK    4  A    between atoms: C6_8  and  O3_10 
REMARK    5  A    between atoms: C6_8  and  C8_11 
REMARK    6  A    between atoms: C11_14  and  O4_15 
REMARK    7  A    between atoms: C17_22  and  O6_23 
REMARK    8  A    between atoms: O6_23  and  C18_24 
REMARK    9  A    between atoms: C18_24  and  C19_25 
REMARK   10  A    between atoms: C19_25  and  C20_26 
REMARK   11  A    between atoms: C35_41  and  C36_42 
REMARK   12  A    between atoms: C36_42  and  O7_43 
ROOT
HETATM    1  C8  UNL     1      -3.382  -0.542  -0.085  1.00  0.00     0.034 C 
HETATM    2  C9  UNL     1      -3.214   0.155   1.300  1.00  0.00     0.012 C 
HETATM    3  C10 UNL     1      -1.716   0.110   1.669  1.00  0.00     0.044 C 
HETATM    4  C11 UNL     1      -1.031  -0.143   0.328  1.00  0.00     0.089 C 
HETATM    5  C12 UNL     1       0.403  -0.594   0.236  1.00  0.00    -0.037 C 
HETATM    6  C13 UNL     1       1.153  -0.887   1.306  1.00  0.00     0.057 C 
HETATM    7  C14 UNL     1       2.505  -1.463   1.168  1.00  0.00     0.154 C 
HETATM    8  O5  UNL     1       3.164  -1.627   2.194  1.00  0.00    -0.293 OA
HETATM    9  C15 UNL     1       2.988  -1.883  -0.222  1.00  0.00     0.071 C 
HETATM   10  C16 UNL     1       4.528  -1.943  -0.228  1.00  0.00     0.045 C 
HETATM   11  C17 UNL     1       5.163  -0.559  -0.085  1.00  0.00     0.122 C 
HETATM   12  C26 UNL     1       4.652   0.388  -1.174  1.00  0.00     0.033 C 
HETATM   13  C27 UNL     1       3.124   0.444  -1.231  1.00  0.00     0.013 C 
HETATM   14  C28 UNL     1       2.435  -0.955  -1.340  1.00  0.00    -0.026 C 
HETATM   15  C29 UNL     1       2.771  -1.548  -2.733  1.00  0.00     0.016 C 
HETATM   16  C30 UNL     1       0.879  -0.750  -1.207  1.00  0.00     0.026 C 
HETATM   17  C31 UNL     1      -0.029  -1.795  -1.905  1.00  0.00     0.011 C 
HETATM   18  C32 UNL     1      -1.542  -1.463  -1.778  1.00  0.00     0.014 C 
HETATM   19  C33 UNL     1      -1.975  -1.220  -0.310  1.00  0.00    -0.002 C 
HETATM   20  C34 UNL     1      -1.889  -2.586   0.431  1.00  0.00     0.019 C 
ENDROOT
BRANCH   1  21
HETATM   21  C6  UNL     1      -4.708  -1.356  -0.317  1.00  0.00     0.087 C 
HETATM   22  C7  UNL     1      -5.114  -2.299   0.825  1.00  0.00     0.049 C 
BRANCH  21  23
HETATM   23  C5  UNL     1      -5.952  -0.482  -0.749  1.00  0.00     0.181 C 
BRANCH  23  24
HETATM   24  C4  UNL     1      -6.623   0.406   0.319  1.00  0.00     0.159 C 
HETATM   25  O1  UNL     1      -5.774   1.475   0.756  1.00  0.00    -0.382 OA
HETATM   26  C3  UNL     1      -6.573   2.609   1.107  1.00  0.00     0.173 C 
HETATM   27  C2  UNL     1      -8.032   2.193   1.011  1.00  0.00     0.014 C 
HETATM   28  C1  UNL     1      -8.562   1.692   2.359  1.00  0.00     0.012 C 
HETATM   29  C35 UNL     1      -7.961   1.076  -0.041  1.00  0.00     0.046 C 
BRANCH  29  30
HETATM   30  C36 UNL     1      -8.035   1.651  -1.462  1.00  0.00     0.172 C 
BRANCH  30  31
HETATM   31  O7  UNL     1      -9.274   2.330  -1.643  1.00  0.00    -0.400 OA
HETATM   32  H52 UNL     1      -9.284   2.664  -2.553  1.00  0.00     0.209 HD
ENDBRANCH  30  31
ENDBRANCH  29  30
ENDBRANCH  23  24
BRANCH  23  33
HETATM   33  O2  UNL     1      -5.600   0.269  -1.925  1.00  0.00    -0.390 OA
HETATM   34  H9  UNL     1      -5.030  -0.335  -2.441  1.00  0.00     0.210 HD
ENDBRANCH  23  33
ENDBRANCH  21  23
BRANCH  21  35
HETATM   35  O3  UNL     1      -4.458  -2.189  -1.487  1.00  0.00    -0.387 OA
HETATM   36  H13 UNL     1      -5.100  -2.926  -1.482  1.00  0.00     0.210 HD
ENDBRANCH  21  35
ENDBRANCH   1  21
BRANCH   4  37
HETATM   37  O4  UNL     1      -1.051   1.136  -0.338  1.00  0.00    -0.384 OA
HETATM   38  H19 UNL     1      -1.569   1.073  -1.157  1.00  0.00     0.211 HD
ENDBRANCH   4  37
BRANCH  11  39
HETATM   39  O6  UNL     1       6.582  -0.719  -0.190  1.00  0.00    -0.386 OA
BRANCH  39  40
HETATM   40  C18 UNL     1       7.308   0.337   0.452  1.00  0.00     0.172 C 
BRANCH  40  41
HETATM   41  C19 UNL     1       8.807   0.064   0.316  1.00  0.00     0.064 C 
BRANCH  41  42
HETATM   42  C20 UNL     1       9.633   1.143   0.969  1.00  0.00    -0.056 A 
HETATM   43  C21 UNL     1       9.901   1.101   2.346  1.00  0.00     0.007 A 
HETATM   44  C22 UNL     1      10.619   2.131   2.959  1.00  0.00     0.001 A 
HETATM   45  C23 UNL     1      11.080   3.211   2.203  1.00  0.00     0.000 A 
HETATM   46  C24 UNL     1      10.813   3.261   0.836  1.00  0.00     0.001 A 
HETATM   47  C25 UNL     1      10.097   2.234   0.221  1.00  0.00     0.007 A 
ENDBRANCH  41  42
ENDBRANCH  40  41
ENDBRANCH  39  40
ENDBRANCH  11  39
TORSDOF 12
