REMARK  12 active torsions:
REMARK  status: ('A' for Active; 'I' for Inactive)
REMARK    1  A    between atoms: N1_2  and  C2_3 
REMARK    2  A    between atoms: C2_3  and  C3_4 
REMARK    3  A    between atoms: C3_4  and  C4_5 
REMARK    4  A    between atoms: C13_15  and  O2_16 
REMARK    5  A    between atoms: C18_21  and  O3_22 
REMARK    6  A    between atoms: C20_24  and  C21_25 
REMARK    7  A    between atoms: C21_25  and  C23_27 
REMARK    8  A    between atoms: C23_27  and  C24_28 
REMARK    9  A    between atoms: C24_28  and  O4_29 
REMARK   10  A    between atoms: C24_28  and  C25_30 
REMARK   11  A    between atoms: C26_31  and  C28_33 
REMARK   12  A    between atoms: C28_33  and  O6_35 
ROOT
HETATM    1  C4  UNL     1      -5.161  -0.525  -1.294  1.00  0.00     0.023 C 
HETATM    2  C5  UNL     1      -5.195  -0.630  -2.859  1.00  0.00     0.024 C 
HETATM    3  C6  UNL     1      -5.631  -1.907  -0.795  1.00  0.00     0.135 C 
HETATM    4  O1  UNL     1      -6.628  -2.450  -1.288  1.00  0.00    -0.297 OA
HETATM    5  C7  UNL     1      -4.878  -2.642   0.288  1.00  0.00     0.080 C 
HETATM    6  C8  UNL     1      -3.602  -1.986   0.777  1.00  0.00     0.022 C 
HETATM    7  C9  UNL     1      -2.786  -1.310  -0.341  1.00  0.00    -0.008 C 
HETATM    8  C10 UNL     1      -2.467  -2.304  -1.490  1.00  0.00     0.021 C 
HETATM    9  C11 UNL     1      -1.439  -0.792   0.227  1.00  0.00     0.002 C 
HETATM   10  C12 UNL     1      -1.121   0.521   0.378  1.00  0.00    -0.029 C 
HETATM   11  C13 UNL     1      -2.122   1.613   0.094  1.00  0.00     0.149 C 
HETATM   12  C14 UNL     1      -3.554   1.104  -0.033  1.00  0.00     0.043 C 
HETATM   13  C15 UNL     1      -3.668  -0.136  -0.924  1.00  0.00     0.017 C 
HETATM   14  C16 UNL     1       0.280   0.934   0.838  1.00  0.00     0.017 C 
HETATM   15  C17 UNL     1       0.250   0.894   2.399  1.00  0.00     0.023 C 
HETATM   16  C18 UNL     1       0.846   2.299   0.365  1.00  0.00     0.132 C 
HETATM   17  C19 UNL     1       2.374   2.162   0.499  1.00  0.00     0.038 C 
HETATM   18  C20 UNL     1       2.690   0.640   0.627  1.00  0.00     0.001 C 
HETATM   19  C29 UNL     1       1.346  -0.026   0.182  1.00  0.00    -0.019 C 
HETATM   20  C30 UNL     1       1.283  -0.062  -1.380  1.00  0.00     0.017 C 
HETATM   21  C31 UNL     1       1.082  -1.438   0.704  1.00  0.00     0.094 C 
HETATM   22  C32 UNL     1      -0.390  -1.823   0.622  1.00  0.00     0.157 C 
HETATM   23  O7  UNL     1      -0.717  -2.979   0.896  1.00  0.00    -0.293 OA
ENDROOT
BRANCH  18  24
HETATM   24  C21 UNL     1       4.024   0.248  -0.081  1.00  0.00    -0.011 C 
HETATM   25  C22 UNL     1       4.296  -1.258   0.038  1.00  0.00     0.010 C 
BRANCH  24  26
HETATM   26  C23 UNL     1       5.230   1.036   0.519  1.00  0.00     0.040 C 
BRANCH  26  27
HETATM   27  C24 UNL     1       6.330   1.435  -0.483  1.00  0.00     0.142 C 
BRANCH  27  28
HETATM   28  O4  UNL     1       5.763   2.235  -1.518  1.00  0.00    -0.392 OA
HETATM   29  H39 UNL     1       5.523   3.089  -1.123  1.00  0.00     0.210 HD
ENDBRANCH  27  28
BRANCH  27  30
HETATM   30  C25 UNL     1       7.022   0.290  -1.150  1.00  0.00     0.018 C 
HETATM   31  C26 UNL     1       8.192  -0.277  -0.787  1.00  0.00     0.010 C 
HETATM   32  C27 UNL     1       9.025   0.109   0.397  1.00  0.00     0.055 C 
BRANCH  31  33
HETATM   33  C28 UNL     1       8.671  -1.402  -1.631  1.00  0.00     0.171 C 
HETATM   34  O5  UNL     1       8.073  -1.939  -2.547  1.00  0.00    -0.646 OA
BRANCH  33  35
HETATM   35  O6  UNL     1       9.901  -1.811  -1.278  1.00  0.00    -0.773 OA
HETATM   36  H44 UNL     1      10.086  -2.540  -1.907  1.00  0.00     0.167 HD
ENDBRANCH  33  35
ENDBRANCH  31  33
ENDBRANCH  27  30
ENDBRANCH  26  27
ENDBRANCH  24  26
ENDBRANCH  18  24
BRANCH  16  37
HETATM   37  O3  UNL     1       0.351   3.417   1.092  1.00  0.00    -0.394 OA
HETATM   38  H28 UNL     1       0.801   3.450   1.956  1.00  0.00     0.210 HD
ENDBRANCH  16  37
BRANCH  11  39
HETATM   39  O2  UNL     1      -2.158   2.556   1.158  1.00  0.00    -0.391 OA
HETATM   40  H20 UNL     1      -1.363   3.125   1.072  1.00  0.00     0.210 HD
ENDBRANCH  11  39
BRANCH   1  41
HETATM   41  C3  UNL     1      -6.296   0.509  -0.970  1.00  0.00     0.047 C 
BRANCH  41  42
HETATM   42  C2  UNL     1      -6.662   0.927   0.465  1.00  0.00     0.270 C 
BRANCH  42  43
HETATM   43  N1  UNL     1      -6.711  -0.170   1.423  1.00  0.00     0.079 N 
HETATM   44  C1  UNL     1      -7.517   0.189   2.587  1.00  0.00     0.306 C 
HETATM   45  H4  UNL     1      -5.770  -0.362   1.756  1.00  0.00     0.315 HD
ENDBRANCH  42  43
ENDBRANCH  41  42
ENDBRANCH   1  41
TORSDOF 12
