REMARK  4 active torsions:
REMARK  status: ('A' for Active; 'I' for Inactive)
REMARK    1  A    between atoms: C10_11  and  O2_12 
REMARK    2  A    between atoms: C14_16  and  C15_17 
REMARK    3  A    between atoms: C15_17  and  O3_18 
REMARK    4  A    between atoms: C16_20  and  O5_21 
ROOT
HETATM    1  C1  UNL     1      -2.070   1.827   1.309  1.00  0.00     0.023 C 
HETATM    2  C2  UNL     1      -3.023   0.993   0.441  1.00  0.00     0.018 C 
HETATM    3  C3  UNL     1      -4.113   1.936  -0.116  1.00  0.00     0.023 C 
HETATM    4  C4  UNL     1      -3.735  -0.009   1.367  1.00  0.00     0.135 C 
HETATM    5  O1  UNL     1      -4.590   0.342   2.181  1.00  0.00    -0.297 OA
HETATM    6  C5  UNL     1      -3.361  -1.464   1.235  1.00  0.00     0.080 C 
HETATM    7  C6  UNL     1      -1.856  -1.576   1.058  1.00  0.00     0.022 C 
HETATM    8  C7  UNL     1      -1.330  -0.930  -0.264  1.00  0.00    -0.007 C 
HETATM    9  C8  UNL     1      -1.302  -2.035  -1.359  1.00  0.00     0.021 C 
HETATM   10  C9  UNL     1       0.118  -0.419  -0.114  1.00  0.00     0.003 A 
HETATM   11  C10 UNL     1       1.106  -1.177   0.548  1.00  0.00     0.107 A 
HETATM   12  C11 UNL     1       2.391  -0.682   0.700  1.00  0.00     0.112 A 
HETATM   13  C12 UNL     1       2.767   0.541   0.198  1.00  0.00     0.015 A 
HETATM   14  C13 UNL     1       4.209   0.764   0.454  1.00  0.00     0.079 C 
HETATM   15  C14 UNL     1       4.450  -0.350   1.484  1.00  0.00     0.157 C 
HETATM   16  O4  UNL     1       3.403  -1.361   1.330  1.00  0.00    -0.340 OA
HETATM   17  C16 UNL     1       1.854   1.306  -0.494  1.00  0.00     0.089 A 
HETATM   18  C17 UNL     1       0.532   0.827  -0.662  1.00  0.00     0.053 A 
HETATM   19  C18 UNL     1      -0.408   1.646  -1.466  1.00  0.00     0.163 C 
HETATM   20  O6  UNL     1      -0.067   2.759  -1.861  1.00  0.00    -0.292 OA
HETATM   21  C19 UNL     1      -1.729   1.051  -1.841  1.00  0.00     0.091 C 
HETATM   22  C20 UNL     1      -2.333   0.193  -0.728  1.00  0.00     0.021 C 
ENDROOT
BRANCH  15  23
HETATM   23  C15 UNL     1       5.809  -1.034   1.333  1.00  0.00     0.196 C 
BRANCH  23  24
HETATM   24  O3  UNL     1       5.956  -1.628   0.045  1.00  0.00    -0.398 OA
HETATM   25  H20 UNL     1       5.140  -2.132  -0.127  1.00  0.00     0.209 HD
ENDBRANCH  23  24
ENDBRANCH  15  23
BRANCH  17  26
HETATM   26  O5  UNL     1       2.303   2.496  -0.995  1.00  0.00    -0.359 OA
HETATM   27  H21 UNL     1       1.552   2.942  -1.449  1.00  0.00     0.217 HD
ENDBRANCH  17  26
BRANCH  11  28
HETATM   28  O2  UNL     1       0.838  -2.420   1.045  1.00  0.00    -0.357 OA
HETATM   29  H14 UNL     1       1.666  -2.737   1.456  1.00  0.00     0.217 HD
ENDBRANCH  11  28
TORSDOF 4
