REMARK  13 active torsions:
REMARK  status: ('A' for Active; 'I' for Inactive)
REMARK    1  A    between atoms: C4_4  and  C5_5 
REMARK    2  A    between atoms: C5_5  and  C6_6 
REMARK    3  A    between atoms: C6_6  and  C7_7 
REMARK    4  A    between atoms: C9_9  and  C10_10 
REMARK    5  A    between atoms: C11_11  and  C12_12 
REMARK    6  A    between atoms: C14_14  and  C15_15 
REMARK    7  A    between atoms: C18_18  and  O1_19 
REMARK    8  A    between atoms: C19_21  and  C20_22 
REMARK    9  A    between atoms: C20_22  and  C21_23 
REMARK   10  A    between atoms: C21_23  and  C22_24 
REMARK   11  A    between atoms: C22_24  and  O3_25 
REMARK   12  A    between atoms: C24_27  and  C26_29 
REMARK   13  A    between atoms: C29_33  and  O5_35 
ROOT
HETATM    1  C15 UNL     1      -1.676  -0.065  -0.012  1.00  0.00     0.149 C 
HETATM    2  C16 UNL     1      -2.545   0.474  -1.166  1.00  0.00     0.054 C 
HETATM    3  C17 UNL     1      -3.632  -0.617  -1.330  1.00  0.00     0.050 C 
HETATM    4  C18 UNL     1      -2.718  -1.825  -1.064  1.00  0.00     0.270 C 
HETATM    5  O2  UNL     1      -1.937  -1.480   0.072  1.00  0.00    -0.351 OA
HETATM    6  C19 UNL     1      -4.734  -0.369  -0.198  1.00  0.00     0.032 C 
HETATM    7  C23 UNL     1      -5.580   0.881  -0.539  1.00  0.00    -0.066 C 
HETATM    8  C24 UNL     1      -5.708   1.935   0.308  1.00  0.00    -0.021 C 
HETATM    9  C25 UNL     1      -5.102   2.021   1.686  1.00  0.00     0.052 C 
HETATM   10  C27 UNL     1      -6.207   0.777  -1.917  1.00  0.00     0.038 C 
HETATM   11  C28 UNL     1      -5.144   0.585  -2.996  1.00  0.00     0.042 C 
HETATM   12  C29 UNL     1      -4.283  -0.666  -2.753  1.00  0.00     0.067 C 
HETATM   13  C30 UNL     1      -3.301  -0.805  -3.930  1.00  0.00     0.047 C 
ENDROOT
BRANCH   4  14
HETATM   14  O1  UNL     1      -3.412  -3.029  -0.866  1.00  0.00    -0.370 OA
HETATM   15  H26 UNL     1      -2.725  -3.659  -0.582  1.00  0.00     0.212 HD
ENDBRANCH   4  14
BRANCH   6  16
HETATM   16  C20 UNL     1      -5.689  -1.536   0.171  1.00  0.00     0.012 C 
BRANCH  16  17
HETATM   17  C21 UNL     1      -5.319  -2.189   1.510  1.00  0.00     0.027 C 
BRANCH  17  18
HETATM   18  C22 UNL     1      -6.194  -3.400   1.802  1.00  0.00     0.164 C 
BRANCH  18  19
HETATM   19  O3  UNL     1      -5.840  -3.963   3.059  1.00  0.00    -0.401 OA
HETATM   20  H34 UNL     1      -5.944  -3.267   3.730  1.00  0.00     0.209 HD
ENDBRANCH  18  19
ENDBRANCH  17  18
ENDBRANCH  16  17
ENDBRANCH   6  16
BRANCH  12  21
HETATM   21  O5  UNL     1      -5.157  -1.798  -2.868  1.00  0.00    -0.389 OA
HETATM   22  H46 UNL     1      -4.715  -2.572  -2.469  1.00  0.00     0.210 HD
ENDBRANCH  12  21
BRANCH   1  23
HETATM   23  C14 UNL     1      -0.203   0.124  -0.240  1.00  0.00     0.011 C 
HETATM   24  C12 UNL     1       0.743   0.472   0.660  1.00  0.00    -0.063 C 
HETATM   25  C13 UNL     1       0.469   0.694   2.126  1.00  0.00     0.048 C 
BRANCH  24  26
HETATM   26  C11 UNL     1       2.125   0.623   0.194  1.00  0.00     0.006 C 
HETATM   27  C10 UNL     1       3.202   0.885   0.956  1.00  0.00     0.001 C 
BRANCH  27  28
HETATM   28  C9  UNL     1       4.534   1.016   0.400  1.00  0.00     0.002 C 
HETATM   29  C7  UNL     1       5.686   1.191   1.078  1.00  0.00    -0.084 C 
HETATM   30  C8  UNL     1       5.824   1.299   2.575  1.00  0.00     0.043 C 
BRANCH  29  31
HETATM   31  C6  UNL     1       6.997   1.310   0.317  1.00  0.00     0.037 C 
BRANCH  31  32
HETATM   32  C5  UNL     1       7.794   0.001   0.317  1.00  0.00     0.031 C 
BRANCH  32  33
HETATM   33  C4  UNL     1       9.072   0.137  -0.468  1.00  0.00    -0.024 C 
HETATM   34  C2  UNL     1      10.331   0.200   0.006  1.00  0.00    -0.091 C 
HETATM   35  C1  UNL     1      10.714   0.188   1.460  1.00  0.00     0.042 C 
HETATM   36  C3  UNL     1      11.501   0.300  -0.940  1.00  0.00     0.042 C 
ENDBRANCH  32  33
ENDBRANCH  31  32
ENDBRANCH  29  31
ENDBRANCH  27  28
ENDBRANCH  24  26
ENDBRANCH   1  23
BRANCH   8  37
HETATM   37  C26 UNL     1      -6.502   3.158  -0.045  1.00  0.00     0.265 C 
HETATM   38  O4  UNL     1      -6.480   4.180   0.635  1.00  0.00    -0.302 OA
ENDBRANCH   8  37
TORSDOF 13
