REMARK  6 active torsions:
REMARK  status: ('A' for Active; 'I' for Inactive)
REMARK    1  A    between atoms: C2_2  and  O2_4 
REMARK    2  A    between atoms: O2_4  and  C3_5 
REMARK    3  A    between atoms: C12_15  and  O4_16 
REMARK    4  A    between atoms: C17_22  and  C18_23 
REMARK    5  A    between atoms: C18_23  and  C19_24 
REMARK       I    between atoms: C27_33  and  N3_34 
REMARK    6  A    between atoms: C35_45  and  O5_46 
ROOT
HETATM    1  C3  UNL     1      -3.809  -1.190  -2.076  1.00  0.00     0.134 C 
HETATM    2  C4  UNL     1      -2.545  -1.731  -1.379  1.00  0.00     0.037 C 
HETATM    3  C5  UNL     1      -2.390  -1.365   0.103  1.00  0.00     0.042 C 
HETATM    4  C6  UNL     1      -1.348  -2.210   0.806  1.00  0.00    -0.048 A 
HETATM    5  C7  UNL     1      -1.610  -3.530   1.244  1.00  0.00    -0.015 A 
HETATM    6  C8  UNL     1      -2.961  -4.177   1.068  1.00  0.00     0.044 C 
HETATM    7  C9  UNL     1      -3.099  -5.421   1.932  1.00  0.00     0.031 C 
HETATM    8  C10 UNL     1      -1.842  -6.253   1.781  1.00  0.00     0.176 C 
HETATM    9  O3  UNL     1      -0.696  -5.562   2.279  1.00  0.00    -0.348 OA
HETATM   10  C11 UNL     1      -0.573  -4.264   1.841  1.00  0.00     0.109 A 
HETATM   11  C12 UNL     1       0.678  -3.681   2.060  1.00  0.00     0.107 A 
HETATM   12  C13 UNL     1       0.954  -2.377   1.653  1.00  0.00    -0.004 A 
HETATM   13  C14 UNL     1      -0.072  -1.653   1.023  1.00  0.00     0.019 A 
HETATM   14  C15 UNL     1       2.305  -1.759   1.906  1.00  0.00     0.167 C 
HETATM   15  N1  UNL     1       2.859  -1.101   0.729  1.00  0.00    -0.347 N 
HETATM   16  C16 UNL     1       3.260   0.284   0.727  1.00  0.00     0.136 C 
HETATM   17  C17 UNL     1       4.376   0.357  -0.332  1.00  0.00    -0.011 C 
HETATM   18  C25 UNL     1       4.456   1.720  -1.069  1.00  0.00     0.032 C 
HETATM   19  C26 UNL     1       3.201   2.228  -1.788  1.00  0.00     0.139 C 
HETATM   20  N2  UNL     1       2.335   3.038  -0.908  1.00  0.00    -0.227 N 
HETATM   21  C27 UNL     1       0.996   2.933  -0.760  1.00  0.00     0.668 C 
HETATM   22  N3  UNL     1       0.315   1.904  -1.287  1.00  0.00    -0.235 N 
HETATM   23  N4  UNL     1       0.297   3.859  -0.080  1.00  0.00    -0.217 N 
HETATM   24  C28 UNL     1       0.840   5.089   0.470  1.00  0.00     0.224 C 
HETATM   25  S1  UNL     1      -0.376   5.861   1.563  1.00  0.00    -0.077 SA
HETATM   26  S2  UNL     1      -0.443   4.598   3.193  1.00  0.00    -0.096 SA
HETATM   27  C29 UNL     1      -1.650   3.291   2.755  1.00  0.00     0.086 C 
HETATM   28  C30 UNL     1      -2.942   3.797   2.111  1.00  0.00     0.011 C 
HETATM   29  C31 UNL     1      -3.854   2.624   1.741  1.00  0.00     0.001 C 
HETATM   30  C32 UNL     1      -5.041   3.032   0.863  1.00  0.00     0.000 C 
HETATM   31  C33 UNL     1      -4.706   3.488  -0.563  1.00  0.00     0.002 C 
HETATM   32  C34 UNL     1      -4.744   2.376  -1.625  1.00  0.00     0.032 C 
HETATM   33  C35 UNL     1      -3.614   1.343  -1.512  1.00  0.00     0.120 C 
HETATM   34  C36 UNL     1      -3.687   0.256  -2.597  1.00  0.00     0.064 C 
HETATM   35  C37 UNL     1       3.993  -0.802  -1.279  1.00  0.00     0.114 C 
HETATM   36  C38 UNL     1       3.342  -1.803  -0.366  1.00  0.00     0.220 C 
HETATM   37  O6  UNL     1       3.236  -2.992  -0.601  1.00  0.00    -0.273 OA
HETATM   38  H32 UNL     1       2.799   3.789  -0.419  1.00  0.00     0.177 HD
HETATM   39  H33 UNL     1       0.760   1.156  -1.799  1.00  0.00     0.174 HD
HETATM   40  H34 UNL     1      -0.711   1.854  -1.226  1.00  0.00     0.174 HD
HETATM   41  H35 UNL     1      -0.694   3.704   0.040  1.00  0.00     0.178 HD
ENDROOT
BRANCH  17  42
HETATM   42  C18 UNL     1       5.725   0.063   0.419  1.00  0.00     0.050 C 
BRANCH  42  43
HETATM   43  C19 UNL     1       6.981  -0.031  -0.413  1.00  0.00    -0.057 A 
HETATM   44  C20 UNL     1       7.386  -1.256  -0.965  1.00  0.00     0.007 A 
HETATM   45  C21 UNL     1       8.554  -1.346  -1.722  1.00  0.00     0.001 A 
HETATM   46  C22 UNL     1       9.342  -0.215  -1.923  1.00  0.00     0.000 A 
HETATM   47  C23 UNL     1       8.957   1.010  -1.379  1.00  0.00     0.001 A 
HETATM   48  C24 UNL     1       7.785   1.101  -0.625  1.00  0.00     0.007 A 
ENDBRANCH  42  43
ENDBRANCH  17  42
BRANCH  11  49
HETATM   49  O4  UNL     1       1.652  -4.421   2.687  1.00  0.00    -0.357 OA
HETATM   50  H15 UNL     1       1.329  -5.339   2.635  1.00  0.00     0.217 HD
ENDBRANCH  11  49
BRANCH   1  51
HETATM   51  O2  UNL     1      -4.964  -1.268  -1.224  1.00  0.00    -0.316 OA
BRANCH  51  52
HETATM   52  C2  UNL     1      -5.565  -2.493  -1.149  1.00  0.00     0.255 C 
HETATM   53  C1  UNL     1      -6.722  -2.435  -0.201  1.00  0.00     0.126 C 
HETATM   54  O1  UNL     1      -5.202  -3.498  -1.743  1.00  0.00    -0.266 OA
ENDBRANCH  51  52
ENDBRANCH   1  51
BRANCH  33  55
HETATM   55  O5  UNL     1      -2.341   2.018  -1.627  1.00  0.00    -0.395 OA
HETATM   56  H51 UNL     1      -2.419   2.534  -2.463  1.00  0.00     0.210 HD
ENDBRANCH  33  55
TORSDOF 6
