REMARK  12 active torsions:
REMARK  status: ('A' for Active; 'I' for Inactive)
REMARK    1  A    between atoms: C3_3  and  O1_4 
REMARK    2  A    between atoms: N1_14  and  O2_16 
REMARK    3  A    between atoms: O2_16  and  C13_17 
REMARK    4  A    between atoms: C13_17  and  C14_18 
REMARK       I    between atoms: C14_18  and  N2_20 
REMARK    5  A    between atoms: N2_20  and  C15_21 
REMARK    6  A    between atoms: C15_21  and  C16_22 
REMARK    7  A    between atoms: C15_21  and  C27_38 
REMARK       I    between atoms: C16_22  and  N3_24 
REMARK    8  A    between atoms: N3_24  and  C17_25 
REMARK    9  A    between atoms: C17_25  and  C18_26 
REMARK   10  A    between atoms: C17_25  and  C20_30 
REMARK   11  A    between atoms: C18_26  and  C19_27 
REMARK   12  A    between atoms: C19_27  and  O6_29 
ROOT
HETATM    1  C1  UNL     1     -10.573   5.073   0.039  1.00  0.00     0.015 C 
HETATM    2  C2  UNL     1      -9.937   4.142   0.456  1.00  0.00    -0.078 C 
HETATM    3  C3  UNL     1      -9.174   3.009   1.001  1.00  0.00     0.128 C 
HETATM    4  C4  UNL     1     -10.082   2.035   1.760  1.00  0.00     0.052 C 
HETATM    5  C5  UNL     1      -9.185   0.816   1.933  1.00  0.00     0.010 C 
HETATM    6  C6  UNL     1      -8.515   0.665   0.566  1.00  0.00     0.002 C 
HETATM    7  C7  UNL     1      -7.215  -0.170   0.530  1.00  0.00    -0.004 C 
HETATM    8  C8  UNL     1      -6.213   0.050   1.673  1.00  0.00     0.010 C 
HETATM    9  C9  UNL     1      -5.014  -0.894   1.565  1.00  0.00     0.035 C 
HETATM   10  C10 UNL     1      -4.367  -0.936   0.197  1.00  0.00    -0.069 C 
HETATM   11  C11 UNL     1      -3.026  -1.027   0.104  1.00  0.00     0.030 C 
HETATM   12  C12 UNL     1      -2.340  -1.326  -1.191  1.00  0.00     0.032 C 
HETATM   13  N1  UNL     1      -1.077  -1.592  -1.335  1.00  0.00    -0.271 N 
ATOM     14  H1  UNL     1      -0.651  -1.861  -2.222  1.00  0.00     0.194 HD
HETATM   15  C30 UNL     1      -3.192  -1.425  -2.444  1.00  0.00     0.060 C 
HETATM   16  C31 UNL     1      -4.490  -0.640  -2.311  1.00  0.00     0.020 C 
HETATM   17  C32 UNL     1      -5.292  -0.984  -1.017  1.00  0.00    -0.016 C 
HETATM   18  C33 UNL     1      -5.827  -2.436  -1.156  1.00  0.00     0.020 C 
HETATM   19  C34 UNL     1      -6.510   0.008  -0.837  1.00  0.00     0.002 C 
HETATM   20  C35 UNL     1      -6.150   1.496  -1.090  1.00  0.00     0.007 C 
HETATM   21  C36 UNL     1      -7.007   2.534  -0.353  1.00  0.00     0.014 C 
HETATM   22  C37 UNL     1      -8.456   2.099  -0.063  1.00  0.00     0.003 C 
HETATM   23  C38 UNL     1      -9.231   2.063  -1.407  1.00  0.00     0.020 C 
ENDROOT
BRANCH   3  24
HETATM   24  O1  UNL     1      -8.232   3.526   1.943  1.00  0.00    -0.377 OA
HETATM   25  H2  UNL     1      -8.708   4.169   2.493  1.00  0.00     0.211 HD
ENDBRANCH   3  24
BRANCH  13  26
HETATM   26  O2  UNL     1      -0.367  -1.467  -0.134  1.00  0.00    -0.271 OA
BRANCH  26  27
HETATM   27  C13 UNL     1       0.698  -2.401  -0.108  1.00  0.00     0.303 C 
BRANCH  27  28
HETATM   28  C14 UNL     1       2.012  -1.985  -0.780  1.00  0.00     0.244 C 
HETATM   29  O3  UNL     1       2.213  -0.911  -1.341  1.00  0.00    -0.271 OA
HETATM   30  N2  UNL     1       2.999  -2.966  -0.683  1.00  0.00    -0.346 N 
HETATM   31  H16 UNL     1       2.903  -3.604   0.102  1.00  0.00     0.163 HD
BRANCH  30  32
HETATM   32  C15 UNL     1       4.377  -2.665  -1.073  1.00  0.00     0.180 C 
BRANCH  32  33
HETATM   33  C16 UNL     1       5.105  -2.118   0.176  1.00  0.00     0.241 C 
HETATM   34  O4  UNL     1       4.925  -2.589   1.295  1.00  0.00    -0.271 OA
HETATM   35  N3  UNL     1       6.015  -1.114  -0.082  1.00  0.00    -0.354 N 
HETATM   36  H18 UNL     1       6.018  -0.705  -1.013  1.00  0.00     0.162 HD
BRANCH  35  37
HETATM   37  C17 UNL     1       6.789  -0.470   0.984  1.00  0.00     0.098 C 
BRANCH  37  38
HETATM   38  C18 UNL     1       7.918  -1.401   1.470  1.00  0.00     0.135 C 
BRANCH  38  39
HETATM   39  C19 UNL     1       8.233  -1.209   2.930  1.00  0.00     0.141 C 
HETATM   40  O5  UNL     1       7.512  -0.760   3.799  1.00  0.00    -0.650 OA
BRANCH  39  41
HETATM   41  O6  UNL     1       9.469  -1.654   3.238  1.00  0.00    -0.776 OA
HETATM   42  H22 UNL     1       9.518  -1.554   4.211  1.00  0.00     0.167 HD
ENDBRANCH  39  41
ENDBRANCH  38  39
ENDBRANCH  37  38
BRANCH  37  43
HETATM   43  C20 UNL     1       7.265   0.931   0.502  1.00  0.00     0.014 C 
HETATM   44  C21 UNL     1       8.146   0.899  -0.768  1.00  0.00     0.033 C 
HETATM   45  C22 UNL     1       9.137   2.061  -0.821  1.00  0.00     0.169 C 
HETATM   46  O7  UNL     1       8.542   3.243  -0.298  1.00  0.00    -0.381 OA
HETATM   47  C23 UNL     1       8.263   3.187   1.113  1.00  0.00     0.054 C 
HETATM   48  C24 UNL     1       9.460   3.770   1.877  1.00  0.00     0.045 C 
HETATM   49  C25 UNL     1       7.044   4.092   1.332  1.00  0.00     0.045 C 
HETATM   50  C26 UNL     1       7.967   1.748   1.593  1.00  0.00     0.044 C 
ENDBRANCH  37  43
ENDBRANCH  35  37
ENDBRANCH  32  33
BRANCH  32  51
HETATM   51  C27 UNL     1       5.078  -3.905  -1.676  1.00  0.00     0.009 C 
HETATM   52  C28 UNL     1       6.473  -3.570  -2.215  1.00  0.00     0.012 C 
HETATM   53  C29 UNL     1       5.172  -5.102  -0.716  1.00  0.00     0.012 C 
ENDBRANCH  32  51
ENDBRANCH  30  32
ENDBRANCH  27  28
ENDBRANCH  26  27
ENDBRANCH  13  26
TORSDOF 12
