REMARK  12 active torsions:
REMARK  status: ('A' for Active; 'I' for Inactive)
REMARK    1  A    between atoms: O1_2  and  C2_3 
REMARK    2  A    between atoms: C3_6  and  C4_7 
REMARK    3  A    between atoms: C4_7  and  C5_8 
REMARK    4  A    between atoms: C6_9  and  C8_11 
REMARK    5  A    between atoms: C8_11  and  C9_12 
REMARK    6  A    between atoms: C10_13  and  C11_14 
REMARK    7  A    between atoms: C13_16  and  C14_17 
REMARK    8  A    between atoms: C14_17  and  C16_19 
REMARK    9  A    between atoms: C16_19  and  O2_20 
REMARK   10  A    between atoms: C16_19  and  C18_22 
REMARK   11  A    between atoms: C24_29  and  O4_30 
REMARK   12  A    between atoms: C25_31  and  O5_32 
ROOT
HETATM    1  C5  UNL     1      -3.224   1.112   0.270  1.00  0.00    -0.018 C 
HETATM    2  C6  UNL     1      -2.194   0.240   0.240  1.00  0.00    -0.084 C 
HETATM    3  C7  UNL     1      -1.911  -0.716  -0.889  1.00  0.00     0.043 C 
ENDROOT
BRANCH   2   4
HETATM    4  C8  UNL     1      -1.248   0.127   1.420  1.00  0.00     0.060 C 
BRANCH   4   5
HETATM    5  C9  UNL     1       0.075   0.785   1.140  1.00  0.00    -0.022 C 
HETATM    6  C10 UNL     1       1.251   0.135   1.150  1.00  0.00     0.003 C 
BRANCH   6   7
HETATM    7  C11 UNL     1       2.569   0.718   0.899  1.00  0.00    -0.066 C 
HETATM    8  C12 UNL     1       2.629   2.173   0.507  1.00  0.00     0.048 C 
HETATM    9  C13 UNL     1       3.654  -0.079   1.008  1.00  0.00    -0.013 C 
BRANCH   9  10
HETATM   10  C14 UNL     1       5.121   0.297   0.833  1.00  0.00     0.037 C 
HETATM   11  C15 UNL     1       5.889  -0.230   2.052  1.00  0.00     0.017 C 
BRANCH  10  12
HETATM   12  C16 UNL     1       5.673  -0.256  -0.515  1.00  0.00     0.165 C 
BRANCH  12  13
HETATM   13  O2  UNL     1       4.959   0.411  -1.574  1.00  0.00    -0.387 OA
HETATM   14  C17 UNL     1       4.912  -0.339  -2.779  1.00  0.00     0.202 C 
ENDBRANCH  12  13
BRANCH  12  15
HETATM   15  C18 UNL     1       7.167  -0.003  -0.673  1.00  0.00     0.110 A 
HETATM   16  C19 UNL     1       7.621   1.423  -0.783  1.00  0.00     0.051 C 
HETATM   17  O3  UNL     1       7.817  -0.888  -1.610  1.00  0.00    -0.367 OA
HETATM   18  C20 UNL     1       8.138  -1.096  -0.234  1.00  0.00     0.155 A 
HETATM   19  C21 UNL     1       9.558  -0.835   0.121  1.00  0.00     0.042 C 
ENDBRANCH  12  15
ENDBRANCH  10  12
ENDBRANCH   9  10
ENDBRANCH   6   7
ENDBRANCH   4   5
ENDBRANCH   2   4
BRANCH   1  20
HETATM   20  C4  UNL     1      -4.260   1.368  -0.794  1.00  0.00     0.085 C 
BRANCH  20  21
HETATM   21  C3  UNL     1      -5.603   0.744  -0.475  1.00  0.00     0.023 A 
HETATM   22  N1  UNL     1      -5.850  -0.436  -1.107  1.00  0.00    -0.337 N 
HETATM   23  C2  UNL     1      -7.004  -1.097  -0.843  1.00  0.00     0.179 A 
ATOM     24  H1  UNL     1      -5.176  -0.818  -1.770  1.00  0.00     0.168 HD
HETATM   25  C25 UNL     1      -7.955  -0.633   0.057  1.00  0.00     0.153 A 
HETATM   26  C24 UNL     1      -7.678   0.592   0.675  1.00  0.00     0.111 A 
HETATM   27  C22 UNL     1      -6.510   1.317   0.423  1.00  0.00    -0.003 A 
HETATM   28  C23 UNL     1      -6.238   2.605   1.144  1.00  0.00     0.053 C 
BRANCH  23  29
HETATM   29  O1  UNL     1      -7.234  -2.274  -1.523  1.00  0.00    -0.339 OA
HETATM   30  C1  UNL     1      -6.179  -2.644  -2.407  1.00  0.00     0.211 C 
ENDBRANCH  23  29
BRANCH  25  31
HETATM   31  O5  UNL     1      -9.150  -1.187   0.435  1.00  0.00    -0.349 OA
HETATM   32  C26 UNL     1      -9.370  -2.555   0.115  1.00  0.00     0.210 C 
ENDBRANCH  25  31
BRANCH  26  33
HETATM   33  O4  UNL     1      -8.589   1.093   1.577  1.00  0.00    -0.357 OA
HETATM   34  H36 UNL     1      -9.316   0.439   1.598  1.00  0.00     0.217 HD
ENDBRANCH  26  33
ENDBRANCH  20  21
ENDBRANCH   1  20
TORSDOF 12
