REMARK  12 active torsions:
REMARK  status: ('A' for Active; 'I' for Inactive)
REMARK    1  A    between atoms: C4_4  and  C5_5 
REMARK    2  A    between atoms: C5_5  and  O1_6 
REMARK    3  A    between atoms: C5_5  and  C6_7 
REMARK    4  A    between atoms: C6_7  and  C7_8 
REMARK    5  A    between atoms: C9_11  and  C10_12 
REMARK    6  A    between atoms: C18_20  and  O3_21 
REMARK    7  A    between atoms: O3_21  and  C19_22 
REMARK    8  A    between atoms: C20_24  and  C21_25 
REMARK    9  A    between atoms: C21_25  and  O5_26 
REMARK   10  A    between atoms: C22_27  and  O6_28 
REMARK   11  A    between atoms: C23_29  and  O7_30 
REMARK   12  A    between atoms: C24_31  and  O8_32 
ROOT
HETATM    1  C10 UNL     1      -2.992  -0.274   1.636  1.00  0.00     0.029 C 
HETATM    2  C11 UNL     1      -2.111  -1.451   2.118  1.00  0.00     0.009 C 
HETATM    3  C12 UNL     1      -0.650  -1.099   2.413  1.00  0.00     0.007 C 
HETATM    4  C13 UNL     1      -0.242   0.212   1.734  1.00  0.00     0.003 C 
HETATM    5  C14 UNL     1       1.312   0.425   1.489  1.00  0.00    -0.035 C 
HETATM    6  C15 UNL     1       2.098   0.473   2.816  1.00  0.00     0.016 C 
HETATM    7  C16 UNL     1       1.873  -0.772   0.660  1.00  0.00     0.012 C 
HETATM    8  C17 UNL     1       3.273  -0.546   0.090  1.00  0.00     0.034 C 
HETATM    9  C18 UNL     1       3.374   0.726  -0.750  1.00  0.00     0.133 C 
HETATM   10  C25 UNL     1       2.885   1.999   0.016  1.00  0.00    -0.017 C 
HETATM   11  C26 UNL     1       2.816   3.155  -1.022  1.00  0.00     0.018 C 
HETATM   12  C27 UNL     1       3.907   2.447   1.082  1.00  0.00     0.018 C 
HETATM   13  C28 UNL     1       1.449   1.712   0.590  1.00  0.00     0.004 C 
HETATM   14  C29 UNL     1       0.741   2.925   1.220  1.00  0.00     0.007 C 
HETATM   15  C30 UNL     1      -0.752   2.659   1.468  1.00  0.00     0.011 C 
HETATM   16  C31 UNL     1      -1.053   1.420   2.361  1.00  0.00    -0.029 C 
HETATM   17  C32 UNL     1      -0.571   1.790   3.787  1.00  0.00     0.016 C 
HETATM   18  C33 UNL     1      -2.644   1.064   2.421  1.00  0.00     0.004 C 
HETATM   19  C34 UNL     1      -3.565   2.217   1.977  1.00  0.00     0.190 C 
HETATM   20  O9  UNL     1      -4.861   1.915   2.497  1.00  0.00    -0.321 OA
HETATM   21  C35 UNL     1      -4.703   1.187   3.638  1.00  0.00     0.259 C 
HETATM   22  O10 UNL     1      -5.612   0.856   4.379  1.00  0.00    -0.265 OA
HETATM   23  C36 UNL     1      -3.243   0.897   3.847  1.00  0.00     0.124 C 
ENDROOT
BRANCH   9  24
HETATM   24  O3  UNL     1       4.738   0.920  -1.146  1.00  0.00    -0.352 OA
BRANCH  24  25
HETATM   25  C19 UNL     1       5.044   0.465  -2.464  1.00  0.00     0.292 C 
HETATM   26  O4  UNL     1       4.972  -0.961  -2.552  1.00  0.00    -0.348 OA
HETATM   27  C20 UNL     1       6.206  -1.655  -2.310  1.00  0.00     0.179 C 
HETATM   28  C22 UNL     1       7.140  -0.867  -1.384  1.00  0.00     0.180 C 
HETATM   29  C23 UNL     1       7.585   0.392  -2.135  1.00  0.00     0.183 C 
HETATM   30  C24 UNL     1       6.417   1.055  -2.886  1.00  0.00     0.204 C 
BRANCH  27  31
HETATM   31  C21 UNL     1       5.899  -3.072  -1.802  1.00  0.00     0.198 C 
BRANCH  31  32
HETATM   32  O5  UNL     1       5.724  -3.102  -0.384  1.00  0.00    -0.398 OA
HETATM   33  H34 UNL     1       5.508  -4.024  -0.152  1.00  0.00     0.209 HD
ENDBRANCH  31  32
ENDBRANCH  27  31
BRANCH  28  34
HETATM   34  O6  UNL     1       8.301  -1.614  -0.997  1.00  0.00    -0.390 OA
HETATM   35  H36 UNL     1       7.974  -2.271  -0.351  1.00  0.00     0.210 HD
ENDBRANCH  28  34
BRANCH  29  36
HETATM   36  O7  UNL     1       8.190   1.307  -1.209  1.00  0.00    -0.390 OA
HETATM   37  H38 UNL     1       8.854   0.781  -0.722  1.00  0.00     0.210 HD
ENDBRANCH  29  36
BRANCH  30  38
HETATM   38  O8  UNL     1       6.619   0.860  -4.302  1.00  0.00    -0.388 OA
HETATM   39  H40 UNL     1       5.964   1.410  -4.764  1.00  0.00     0.210 HD
ENDBRANCH  30  38
ENDBRANCH  24  25
ENDBRANCH   9  24
BRANCH   1  40
HETATM   40  C9  UNL     1      -2.992  -0.094   0.124  1.00  0.00     0.162 A 
HETATM   41  C7  UNL     1      -4.085  -0.633  -0.814  1.00  0.00     0.087 A 
HETATM   42  C8  UNL     1      -4.257   0.081  -2.122  1.00  0.00     0.049 C 
HETATM   43  O2  UNL     1      -2.818  -1.281  -0.664  1.00  0.00    -0.369 OA
BRANCH  41  44
HETATM   44  C6  UNL     1      -5.245  -1.474  -0.323  1.00  0.00     0.076 C 
BRANCH  44  45
HETATM   45  C5  UNL     1      -5.532  -2.727  -1.172  1.00  0.00     0.144 C 
BRANCH  45  46
HETATM   46  C4  UNL     1      -6.347  -2.477  -2.418  1.00  0.00     0.006 C 
HETATM   47  C2  UNL     1      -7.674  -2.265  -2.541  1.00  0.00    -0.089 C 
HETATM   48  C1  UNL     1      -8.297  -2.063  -3.898  1.00  0.00     0.042 C 
HETATM   49  C3  UNL     1      -8.651  -2.185  -1.398  1.00  0.00     0.042 C 
ENDBRANCH  45  46
BRANCH  45  50
HETATM   50  O1  UNL     1      -6.199  -3.697  -0.361  1.00  0.00    -0.392 OA
HETATM   51  H9  UNL     1      -6.564  -4.366  -0.965  1.00  0.00     0.210 HD
ENDBRANCH  45  50
ENDBRANCH  44  45
ENDBRANCH  41  44
ENDBRANCH   1  40
TORSDOF 12
