REMARK  10 active torsions:
REMARK  status: ('A' for Active; 'I' for Inactive)
REMARK    1  A    between atoms: O1_2  and  C2_3 
REMARK    2  A    between atoms: C4_5  and  O2_6 
REMARK    3  A    between atoms: O2_6  and  C5_7 
REMARK    4  A    between atoms: C8_10  and  C9_11 
REMARK    5  A    between atoms: N1_12  and  C10_14 
REMARK    6  A    between atoms: C10_14  and  C11_15 
REMARK    7  A    between atoms: C21_27  and  C22_28 
REMARK    8  A    between atoms: C28_36  and  O5_37 
REMARK    9  A    between atoms: C32_41  and  O6_42 
REMARK   10  A    between atoms: C36_47  and  O8_48 
ROOT
HETATM    1  C5  UNL     1      -2.800   1.446  -0.192  1.00  0.00     0.127 C 
HETATM    2  C6  UNL     1      -1.636   2.201  -0.831  1.00  0.00     0.033 C 
HETATM    3  C7  UNL     1      -0.351   1.371  -0.923  1.00  0.00     0.021 C 
HETATM    4  C8  UNL     1       0.103   0.710   0.419  1.00  0.00     0.026 C 
HETATM    5  C16 UNL     1       1.334  -0.242   0.080  1.00  0.00     0.009 C 
HETATM    6  C17 UNL     1       2.707   0.421   0.331  1.00  0.00     0.007 C 
HETATM    7  C18 UNL     1       3.881  -0.479  -0.040  1.00  0.00     0.013 C 
HETATM    8  C19 UNL     1       3.847  -1.846   0.687  1.00  0.00    -0.005 C 
HETATM    9  C20 UNL     1       4.164  -1.652   2.185  1.00  0.00     0.019 C 
HETATM   10  C21 UNL     1       4.821  -2.872   0.032  1.00  0.00     0.028 C 
HETATM   11  C26 UNL     1       4.078  -3.308  -1.247  1.00  0.00     0.013 C 
HETATM   12  C27 UNL     1       2.581  -3.083  -0.984  1.00  0.00     0.040 C 
HETATM   13  C28 UNL     1       2.474  -2.545   0.459  1.00  0.00     0.070 C 
HETATM   14  C29 UNL     1       1.251  -1.630   0.755  1.00  0.00     0.026 C 
HETATM   15  C30 UNL     1      -0.089  -2.330   0.430  1.00  0.00     0.011 C 
HETATM   16  C31 UNL     1      -1.302  -1.395   0.325  1.00  0.00     0.039 C 
HETATM   17  C32 UNL     1      -1.096  -0.060   1.060  1.00  0.00     0.073 C 
HETATM   18  C33 UNL     1      -2.375   0.803   1.127  1.00  0.00     0.071 C 
ENDROOT
BRANCH   1  19
HETATM   19  O2  UNL     1      -3.264   0.445  -1.102  1.00  0.00    -0.356 OA
BRANCH  19  20
HETATM   20  C4  UNL     1      -4.693   0.333  -1.136  1.00  0.00     0.263 C 
HETATM   21  C3  UNL     1      -5.022  -0.806  -2.087  1.00  0.00     0.095 C 
HETATM   22  C2  UNL     1      -6.534  -0.933  -2.280  1.00  0.00     0.156 C 
HETATM   23  C36 UNL     1      -7.305  -0.536  -1.004  1.00  0.00     0.175 C 
HETATM   24  C34 UNL     1      -6.404  -0.691   0.233  1.00  0.00     0.151 C 
HETATM   25  O7  UNL     1      -5.213   0.109   0.170  1.00  0.00    -0.354 OA
HETATM   26  C35 UNL     1      -7.122  -0.308   1.527  1.00  0.00     0.042 C 
BRANCH  22  27
HETATM   27  O1  UNL     1      -6.884  -2.286  -2.605  1.00  0.00    -0.388 OA
HETATM   28  C1  UNL     1      -6.550  -2.649  -3.940  1.00  0.00     0.202 C 
ENDBRANCH  22  27
BRANCH  23  29
HETATM   29  O8  UNL     1      -7.746   0.825  -1.118  1.00  0.00    -0.390 OA
HETATM   30  H50 UNL     1      -8.487   0.834  -1.750  1.00  0.00     0.210 HD
ENDBRANCH  23  29
ENDBRANCH  19  20
ENDBRANCH   1  19
BRANCH  17  31
HETATM   31  O6  UNL     1      -0.797  -0.392   2.431  1.00  0.00    -0.389 OA
HETATM   32  H42 UNL     1      -1.557  -0.887   2.787  1.00  0.00     0.210 HD
ENDBRANCH  17  31
BRANCH   4  33
HETATM   33  C9  UNL     1       0.547   1.778   1.431  1.00  0.00     0.069 C 
HETATM   34  N1  UNL     1       0.790   2.997   1.075  1.00  0.00    -0.397 N 
ATOM     35  H1  UNL     1       0.670   3.334   0.120  1.00  0.00     0.159 HD
BRANCH  34  36
HETATM   36  C10 UNL     1       1.253   3.848   2.172  1.00  0.00     0.158 C 
BRANCH  36  37
HETATM   37  C11 UNL     1       1.801   5.140   1.639  1.00  0.00    -0.025 A 
HETATM   38  C12 UNL     1       3.154   5.286   1.325  1.00  0.00     0.011 A 
HETATM   39  C13 UNL     1       3.614   6.497   0.815  1.00  0.00     0.018 A 
HETATM   40  C14 UNL     1       2.700   7.520   0.628  1.00  0.00     0.087 A 
HETATM   41  N2  UNL     1       1.384   7.414   0.908  1.00  0.00    -0.375 N 
HETATM   42  C15 UNL     1       0.962   6.225   1.395  1.00  0.00     0.096 A 
ATOM     43  H2  UNL     1       0.740   8.191   0.760  1.00  0.00     0.164 HD
ENDBRANCH  36  37
ENDBRANCH  34  36
ENDBRANCH   4  33
BRANCH  13  44
HETATM   44  O5  UNL     1       2.398  -3.684   1.333  1.00  0.00    -0.389 OA
HETATM   45  H36 UNL     1       1.633  -4.223   1.066  1.00  0.00     0.210 HD
ENDBRANCH  13  44
BRANCH  10  46
HETATM   46  C22 UNL     1       6.248  -2.432  -0.153  1.00  0.00    -0.045 A 
HETATM   47  C23 UNL     1       6.847  -1.917  -1.227  1.00  0.00     0.087 A 
HETATM   48  C24 UNL     1       8.253  -1.708  -0.882  1.00  0.00     0.283 A 
HETATM   49  O3  UNL     1       9.091  -1.236  -1.630  1.00  0.00    -0.260 OA
HETATM   50  O4  UNL     1       8.467  -2.127   0.391  1.00  0.00    -0.314 OA
HETATM   51  C25 UNL     1       7.239  -2.609   0.937  1.00  0.00     0.213 A 
ENDBRANCH  10  46
TORSDOF 10
