REMARK  9 active torsions:
REMARK  status: ('A' for Active; 'I' for Inactive)
REMARK    1  A    between atoms: C4_4  and  C5_5 
REMARK    2  A    between atoms: C5_5  and  C6_6 
REMARK    3  A    between atoms: C6_6  and  C7_7 
REMARK    4  A    between atoms: C7_7  and  C9_9 
REMARK    5  A    between atoms: C16_16  and  O1_17 
REMARK    6  A    between atoms: C25_27  and  C27_29 
REMARK    7  A    between atoms: C27_29  and  O4_31 
REMARK    8  A    between atoms: C28_32  and  O5_33 
REMARK    9  A    between atoms: C30_35  and  O6_36 
ROOT
HETATM    1  C9  UNL     1       2.546  -0.540  -0.813  1.00  0.00    -0.002 C 
HETATM    2  C10 UNL     1       2.595  -1.730   0.179  1.00  0.00     0.007 C 
HETATM    3  C11 UNL     1       1.144  -2.007   0.621  1.00  0.00     0.015 C 
HETATM    4  C12 UNL     1       0.261  -1.229  -0.377  1.00  0.00    -0.005 C 
HETATM    5  C13 UNL     1       0.107  -2.128  -1.645  1.00  0.00     0.021 C 
HETATM    6  C14 UNL     1      -1.168  -0.847  -0.018  1.00  0.00     0.003 C 
HETATM    7  C15 UNL     1      -1.786   0.232  -0.578  1.00  0.00    -0.030 C 
HETATM    8  C16 UNL     1      -0.967   1.211  -1.457  1.00  0.00     0.149 C 
HETATM    9  C17 UNL     1       0.523   0.877  -1.704  1.00  0.00     0.047 C 
HETATM   10  C18 UNL     1       1.137   0.075  -0.556  1.00  0.00    -0.026 C 
HETATM   11  C19 UNL     1       1.151   0.970   0.718  1.00  0.00     0.016 C 
HETATM   12  C20 UNL     1      -3.295   0.597  -0.284  1.00  0.00     0.014 C 
HETATM   13  C21 UNL     1      -3.253   1.882   0.578  1.00  0.00     0.023 C 
HETATM   14  C22 UNL     1      -4.011  -0.579   0.466  1.00  0.00     0.029 C 
HETATM   15  C23 UNL     1      -3.140  -1.134   1.589  1.00  0.00     0.090 C 
HETATM   16  C24 UNL     1      -1.895  -1.703   0.970  1.00  0.00     0.157 C 
HETATM   17  O2  UNL     1      -1.484  -2.812   1.295  1.00  0.00    -0.293 OA
HETATM   18  C25 UNL     1      -5.533  -0.355   0.818  1.00  0.00     0.072 C 
HETATM   19  C26 UNL     1      -6.196  -1.762   0.898  1.00  0.00     0.030 C 
HETATM   20  C28 UNL     1      -6.265   0.446  -0.305  1.00  0.00     0.139 C 
HETATM   21  C29 UNL     1      -5.559   0.325  -1.649  1.00  0.00     0.065 C 
HETATM   22  C30 UNL     1      -4.091   0.794  -1.631  1.00  0.00     0.133 C 
ENDROOT
BRANCH   1  23
HETATM   23  C7  UNL     1       3.859   0.292  -0.941  1.00  0.00    -0.014 C 
HETATM   24  C8  UNL     1       3.808   1.168  -2.210  1.00  0.00     0.010 C 
BRANCH  23  25
HETATM   25  C6  UNL     1       4.367   1.188   0.213  1.00  0.00     0.008 C 
BRANCH  25  26
HETATM   26  C5  UNL     1       4.834   0.530   1.514  1.00  0.00     0.028 C 
BRANCH  26  27
HETATM   27  C4  UNL     1       5.904  -0.510   1.311  1.00  0.00    -0.025 C 
HETATM   28  C2  UNL     1       7.234  -0.374   1.474  1.00  0.00    -0.091 C 
HETATM   29  C1  UNL     1       8.151  -1.549   1.254  1.00  0.00     0.042 C 
HETATM   30  C3  UNL     1       7.932   0.897   1.867  1.00  0.00     0.042 C 
ENDBRANCH  26  27
ENDBRANCH  25  26
ENDBRANCH  23  25
ENDBRANCH   1  23
BRANCH   8  31
HETATM   31  O1  UNL     1      -1.536   1.356  -2.751  1.00  0.00    -0.391 OA
HETATM   32  H25 UNL     1      -2.300   1.964  -2.650  1.00  0.00     0.210 HD
ENDBRANCH   8  31
BRANCH  22  33
HETATM   33  O6  UNL     1      -3.962   2.150  -2.079  1.00  0.00    -0.394 OA
HETATM   34  H46 UNL     1      -4.820   2.448  -2.437  1.00  0.00     0.210 HD
ENDBRANCH  22  33
BRANCH  18  35
HETATM   35  C27 UNL     1      -5.878   0.306   2.149  1.00  0.00     0.151 C 
HETATM   36  O3  UNL     1      -7.017   0.501   2.549  1.00  0.00    -0.649 OA
BRANCH  35  37
HETATM   37  O4  UNL     1      -4.845   0.696   2.903  1.00  0.00    -0.776 OA
HETATM   38  H40 UNL     1      -5.257   1.108   3.694  1.00  0.00     0.167 HD
ENDBRANCH  35  37
ENDBRANCH  18  35
BRANCH  20  39
HETATM   39  O5  UNL     1      -6.390   1.840  -0.033  1.00  0.00    -0.394 OA
HETATM   40  H42 UNL     1      -7.148   1.952   0.573  1.00  0.00     0.210 HD
ENDBRANCH  20  39
TORSDOF 9
