REMARK  4 active torsions:
REMARK  status: ('A' for Active; 'I' for Inactive)
REMARK    1  A    between atoms: C4_4  and  C5_5 
REMARK    2  A    between atoms: C5_5  and  C6_6 
REMARK    3  A    between atoms: C6_6  and  C7_7 
REMARK    4  A    between atoms: C7_7  and  C9_9 
ROOT
HETATM    1  C9  UNL     1       2.257  -0.053   1.203  1.00  0.00    -0.002 C 
HETATM    2  C10 UNL     1       2.002  -1.427   1.894  1.00  0.00     0.007 C 
HETATM    3  C11 UNL     1       0.483  -1.681   1.877  1.00  0.00     0.015 C 
HETATM    4  C12 UNL     1      -0.135  -0.325   1.483  1.00  0.00    -0.013 C 
HETATM    5  C13 UNL     1      -0.212   0.511   2.802  1.00  0.00     0.021 C 
HETATM    6  C14 UNL     1      -1.543  -0.320   0.896  1.00  0.00    -0.070 C 
HETATM    7  C15 UNL     1      -2.476  -1.218   1.259  1.00  0.00    -0.022 C 
HETATM    8  C16 UNL     1      -3.903  -1.191   0.808  1.00  0.00     0.034 C 
HETATM    9  C17 UNL     1      -4.216  -0.179  -0.318  1.00  0.00     0.013 C 
HETATM   10  C18 UNL     1      -5.760  -0.015  -0.578  1.00  0.00     0.018 C 
HETATM   11  C19 UNL     1      -6.638  -0.064   0.688  1.00  0.00     0.023 C 
HETATM   12  C20 UNL     1      -6.246  -1.144  -1.513  1.00  0.00     0.023 C 
HETATM   13  C21 UNL     1      -6.020   1.305  -1.312  1.00  0.00     0.135 C 
HETATM   14  O1  UNL     1      -7.097   1.897  -1.257  1.00  0.00    -0.297 OA
HETATM   15  C22 UNL     1      -4.909   1.814  -2.187  1.00  0.00     0.080 C 
HETATM   16  C23 UNL     1      -3.655   2.102  -1.377  1.00  0.00     0.017 C 
HETATM   17  C24 UNL     1      -3.409   1.164  -0.150  1.00  0.00    -0.031 C 
HETATM   18  C25 UNL     1      -3.836   1.922   1.130  1.00  0.00     0.016 C 
HETATM   19  C26 UNL     1      -1.869   0.794  -0.100  1.00  0.00     0.024 C 
HETATM   20  C27 UNL     1      -0.914   2.004   0.039  1.00  0.00     0.010 C 
HETATM   21  C28 UNL     1       0.594   1.657   0.073  1.00  0.00     0.011 C 
HETATM   22  C29 UNL     1       0.915   0.189   0.433  1.00  0.00    -0.029 C 
HETATM   23  C30 UNL     1       0.950  -0.658  -0.880  1.00  0.00     0.016 C 
ENDROOT
BRANCH   1  24
HETATM   24  C7  UNL     1       3.616  -0.022   0.437  1.00  0.00    -0.014 C 
HETATM   25  C8  UNL     1       3.843   1.320  -0.268  1.00  0.00     0.010 C 
BRANCH  24  26
HETATM   26  C6  UNL     1       4.788  -0.313   1.417  1.00  0.00     0.008 C 
BRANCH  26  27
HETATM   27  C5  UNL     1       6.181  -0.453   0.784  1.00  0.00     0.028 C 
BRANCH  27  28
HETATM   28  C4  UNL     1       6.260  -1.579  -0.211  1.00  0.00    -0.025 C 
HETATM   29  C2  UNL     1       6.617  -1.524  -1.509  1.00  0.00    -0.091 C 
HETATM   30  C1  UNL     1       7.031  -0.284  -2.253  1.00  0.00     0.042 C 
HETATM   31  C3  UNL     1       6.624  -2.774  -2.352  1.00  0.00     0.042 C 
ENDBRANCH  27  28
ENDBRANCH  26  27
ENDBRANCH  24  26
ENDBRANCH   1  24
TORSDOF 4
