REMARK  11 active torsions:
REMARK  status: ('A' for Active; 'I' for Inactive)
REMARK    1  A    between atoms: C2_2  and  O1_4 
REMARK    2  A    between atoms: C2_2  and  C4_5 
REMARK    3  A    between atoms: C5_6  and  C6_7 
REMARK    4  A    between atoms: C6_7  and  C7_8 
REMARK    5  A    between atoms: C7_8  and  C8_9 
REMARK    6  A    between atoms: C7_8  and  C14_21 
REMARK    7  A    between atoms: C8_9  and  O3_11 
REMARK    8  A    between atoms: O3_11  and  C9_12 
REMARK    9  A    between atoms: C11_15  and  O5_16 
REMARK   10  A    between atoms: C12_17  and  O6_18 
REMARK   11  A    between atoms: C13_19  and  O7_20 
ROOT
HETATM    1  C7  UNL     1      -1.932  -0.743  -0.172  1.00  0.00     0.094 C 
ENDROOT
BRANCH   1   2
HETATM    2  C6  UNL     1      -2.542  -0.795   1.243  1.00  0.00     0.042 C 
BRANCH   2   3
HETATM    3  C5  UNL     1      -3.437  -1.997   1.444  1.00  0.00    -0.027 C 
HETATM    4  C4  UNL     1      -4.571  -1.965   2.166  1.00  0.00     0.006 C 
BRANCH   4   5
HETATM    5  C2  UNL     1      -5.550  -3.093   2.403  1.00  0.00     0.068 C 
HETATM    6  C1  UNL     1      -6.970  -2.609   2.097  1.00  0.00     0.050 C 
HETATM    7  C3  UNL     1      -5.257  -4.379   1.628  1.00  0.00     0.050 C 
BRANCH   5   8
HETATM    8  O1  UNL     1      -5.486  -3.394   3.796  1.00  0.00    -0.387 OA
HETATM    9  H7  UNL     1      -4.569  -3.660   3.976  1.00  0.00     0.211 HD
ENDBRANCH   5   8
ENDBRANCH   4   5
ENDBRANCH   2   3
ENDBRANCH   1   2
BRANCH   1  10
HETATM   10  C8  UNL     1      -3.058  -0.513  -1.173  1.00  0.00     0.266 C 
HETATM   11  O2  UNL     1      -3.498  -1.390  -1.908  1.00  0.00    -0.265 OA
BRANCH  10  12
HETATM   12  O3  UNL     1      -3.517   0.768  -1.133  1.00  0.00    -0.287 OA
BRANCH  12  13
HETATM   13  C9  UNL     1      -4.658   1.008  -1.964  1.00  0.00     0.300 C 
HETATM   14  O4  UNL     1      -4.753   2.417  -2.270  1.00  0.00    -0.355 OA
HETATM   15  C10 UNL     1      -5.526   3.138  -1.309  1.00  0.00     0.205 C 
HETATM   16  C11 UNL     1      -6.999   2.721  -1.424  1.00  0.00     0.173 C 
HETATM   17  C12 UNL     1      -7.144   1.242  -1.841  1.00  0.00     0.182 C 
HETATM   18  C13 UNL     1      -5.959   0.432  -1.329  1.00  0.00     0.205 C 
BRANCH  16  19
HETATM   19  O5  UNL     1      -7.677   3.514  -2.416  1.00  0.00    -0.391 OA
HETATM   20  H17 UNL     1      -7.092   3.562  -3.196  1.00  0.00     0.210 HD
ENDBRANCH  16  19
BRANCH  17  21
HETATM   21  O6  UNL     1      -8.362   0.708  -1.296  1.00  0.00    -0.390 OA
HETATM   22  H19 UNL     1      -9.071   1.316  -1.580  1.00  0.00     0.210 HD
ENDBRANCH  17  21
BRANCH  18  23
HETATM   23  O7  UNL     1      -5.952   0.526   0.113  1.00  0.00    -0.388 OA
HETATM   24  H21 UNL     1      -6.811   0.153   0.390  1.00  0.00     0.210 HD
ENDBRANCH  18  23
ENDBRANCH  12  13
ENDBRANCH  10  12
ENDBRANCH   1  10
BRANCH   1  25
HETATM   25  C14 UNL     1      -0.785   0.277  -0.418  1.00  0.00     0.009 C 
HETATM   26  C15 UNL     1      -0.838   1.612   0.371  1.00  0.00     0.007 C 
HETATM   27  C16 UNL     1       0.625   2.047   0.624  1.00  0.00     0.015 C 
HETATM   28  C17 UNL     1       1.473   1.146  -0.297  1.00  0.00    -0.013 C 
HETATM   29  C18 UNL     1       1.468   1.816  -1.710  1.00  0.00     0.021 C 
HETATM   30  C19 UNL     1       2.948   0.909   0.016  1.00  0.00    -0.068 C 
HETATM   31  C23 UNL     1       0.679  -0.205  -0.184  1.00  0.00    -0.028 C 
HETATM   32  C20 UNL     1       3.552  -0.245  -0.370  1.00  0.00    -0.068 C 
HETATM   33  C35 UNL     1       3.676   2.045   0.689  1.00  0.00     0.036 C 
HETATM   34  C21 UNL     1       2.758  -1.373  -1.045  1.00  0.00     0.036 C 
HETATM   35  C25 UNL     1       5.062  -0.506  -0.111  1.00  0.00    -0.015 C 
HETATM   36  C22 UNL     1       1.238  -1.173  -1.230  1.00  0.00     0.015 C 
HETATM   37  C26 UNL     1       5.166  -1.363   1.171  1.00  0.00     0.020 C 
HETATM   38  C27 UNL     1       5.709  -1.239  -1.307  1.00  0.00     0.021 C 
HETATM   39  C33 UNL     1       5.822   0.857   0.009  1.00  0.00     0.013 C 
HETATM   40  C28 UNL     1       7.200  -1.492  -1.183  1.00  0.00     0.080 C 
HETATM   41  C29 UNL     1       7.939  -0.623  -0.193  1.00  0.00     0.135 C 
HETATM   42  O8  UNL     1       9.028  -1.015   0.237  1.00  0.00    -0.297 OA
HETATM   43  C30 UNL     1       7.378   0.753   0.188  1.00  0.00     0.018 C 
HETATM   44  C31 UNL     1       8.067   1.762  -0.757  1.00  0.00     0.023 C 
HETATM   45  C32 UNL     1       7.846   1.064   1.628  1.00  0.00     0.023 C 
HETATM   46  C34 UNL     1       5.136   1.765   1.042  1.00  0.00     0.011 C 
HETATM   47  C24 UNL     1       0.802  -0.884   1.216  1.00  0.00     0.016 C 
ENDBRANCH   1  25
TORSDOF 11
