REMARK  8 active torsions:
REMARK  status: ('A' for Active; 'I' for Inactive)
REMARK    1  A    between atoms: C2_2  and  C4_4 
REMARK    2  A    between atoms: C2_2  and  N1_12 
REMARK    3  A    between atoms: C4_4  and  C5_5 
REMARK    4  A    between atoms: C5_5  and  C6_6 
REMARK    5  A    between atoms: N1_12  and  C12_13 
REMARK    6  A    between atoms: C12_13  and  C13_14 
REMARK    7  A    between atoms: C13_14  and  O1_15 
REMARK    8  A    between atoms: C13_14  and  C14_16 
ROOT
HETATM    1  C13 UNL     1      -1.311   0.837   0.926  1.00  0.00     0.179 C 
ENDROOT
BRANCH   1   2
HETATM    2  C12 UNL     1      -0.477   0.087  -0.148  1.00  0.00     0.306 C 
BRANCH   2   3
HETATM    3  N1  UNL     1       0.947   0.445  -0.059  1.00  0.00     0.095 N 
HETATM    4  H16 UNL     1       1.027   1.449   0.120  1.00  0.00     0.317 HD
BRANCH   3   5
HETATM    5  C2  UNL     1       1.795   0.057  -1.199  1.00  0.00     0.151 C 
HETATM    6  C1  UNL     1       1.597  -1.415  -1.602  1.00  0.00     0.048 C 
HETATM    7  C3  UNL     1       1.492   0.956  -2.419  1.00  0.00     0.048 C 
BRANCH   5   8
HETATM    8  C4  UNL     1       3.276   0.309  -0.797  1.00  0.00     0.045 C 
BRANCH   8   9
HETATM    9  C5  UNL     1       3.766  -0.480   0.428  1.00  0.00     0.041 C 
BRANCH   9  10
HETATM   10  C6  UNL     1       5.224  -0.196   0.707  1.00  0.00    -0.058 A 
HETATM   11  C7  UNL     1       6.225  -1.011   0.161  1.00  0.00     0.007 A 
HETATM   12  C8  UNL     1       7.572  -0.733   0.398  1.00  0.00     0.001 A 
HETATM   13  C9  UNL     1       7.930   0.368   1.174  1.00  0.00     0.000 A 
HETATM   14  C10 UNL     1       6.942   1.188   1.716  1.00  0.00     0.001 A 
HETATM   15  C11 UNL     1       5.595   0.907   1.486  1.00  0.00     0.007 A 
ENDBRANCH   9  10
ENDBRANCH   8   9
ENDBRANCH   5   8
ENDBRANCH   3   5
ENDBRANCH   2   3
ENDBRANCH   1   2
BRANCH   1  16
HETATM   16  O1  UNL     1      -1.102   2.251   0.774  1.00  0.00    -0.389 OA
HETATM   17  H20 UNL     1      -1.218   2.454  -0.169  1.00  0.00     0.210 HD
ENDBRANCH   1  16
BRANCH   1  18
HETATM   18  C14 UNL     1      -2.809   0.589   0.922  1.00  0.00    -0.027 A 
HETATM   19  C15 UNL     1      -3.600   1.267   1.871  1.00  0.00     0.012 A 
HETATM   20  C16 UNL     1      -4.981   1.071   1.936  1.00  0.00     0.031 A 
HETATM   21  C17 UNL     1      -5.595   0.203   1.037  1.00  0.00     0.041 A 
HETATM   22  C18 UNL     1      -4.836  -0.492   0.093  1.00  0.00    -0.030 A 
HETATM   23  N2  UNL     1      -6.979   0.010   1.093  1.00  0.00    -0.327 N 
HETATM   24  C19 UNL     1      -3.447  -0.304   0.046  1.00  0.00     0.019 A 
HETATM   25  C20 UNL     1      -5.512  -1.512  -0.779  1.00  0.00     0.050 C 
HETATM   26  C21 UNL     1      -6.945  -1.111  -1.086  1.00  0.00     0.108 C 
HETATM   27  C22 UNL     1      -7.696  -0.674   0.151  1.00  0.00     0.222 C 
HETATM   28  O2  UNL     1      -8.907  -0.834   0.272  1.00  0.00    -0.273 OA
HETATM   29  H28 UNL     1      -7.516   0.411   1.850  1.00  0.00     0.169 HD
ENDBRANCH   1  18
TORSDOF 8
