REMARK  12 active torsions:
REMARK  status: ('A' for Active; 'I' for Inactive)
REMARK    1  A    between atoms: C2_2  and  C27_36 
REMARK    2  A    between atoms: C3_3  and  C4_4 
REMARK    3  A    between atoms: C4_4  and  C5_5 
REMARK    4  A    between atoms: C5_5  and  C6_6 
REMARK    5  A    between atoms: C6_6  and  C8_8 
REMARK    6  A    between atoms: C10_10  and  O1_11 
REMARK    7  A    between atoms: O1_11  and  S1_12 
REMARK    8  A    between atoms: C11_16  and  O5_17 
REMARK    9  A    between atoms: C12_18  and  O6_19 
REMARK   10  A    between atoms: C14_21  and  O7_22 
REMARK   11  A    between atoms: C17_25  and  O8_26 
REMARK   12  A    between atoms: C27_36  and  O9_37 
ROOT
HETATM    1  C8  UNL     1       1.793   0.038  -0.071  1.00  0.00     0.005 C 
HETATM    2  C9  UNL     1       1.782  -0.839  -1.369  1.00  0.00     0.044 C 
HETATM    3  C10 UNL     1       0.331  -1.308  -1.581  1.00  0.00     0.201 C 
HETATM    4  C11 UNL     1      -0.490  -0.269  -0.803  1.00  0.00     0.162 A 
HETATM    5  C12 UNL     1      -2.024  -0.497  -0.596  1.00  0.00     0.139 A 
HETATM    6  C13 UNL     1      -2.855  -0.311  -1.886  1.00  0.00     0.093 C 
HETATM    7  C14 UNL     1      -4.353  -0.524  -1.657  1.00  0.00     0.127 C 
HETATM    8  C15 UNL     1      -4.887   0.495  -0.640  1.00  0.00     0.025 C 
HETATM    9  C16 UNL     1      -6.412   0.390  -0.448  1.00  0.00     0.039 C 
HETATM   10  C17 UNL     1      -6.956   1.453   0.514  1.00  0.00     0.118 C 
HETATM   11  C18 UNL     1      -5.886   2.376   1.089  1.00  0.00     0.032 C 
HETATM   12  C19 UNL     1      -4.620   1.665   1.591  1.00  0.00     0.012 C 
HETATM   13  C20 UNL     1      -4.128   0.455   0.723  1.00  0.00    -0.030 C 
HETATM   14  C21 UNL     1      -4.454  -0.842   1.510  1.00  0.00     0.016 C 
HETATM   15  C22 UNL     1      -2.572   0.572   0.434  1.00  0.00     0.050 C 
HETATM   16  C23 UNL     1      -1.702   0.683   1.709  1.00  0.00     0.011 C 
HETATM   17  C24 UNL     1      -0.215   0.922   1.393  1.00  0.00     0.015 C 
HETATM   18  C25 UNL     1       0.357  -0.209   0.525  1.00  0.00     0.013 C 
HETATM   19  C26 UNL     1       0.362  -1.519   1.366  1.00  0.00     0.020 C 
HETATM   20 NA1  UNL     1       0.000   0.000   0.000  1.00  0.00    -0.358 Na
ATOM     21  HA1 UNL     1       0.781   0.274   0.596  1.00  0.00     0.159 HD
ENDROOT
BRANCH   1  22
HETATM   22  C6  UNL     1       3.054  -0.226   0.805  1.00  0.00    -0.013 C 
HETATM   23  C7  UNL     1       3.058   0.626   2.081  1.00  0.00     0.010 C 
BRANCH  22  24
HETATM   24  C5  UNL     1       4.355   0.048   0.001  1.00  0.00     0.008 C 
BRANCH  24  25
HETATM   25  C4  UNL     1       5.593  -0.607   0.627  1.00  0.00     0.028 C 
BRANCH  25  26
HETATM   26  C3  UNL     1       6.806  -0.434  -0.248  1.00  0.00    -0.022 C 
HETATM   27  C2  UNL     1       7.885   0.345  -0.032  1.00  0.00    -0.064 C 
HETATM   28  C1  UNL     1       8.075   1.249   1.157  1.00  0.00     0.045 C 
BRANCH  27  29
HETATM   29  C27 UNL     1       9.032   0.356  -1.012  1.00  0.00     0.197 C 
BRANCH  29  30
HETATM   30  O9  UNL     1       9.092   1.626  -1.643  1.00  0.00    -0.397 OA
HETATM   31  H45 UNL     1       8.217   1.769  -2.044  1.00  0.00     0.209 HD
ENDBRANCH  29  30
ENDBRANCH  27  29
ENDBRANCH  25  26
ENDBRANCH  24  25
ENDBRANCH  22  24
ENDBRANCH   1  22
BRANCH   3  32
HETATM   32  O1  UNL     1      -0.007  -1.332  -2.951  1.00  0.00    -0.246 OA
BRANCH  32  33
HETATM   33  S1  UNL     1      -0.601  -2.737  -3.537  1.00  0.00     0.252 S 
HETATM   34  O2  UNL     1      -1.512  -3.186  -2.479  1.00  0.00    -0.572 OA
HETATM   35  O3  UNL     1      -1.272  -2.324  -4.763  1.00  0.00    -0.572 OA
HETATM   36  O4  UNL     1       0.589  -3.559  -3.712  1.00  0.00    -0.572 OA
ENDBRANCH  32  33
ENDBRANCH   3  32
BRANCH   4  37
HETATM   37  O5  UNL     1      -0.350   1.005  -1.498  1.00  0.00    -0.368 OA
HETATM   38  H17 UNL     1      -0.394   0.783  -2.452  1.00  0.00     0.212 HD
ENDBRANCH   4  37
BRANCH   5  39
HETATM   39  O6  UNL     1      -2.240  -1.830  -0.130  1.00  0.00    -0.370 OA
HETATM   40  H18 UNL     1      -2.074  -2.444  -0.893  1.00  0.00     0.212 HD
ENDBRANCH   5  39
BRANCH   7  41
HETATM   41  O7  UNL     1      -5.028  -0.333  -2.904  1.00  0.00    -0.395 OA
HETATM   42  H22 UNL     1      -4.625  -0.965  -3.532  1.00  0.00     0.210 HD
ENDBRANCH   7  41
BRANCH  10  43
HETATM   43  O8  UNL     1      -7.692   0.841   1.573  1.00  0.00    -0.396 OA
HETATM   44  H27 UNL     1      -7.062   0.369   2.141  1.00  0.00     0.210 HD
ENDBRANCH  10  43
TORSDOF 12
