REMARK  7 active torsions:
REMARK  status: ('A' for Active; 'I' for Inactive)
REMARK    1  A    between atoms: N1_2  and  C2_3 
REMARK    2  A    between atoms: C2_3  and  C3_4 
REMARK    3  A    between atoms: C5_6  and  O1_7 
REMARK    4  A    between atoms: C25_28  and  N2_29 
REMARK    5  A    between atoms: C25_28  and  C26_30 
REMARK    6  A    between atoms: C26_30  and  C27_31 
REMARK    7  A    between atoms: C27_31  and  O3_32 
ROOT
HETATM    1  C3  UNL     1       4.686  -1.078  -0.117  1.00  0.00    -0.021 A 
HETATM    2  C4  UNL     1       4.861  -2.345  -0.717  1.00  0.00     0.045 A 
HETATM    3  C5  UNL     1       4.020  -3.402  -0.408  1.00  0.00     0.066 A 
HETATM    4  C6  UNL     1       3.036  -3.248   0.552  1.00  0.00     0.045 A 
HETATM    5  C7  UNL     1       2.849  -2.017   1.215  1.00  0.00    -0.037 A 
HETATM    6  C8  UNL     1       3.629  -0.885   0.836  1.00  0.00    -0.042 A 
HETATM    7  C9  UNL     1       3.426   0.487   1.478  1.00  0.00     0.044 C 
HETATM    8  C10 UNL     1       2.478   1.540   0.820  1.00  0.00    -0.010 C 
HETATM    9  C11 UNL     1       2.716   1.838  -0.665  1.00  0.00     0.005 C 
HETATM   10  C12 UNL     1       1.640   2.773  -1.216  1.00  0.00     0.001 C 
HETATM   11  C13 UNL     1       0.230   2.188  -1.119  1.00  0.00     0.007 C 
HETATM   12  C14 UNL     1       0.109   1.025  -0.108  1.00  0.00     0.022 C 
HETATM   13  C15 UNL     1       0.976   1.355   1.133  1.00  0.00     0.012 C 
HETATM   14  C16 UNL     1      -1.393   0.649   0.216  1.00  0.00     0.082 C 
HETATM   15  C17 UNL     1      -1.958   1.469   1.406  1.00  0.00     0.045 C 
HETATM   16  C18 UNL     1      -3.443   1.145   1.673  1.00  0.00    -0.002 C 
HETATM   17  C19 UNL     1      -4.340   2.393   1.693  1.00  0.00     0.005 C 
HETATM   18  C20 UNL     1      -5.065   2.630   0.377  1.00  0.00     0.003 C 
HETATM   19  C21 UNL     1      -4.181   2.285  -0.810  1.00  0.00     0.038 C 
HETATM   20  C22 UNL     1      -3.620   0.830  -0.764  1.00  0.00     0.065 C 
HETATM   21  C23 UNL     1      -4.155   0.084  -1.991  1.00  0.00     0.046 C 
HETATM   22  O2  UNL     1      -2.192   0.962  -0.964  1.00  0.00    -0.367 OA
HETATM   23  C24 UNL     1      -3.898   0.111   0.602  1.00  0.00     0.064 C 
HETATM   24  C25 UNL     1      -3.070  -1.213   0.816  1.00  0.00     0.180 C 
HETATM   25  C28 UNL     1      -1.592  -0.897   0.389  1.00  0.00     0.139 C 
HETATM   26  C29 UNL     1      -0.549  -1.517   1.224  1.00  0.00    -0.096 C 
HETATM   27  C30 UNL     1       0.456  -1.856   1.781  1.00  0.00    -0.101 C 
HETATM   28  C31 UNL     1       1.806  -2.037   2.324  1.00  0.00     0.133 C 
ENDROOT
BRANCH  24  29
HETATM   29  N2  UNL     1      -3.170  -1.588   2.254  1.00  0.00     0.090 N 
HETATM   30  H35 UNL     1      -2.583  -2.404   2.447  1.00  0.00     0.313 HD
HETATM   31  H36 UNL     1      -4.121  -1.851   2.507  1.00  0.00     0.313 HD
ENDBRANCH  24  29
BRANCH  24  32
HETATM   32  C26 UNL     1      -3.582  -2.462   0.033  1.00  0.00     0.069 C 
BRANCH  32  33
HETATM   33  C27 UNL     1      -5.082  -2.739   0.118  1.00  0.00     0.166 C 
BRANCH  33  34
HETATM   34  O3  UNL     1      -5.385  -3.947  -0.572  1.00  0.00    -0.401 OA
HETATM   35  H41 UNL     1      -5.125  -3.834  -1.503  1.00  0.00     0.209 HD
ENDBRANCH  33  34
ENDBRANCH  32  33
ENDBRANCH  24  32
BRANCH   3  36
HETATM   36  O1  UNL     1       4.147  -4.619  -1.001  1.00  0.00    -0.361 OA
HETATM   37  H8  UNL     1       4.834  -4.555  -1.684  1.00  0.00     0.217 HD
ENDBRANCH   3  36
BRANCH   1  38
HETATM   38  C2  UNL     1       5.728   0.006  -0.386  1.00  0.00     0.308 C 
BRANCH  38  39
HETATM   39  N1  UNL     1       6.543  -0.206  -1.593  1.00  0.00     0.083 N 
HETATM   40  C1  UNL     1       7.521   0.866  -1.746  1.00  0.00     0.307 C 
HETATM   41  H4  UNL     1       5.923  -0.202  -2.405  1.00  0.00     0.315 HD
ENDBRANCH  38  39
ENDBRANCH   1  38
TORSDOF 7
