REMARK  8 active torsions:
REMARK  status: ('A' for Active; 'I' for Inactive)
REMARK    1  A    between atoms: C2_2  and  N1_3 
REMARK    2  A    between atoms: N1_3  and  C3_4 
REMARK    3  A    between atoms: N1_3  and  C5_6 
REMARK    4  A    between atoms: C5_6  and  C6_7 
REMARK    5  A    between atoms: C6_7  and  O1_8 
REMARK    6  A    between atoms: O1_8  and  C7_9 
REMARK    7  A    between atoms: C7_9  and  C8_11 
REMARK    8  A    between atoms: C11_14  and  N2_15 
ROOT
HETATM    1  C8  UNL     1      -2.712   0.523  -0.252  1.00  0.00     0.061 A 
HETATM    2  C9  UNL     1      -3.367   0.404  -1.484  1.00  0.00     0.021 A 
HETATM    3  C10 UNL     1      -4.733   0.111  -1.523  1.00  0.00     0.024 A 
HETATM    4  C11 UNL     1      -5.450  -0.104  -0.344  1.00  0.00     0.007 A 
HETATM    5  C12 UNL     1      -4.800   0.073   0.881  1.00  0.00     0.048 A 
HETATM    6  C13 UNL     1      -3.431   0.366   0.935  1.00  0.00     0.052 A 
HETATM    7 CL1  UNL     1      -2.697   0.477   2.494  1.00  0.00    -0.083 Cl
ENDROOT
BRANCH   1   8
HETATM    8  C7  UNL     1      -1.278   0.862  -0.243  1.00  0.00     0.295 C 
HETATM    9  O2  UNL     1      -0.791   1.807   0.349  1.00  0.00    -0.259 OA
BRANCH   8  10
HETATM   10  O1  UNL     1      -0.623  -0.060  -0.991  1.00  0.00    -0.316 OA
BRANCH  10  11
HETATM   11  C6  UNL     1       0.804   0.121  -1.074  1.00  0.00     0.209 C 
BRANCH  11  12
HETATM   12  C5  UNL     1       1.496  -0.422   0.187  1.00  0.00     0.299 C 
BRANCH  12  13
HETATM   13  N1  UNL     1       2.971  -0.407   0.060  1.00  0.00     0.089 N 
BRANCH  13  14
HETATM   14  C2  UNL     1       3.524  -1.684   0.555  1.00  0.00     0.268 C 
HETATM   15  C1  UNL     1       5.004  -1.877   0.237  1.00  0.00     0.037 C 
ENDBRANCH  13  14
BRANCH  13  16
HETATM   16  C3  UNL     1       3.570   0.741   0.771  1.00  0.00     0.268 C 
HETATM   17  C4  UNL     1       3.129   2.107   0.257  1.00  0.00     0.037 C 
ENDBRANCH  13  16
ENDBRANCH  12  13
ENDBRANCH  11  12
ENDBRANCH  10  11
ENDBRANCH   8  10
ENDBRANCH   1   8
BRANCH   4  18
HETATM   18  N2  UNL     1      -6.837  -0.274  -0.388  1.00  0.00    -0.303 NA
HETATM   19  H17 UNL     1      -7.185  -0.687  -1.248  1.00  0.00     0.124 HD
HETATM   20  H18 UNL     1      -7.236  -0.712   0.438  1.00  0.00     0.124 HD
ENDBRANCH   4  18
TORSDOF 8
