REMARK  6 active torsions:
REMARK  status: ('A' for Active; 'I' for Inactive)
REMARK    1  A    between atoms: O1_2  and  C2_3 
REMARK    2  A    between atoms: C17_20  and  C18_21 
REMARK    3  A    between atoms: C22_27  and  O6_28 
REMARK    4  A    between atoms: O6_28  and  C23_29 
REMARK    5  A    between atoms: C26_33  and  O8_34 
REMARK    6  A    between atoms: C31_40  and  O10_41 
ROOT
HETATM    1  C2  UNL     1       6.333   0.538   1.667  1.00  0.00     0.190 C 
HETATM    2  C3  UNL     1       7.810   0.137   1.562  1.00  0.00     0.064 C 
HETATM    3  C4  UNL     1       8.164  -0.446   0.205  1.00  0.00     0.174 C 
HETATM    4  O2  UNL     1       7.048  -1.155  -0.307  1.00  0.00    -0.356 OA
HETATM    5  C5  UNL     1       6.016  -0.258  -0.738  1.00  0.00     0.325 C 
HETATM    6  O3  UNL     1       4.837  -1.023  -1.012  1.00  0.00    -0.344 OA
HETATM    7  C6  UNL     1       3.857  -0.176  -1.613  1.00  0.00     0.177 C 
HETATM    8  C7  UNL     1       2.685  -1.031  -1.995  1.00  0.00     0.011 C 
HETATM    9  C8  UNL     1       1.402  -0.627  -1.949  1.00  0.00    -0.072 C 
HETATM   10  C9  UNL     1       0.326  -1.465  -2.600  1.00  0.00     0.035 C 
HETATM   11  C10 UNL     1      -1.037  -1.425  -1.905  1.00  0.00     0.012 C 
HETATM   12  C11 UNL     1      -1.477   0.027  -1.636  1.00  0.00     0.026 C 
HETATM   13  C12 UNL     1      -0.418   0.709  -0.728  1.00  0.00     0.005 C 
HETATM   14  C13 UNL     1      -0.456   0.077   0.690  1.00  0.00     0.007 C 
HETATM   15  C14 UNL     1      -1.817  -0.466   1.130  1.00  0.00     0.013 C 
HETATM   16  C15 UNL     1      -3.030   0.267   0.510  1.00  0.00    -0.003 C 
HETATM   17  C16 UNL     1      -3.086   1.672   1.157  1.00  0.00     0.019 C 
HETATM   18  C17 UNL     1      -4.325  -0.571   0.818  1.00  0.00     0.058 C 
HETATM   19  C22 UNL     1      -4.372  -1.569  -0.361  1.00  0.00     0.143 C 
HETATM   20  C25 UNL     1      -3.991  -0.723  -1.571  1.00  0.00     0.072 C 
HETATM   21  C26 UNL     1      -2.918   0.262  -1.065  1.00  0.00     0.072 C 
HETATM   22  C27 UNL     1       1.023   0.732  -1.376  1.00  0.00    -0.014 C 
HETATM   23  C28 UNL     1       1.049   1.767  -2.529  1.00  0.00     0.020 C 
HETATM   24  C29 UNL     1       2.078   1.154  -0.312  1.00  0.00     0.049 C 
HETATM   25  C30 UNL     1       3.545   1.071  -0.748  1.00  0.00     0.159 C 
HETATM   26  O9  UNL     1       4.310   1.119   0.470  1.00  0.00    -0.341 OA
HETATM   27  C31 UNL     1       5.712   0.892   0.289  1.00  0.00     0.240 C 
ENDROOT
BRANCH  18  28
HETATM   28  C18 UNL     1      -5.610   0.198   1.039  1.00  0.00    -0.043 A 
HETATM   29  C19 UNL     1      -6.259   0.284   2.203  1.00  0.00     0.087 A 
HETATM   30  C20 UNL     1      -7.444   1.108   1.985  1.00  0.00     0.283 A 
HETATM   31  O4  UNL     1      -8.262   1.393   2.839  1.00  0.00    -0.260 OA
HETATM   32  O5  UNL     1      -7.485   1.490   0.684  1.00  0.00    -0.314 OA
HETATM   33  C21 UNL     1      -6.355   0.948  -0.002  1.00  0.00     0.214 A 
ENDBRANCH  18  28
BRANCH  19  34
HETATM   34  O6  UNL     1      -5.656  -2.168  -0.564  1.00  0.00    -0.316 OA
BRANCH  34  35
HETATM   35  C23 UNL     1      -5.973  -3.167   0.305  1.00  0.00     0.255 C 
HETATM   36  C24 UNL     1      -7.353  -3.675   0.024  1.00  0.00     0.126 C 
HETATM   37  O7  UNL     1      -5.240  -3.598   1.183  1.00  0.00    -0.266 OA
ENDBRANCH  34  35
ENDBRANCH  19  34
BRANCH  21  38
HETATM   38  O8  UNL     1      -3.329   1.560  -1.540  1.00  0.00    -0.389 OA
HETATM   39  H35 UNL     1      -3.310   1.555  -2.516  1.00  0.00     0.210 HD
ENDBRANCH  21  38
BRANCH  27  40
HETATM   40  O10 UNL     1       6.292   2.126  -0.162  1.00  0.00    -0.360 OA
HETATM   41  H42 UNL     1       6.422   2.628   0.668  1.00  0.00     0.213 HD
ENDBRANCH  27  40
BRANCH   1  42
HETATM   42  O1  UNL     1       6.244   1.708   2.517  1.00  0.00    -0.385 OA
HETATM   43  C1  UNL     1       6.212   1.370   3.900  1.00  0.00     0.202 C 
ENDBRANCH   1  42
TORSDOF 6
