REMARK  19 active torsions:
REMARK  status: ('A' for Active; 'I' for Inactive)
REMARK    1  A    between atoms: C2_2  and  C3_3 
REMARK    2  A    between atoms: C3_3  and  C5_5 
REMARK    3  A    between atoms: C5_5  and  N1_6 
REMARK    4  A    between atoms: C5_5  and  C37_46 
REMARK       I    between atoms: N1_6  and  C6_7 
REMARK    5  A    between atoms: C6_7  and  C7_9 
REMARK    6  A    between atoms: C7_9  and  C8_10 
REMARK    7  A    between atoms: C8_10  and  C9_11 
REMARK    8  A    between atoms: C9_11  and  C10_12 
REMARK    9  A    between atoms: C10_12  and  C11_13 
REMARK   10  A    between atoms: C11_13  and  N2_14 
REMARK       I    between atoms: N2_14  and  C12_15 
REMARK   11  A    between atoms: C12_15  and  C13_17 
REMARK   12  A    between atoms: C13_17  and  C14_18 
REMARK   13  A    between atoms: C14_18  and  C15_19 
REMARK   14  A    between atoms: C15_19  and  O4_21 
REMARK   15  A    between atoms: O4_21  and  C16_22 
REMARK   16  A    between atoms: C16_22  and  C17_23 
REMARK   17  A    between atoms: C17_23  and  C18_25 
REMARK   18  A    between atoms: C18_25  and  O6_26 
REMARK   19  A    between atoms: C37_46  and  O9_48 
ROOT
HETATM    1  C15 UNL     1      -1.055  -2.028  -0.388  1.00  0.00     0.259 C 
HETATM    2  O3  UNL     1      -2.104  -2.520  -0.786  1.00  0.00    -0.265 OA
ENDROOT
BRANCH   1   3
HETATM    3  C14 UNL     1      -0.322  -2.544   0.828  1.00  0.00     0.120 C 
BRANCH   3   4
HETATM    4  C13 UNL     1       1.156  -2.185   0.901  1.00  0.00     0.112 C 
BRANCH   4   5
HETATM    5  C12 UNL     1       1.958  -2.852  -0.199  1.00  0.00     0.217 C 
HETATM    6  N2  UNL     1       3.314  -2.829   0.039  1.00  0.00    -0.361 N 
HETATM    7  H22 UNL     1       3.659  -2.495   0.934  1.00  0.00     0.162 HD
HETATM    8  O2  UNL     1       1.451  -3.335  -1.206  1.00  0.00    -0.274 OA
BRANCH   6   9
HETATM    9  C11 UNL     1       4.244  -3.447  -0.881  1.00  0.00     0.122 C 
BRANCH   9  10
HETATM   10  C10 UNL     1       5.690  -3.418  -0.390  1.00  0.00     0.020 C 
BRANCH  10  11
HETATM   11  C9  UNL     1       6.415  -2.079  -0.589  1.00  0.00     0.002 C 
BRANCH  11  12
HETATM   12  C8  UNL     1       5.876  -0.933   0.274  1.00  0.00     0.009 C 
BRANCH  12  13
HETATM   13  C7  UNL     1       6.791   0.294   0.245  1.00  0.00     0.103 C 
BRANCH  13  14
HETATM   14  C6  UNL     1       8.081   0.085   1.021  1.00  0.00     0.218 C 
HETATM   15  N1  UNL     1       9.040   1.036   0.742  1.00  0.00    -0.346 N 
HETATM   16  H11 UNL     1       8.708   1.928   0.390  1.00  0.00     0.163 HD
HETATM   17  O1  UNL     1       8.248  -0.824   1.826  1.00  0.00    -0.274 OA
BRANCH  15  18
HETATM   18  C5  UNL     1      10.299   1.059   1.494  1.00  0.00     0.186 C 
BRANCH  18  19
HETATM   19  C3  UNL     1      11.453   1.639   0.637  1.00  0.00     0.014 C 
HETATM   20  C4  UNL     1      12.772   1.638   1.424  1.00  0.00     0.012 C 
BRANCH  19  21
HETATM   21  C2  UNL     1      11.606   0.851  -0.686  1.00  0.00     0.002 C 
HETATM   22  C1  UNL     1      12.623   1.450  -1.649  1.00  0.00     0.005 C 
ENDBRANCH  19  21
ENDBRANCH  18  19
BRANCH  18  23
HETATM   23  C37 UNL     1      10.036   1.925   2.730  1.00  0.00     0.163 C 
HETATM   24  O8  UNL     1       9.377   2.955   2.754  1.00  0.00    -0.648 OA
BRANCH  23  25
HETATM   25  O9  UNL     1      10.635   1.460   3.846  1.00  0.00    -0.775 OA
HETATM   26  H56 UNL     1      10.348   2.077   4.549  1.00  0.00     0.167 HD
ENDBRANCH  23  25
ENDBRANCH  18  23
ENDBRANCH  15  18
ENDBRANCH  13  14
ENDBRANCH  12  13
ENDBRANCH  11  12
ENDBRANCH  10  11
ENDBRANCH   9  10
ENDBRANCH   6   9
ENDBRANCH   4   5
ENDBRANCH   3   4
ENDBRANCH   1   3
BRANCH   1  27
HETATM   27  O4  UNL     1      -0.511  -0.890  -0.885  1.00  0.00    -0.314 OA
BRANCH  27  28
HETATM   28  C16 UNL     1      -1.027  -0.437  -2.133  1.00  0.00     0.260 C 
BRANCH  28  29
HETATM   29  C17 UNL     1      -2.531  -0.399  -2.470  1.00  0.00     0.185 C 
HETATM   30  O5  UNL     1      -2.923  -0.898  -3.531  1.00  0.00    -0.292 OA
BRANCH  29  31
HETATM   31  C18 UNL     1      -3.457   0.439  -1.549  1.00  0.00     0.128 C 
HETATM   32  C19 UNL     1      -3.474   1.901  -2.070  1.00  0.00     0.047 C 
HETATM   33  C20 UNL     1      -4.862   2.476  -1.729  1.00  0.00     0.009 C 
HETATM   34  C21 UNL     1      -5.549   1.383  -0.905  1.00  0.00     0.002 C 
HETATM   35  C22 UNL     1      -7.089   1.435  -0.824  1.00  0.00    -0.004 C 
HETATM   36  C35 UNL     1      -4.985   0.066  -1.498  1.00  0.00    -0.002 C 
HETATM   37  C23 UNL     1      -7.540   2.663  -0.002  1.00  0.00     0.010 C 
HETATM   38  C32 UNL     1      -7.676   0.064  -0.305  1.00  0.00     0.002 C 
HETATM   39  C24 UNL     1      -7.756   2.335   1.469  1.00  0.00     0.035 C 
HETATM   40  C25 UNL     1      -8.790   1.257   1.670  1.00  0.00    -0.068 C 
HETATM   41  C26 UNL     1      -9.488   1.214   2.820  1.00  0.00     0.053 C 
HETATM   42  C30 UNL     1      -8.988   0.240   0.547  1.00  0.00    -0.016 C 
HETATM   43  C27 UNL     1     -10.502   0.161   3.086  1.00  0.00     0.149 C 
HETATM   44  O7  UNL     1     -11.186   0.231   4.105  1.00  0.00    -0.293 OA
HETATM   45  C28 UNL     1     -10.685  -0.945   2.072  1.00  0.00     0.084 C 
HETATM   46  C29 UNL     1      -9.442  -1.100   1.196  1.00  0.00     0.022 C 
HETATM   47  C31 UNL     1     -10.127   0.715  -0.400  1.00  0.00     0.020 C 
HETATM   48  C33 UNL     1      -6.569  -0.795   0.361  1.00  0.00     0.007 C 
HETATM   49  C34 UNL     1      -5.376  -1.102  -0.565  1.00  0.00     0.013 C 
HETATM   50  C36 UNL     1      -5.572  -0.215  -2.911  1.00  0.00     0.019 C 
BRANCH  31  51
HETATM   51  O6  UNL     1      -2.933   0.512  -0.215  1.00  0.00    -0.381 OA
HETATM   52  H29 UNL     1      -2.914  -0.395   0.134  1.00  0.00     0.211 HD
ENDBRANCH  31  51
ENDBRANCH  29  31
ENDBRANCH  28  29
ENDBRANCH  27  28
ENDBRANCH   1  27
TORSDOF 19
