REMARK  4 active torsions:
REMARK  status: ('A' for Active; 'I' for Inactive)
REMARK    1  A    between atoms: C2_2  and  C3_3 
REMARK    2  A    between atoms: C6_6  and  O1_7 
REMARK    3  A    between atoms: C7_8  and  C8_9 
REMARK    4  A    between atoms: C26_32  and  O6_33 
ROOT
HETATM    1  C3  UNL     1      -0.210   3.859   0.008  1.00  0.00     0.008 C 
HETATM    2  C4  UNL     1      -0.772   2.645   0.727  1.00  0.00    -0.023 C 
HETATM    3  C5  UNL     1      -1.752   1.818   0.320  1.00  0.00     0.004 C 
HETATM    4  C6  UNL     1      -2.334   0.664   1.108  1.00  0.00     0.174 C 
HETATM    5  C7  UNL     1      -2.569  -0.616   0.247  1.00  0.00     0.187 C 
HETATM    6  O2  UNL     1      -1.317  -1.298   0.031  1.00  0.00    -0.308 OA
HETATM    7  C12 UNL     1      -1.175  -1.929  -1.174  1.00  0.00     0.276 C 
HETATM    8  O3  UNL     1      -2.002  -1.892  -2.080  1.00  0.00    -0.264 OA
HETATM    9  C13 UNL     1       0.089  -2.838  -1.182  1.00  0.00     0.095 A 
HETATM   10  C14 UNL     1       0.577  -3.072  -2.634  1.00  0.00     0.036 C 
HETATM   11  C15 UNL     1      -0.488  -4.172  -0.748  1.00  0.00     0.003 A 
HETATM   12  C16 UNL     1      -0.176  -5.030   0.223  1.00  0.00     0.072 A 
HETATM   13  C17 UNL     1       0.882  -4.970   1.229  1.00  0.00     0.245 A 
HETATM   14  O4  UNL     1       1.007  -5.921   2.001  1.00  0.00    -0.268 OA
HETATM   15  N1  UNL     1       1.704  -3.912   1.342  1.00  0.00    -0.320 N 
HETATM   16  C18 UNL     1       1.871  -2.704   0.712  1.00  0.00     0.098 A 
HETATM   17  C19 UNL     1       1.216  -2.211  -0.351  1.00  0.00     0.045 A 
HETATM   18  C20 UNL     1       1.571  -0.817  -0.822  1.00  0.00     0.194 A 
HETATM   19  O5  UNL     1       0.901  -0.292  -1.701  1.00  0.00    -0.287 OA
HETATM   20  C21 UNL     1       2.698  -0.071  -0.232  1.00  0.00     0.046 A 
HETATM   21  C22 UNL     1       3.365  -0.621   0.851  1.00  0.00     0.032 A 
HETATM   22  C23 UNL     1       4.443   0.051   1.457  1.00  0.00     0.026 A 
HETATM   23  C24 UNL     1       4.878   1.294   0.986  1.00  0.00    -0.027 A 
HETATM   24  C25 UNL     1       6.030   1.979   1.664  1.00  0.00     0.051 C 
HETATM   25  C26 UNL     1       4.220   1.842  -0.118  1.00  0.00     0.086 A 
HETATM   26  C27 UNL     1       3.130   1.177  -0.714  1.00  0.00     0.059 A 
HETATM   27  C28 UNL     1       2.528   1.820  -1.900  1.00  0.00     0.163 C 
HETATM   28  O7  UNL     1       3.050   1.594  -2.992  1.00  0.00    -0.292 OA
HETATM   29  C29 UNL     1       1.282   2.677  -1.738  1.00  0.00     0.084 C 
HETATM   30  C30 UNL     1       1.223   3.545  -0.477  1.00  0.00     0.016 C 
HETATM   31  C31 UNL     1       2.962  -1.921   1.385  1.00  0.00     0.210 A 
HETATM   32  O8  UNL     1       3.526  -2.385   2.375  1.00  0.00    -0.285 OA
HETATM   33  H24 UNL     1       2.349  -4.052   2.125  1.00  0.00     0.169 HD
ENDROOT
BRANCH   5  34
HETATM   34  C8  UNL     1      -3.458  -1.603   0.978  1.00  0.00     0.010 C 
HETATM   35  C9  UNL     1      -4.710  -1.989   0.658  1.00  0.00    -0.089 C 
HETATM   36  C10 UNL     1      -5.507  -1.465  -0.505  1.00  0.00     0.042 C 
HETATM   37  C11 UNL     1      -5.425  -3.033   1.476  1.00  0.00     0.042 C 
ENDBRANCH   5  34
BRANCH   4  38
HETATM   38  O1  UNL     1      -1.505   0.395   2.245  1.00  0.00    -0.389 OA
HETATM   39  H10 UNL     1      -2.012  -0.199   2.824  1.00  0.00     0.210 HD
ENDBRANCH   4  38
BRANCH   1  40
HETATM   40  C2  UNL     1      -1.073   4.475  -1.114  1.00  0.00     0.004 C 
HETATM   41  C1  UNL     1      -2.359   5.111  -0.599  1.00  0.00     0.006 C 
ENDBRANCH   1  40
BRANCH  25  42
HETATM   42  O6  UNL     1       4.596   3.058  -0.621  1.00  0.00    -0.359 OA
HETATM   43  H29 UNL     1       5.528   3.230  -0.410  1.00  0.00     0.217 HD
ENDBRANCH  25  42
TORSDOF 4
