REMARK  7 active torsions:
REMARK  status: ('A' for Active; 'I' for Inactive)
REMARK    1  A    between atoms: C2_2  and  C3_3 
REMARK    2  A    between atoms: C2_2  and  C4_5 
REMARK    3  A    between atoms: C3_3  and  O1_4 
REMARK    4  A    between atoms: C13_14  and  C14_15 
REMARK    5  A    between atoms: C14_15  and  C16_17 
REMARK    6  A    between atoms: C16_17  and  C17_18 
REMARK    7  A    between atoms: C17_18  and  C18_20 
ROOT
HETATM    1  C4  UNL     1      -4.096   1.529  -0.177  1.00  0.00     0.051 C 
HETATM    2  C5  UNL     1      -2.957   1.761  -1.205  1.00  0.00     0.012 C 
HETATM    3  C6  UNL     1      -2.136   0.577  -1.713  1.00  0.00     0.006 C 
HETATM    4  C7  UNL     1      -1.364  -0.295  -0.691  1.00  0.00    -0.001 C 
HETATM    5  C8  UNL     1      -1.821  -0.140   0.789  1.00  0.00    -0.007 C 
HETATM    6  C9  UNL     1      -0.927  -0.898   1.813  1.00  0.00     0.006 C 
HETATM    7  C10 UNL     1       0.589  -0.842   1.571  1.00  0.00     0.011 C 
HETATM    8  C11 UNL     1       0.933  -1.165   0.110  1.00  0.00    -0.032 C 
HETATM    9  C12 UNL     1       0.534  -2.647  -0.176  1.00  0.00     0.016 C 
HETATM   10  C13 UNL     1       2.417  -0.951  -0.329  1.00  0.00    -0.002 C 
HETATM   11  C22 UNL     1       2.284  -0.763  -1.868  1.00  0.00     0.006 C 
HETATM   12  C23 UNL     1       0.811  -0.422  -2.172  1.00  0.00     0.011 C 
HETATM   13  C24 UNL     1       0.187  -0.110  -0.800  1.00  0.00    -0.032 C 
HETATM   14  C25 UNL     1       0.548   1.380  -0.478  1.00  0.00     0.016 C 
HETATM   15  C26 UNL     1      -3.279  -0.591   1.038  1.00  0.00     0.044 C 
HETATM   16  C27 UNL     1      -4.412   0.043   0.182  1.00  0.00     0.079 C 
HETATM   17  C28 UNL     1      -4.818  -0.883  -0.964  1.00  0.00     0.049 C 
HETATM   18  C29 UNL     1      -5.868  -1.795  -0.370  1.00  0.00     0.114 C 
HETATM   19  C30 UNL     1      -6.413  -0.992   0.763  1.00  0.00     0.259 C 
HETATM   20  O3  UNL     1      -7.444  -1.233   1.369  1.00  0.00    -0.265 OA
HETATM   21  O4  UNL     1      -5.579   0.044   1.051  1.00  0.00    -0.309 OA
ENDROOT
BRANCH  10  22
HETATM   22  C14 UNL     1       3.505  -2.003   0.031  1.00  0.00    -0.007 C 
HETATM   23  C15 UNL     1       3.621  -2.257   1.537  1.00  0.00     0.011 C 
BRANCH  22  24
HETATM   24  C16 UNL     1       4.897  -1.649  -0.551  1.00  0.00     0.087 C 
BRANCH  24  25
HETATM   25  C17 UNL     1       5.461  -0.319  -0.074  1.00  0.00     0.149 C 
HETATM   26  O2  UNL     1       5.127   0.736  -0.605  1.00  0.00    -0.293 OA
BRANCH  25  27
HETATM   27  C18 UNL     1       6.401  -0.363   1.091  1.00  0.00     0.052 C 
HETATM   28  C19 UNL     1       7.012   0.698   1.652  1.00  0.00    -0.084 C 
HETATM   29  C20 UNL     1       7.900   0.522   2.856  1.00  0.00     0.043 C 
HETATM   30  C21 UNL     1       6.864   2.113   1.164  1.00  0.00     0.043 C 
ENDBRANCH  25  27
ENDBRANCH  24  25
ENDBRANCH  22  24
ENDBRANCH  10  22
BRANCH   1  31
HETATM   31  C2  UNL     1      -5.270   2.477  -0.520  1.00  0.00    -0.059 C 
HETATM   32  C1  UNL     1      -6.450   2.127  -1.063  1.00  0.00     0.017 C 
BRANCH  31  33
HETATM   33  C3  UNL     1      -5.033   3.935  -0.178  1.00  0.00     0.198 C 
BRANCH  33  34
HETATM   34  O1  UNL     1      -4.977   4.085   1.233  1.00  0.00    -0.397 OA
HETATM   35  H5  UNL     1      -5.661   3.498   1.603  1.00  0.00     0.209 HD
ENDBRANCH  33  34
ENDBRANCH  31  33
ENDBRANCH   1  31
TORSDOF 7
