REMARK  12 active torsions:
REMARK  status: ('A' for Active; 'I' for Inactive)
REMARK    1  A    between atoms: C2_2  and  C3_3 
REMARK    2  A    between atoms: C2_2  and  C9_10 
REMARK    3  A    between atoms: C3_3  and  C4_4 
REMARK    4  A    between atoms: C5_5  and  C6_6 
REMARK    5  A    between atoms: C6_6  and  O1_9 
REMARK    6  A    between atoms: C27_29  and  O3_30 
REMARK    7  A    between atoms: O3_30  and  C28_31 
REMARK    8  A    between atoms: C29_33  and  C30_34 
REMARK    9  A    between atoms: C30_34  and  O5_35 
REMARK   10  A    between atoms: C31_36  and  O6_37 
REMARK   11  A    between atoms: C32_38  and  O7_39 
REMARK   12  A    between atoms: C33_40  and  O8_41 
ROOT
HETATM    1  C9  UNL     1       3.863  -1.358  -0.486  1.00  0.00    -0.002 C 
HETATM    2  C10 UNL     1       3.543  -2.702   0.232  1.00  0.00     0.006 C 
HETATM    3  C11 UNL     1       2.034  -2.652   0.619  1.00  0.00     0.011 C 
HETATM    4  C12 UNL     1       1.484  -1.402  -0.114  1.00  0.00    -0.029 C 
HETATM    5  C13 UNL     1       1.207  -1.895  -1.587  1.00  0.00     0.016 C 
HETATM    6  C14 UNL     1       0.146  -0.724   0.358  1.00  0.00     0.028 C 
HETATM    7  C15 UNL     1      -0.578  -1.177   1.590  1.00  0.00    -0.021 C 
HETATM    8  C16 UNL     1      -1.544  -0.390   2.093  1.00  0.00     0.008 C 
HETATM    9  C17 UNL     1      -1.869   0.996   1.510  1.00  0.00     0.092 C 
HETATM   10  O2  UNL     1      -0.956   1.840   2.229  1.00  0.00    -0.374 OA
HETATM   11  C18 UNL     1       0.322   1.714   1.529  1.00  0.00     0.179 C 
HETATM   12  C19 UNL     1       0.101   0.855   0.223  1.00  0.00    -0.004 C 
HETATM   13  C20 UNL     1       1.024   1.332  -0.904  1.00  0.00     0.014 C 
HETATM   14  C21 UNL     1       2.489   0.844  -0.816  1.00  0.00     0.011 C 
HETATM   15  C22 UNL     1       2.712  -0.434   0.022  1.00  0.00    -0.032 C 
HETATM   16  C23 UNL     1       2.968  -0.088   1.518  1.00  0.00     0.016 C 
HETATM   17  C24 UNL     1      -1.381   1.248   0.061  1.00  0.00     0.036 C 
HETATM   18  C25 UNL     1      -2.277   0.657  -1.026  1.00  0.00     0.011 C 
HETATM   19  C26 UNL     1      -3.439  -0.176  -0.484  1.00  0.00     0.033 C 
HETATM   20  C27 UNL     1      -4.203   0.419   0.729  1.00  0.00     0.136 C 
HETATM   21  C34 UNL     1      -3.366   1.403   1.623  1.00  0.00     0.014 C 
HETATM   22  C35 UNL     1      -3.581   2.885   1.207  1.00  0.00     0.021 C 
HETATM   23  C36 UNL     1      -3.886   1.333   3.079  1.00  0.00     0.021 C 
ENDROOT
BRANCH  20  24
HETATM   24  O3  UNL     1      -5.402   1.088   0.310  1.00  0.00    -0.352 OA
BRANCH  24  25
HETATM   25  C28 UNL     1      -6.542   0.229   0.157  1.00  0.00     0.292 C 
HETATM   26  O4  UNL     1      -6.473  -0.522  -1.044  1.00  0.00    -0.348 OA
HETATM   27  C29 UNL     1      -7.495  -1.532  -1.130  1.00  0.00     0.179 C 
HETATM   28  C31 UNL     1      -8.851  -1.067  -0.539  1.00  0.00     0.180 C 
HETATM   29  C32 UNL     1      -8.994   0.466  -0.542  1.00  0.00     0.183 C 
HETATM   30  C33 UNL     1      -7.784   1.144   0.129  1.00  0.00     0.204 C 
BRANCH  27  31
HETATM   31  C30 UNL     1      -7.599  -1.925  -2.612  1.00  0.00     0.198 C 
BRANCH  31  32
HETATM   32  O5  UNL     1      -8.080  -0.832  -3.398  1.00  0.00    -0.398 OA
HETATM   33  H46 UNL     1      -7.956  -1.085  -4.331  1.00  0.00     0.209 HD
ENDBRANCH  31  32
ENDBRANCH  27  31
BRANCH  28  34
HETATM   34  O6  UNL     1      -8.923  -1.575   0.811  1.00  0.00    -0.390 OA
HETATM   35  H48 UNL     1      -9.226  -0.857   1.407  1.00  0.00     0.210 HD
ENDBRANCH  28  34
BRANCH  29  36
HETATM   36  O7  UNL     1      -9.202   0.997  -1.857  1.00  0.00    -0.390 OA
HETATM   37  H50 UNL     1      -8.642   0.493  -2.487  1.00  0.00     0.210 HD
ENDBRANCH  29  36
BRANCH  30  38
HETATM   38  O8  UNL     1      -8.131   1.489   1.490  1.00  0.00    -0.388 OA
HETATM   39  H52 UNL     1      -7.495   2.185   1.758  1.00  0.00     0.210 HD
ENDBRANCH  30  38
ENDBRANCH  24  25
ENDBRANCH  20  24
BRANCH   1  40
HETATM   40  C2  UNL     1       5.357  -0.905  -0.542  1.00  0.00    -0.010 C 
HETATM   41  C1  UNL     1       6.176  -2.039  -1.202  1.00  0.00     0.010 C 
BRANCH  40  42
HETATM   42  C3  UNL     1       6.008  -0.470   0.786  1.00  0.00     0.031 C 
BRANCH  42  43
HETATM   43  C4  UNL     1       7.418   0.072   0.767  1.00  0.00    -0.027 C 
HETATM   44  C5  UNL     1       8.099   0.575  -0.280  1.00  0.00     0.006 C 
BRANCH  44  45
HETATM   45  C6  UNL     1       9.512   1.118  -0.249  1.00  0.00     0.068 C 
HETATM   46  C7  UNL     1      10.468   0.130  -0.917  1.00  0.00     0.050 C 
HETATM   47  C8  UNL     1       9.580   2.484  -0.946  1.00  0.00     0.050 C 
BRANCH  45  48
HETATM   48  O1  UNL     1       9.945   1.292   1.105  1.00  0.00    -0.387 OA
HETATM   49  H15 UNL     1       9.363   1.974   1.491  1.00  0.00     0.211 HD
ENDBRANCH  45  48
ENDBRANCH  44  45
ENDBRANCH  42  43
ENDBRANCH  40  42
ENDBRANCH   1  40
TORSDOF 12
