REMARK  14 active torsions:
REMARK  status: ('A' for Active; 'I' for Inactive)
REMARK    1  A    between atoms: O1_2  and  C2_3 
REMARK    2  A    between atoms: C2_3  and  C3_4 
REMARK    3  A    between atoms: C3_4  and  C4_5 
REMARK    4  A    between atoms: C4_5  and  O2_6 
REMARK    5  A    between atoms: O2_6  and  C5_7 
REMARK    6  A    between atoms: C18_21  and  C19_22 
REMARK    7  A    between atoms: C25_28  and  C26_29 
REMARK    8  A    between atoms: C26_29  and  O4_31 
REMARK    9  A    between atoms: C26_29  and  C28_32 
REMARK   10  A    between atoms: C28_32  and  O5_33 
REMARK   11  A    between atoms: C28_32  and  C29_34 
REMARK   12  A    between atoms: C33_39  and  C34_40 
REMARK       I    between atoms: C34_40  and  N1_42 
REMARK   13  A    between atoms: C37_46  and  O8_47 
REMARK   14  A    between atoms: C42_52  and  O9_53 
ROOT
HETATM    1  C5  UNL     1       6.546   1.551   0.182  1.00  0.00     0.122 C 
HETATM    2  C6  UNL     1       5.656   1.875  -1.025  1.00  0.00     0.033 C 
HETATM    3  C7  UNL     1       5.227   0.626  -1.791  1.00  0.00     0.013 C 
HETATM    4  C8  UNL     1       4.517  -0.487  -0.929  1.00  0.00    -0.026 C 
HETATM    5  C9  UNL     1       5.184  -1.828  -1.348  1.00  0.00     0.016 C 
HETATM    6  C10 UNL     1       4.776  -0.249   0.584  1.00  0.00     0.071 C 
HETATM    7  C11 UNL     1       6.235   0.188   0.816  1.00  0.00     0.045 C 
HETATM    8  C12 UNL     1       3.859   0.788   1.227  1.00  0.00     0.154 C 
HETATM    9  O3  UNL     1       4.142   1.352   2.281  1.00  0.00    -0.293 OA
HETATM   10  C13 UNL     1       2.548   1.085   0.623  1.00  0.00     0.057 C 
HETATM   11  C14 UNL     1       2.113   0.427  -0.458  1.00  0.00    -0.037 C 
HETATM   12  C15 UNL     1       2.975  -0.539  -1.267  1.00  0.00     0.026 C 
HETATM   13  C16 UNL     1       2.290  -1.930  -1.261  1.00  0.00     0.011 C 
HETATM   14  C17 UNL     1       0.828  -1.868  -1.765  1.00  0.00     0.014 C 
HETATM   15  C18 UNL     1      -0.055  -0.898  -0.933  1.00  0.00     0.005 C 
HETATM   16  C25 UNL     1      -1.390  -0.423  -1.655  1.00  0.00     0.034 C 
HETATM   17  C40 UNL     1      -1.683   0.954  -0.987  1.00  0.00     0.012 C 
HETATM   18  C41 UNL     1      -0.352   1.473  -0.404  1.00  0.00     0.044 C 
HETATM   19  C42 UNL     1       0.695   0.512  -0.965  1.00  0.00     0.090 C 
ENDROOT
BRANCH  16  20
HETATM   20  C26 UNL     1      -2.634  -1.294  -2.013  1.00  0.00     0.087 C 
HETATM   21  C27 UNL     1      -2.200  -2.457  -2.943  1.00  0.00     0.049 C 
BRANCH  20  22
HETATM   22  O4  UNL     1      -3.481  -0.470  -2.874  1.00  0.00    -0.387 OA
HETATM   23  H42 UNL     1      -2.921  -0.102  -3.579  1.00  0.00     0.210 HD
ENDBRANCH  20  22
BRANCH  20  24
HETATM   24  C28 UNL     1      -3.617  -1.873  -0.930  1.00  0.00     0.181 C 
BRANCH  24  25
HETATM   25  O5  UNL     1      -4.749  -2.384  -1.679  1.00  0.00    -0.390 OA
HETATM   26  H44 UNL     1      -4.940  -1.652  -2.308  1.00  0.00     0.210 HD
ENDBRANCH  24  25
BRANCH  24  27
HETATM   27  C29 UNL     1      -4.195  -0.945   0.165  1.00  0.00     0.158 C 
HETATM   28  O6  UNL     1      -4.730   0.272  -0.423  1.00  0.00    -0.373 OA
HETATM   29  C30 UNL     1      -5.991   0.550   0.196  1.00  0.00     0.185 C 
HETATM   30  C31 UNL     1      -6.554  -0.821   0.474  1.00  0.00     0.028 C 
HETATM   31  C37 UNL     1      -6.960   1.345  -0.695  1.00  0.00     0.384 C 
HETATM   32  C32 UNL     1      -7.807  -0.693   1.324  1.00  0.00     0.053 C 
HETATM   33  C38 UNL     1      -5.336  -1.512   1.059  1.00  0.00     0.020 C 
HETATM   34  C33 UNL     1      -8.733   0.440   0.807  1.00  0.00     0.309 C 
HETATM   35  N2  UNL     1      -8.372   0.996  -0.527  1.00  0.00     0.128 N 
HETATM   36  H55 UNL     1      -8.576   0.267  -1.215  1.00  0.00     0.320 HD
HETATM   37  C39 UNL     1      -5.488  -3.019   1.183  1.00  0.00     0.013 C 
BRANCH  34  38
HETATM   38  C34 UNL     1      -8.983   1.513   1.895  1.00  0.00     0.233 C 
HETATM   39  O7  UNL     1      -9.178   1.204   3.071  1.00  0.00    -0.277 OA
HETATM   40  N1  UNL     1      -9.067   2.823   1.420  1.00  0.00    -0.249 NA
HETATM   41  C35 UNL     1     -10.163   3.670   1.777  1.00  0.00     0.113 A 
HETATM   42  C36 UNL     1      -8.797   3.927   2.299  1.00  0.00     0.113 A 
ENDBRANCH  34  38
BRANCH  31  43
HETATM   43  O8  UNL     1      -6.834   2.730  -0.436  1.00  0.00    -0.366 OA
HETATM   44  H57 UNL     1      -7.751   2.987  -0.233  1.00  0.00     0.212 HD
ENDBRANCH  31  43
ENDBRANCH  24  27
ENDBRANCH  20  24
ENDBRANCH  16  20
BRANCH  15  45
HETATM   45  C19 UNL     1      -0.409  -1.506   0.515  1.00  0.00    -0.002 C 
HETATM   46  C20 UNL     1      -0.566  -3.045   0.546  1.00  0.00     0.005 C 
HETATM   47  C21 UNL     1      -1.249  -3.557   1.821  1.00  0.00     0.000 C 
HETATM   48  C22 UNL     1      -1.138  -2.601   3.000  1.00  0.00     0.000 C 
HETATM   49  C23 UNL     1       0.211  -1.904   3.009  1.00  0.00     0.000 C 
HETATM   50  C24 UNL     1       0.499  -1.132   1.711  1.00  0.00     0.005 C 
ENDBRANCH  15  45
BRANCH  19  51
HETATM   51  O9  UNL     1       0.872   0.949  -2.333  1.00  0.00    -0.384 OA
HETATM   52  H66 UNL     1       1.266   1.837  -2.309  1.00  0.00     0.211 HD
ENDBRANCH  19  51
BRANCH   1  53
HETATM   53  O2  UNL     1       7.919   1.532  -0.228  1.00  0.00    -0.386 OA
BRANCH  53  54
HETATM   54  C4  UNL     1       8.544   2.810  -0.088  1.00  0.00     0.170 C 
BRANCH  54  55
HETATM   55  C3  UNL     1       9.924   2.795  -0.731  1.00  0.00     0.052 C 
BRANCH  55  56
HETATM   56  C2  UNL     1      10.866   1.790  -0.075  1.00  0.00     0.169 C 
BRANCH  56  57
HETATM   57  O1  UNL     1      12.185   1.922  -0.622  1.00  0.00    -0.396 OA
HETATM   58  C1  UNL     1      12.973   2.887   0.068  1.00  0.00     0.201 C 
ENDBRANCH  56  57
ENDBRANCH  55  56
ENDBRANCH  54  55
ENDBRANCH  53  54
ENDBRANCH   1  53
TORSDOF 14
