REMARK  6 active torsions:
REMARK  status: ('A' for Active; 'I' for Inactive)
REMARK    1  A    between atoms: C9_10  and  C10_11 
REMARK    2  A    between atoms: C11_13  and  O3_14 
REMARK    3  A    between atoms: C12_15  and  C13_16 
REMARK    4  A    between atoms: C14_18  and  O5_19 
REMARK    5  A    between atoms: C16_21  and  C17_22 
REMARK    6  A    between atoms: C17_22  and  C18_23 
ROOT
HETATM    1  C1  UNL     1       5.634  -1.595  -0.161  1.00  0.00     0.043 C 
HETATM    2  C2  UNL     1       4.606  -0.481  -0.234  1.00  0.00    -0.087 C 
HETATM    3  C3  UNL     1       4.058  -0.205  -1.434  1.00  0.00    -0.024 C 
HETATM    4  C4  UNL     1       3.079   0.846  -1.851  1.00  0.00     0.030 C 
HETATM    5  C5  UNL     1       1.758   0.292  -2.395  1.00  0.00     0.042 C 
HETATM    6  C6  UNL     1       0.811  -0.496  -1.442  1.00  0.00     0.069 C 
HETATM    7  C7  UNL     1       1.448  -1.840  -1.021  1.00  0.00     0.047 C 
HETATM    8  O1  UNL     1      -0.277  -0.887  -2.356  1.00  0.00    -0.338 OA
HETATM    9  C8  UNL     1      -1.414  -1.317  -1.720  1.00  0.00     0.095 A 
HETATM   10  C9  UNL     1      -2.029  -2.504  -2.126  1.00  0.00     0.070 A 
HETATM   11  C11 UNL     1      -3.151  -2.971  -1.431  1.00  0.00     0.097 A 
HETATM   12  C12 UNL     1      -3.641  -2.241  -0.343  1.00  0.00     0.069 A 
HETATM   13  C14 UNL     1      -3.028  -1.026   0.033  1.00  0.00     0.091 A 
HETATM   14  C15 UNL     1      -1.933  -0.528  -0.683  1.00  0.00     0.015 A 
HETATM   15  C16 UNL     1      -1.195   0.784  -0.493  1.00  0.00     0.032 C 
HETATM   16  C21 UNL     1       0.312   0.445  -0.245  1.00  0.00     0.034 C 
HETATM   17  C22 UNL     1       0.573  -0.176   1.120  1.00  0.00     0.006 A 
HETATM   18  C23 UNL     1       1.928  -0.080   1.832  1.00  0.00    -0.001 A 
HETATM   19  C24 UNL     1       3.069   0.856   1.513  1.00  0.00     0.010 C 
HETATM   20  C25 UNL     1       4.387   0.184   1.112  1.00  0.00     0.034 C 
HETATM   21  C26 UNL     1       0.682   0.531   2.472  1.00  0.00    -0.039 A 
HETATM   22  C27 UNL     1       0.097  -0.194   3.665  1.00  0.00     0.015 C 
HETATM   23  C28 UNL     1       0.614   2.032   2.627  1.00  0.00     0.015 C 
ENDROOT
BRANCH  15  24
HETATM   24  C17 UNL     1      -1.775   1.857   0.445  1.00  0.00     0.014 C 
BRANCH  24  25
HETATM   25  C18 UNL     1      -3.090   2.519  -0.038  1.00  0.00    -0.022 C 
HETATM   26  C19 UNL     1      -2.878   3.406  -1.269  1.00  0.00     0.009 C 
HETATM   27  C20 UNL     1      -3.684   3.361   1.096  1.00  0.00     0.009 C 
ENDBRANCH  24  25
ENDBRANCH  15  24
BRANCH  13  28
HETATM   28  O5  UNL     1      -3.475  -0.326   1.121  1.00  0.00    -0.359 OA
HETATM   29  H15 UNL     1      -4.262  -0.783   1.499  1.00  0.00     0.217 HD
ENDBRANCH  13  28
BRANCH  10  30
HETATM   30  C10 UNL     1      -1.470  -3.262  -3.262  1.00  0.00     0.275 C 
HETATM   31  O2  UNL     1      -1.979  -4.328  -3.602  1.00  0.00    -0.301 OA
ENDBRANCH  10  30
BRANCH  12  32
HETATM   32  C13 UNL     1      -4.804  -2.763   0.406  1.00  0.00     0.275 C 
HETATM   33  O4  UNL     1      -5.271  -2.134   1.354  1.00  0.00    -0.301 OA
ENDBRANCH  12  32
BRANCH  11  34
HETATM   34  O3  UNL     1      -3.779  -4.141  -1.778  1.00  0.00    -0.359 OA
HETATM   35  H13 UNL     1      -3.307  -4.538  -2.549  1.00  0.00     0.217 HD
ENDBRANCH  11  34
TORSDOF 6
