REMARK  12 active torsions:
REMARK  status: ('A' for Active; 'I' for Inactive)
REMARK    1  A    between atoms: C4_4  and  C5_5 
REMARK    2  A    between atoms: C5_5  and  C6_6 
REMARK    3  A    between atoms: C6_6  and  C7_7 
REMARK    4  A    between atoms: C7_7  and  C9_9 
REMARK    5  A    between atoms: C18_18  and  C20_20 
REMARK    6  A    between atoms: C20_20  and  O2_22 
REMARK    7  A    between atoms: C21_23  and  O3_24 
REMARK    8  A    between atoms: O3_24  and  C22_25 
REMARK    9  A    between atoms: C24_28  and  O5_29 
REMARK   10  A    between atoms: C25_30  and  O6_31 
REMARK   11  A    between atoms: C26_32  and  O7_33 
REMARK   12  A    between atoms: C28_35  and  O8_36 
ROOT
HETATM    1  C9  UNL     1       4.161  -0.497  -0.411  1.00  0.00    -0.002 C 
HETATM    2  C10 UNL     1       4.465   0.944   0.079  1.00  0.00     0.006 C 
HETATM    3  C11 UNL     1       3.140   1.569   0.549  1.00  0.00     0.011 C 
HETATM    4  C12 UNL     1       2.120   0.416   0.543  1.00  0.00    -0.032 C 
HETATM    5  C13 UNL     1       2.249  -0.290   1.929  1.00  0.00     0.016 C 
HETATM    6  C14 UNL     1       0.655   0.858   0.290  1.00  0.00     0.004 C 
HETATM    7  C15 UNL     1       0.036   1.666   1.439  1.00  0.00     0.007 C 
HETATM    8  C16 UNL     1      -1.383   2.104   1.081  1.00  0.00     0.007 C 
HETATM    9  C17 UNL     1      -2.309   0.877   1.050  1.00  0.00     0.018 C 
HETATM   10  C18 UNL     1      -3.811   1.194   0.749  1.00  0.00     0.072 C 
HETATM   11  C19 UNL     1      -4.010   1.867  -0.626  1.00  0.00     0.030 C 
HETATM   12  C21 UNL     1      -4.655  -0.117   0.860  1.00  0.00     0.146 C 
HETATM   13  C27 UNL     1      -4.080  -1.249  -0.002  1.00  0.00     0.066 C 
HETATM   14  C28 UNL     1      -2.611  -1.522   0.306  1.00  0.00     0.130 C 
HETATM   15  C29 UNL     1      -1.779  -0.255   0.153  1.00  0.00    -0.001 A 
HETATM   16  C30 UNL     1      -1.257   0.031  -1.234  1.00  0.00     0.024 A 
HETATM   17  C31 UNL     1      -0.251  -0.322  -0.150  1.00  0.00    -0.025 A 
HETATM   18  C32 UNL     1       0.400  -1.704  -0.242  1.00  0.00     0.011 C 
HETATM   19  C33 UNL     1       1.876  -1.777  -0.670  1.00  0.00     0.011 C 
HETATM   20  C34 UNL     1       2.621  -0.437  -0.680  1.00  0.00    -0.032 C 
HETATM   21  C35 UNL     1       2.372   0.238  -2.064  1.00  0.00     0.016 C 
ENDROOT
BRANCH  12  22
HETATM   22  O3  UNL     1      -6.007   0.166   0.452  1.00  0.00    -0.352 OA
BRANCH  22  23
HETATM   23  C22 UNL     1      -6.995  -0.668   1.063  1.00  0.00     0.291 C 
HETATM   24  O4  UNL     1      -7.183  -1.885   0.341  1.00  0.00    -0.356 OA
HETATM   25  C23 UNL     1      -7.522  -1.683  -1.039  1.00  0.00     0.205 C 
HETATM   26  C24 UNL     1      -8.455  -0.494  -1.284  1.00  0.00     0.173 C 
HETATM   27  C25 UNL     1      -9.265  -0.226  -0.022  1.00  0.00     0.182 C 
HETATM   28  C26 UNL     1      -8.335   0.108   1.153  1.00  0.00     0.204 C 
BRANCH  26  29
HETATM   29  O5  UNL     1      -9.331  -0.760  -2.383  1.00  0.00    -0.391 OA
HETATM   30  H39 UNL     1     -10.034  -0.081  -2.314  1.00  0.00     0.210 HD
ENDBRANCH  26  29
BRANCH  27  31
HETATM   31  O6  UNL     1     -10.190   0.849  -0.259  1.00  0.00    -0.390 OA
HETATM   32  H41 UNL     1     -10.560   1.080   0.616  1.00  0.00     0.210 HD
ENDBRANCH  27  31
BRANCH  28  33
HETATM   33  O7  UNL     1      -9.053  -0.203   2.365  1.00  0.00    -0.388 OA
HETATM   34  H43 UNL     1      -9.087  -1.176   2.443  1.00  0.00     0.210 HD
ENDBRANCH  28  33
ENDBRANCH  22  23
ENDBRANCH  12  22
BRANCH  10  35
HETATM   35  C20 UNL     1      -4.331   2.162   1.813  1.00  0.00     0.151 C 
HETATM   36  O1  UNL     1      -4.741   3.299   1.634  1.00  0.00    -0.649 OA
BRANCH  35  37
HETATM   37  O2  UNL     1      -4.284   1.674   3.069  1.00  0.00    -0.776 OA
HETATM   38  H33 UNL     1      -4.638   2.407   3.618  1.00  0.00     0.167 HD
ENDBRANCH  35  37
ENDBRANCH  10  35
BRANCH  14  39
HETATM   39  O8  UNL     1      -2.500  -1.999   1.642  1.00  0.00    -0.395 OA
HETATM   40  H47 UNL     1      -1.551  -2.095   1.832  1.00  0.00     0.210 HD
ENDBRANCH  14  39
BRANCH   1  41
HETATM   41  C7  UNL     1       5.141  -0.977  -1.525  1.00  0.00    -0.014 C 
HETATM   42  C8  UNL     1       4.775  -2.377  -2.040  1.00  0.00     0.010 C 
BRANCH  41  43
HETATM   43  C6  UNL     1       6.613  -1.033  -1.020  1.00  0.00     0.008 C 
BRANCH  43  44
HETATM   44  C5  UNL     1       7.426   0.233  -1.316  1.00  0.00     0.028 C 
BRANCH  44  45
HETATM   45  C4  UNL     1       8.876   0.043  -0.952  1.00  0.00    -0.025 C 
HETATM   46  C2  UNL     1       9.526   0.524   0.125  1.00  0.00    -0.091 C 
HETATM   47  C1  UNL     1       8.895   1.328   1.228  1.00  0.00     0.042 C 
HETATM   48  C3  UNL     1      10.998   0.261   0.316  1.00  0.00     0.042 C 
ENDBRANCH  44  45
ENDBRANCH  43  44
ENDBRANCH  41  43
ENDBRANCH   1  41
TORSDOF 12
