REMARK  11 active torsions:
REMARK  status: ('A' for Active; 'I' for Inactive)
REMARK    1  A    between atoms: C2_2  and  O1_3 
REMARK    2  A    between atoms: O1_3  and  C3_4 
REMARK    3  A    between atoms: C3_4  and  C4_6 
REMARK    4  A    between atoms: C5_7  and  C6_8 
REMARK    5  A    between atoms: C10_13  and  C11_14 
REMARK    6  A    between atoms: C11_14  and  O4_15 
REMARK    7  A    between atoms: C13_18  and  C14_19 
REMARK    8  A    between atoms: C25_32  and  C26_33 
REMARK    9  A    between atoms: C26_33  and  O7_34 
REMARK   10  A    between atoms: C33_42  and  O9_44 
REMARK   11  A    between atoms: C36_46  and  O10_47 
ROOT
HETATM    1  C4  UNL     1       0.388   2.987  -0.255  1.00  0.00     0.165 C 
HETATM    2  C5  UNL     1       1.083   1.874  -0.570  1.00  0.00     0.053 C 
HETATM    3  C7  UNL     1       0.561   0.586  -0.087  1.00  0.00    -0.002 C 
HETATM    4  C8  UNL     1       1.343  -0.418   0.403  1.00  0.00    -0.066 C 
HETATM    5  C9  UNL     1       0.817  -1.586   1.238  1.00  0.00     0.049 C 
HETATM    6  C10 UNL     1       1.674  -1.820   2.493  1.00  0.00     0.084 C 
HETATM    7  C12 UNL     1       3.124  -2.095   2.116  1.00  0.00     0.142 C 
HETATM    8  O5  UNL     1       3.920  -2.529   2.954  1.00  0.00    -0.297 OA
HETATM    9  C13 UNL     1       3.509  -1.796   0.671  1.00  0.00     0.092 C 
HETATM   10  C22 UNL     1       2.866  -0.454   0.265  1.00  0.00     0.052 C 
HETATM   11  C23 UNL     1      -0.934   0.558   0.010  1.00  0.00     0.044 C 
HETATM   12  C24 UNL     1      -1.535   1.777   0.425  1.00  0.00     0.101 C 
HETATM   13  O6  UNL     1      -0.772   2.928   0.527  1.00  0.00    -0.302 OA
HETATM   14  C25 UNL     1      -2.911   1.890   0.672  1.00  0.00     0.034 C 
HETATM   15  C27 UNL     1      -3.670   0.766   0.399  1.00  0.00     0.090 C 
HETATM   16  O8  UNL     1      -5.052   0.715   0.523  1.00  0.00    -0.341 OA
HETATM   17  C28 UNL     1      -5.353  -0.382  -0.366  1.00  0.00     0.175 C 
HETATM   18  C29 UNL     1      -4.235  -1.417  -0.163  1.00  0.00     0.079 C 
HETATM   19  C30 UNL     1      -4.346  -2.489  -1.195  1.00  0.00    -0.019 C 
HETATM   20  C31 UNL     1      -5.539  -2.806  -1.731  1.00  0.00    -0.027 C 
HETATM   21  C32 UNL     1      -6.843  -2.101  -1.388  1.00  0.00     0.067 C 
HETATM   22  C33 UNL     1      -6.728  -1.056  -0.239  1.00  0.00     0.085 C 
HETATM   23  C34 UNL     1      -7.859  -0.033  -0.316  1.00  0.00     0.049 C 
HETATM   24  C35 UNL     1      -3.124  -0.427  -0.099  1.00  0.00     0.021 C 
HETATM   25  C36 UNL     1      -1.764  -0.527  -0.336  1.00  0.00     0.091 C 
ENDROOT
BRANCH   2  26
HETATM   26  C6  UNL     1       2.313   1.997  -1.380  1.00  0.00     0.273 C 
HETATM   27  O3  UNL     1       3.353   2.444  -0.915  1.00  0.00    -0.301 OA
ENDBRANCH   2  26
BRANCH   1  28
HETATM   28  C3  UNL     1       0.788   4.339  -0.743  1.00  0.00     0.318 C 
HETATM   29  O2  UNL     1       1.412   4.554  -1.772  1.00  0.00    -0.257 OA
BRANCH  28  30
HETATM   30  O1  UNL     1       0.303   5.282   0.104  1.00  0.00    -0.316 OA
BRANCH  30  31
HETATM   31  C2  UNL     1       0.604   6.630  -0.278  1.00  0.00     0.175 C 
HETATM   32  C1  UNL     1      -0.200   7.562   0.610  1.00  0.00     0.034 C 
ENDBRANCH  30  31
ENDBRANCH  28  30
ENDBRANCH   1  28
BRANCH  25  33
HETATM   33  O10 UNL     1      -1.269  -1.686  -0.865  1.00  0.00    -0.354 OA
HETATM   34  C37 UNL     1      -1.034  -1.538  -2.267  1.00  0.00     0.210 C 
ENDBRANCH  25  33
BRANCH   6  35
HETATM   35  C11 UNL     1       1.133  -2.966   3.346  1.00  0.00     0.176 C 
BRANCH  35  36
HETATM   36  O4  UNL     1       0.896  -4.122   2.545  1.00  0.00    -0.400 OA
HETATM   37  H12 UNL     1       0.781  -4.871   3.157  1.00  0.00     0.209 HD
ENDBRANCH  35  36
ENDBRANCH   6  35
BRANCH   9  38
HETATM   38  C14 UNL     1       5.006  -1.785   0.395  1.00  0.00    -0.046 A 
HETATM   39  C15 UNL     1       5.877  -0.944   1.102  1.00  0.00     0.010 A 
HETATM   40  C16 UNL     1       7.248  -0.902   0.824  1.00  0.00     0.031 A 
HETATM   41  C17 UNL     1       7.728  -1.731  -0.194  1.00  0.00     0.042 A 
HETATM   42  N1  UNL     1       9.006  -1.893  -0.679  1.00  0.00    -0.365 N 
HETATM   43  C20 UNL     1       6.901  -2.584  -0.922  1.00  0.00    -0.008 A 
HETATM   44  C18 UNL     1       9.014  -2.819  -1.691  1.00  0.00     0.089 A 
HETATM   45  H16 UNL     1       9.817  -1.398  -0.334  1.00  0.00     0.165 HD
HETATM   46  C19 UNL     1       7.724  -3.265  -1.863  1.00  0.00     0.030 A 
HETATM   47  C21 UNL     1       5.524  -2.609  -0.625  1.00  0.00     0.021 A 
ENDBRANCH   9  38
BRANCH  14  48
HETATM   48  C26 UNL     1      -3.555   3.161   1.132  1.00  0.00     0.208 C 
BRANCH  48  49
HETATM   49  O7  UNL     1      -4.267   3.756   0.052  1.00  0.00    -0.396 OA
HETATM   50  H24 UNL     1      -4.940   3.102  -0.213  1.00  0.00     0.209 HD
ENDBRANCH  48  49
ENDBRANCH  14  48
BRANCH  22  51
HETATM   51  O9  UNL     1      -6.877  -1.718   1.025  1.00  0.00    -0.387 OA
HETATM   52  H34 UNL     1      -6.423  -2.578   0.979  1.00  0.00     0.210 HD
ENDBRANCH  22  51
TORSDOF 11
