REMARK  13 active torsions:
REMARK  status: ('A' for Active; 'I' for Inactive)
REMARK    1  A    between atoms: C5_6  and  C6_7 
REMARK    2  A    between atoms: C5_6  and  C31_35 
REMARK    3  A    between atoms: C23_24  and  O2_25 
REMARK    4  A    between atoms: C30_33  and  O4_34 
REMARK    5  A    between atoms: C32_37  and  C33_38 
REMARK    6  A    between atoms: C33_38  and  O6_40 
REMARK    7  A    between atoms: C33_38  and  C35_41 
REMARK    8  A    between atoms: C35_41  and  C37_43 
REMARK    9  A    between atoms: C35_41  and  C38_45 
REMARK   10  A    between atoms: C37_43  and  O7_44 
REMARK   11  A    between atoms: C38_45  and  C39_46 
REMARK   12  A    between atoms: C39_46  and  C40_47 
REMARK   13  A    between atoms: C43_51  and  N2_52 
ROOT
HETATM    1  C1  UNL     1       1.653  -2.403   4.540  1.00  0.00     0.010 C 
HETATM    2  C2  UNL     1       1.304  -2.884   3.133  1.00  0.00    -0.014 C 
HETATM    3  C3  UNL     1       2.537  -3.417   2.421  1.00  0.00     0.030 C 
HETATM    4  C4  UNL     1       2.234  -3.801   0.982  1.00  0.00     0.169 C 
HETATM    5  O1  UNL     1       0.929  -3.448   0.549  1.00  0.00    -0.377 OA
HETATM    6  C5  UNL     1       0.478  -2.093   0.806  1.00  0.00     0.094 C 
HETATM    7  C45 UNL     1       0.667  -1.755   2.309  1.00  0.00     0.045 C 
ENDROOT
BRANCH   6   8
HETATM    8  C6  UNL     1      -1.030  -2.170   0.367  1.00  0.00     0.035 C 
HETATM    9  C7  UNL     1      -1.883  -3.235   1.174  1.00  0.00     0.016 C 
HETATM   10  C8  UNL     1      -3.298  -2.647   1.260  1.00  0.00     0.026 C 
HETATM   11  C9  UNL     1      -4.514  -3.562   1.202  1.00  0.00     0.013 C 
HETATM   12  C30 UNL     1      -3.319  -1.671   0.092  1.00  0.00     0.094 C 
HETATM   13  C10 UNL     1      -5.809  -2.705   1.209  1.00  0.00     0.043 C 
HETATM   14  C11 UNL     1      -5.711  -1.366   0.497  1.00  0.00    -0.006 C 
HETATM   15  C12 UNL     1      -4.555  -0.873   0.012  1.00  0.00    -0.030 C 
HETATM   16  C26 UNL     1      -6.983  -0.633   0.192  1.00  0.00     0.161 C 
HETATM   17  C13 UNL     1      -4.487   0.344  -0.852  1.00  0.00     0.032 C 
HETATM   18  C14 UNL     1      -3.082   0.854  -1.351  1.00  0.00    -0.004 C 
HETATM   19  C20 UNL     1      -5.491   1.425  -0.354  1.00  0.00    -0.014 C 
HETATM   20  C15 UNL     1      -2.802   2.363  -1.151  1.00  0.00     0.014 C 
HETATM   21  C27 UNL     1      -1.826  -0.033  -1.026  1.00  0.00     0.018 C 
HETATM   22  C16 UNL     1      -4.038   3.306  -1.143  1.00  0.00     0.013 C 
HETATM   23  C17 UNL     1      -4.069   3.961   0.206  1.00  0.00    -0.026 C 
HETATM   24  C25 UNL     1      -5.351   2.549  -1.417  1.00  0.00     0.006 C 
HETATM   25  C18 UNL     1      -4.579   3.302   1.252  1.00  0.00    -0.029 C 
HETATM   26  C19 UNL     1      -5.216   1.951   1.113  1.00  0.00     0.038 C 
HETATM   27  C24 UNL     1      -6.635   3.376  -1.495  1.00  0.00     0.037 C 
HETATM   28  C23 UNL     1      -7.808   2.499  -1.981  1.00  0.00     0.119 C 
HETATM   29  C22 UNL     1      -7.650   0.998  -1.665  1.00  0.00     0.045 C 
HETATM   30  C21 UNL     1      -6.931   0.812  -0.324  1.00  0.00     0.072 C 
HETATM   31  C28 UNL     1      -1.980  -0.911   0.237  1.00  0.00    -0.002 C 
HETATM   32  C29 UNL     1      -1.889   0.019   1.463  1.00  0.00     0.019 C 
HETATM   33  O3  UNL     1      -8.062  -1.197   0.375  1.00  0.00    -0.292 OA
BRANCH  28  34
HETATM   34  O2  UNL     1      -8.996   2.995  -1.366  1.00  0.00    -0.396 OA
HETATM   35  H30 UNL     1      -9.750   2.500  -1.733  1.00  0.00     0.210 HD
ENDBRANCH  28  34
BRANCH  12  36
HETATM   36  O4  UNL     1      -3.338  -2.372  -1.171  1.00  0.00    -0.384 OA
HETATM   37  H39 UNL     1      -3.002  -3.273  -1.057  1.00  0.00     0.211 HD
ENDBRANCH  12  36
ENDBRANCH   6   8
BRANCH   6  38
HETATM   38  C31 UNL     1       1.208  -1.175  -0.168  1.00  0.00     0.189 A 
HETATM   39  O5  UNL     1       1.489   0.152   0.283  1.00  0.00    -0.369 OA
HETATM   40  C32 UNL     1       2.639  -0.671   0.013  1.00  0.00     0.189 A 
BRANCH  40  41
HETATM   41  C33 UNL     1       3.489  -0.272  -1.200  1.00  0.00     0.092 C 
HETATM   42  C34 UNL     1       3.006   1.083  -1.767  1.00  0.00     0.049 C 
BRANCH  41  43
HETATM   43  O6  UNL     1       3.241  -1.215  -2.263  1.00  0.00    -0.387 OA
HETATM   44  H45 UNL     1       2.992  -2.070  -1.868  1.00  0.00     0.210 HD
ENDBRANCH  41  43
BRANCH  41  45
HETATM   45  C35 UNL     1       5.071  -0.273  -0.918  1.00  0.00     0.011 C 
HETATM   46  C36 UNL     1       5.815   0.170  -2.208  1.00  0.00     0.020 C 
BRANCH  45  47
HETATM   47  C37 UNL     1       5.581  -1.717  -0.625  1.00  0.00     0.176 C 
BRANCH  47  48
HETATM   48  O7  UNL     1       5.280  -2.131   0.697  1.00  0.00    -0.400 OA
HETATM   49  H51 UNL     1       5.627  -3.036   0.803  1.00  0.00     0.209 HD
ENDBRANCH  47  48
ENDBRANCH  45  47
BRANCH  45  50
HETATM   50  C38 UNL     1       5.416   0.709   0.255  1.00  0.00     0.019 C 
BRANCH  50  51
HETATM   51  C39 UNL     1       6.866   0.730   0.783  1.00  0.00     0.039 C 
BRANCH  51  52
HETATM   52  C40 UNL     1       7.848   1.550  -0.022  1.00  0.00    -0.054 A 
HETATM   53  C41 UNL     1       8.970   0.950  -0.604  1.00  0.00     0.024 A 
HETATM   54  C42 UNL     1       9.865   1.729  -1.326  1.00  0.00     0.090 A 
HETATM   55  N1  UNL     1       9.652   3.046  -1.443  1.00  0.00    -0.357 N 
HETATM   56  C43 UNL     1       8.606   3.669  -0.894  1.00  0.00     0.077 A 
HETATM   57  H58 UNL     1      10.299   3.635  -1.963  1.00  0.00     0.166 HD
HETATM   58  C44 UNL     1       7.681   2.934  -0.162  1.00  0.00     0.049 A 
BRANCH  56  59
HETATM   59  N2  UNL     1       8.534   5.044  -1.067  1.00  0.00    -0.289 NA
HETATM   60  H59 UNL     1       8.583   5.524  -0.162  1.00  0.00     0.125 HD
HETATM   61  H60 UNL     1       7.626   5.318  -1.455  1.00  0.00     0.125 HD
ENDBRANCH  56  59
ENDBRANCH  51  52
ENDBRANCH  50  51
ENDBRANCH  45  50
ENDBRANCH  41  45
ENDBRANCH  40  41
ENDBRANCH   6  38
TORSDOF 13
