REMARK  12 active torsions:
REMARK  status: ('A' for Active; 'I' for Inactive)
REMARK    1  A    between atoms: O1_2  and  C2_3 
REMARK    2  A    between atoms: C4_5  and  O2_6 
REMARK    3  A    between atoms: O2_6  and  C5_7 
REMARK    4  A    between atoms: C8_10  and  C9_11 
REMARK    5  A    between atoms: N1_12  and  C10_14 
REMARK    6  A    between atoms: C10_14  and  C11_15 
REMARK    7  A    between atoms: C11_15  and  C12_16 
REMARK    8  A    between atoms: C12_16  and  O3_17 
REMARK    9  A    between atoms: C18_23  and  C19_24 
REMARK   10  A    between atoms: C25_32  and  O6_33 
REMARK   11  A    between atoms: C29_37  and  O7_38 
REMARK   12  A    between atoms: C33_43  and  O9_44 
ROOT
HETATM    1  C5  UNL     1       2.248   0.282   0.718  1.00  0.00     0.127 C 
HETATM    2  C6  UNL     1       1.423   1.340   0.013  1.00  0.00     0.033 C 
HETATM    3  C7  UNL     1       0.373   0.707  -0.875  1.00  0.00     0.021 C 
HETATM    4  C8  UNL     1      -0.515  -0.385  -0.180  1.00  0.00     0.026 C 
HETATM    5  C13 UNL     1      -2.022   0.143  -0.271  1.00  0.00     0.009 C 
HETATM    6  C14 UNL     1      -2.647  -0.036  -1.659  1.00  0.00     0.007 C 
HETATM    7  C15 UNL     1      -3.935   0.761  -1.727  1.00  0.00     0.013 C 
HETATM    8  C16 UNL     1      -5.019   0.201  -0.790  1.00  0.00    -0.005 C 
HETATM    9  C17 UNL     1      -5.662  -1.004  -1.546  1.00  0.00     0.019 C 
HETATM   10  C18 UNL     1      -6.174   1.247  -0.508  1.00  0.00     0.028 C 
HETATM   11  C23 UNL     1      -6.537   0.992   0.962  1.00  0.00     0.013 C 
HETATM   12  C24 UNL     1      -5.202   0.700   1.632  1.00  0.00     0.040 C 
HETATM   13  C25 UNL     1      -4.484  -0.238   0.640  1.00  0.00     0.070 C 
HETATM   14  C26 UNL     1      -2.934  -0.447   0.819  1.00  0.00     0.026 C 
HETATM   15  C27 UNL     1      -2.414  -0.029   2.213  1.00  0.00     0.011 C 
HETATM   16  C28 UNL     1      -0.901   0.234   2.267  1.00  0.00     0.039 C 
HETATM   17  C29 UNL     1      -0.107  -0.684   1.321  1.00  0.00     0.073 C 
HETATM   18  C30 UNL     1       1.409  -0.600   1.642  1.00  0.00     0.071 C 
ENDROOT
BRANCH   1  19
HETATM   19  O2  UNL     1       3.228   0.984   1.480  1.00  0.00    -0.356 OA
BRANCH  19  20
HETATM   20  C4  UNL     1       4.580   0.743   1.092  1.00  0.00     0.263 C 
HETATM   21  C3  UNL     1       5.277   2.095   1.018  1.00  0.00     0.095 C 
HETATM   22  C2  UNL     1       6.771   1.938   0.724  1.00  0.00     0.156 C 
HETATM   23  C33 UNL     1       7.406   0.980   1.755  1.00  0.00     0.175 C 
HETATM   24  C31 UNL     1       6.585  -0.326   1.888  1.00  0.00     0.151 C 
HETATM   25  O8  UNL     1       5.192  -0.081   2.082  1.00  0.00    -0.354 OA
HETATM   26  C32 UNL     1       6.806  -1.333   0.755  1.00  0.00     0.042 C 
BRANCH  22  27
HETATM   27  O1  UNL     1       7.319   3.266   0.769  1.00  0.00    -0.388 OA
HETATM   28  C1  UNL     1       8.668   3.371   0.354  1.00  0.00     0.202 C 
ENDBRANCH  22  27
BRANCH  23  29
HETATM   29  O9  UNL     1       8.773   0.689   1.450  1.00  0.00    -0.390 OA
HETATM   30  H51 UNL     1       8.839   0.290   0.558  1.00  0.00     0.210 HD
ENDBRANCH  23  29
ENDBRANCH  19  20
ENDBRANCH   1  19
BRANCH  17  31
HETATM   31  O7  UNL     1      -0.521  -2.010   1.737  1.00  0.00    -0.389 OA
HETATM   32  H43 UNL     1      -0.169  -2.630   1.067  1.00  0.00     0.210 HD
ENDBRANCH  17  31
BRANCH   4  33
HETATM   33  C9  UNL     1      -0.299  -1.625  -1.066  1.00  0.00     0.068 C 
HETATM   34  N1  UNL     1       0.364  -2.654  -0.657  1.00  0.00    -0.401 N 
ATOM     35  H1  UNL     1       0.681  -2.753   0.307  1.00  0.00     0.158 HD
BRANCH  34  36
HETATM   36  C10 UNL     1       0.628  -3.670  -1.680  1.00  0.00     0.121 C 
BRANCH  36  37
HETATM   37  C11 UNL     1      -0.010  -4.993  -1.262  1.00  0.00     0.045 C 
BRANCH  37  38
HETATM   38  C12 UNL     1       0.261  -6.094  -2.278  1.00  0.00     0.165 C 
BRANCH  38  39
HETATM   39  O3  UNL     1       1.662  -6.309  -2.439  1.00  0.00    -0.401 OA
HETATM   40  H20 UNL     1       2.017  -6.522  -1.559  1.00  0.00     0.209 HD
ENDBRANCH  38  39
ENDBRANCH  37  38
ENDBRANCH  36  37
ENDBRANCH  34  36
ENDBRANCH   4  33
BRANCH  13  41
HETATM   41  O6  UNL     1      -5.057  -1.536   0.951  1.00  0.00    -0.389 OA
HETATM   42  H37 UNL     1      -4.701  -1.820   1.816  1.00  0.00     0.210 HD
ENDBRANCH  13  41
BRANCH  10  43
HETATM   43  C19 UNL     1      -5.901   2.716  -0.766  1.00  0.00    -0.045 A 
HETATM   44  C20 UNL     1      -6.381   3.432  -1.789  1.00  0.00     0.087 A 
HETATM   45  C21 UNL     1      -5.849   4.787  -1.659  1.00  0.00     0.283 A 
HETATM   46  O4  UNL     1      -6.077   5.696  -2.433  1.00  0.00    -0.260 OA
HETATM   47  O5  UNL     1      -5.055   4.855  -0.555  1.00  0.00    -0.314 OA
HETATM   48  C22 UNL     1      -5.062   3.589   0.101  1.00  0.00     0.213 A 
ENDBRANCH  10  43
TORSDOF 12
