REMARK  7 active torsions:
REMARK  status: ('A' for Active; 'I' for Inactive)
REMARK    1  A    between atoms: C19_20  and  O2_21 
REMARK    2  A    between atoms: O2_21  and  C20_22 
REMARK    3  A    between atoms: C20_22  and  C21_24 
REMARK    4  A    between atoms: C21_24  and  C22_25 
REMARK    5  A    between atoms: C22_25  and  C23_26 
REMARK       I    between atoms: C23_26  and  N1_28 
REMARK    6  A    between atoms: N1_28  and  C24_29 
REMARK    7  A    between atoms: C24_29  and  C25_30 
ROOT
HETATM    1  C1  UNL     1      -0.909  -2.133  -0.707  1.00  0.00     0.018 C 
HETATM    2  C2  UNL     1      -1.173  -0.618  -0.660  1.00  0.00    -0.013 C 
HETATM    3  C3  UNL     1      -1.359  -0.184   0.810  1.00  0.00     0.012 C 
HETATM    4  C4  UNL     1      -2.743  -0.522   1.371  1.00  0.00     0.007 C 
HETATM    5  C5  UNL     1      -3.860   0.139   0.539  1.00  0.00     0.002 C 
HETATM    6  C6  UNL     1      -3.771  -0.328  -0.941  1.00  0.00    -0.004 C 
HETATM    7  C7  UNL     1      -4.312  -1.763  -1.162  1.00  0.00     0.010 C 
HETATM    8  C8  UNL     1      -5.308  -2.239  -0.107  1.00  0.00     0.035 C 
HETATM    9  C9  UNL     1      -6.122  -1.081   0.388  1.00  0.00    -0.068 C 
HETATM   10  C10 UNL     1      -7.440  -1.007   0.135  1.00  0.00     0.053 C 
HETATM   11  C11 UNL     1      -8.247   0.164   0.551  1.00  0.00     0.149 C 
HETATM   12  O1  UNL     1      -9.465   0.143   0.385  1.00  0.00    -0.293 OA
HETATM   13  C12 UNL     1      -7.549   1.335   1.198  1.00  0.00     0.084 C 
HETATM   14  C13 UNL     1      -6.061   1.365   0.862  1.00  0.00     0.022 C 
HETATM   15  C14 UNL     1      -5.334   0.009   1.110  1.00  0.00    -0.016 C 
HETATM   16  C15 UNL     1      -5.351  -0.298   2.623  1.00  0.00     0.020 C 
HETATM   17  C16 UNL     1      -2.358  -0.167  -1.549  1.00  0.00     0.001 C 
HETATM   18  C17 UNL     1      -2.040   1.307  -1.887  1.00  0.00     0.008 C 
HETATM   19  C18 UNL     1      -0.538   1.492  -1.694  1.00  0.00     0.034 C 
HETATM   20  C19 UNL     1       0.012   0.110  -1.348  1.00  0.00     0.140 C 
ENDROOT
BRANCH  20  21
HETATM   21  O2  UNL     1       1.144   0.186  -0.476  1.00  0.00    -0.315 OA
BRANCH  21  22
HETATM   22  C20 UNL     1       2.323   0.537  -1.061  1.00  0.00     0.259 C 
HETATM   23  O3  UNL     1       2.477   0.783  -2.249  1.00  0.00    -0.265 OA
BRANCH  22  24
HETATM   24  C21 UNL     1       3.410   0.570  -0.021  1.00  0.00     0.120 C 
BRANCH  24  25
HETATM   25  C22 UNL     1       4.724   1.056  -0.618  1.00  0.00     0.112 C 
BRANCH  25  26
HETATM   26  C23 UNL     1       5.827   1.085   0.416  1.00  0.00     0.218 C 
HETATM   27  O4  UNL     1       5.676   0.720   1.576  1.00  0.00    -0.274 OA
HETATM   28  N1  UNL     1       7.017   1.563  -0.085  1.00  0.00    -0.357 N 
HETATM   29  H32 UNL     1       7.105   1.699  -1.084  1.00  0.00     0.162 HD
BRANCH  28  30
HETATM   30  C24 UNL     1       8.228   1.582   0.707  1.00  0.00     0.162 C 
BRANCH  30  31
HETATM   31  C25 UNL     1       9.096   0.399   0.395  1.00  0.00    -0.025 A 
HETATM   32  C26 UNL     1       8.799  -0.874   0.892  1.00  0.00     0.011 A 
HETATM   33  C27 UNL     1       9.618  -1.951   0.568  1.00  0.00     0.018 A 
HETATM   34  C28 UNL     1      10.711  -1.720  -0.249  1.00  0.00     0.087 A 
HETATM   35  N2  UNL     1      11.030  -0.508  -0.752  1.00  0.00    -0.375 N 
HETATM   36  C29 UNL     1      10.217   0.520  -0.419  1.00  0.00     0.096 A 
ATOM     37  H2  UNL     1      11.843  -0.375  -1.353  1.00  0.00     0.164 HD
ENDBRANCH  30  31
ENDBRANCH  28  30
ENDBRANCH  25  26
ENDBRANCH  24  25
ENDBRANCH  22  24
ENDBRANCH  21  22
ENDBRANCH  20  21
TORSDOF 7
