REMARK  8 active torsions:
REMARK  status: ('A' for Active; 'I' for Inactive)
REMARK    1  A    between atoms: C4_4  and  C5_5 
REMARK    2  A    between atoms: C5_5  and  C6_6 
REMARK    3  A    between atoms: C6_6  and  C7_7 
REMARK    4  A    between atoms: C7_7  and  C9_9 
REMARK    5  A    between atoms: C21_21  and  C22_22 
REMARK    6  A    between atoms: C22_22  and  C23_23 
REMARK    7  A    between atoms: C23_23  and  C24_24 
REMARK    8  A    between atoms: C24_24  and  O1_25 
ROOT
HETATM    1  C9  UNL     1       2.151   0.540  -0.206  1.00  0.00    -0.002 C 
HETATM    2  C10 UNL     1       2.173   1.808   0.697  1.00  0.00     0.006 C 
HETATM    3  C11 UNL     1       0.699   2.276   0.844  1.00  0.00     0.011 C 
HETATM    4  C12 UNL     1      -0.078   1.455  -0.209  1.00  0.00    -0.032 C 
HETATM    5  C13 UNL     1       0.148   2.213  -1.559  1.00  0.00     0.016 C 
HETATM    6  C14 UNL     1      -1.587   1.223   0.078  1.00  0.00     0.003 C 
HETATM    7  C15 UNL     1      -2.438   2.503   0.235  1.00  0.00     0.010 C 
HETATM    8  C16 UNL     1      -3.939   2.205   0.335  1.00  0.00     0.035 C 
HETATM    9  C17 UNL     1      -4.188   0.807   0.853  1.00  0.00    -0.073 C 
HETATM   10  C18 UNL     1      -4.774   0.541   2.051  1.00  0.00    -0.085 C 
HETATM   11  C19 UNL     1      -5.065  -0.852   2.566  1.00  0.00     0.043 C 
HETATM   12  C20 UNL     1      -5.217   1.596   3.039  1.00  0.00     0.043 C 
HETATM   13  C21 UNL     1      -3.637  -0.294  -0.092  1.00  0.00     0.023 C 
HETATM   14  C25 UNL     1      -2.291   0.152  -0.858  1.00  0.00    -0.032 C 
HETATM   15  C26 UNL     1      -2.609   0.721  -2.266  1.00  0.00     0.016 C 
HETATM   16  C27 UNL     1      -1.370  -1.108  -1.083  1.00  0.00     0.011 C 
HETATM   17  C28 UNL     1       0.151  -0.857  -1.207  1.00  0.00     0.011 C 
HETATM   18  C29 UNL     1       0.670   0.070  -0.098  1.00  0.00    -0.032 C 
HETATM   19  C30 UNL     1       0.462  -0.676   1.258  1.00  0.00     0.016 C 
ENDROOT
BRANCH   1  20
HETATM   20  C7  UNL     1       3.292  -0.501   0.018  1.00  0.00    -0.014 C 
HETATM   21  C8  UNL     1       3.730  -0.674   1.477  1.00  0.00     0.010 C 
BRANCH  20  22
HETATM   22  C6  UNL     1       4.511  -0.113  -0.870  1.00  0.00     0.008 C 
BRANCH  22  23
HETATM   23  C5  UNL     1       5.590  -1.192  -1.045  1.00  0.00     0.028 C 
BRANCH  23  24
HETATM   24  C4  UNL     1       6.539  -1.348   0.110  1.00  0.00    -0.025 C 
HETATM   25  C2  UNL     1       7.639  -0.612   0.366  1.00  0.00    -0.091 C 
HETATM   26  C1  UNL     1       8.499  -0.907   1.566  1.00  0.00     0.042 C 
HETATM   27  C3  UNL     1       8.111   0.545  -0.469  1.00  0.00     0.042 C 
ENDBRANCH  23  24
ENDBRANCH  22  23
ENDBRANCH  20  22
ENDBRANCH   1  20
BRANCH  13  28
HETATM   28  C22 UNL     1      -4.806  -0.834  -0.956  1.00  0.00     0.012 C 
BRANCH  28  29
HETATM   29  C23 UNL     1      -4.535  -2.197  -1.604  1.00  0.00     0.027 C 
BRANCH  29  30
HETATM   30  C24 UNL     1      -5.781  -2.775  -2.267  1.00  0.00     0.164 C 
BRANCH  30  31
HETATM   31  O1  UNL     1      -6.752  -3.091  -1.281  1.00  0.00    -0.401 OA
HETATM   32  H42 UNL     1      -7.526  -3.450  -1.746  1.00  0.00     0.209 HD
ENDBRANCH  30  31
ENDBRANCH  29  30
ENDBRANCH  28  29
ENDBRANCH  13  28
TORSDOF 8
