REMARK  13 active torsions:
REMARK  status: ('A' for Active; 'I' for Inactive)
REMARK    1  A    between atoms: C2_2  and  C3_3 
REMARK    2  A    between atoms: C2_2  and  C11_12 
REMARK    3  A    between atoms: C3_3  and  C4_4 
REMARK    4  A    between atoms: C4_4  and  C5_5 
REMARK    5  A    between atoms: C5_5  and  O1_7 
REMARK    6  A    between atoms: C5_5  and  C7_8 
REMARK    7  A    between atoms: C28_32  and  O5_33 
REMARK    8  A    between atoms: O5_33  and  C29_34 
REMARK    9  A    between atoms: C30_36  and  C31_37 
REMARK   10  A    between atoms: C31_37  and  O7_38 
REMARK   11  A    between atoms: C32_39  and  O8_40 
REMARK   12  A    between atoms: C33_41  and  O9_42 
REMARK   13  A    between atoms: C34_43  and  O10_44 
ROOT
HETATM    1  C11 UNL     1      -3.819  -2.609  -1.144  1.00  0.00    -0.001 C 
HETATM    2  C12 UNL     1      -3.440  -3.445  -2.397  1.00  0.00     0.007 C 
HETATM    3  C13 UNL     1      -1.990  -3.080  -2.768  1.00  0.00     0.024 C 
HETATM    4  C14 UNL     1      -1.524  -2.143  -1.670  1.00  0.00     0.092 C 
HETATM    5  C15 UNL     1      -0.835  -2.908  -0.495  1.00  0.00     0.272 C 
HETATM    6  O2  UNL     1      -1.057  -4.042  -0.112  1.00  0.00    -0.264 OA
HETATM    7  O3  UNL     1       0.098  -2.067   0.093  1.00  0.00    -0.305 OA
HETATM    8  C16 UNL     1       0.024  -0.779  -0.550  1.00  0.00     0.113 C 
HETATM    9  C17 UNL     1      -1.161  -0.018   0.155  1.00  0.00     0.043 C 
HETATM   10  C18 UNL     1      -2.507  -0.761   0.171  1.00  0.00     0.014 C 
HETATM   11  C19 UNL     1      -2.818  -1.415  -1.193  1.00  0.00    -0.020 C 
HETATM   12  C20 UNL     1      -3.243  -0.335  -2.210  1.00  0.00     0.017 C 
HETATM   13  C21 UNL     1      -0.415  -1.173  -1.945  1.00  0.00     0.137 A 
HETATM   14  O4  UNL     1       0.527  -1.943  -2.754  1.00  0.00    -0.364 OA
HETATM   15  C22 UNL     1       0.305  -0.619  -3.170  1.00  0.00     0.162 A 
HETATM   16  C23 UNL     1       1.585   0.159  -3.031  1.00  0.00     0.041 C 
HETATM   17  C24 UNL     1       2.327  -0.235  -1.719  1.00  0.00     0.009 C 
HETATM   18  C25 UNL     1       3.826   0.255  -1.656  1.00  0.00    -0.017 C 
HETATM   19  C26 UNL     1       4.681  -0.571  -2.672  1.00  0.00     0.018 C 
HETATM   20  C27 UNL     1       4.020   1.723  -2.091  1.00  0.00     0.018 C 
HETATM   21  C28 UNL     1       4.444  -0.054  -0.243  1.00  0.00     0.133 C 
HETATM   22  C35 UNL     1       3.534   0.309   0.927  1.00  0.00     0.034 C 
HETATM   23  C36 UNL     1       2.168  -0.346   0.804  1.00  0.00     0.015 C 
HETATM   24  C37 UNL     1       1.397   0.063  -0.471  1.00  0.00    -0.004 C 
HETATM   25  C38 UNL     1       1.079   1.585  -0.357  1.00  0.00     0.019 C 
ENDROOT
BRANCH  21  26
HETATM   26  O5  UNL     1       5.702   0.621  -0.110  1.00  0.00    -0.352 OA
BRANCH  26  27
HETATM   27  C29 UNL     1       6.694  -0.104   0.629  1.00  0.00     0.292 C 
HETATM   28  O6  UNL     1       6.513  -0.011   2.045  1.00  0.00    -0.348 OA
HETATM   29  C30 UNL     1       7.218   1.053   2.715  1.00  0.00     0.179 C 
HETATM   30  C32 UNL     1       8.734   1.068   2.423  1.00  0.00     0.180 C 
HETATM   31  C33 UNL     1       9.102   0.161   1.247  1.00  0.00     0.183 C 
HETATM   32  C34 UNL     1       8.083   0.360   0.135  1.00  0.00     0.204 C 
BRANCH  29  33
HETATM   33  C31 UNL     1       6.500   2.399   2.506  1.00  0.00     0.198 C 
BRANCH  33  34
HETATM   34  O7  UNL     1       5.182   2.342   3.064  1.00  0.00    -0.398 OA
HETATM   35  H49 UNL     1       4.898   1.412   3.004  1.00  0.00     0.209 HD
ENDBRANCH  33  34
ENDBRANCH  29  33
BRANCH  30  36
HETATM   36  O8  UNL     1       9.204   2.394   2.146  1.00  0.00    -0.390 OA
HETATM   37  H51 UNL     1      10.069   2.262   1.708  1.00  0.00     0.210 HD
ENDBRANCH  30  36
BRANCH  31  38
HETATM   38  O9  UNL     1      10.408   0.523   0.772  1.00  0.00    -0.390 OA
HETATM   39  H53 UNL     1      10.472   0.070  -0.100  1.00  0.00     0.210 HD
ENDBRANCH  31  38
BRANCH  32  40
HETATM   40  O10 UNL     1       8.512  -0.380  -1.025  1.00  0.00    -0.388 OA
HETATM   41  H55 UNL     1       7.864  -0.180  -1.730  1.00  0.00     0.210 HD
ENDBRANCH  32  40
ENDBRANCH  26  27
ENDBRANCH  21  26
BRANCH   1  42
HETATM   42  C2  UNL     1      -5.356  -2.441  -0.953  1.00  0.00    -0.014 C 
HETATM   43  C1  UNL     1      -6.167  -1.893  -2.133  1.00  0.00     0.010 C 
BRANCH  42  44
HETATM   44  C3  UNL     1      -5.753  -1.788   0.405  1.00  0.00     0.007 C 
BRANCH  44  45
HETATM   45  C4  UNL     1      -6.139  -0.297   0.363  1.00  0.00     0.038 C 
BRANCH  45  46
HETATM   46  C5  UNL     1      -6.453   0.371   1.737  1.00  0.00     0.061 C 
HETATM   47  C6  UNL     1      -7.807  -0.162   2.249  1.00  0.00     0.046 C 
BRANCH  46  48
HETATM   48  O1  UNL     1      -5.451  -0.055   2.667  1.00  0.00    -0.389 OA
HETATM   49  H12 UNL     1      -5.759   0.167   3.565  1.00  0.00     0.210 HD
ENDBRANCH  46  48
BRANCH  46  50
HETATM   50  C7  UNL     1      -6.408   1.960   1.655  1.00  0.00    -0.021 C 
HETATM   51  C8  UNL     1      -4.964   2.478   1.435  1.00  0.00     0.017 C 
HETATM   52  C9  UNL     1      -6.904   2.615   2.969  1.00  0.00     0.017 C 
HETATM   53  C10 UNL     1      -7.279   2.504   0.505  1.00  0.00     0.017 C 
ENDBRANCH  46  50
ENDBRANCH  45  46
ENDBRANCH  44  45
ENDBRANCH  42  44
ENDBRANCH   1  42
TORSDOF 13
