REMARK  6 active torsions:
REMARK  status: ('A' for Active; 'I' for Inactive)
REMARK    1  A    between atoms: C2_2  and  C30_31 
REMARK    2  A    between atoms: C3_3  and  C4_4 
REMARK    3  A    between atoms: C4_4  and  C5_5 
REMARK    4  A    between atoms: C5_5  and  C6_6 
REMARK    5  A    between atoms: C6_6  and  C8_8 
REMARK    6  A    between atoms: C30_31  and  O3_33 
ROOT
HETATM    1  C8  UNL     1       2.299   0.544   0.349  1.00  0.00    -0.002 C 
HETATM    2  C9  UNL     1       2.572  -0.914  -0.109  1.00  0.00     0.007 C 
HETATM    3  C10 UNL     1       1.197  -1.615  -0.222  1.00  0.00     0.015 C 
HETATM    4  C11 UNL     1       0.191  -0.635   0.422  1.00  0.00    -0.013 C 
HETATM    5  C12 UNL     1       0.237  -0.916   1.960  1.00  0.00     0.021 C 
HETATM    6  C13 UNL     1      -1.279  -0.727   0.030  1.00  0.00    -0.070 C 
HETATM    7  C14 UNL     1      -1.870  -1.901  -0.260  1.00  0.00    -0.022 C 
HETATM    8  C15 UNL     1      -3.338  -2.072  -0.516  1.00  0.00     0.034 C 
HETATM    9  C16 UNL     1      -4.114  -0.746  -0.677  1.00  0.00     0.013 C 
HETATM   10  C17 UNL     1      -5.679  -0.894  -0.816  1.00  0.00     0.018 C 
HETATM   11  C18 UNL     1      -6.096  -0.557  -2.265  1.00  0.00     0.023 C 
HETATM   12  C19 UNL     1      -6.189  -2.320  -0.513  1.00  0.00     0.023 C 
HETATM   13  C20 UNL     1      -6.454   0.081   0.084  1.00  0.00     0.135 C 
HETATM   14  O1  UNL     1      -7.549  -0.217   0.572  1.00  0.00    -0.297 OA
HETATM   15  C21 UNL     1      -5.922   1.477   0.294  1.00  0.00     0.080 C 
HETATM   16  C22 UNL     1      -4.424   1.618   0.087  1.00  0.00     0.017 C 
HETATM   17  C23 UNL     1      -3.622   0.325   0.359  1.00  0.00    -0.031 C 
HETATM   18  C24 UNL     1      -3.828  -0.134   1.823  1.00  0.00     0.016 C 
HETATM   19  C25 UNL     1      -2.087   0.577   0.065  1.00  0.00     0.024 C 
HETATM   20  C26 UNL     1      -1.429   1.673   0.942  1.00  0.00     0.010 C 
HETATM   21  C27 UNL     1       0.090   1.886   0.731  1.00  0.00     0.011 C 
HETATM   22  C28 UNL     1       0.794   0.741  -0.022  1.00  0.00    -0.029 C 
HETATM   23  C29 UNL     1       0.684   1.009  -1.556  1.00  0.00     0.016 C 
ENDROOT
BRANCH   1  24
HETATM   24  C6  UNL     1       3.296   1.652  -0.104  1.00  0.00    -0.014 C 
HETATM   25  C7  UNL     1       4.021   1.404  -1.429  1.00  0.00     0.010 C 
BRANCH  24  26
HETATM   26  C5  UNL     1       4.296   2.029   1.026  1.00  0.00     0.008 C 
BRANCH  26  27
HETATM   27  C4  UNL     1       5.259   0.939   1.522  1.00  0.00     0.028 C 
BRANCH  27  28
HETATM   28  C3  UNL     1       6.464   0.762   0.638  1.00  0.00    -0.013 C 
HETATM   29  C2  UNL     1       6.946  -0.372   0.093  1.00  0.00     0.008 C 
HETATM   30  C1  UNL     1       8.150  -0.372  -0.804  1.00  0.00     0.055 C 
BRANCH  29  31
HETATM   31  C30 UNL     1       6.335  -1.693   0.364  1.00  0.00     0.171 C 
HETATM   32  O2  UNL     1       5.880  -2.093   1.419  1.00  0.00    -0.646 OA
BRANCH  31  33
HETATM   33  O3  UNL     1       6.338  -2.465  -0.737  1.00  0.00    -0.773 OA
HETATM   34  H46 UNL     1       5.912  -3.295  -0.437  1.00  0.00     0.167 HD
ENDBRANCH  31  33
ENDBRANCH  29  31
ENDBRANCH  27  28
ENDBRANCH  26  27
ENDBRANCH  24  26
ENDBRANCH   1  24
TORSDOF 6
