REMARK  10 active torsions:
REMARK  status: ('A' for Active; 'I' for Inactive)
REMARK    1  A    between atoms: N1_6  and  O1_8 
REMARK    2  A    between atoms: O1_8  and  C6_9 
REMARK    3  A    between atoms: C6_9  and  C7_10 
REMARK       I    between atoms: C7_10  and  N2_12 
REMARK    4  A    between atoms: N2_12  and  C8_13 
REMARK    5  A    between atoms: C8_13  and  C9_14 
REMARK    6  A    between atoms: C20_27  and  O3_28 
REMARK    7  A    between atoms: C27_35  and  O4_36 
REMARK    8  A    between atoms: C27_35  and  C28_37 
REMARK    9  A    between atoms: C28_37  and  C29_39 
REMARK   10  A    between atoms: C29_39  and  O6_40 
ROOT
HETATM    1  C1  UNL     1      -1.246  -2.214   2.392  1.00  0.00     0.020 C 
HETATM    2  C2  UNL     1      -0.896  -1.673   0.982  1.00  0.00    -0.014 C 
HETATM    3  C3  UNL     1      -0.187  -2.798   0.170  1.00  0.00     0.020 C 
HETATM    4  C4  UNL     1       1.201  -3.144   0.684  1.00  0.00     0.060 C 
HETATM    5  C5  UNL     1       2.079  -1.911   0.729  1.00  0.00     0.032 C 
HETATM    6  N1  UNL     1       3.348  -2.086   0.517  1.00  0.00    -0.271 N 
ATOM      7  H1  UNL     1       3.769  -2.985   0.284  1.00  0.00     0.194 HD
HETATM    8  C14 UNL     1       1.418  -0.617   1.068  1.00  0.00     0.030 C 
HETATM    9  C15 UNL     1       0.083  -0.515   1.219  1.00  0.00    -0.069 C 
HETATM   10  C16 UNL     1      -0.496   0.803   1.689  1.00  0.00     0.035 C 
HETATM   11  C17 UNL     1      -1.952   1.022   1.281  1.00  0.00     0.010 C 
HETATM   12  C18 UNL     1      -2.250   0.329  -0.051  1.00  0.00    -0.002 C 
HETATM   13  C19 UNL     1      -2.172  -1.212   0.129  1.00  0.00     0.031 C 
HETATM   14  C20 UNL     1      -3.510  -1.823   0.608  1.00  0.00     0.124 C 
HETATM   15  C21 UNL     1      -4.709  -1.358  -0.220  1.00  0.00     0.045 C 
HETATM   16  C22 UNL     1      -4.873   0.181  -0.278  1.00  0.00     0.001 C 
HETATM   17  C23 UNL     1      -5.365   0.680   1.091  1.00  0.00     0.019 C 
HETATM   18  C24 UNL     1      -3.547   0.839  -0.715  1.00  0.00     0.002 C 
HETATM   19  C25 UNL     1      -3.521   0.636  -2.247  1.00  0.00     0.009 C 
HETATM   20  C26 UNL     1      -4.972   0.460  -2.702  1.00  0.00     0.047 C 
HETATM   21  C27 UNL     1      -5.840   0.598  -1.437  1.00  0.00     0.128 C 
ENDROOT
BRANCH   6  22
HETATM   22  O1  UNL     1       4.072  -0.889   0.646  1.00  0.00    -0.271 OA
BRANCH  22  23
HETATM   23  C6  UNL     1       5.440  -1.155   0.389  1.00  0.00     0.303 C 
BRANCH  23  24
HETATM   24  C7  UNL     1       6.325   0.034   0.766  1.00  0.00     0.244 C 
HETATM   25  O2  UNL     1       5.896   1.120   1.143  1.00  0.00    -0.271 OA
HETATM   26  N2  UNL     1       7.677  -0.237   0.648  1.00  0.00    -0.355 N 
HETATM   27  H10 UNL     1       7.966  -1.088   0.185  1.00  0.00     0.162 HD
BRANCH  26  28
HETATM   28  C8  UNL     1       8.681   0.774   0.889  1.00  0.00     0.161 C 
BRANCH  28  29
HETATM   29  C9  UNL     1       9.090   1.443  -0.395  1.00  0.00    -0.038 A 
HETATM   30  C10 UNL     1       8.342   2.507  -0.908  1.00  0.00     0.025 A 
HETATM   31  C11 UNL     1       8.737   3.084  -2.104  1.00  0.00     0.088 A 
HETATM   32  N3  UNL     1       9.808   2.675  -2.817  1.00  0.00    -0.375 N 
HETATM   33  C12 UNL     1      10.511   1.640  -2.310  1.00  0.00     0.088 A 
ATOM     34  H3  UNL     1      10.072   3.125  -3.693  1.00  0.00     0.164 HD
HETATM   35  C13 UNL     1      10.198   0.998  -1.122  1.00  0.00     0.025 A 
ENDBRANCH  28  29
ENDBRANCH  26  28
ENDBRANCH  23  24
ENDBRANCH  22  23
ENDBRANCH   6  22
BRANCH  14  36
HETATM   36  O3  UNL     1      -3.439  -3.246   0.489  1.00  0.00    -0.395 OA
HETATM   37  H25 UNL     1      -4.264  -3.612   0.855  1.00  0.00     0.210 HD
ENDBRANCH  14  36
BRANCH  21  38
HETATM   38  O4  UNL     1      -6.947  -0.297  -1.518  1.00  0.00    -0.381 OA
HETATM   39  H36 UNL     1      -7.290  -0.281  -2.431  1.00  0.00     0.211 HD
ENDBRANCH  21  38
BRANCH  21  40
HETATM   40  C28 UNL     1      -6.360   2.058  -1.327  1.00  0.00     0.184 C 
HETATM   41  O5  UNL     1      -5.701   3.034  -1.704  1.00  0.00    -0.292 OA
BRANCH  40  42
HETATM   42  C29 UNL     1      -7.751   2.270  -0.733  1.00  0.00     0.245 C 
BRANCH  42  43
HETATM   43  O6  UNL     1      -8.007   3.648  -0.489  1.00  0.00    -0.393 OA
HETATM   44  H39 UNL     1      -7.393   4.147  -1.065  1.00  0.00     0.209 HD
ENDBRANCH  42  43
ENDBRANCH  40  42
ENDBRANCH  21  40
TORSDOF 10
