REMARK  10 active torsions:
REMARK  status: ('A' for Active; 'I' for Inactive)
REMARK    1  A    between atoms: C2_2  and  C3_3 
REMARK    2  A    between atoms: C4_4  and  C18_19 
REMARK    3  A    between atoms: C19_20  and  O1_21 
REMARK    4  A    between atoms: N2_22  and  C20_23 
REMARK    5  A    between atoms: C20_23  and  C21_24 
REMARK    6  A    between atoms: C21_24  and  O3_26 
REMARK    7  A    between atoms: O3_26  and  C22_27 
REMARK    8  A    between atoms: C36_41  and  C37_42 
REMARK    9  A    between atoms: C43_50  and  O6_51 
REMARK   10  A    between atoms: C45_53  and  O7_54 
ROOT
HETATM    1  C21 UNL     1      -1.844   1.172   0.680  1.00  0.00     0.222 C 
HETATM    2  O2  UNL     1      -1.540   2.149   1.359  1.00  0.00    -0.287 OA
ENDROOT
BRANCH   1   3
HETATM    3  C20 UNL     1      -3.114   1.106  -0.166  1.00  0.00     0.328 C 
BRANCH   3   4
HETATM    4  N2  UNL     1      -4.506   1.334   0.553  1.00  0.00    -0.023 N 
HETATM    5  C6  UNL     1      -5.019  -0.017   1.193  1.00  0.00     0.214 C 
HETATM    6  C5  UNL     1      -6.115   0.369   2.212  1.00  0.00     0.041 C 
HETATM    7  C7  UNL     1      -5.646  -0.988   0.135  1.00  0.00     0.109 C 
HETATM    8  C4  UNL     1      -6.765   1.699   1.786  1.00  0.00     0.004 C 
HETATM    9  C3  UNL     1      -5.761   2.800   2.205  1.00  0.00     0.047 C 
HETATM   10  C45 UNL     1      -4.356   2.403   1.660  1.00  0.00     0.329 C 
HETATM   11  N1  UNL     1      -4.685  -1.840  -0.627  1.00  0.00    -0.279 NA
HETATM   12  C15 UNL     1      -6.469  -0.256  -0.963  1.00  0.00     0.035 C 
HETATM   13  C8  UNL     1      -4.062  -2.957   0.089  1.00  0.00     0.117 C 
HETATM   14  C9  UNL     1      -5.529  -2.260  -1.718  1.00  0.00     0.018 A 
HETATM   15  C10 UNL     1      -5.376  -3.363  -2.541  1.00  0.00     0.024 A 
HETATM   16  C14 UNL     1      -6.612  -1.380  -1.924  1.00  0.00    -0.024 A 
HETATM   17  C11 UNL     1      -6.331  -3.595  -3.537  1.00  0.00     0.002 A 
HETATM   18  C12 UNL     1      -7.417  -2.723  -3.717  1.00  0.00     0.001 A 
HETATM   19  C13 UNL     1      -7.559  -1.595  -2.910  1.00  0.00     0.010 A 
HETATM   20  C16 UNL     1      -5.685   0.882  -1.615  1.00  0.00     0.053 C 
HETATM   21  C19 UNL     1      -7.656   0.515  -0.396  1.00  0.00     0.139 C 
HETATM   22  C17 UNL     1      -5.572   1.836  -0.448  1.00  0.00     0.202 C 
HETATM   23  C18 UNL     1      -6.964   1.751   0.254  1.00  0.00     0.051 C 
BRANCH   9  24
HETATM   24  C2  UNL     1      -6.149   4.237   1.802  1.00  0.00     0.005 C 
HETATM   25  C1  UNL     1      -7.528   4.654   2.295  1.00  0.00     0.005 C 
ENDBRANCH   9  24
BRANCH  10  26
HETATM   26  O7  UNL     1      -3.615   1.913   2.757  1.00  0.00    -0.369 OA
HETATM   27  H61 UNL     1      -2.740   2.361   2.732  1.00  0.00     0.212 HD
ENDBRANCH  10  26
BRANCH  21  28
HETATM   28  O1  UNL     1      -8.432  -0.216   0.525  1.00  0.00    -0.394 OA
HETATM   29  H24 UNL     1      -8.960  -0.872   0.026  1.00  0.00     0.210 HD
ENDBRANCH  21  28
ENDBRANCH   3   4
ENDBRANCH   1   3
BRANCH   1  30
HETATM   30  O3  UNL     1      -1.103   0.040   0.558  1.00  0.00     0.000 OA
HETATM   31 BR1  UNL     1       0.000   0.000   0.000  1.00  0.00    -0.148 Br
BRANCH  30  32
HETATM   32  C22 UNL     1       0.130  -0.003   1.318  1.00  0.00    -0.010 C 
HETATM   33  C23 UNL     1       0.561  -1.468   1.422  1.00  0.00     0.006 C 
HETATM   34  C24 UNL     1       2.082  -1.624   1.387  1.00  0.00     0.010 C 
HETATM   35  C25 UNL     1       2.703  -1.141   0.042  1.00  0.00    -0.035 C 
HETATM   36  C26 UNL     1       2.470  -2.261  -1.008  1.00  0.00     0.016 C 
HETATM   37  C27 UNL     1       1.986   0.171  -0.451  1.00  0.00     0.138 C 
HETATM   38  C31 UNL     1       4.237  -0.856   0.217  1.00  0.00     0.001 C 
HETATM   39  C28 UNL     1       2.945   1.211  -1.070  1.00  0.00     0.007 C 
HETATM   40  C44 UNL     1       1.206   0.880   0.675  1.00  0.00     0.011 C 
HETATM   41  C29 UNL     1       4.055   0.597  -1.902  1.00  0.00     0.008 C 
HETATM   42  C30 UNL     1       4.905  -0.420  -1.113  1.00  0.00     0.025 C 
HETATM   43  C43 UNL     1       6.379   0.030  -0.922  1.00  0.00     0.070 C 
HETATM   44  C34 UNL     1       7.255  -1.001  -0.146  1.00  0.00    -0.005 C 
HETATM   45  C42 UNL     1       6.548   1.348  -0.142  1.00  0.00     0.040 C 
HETATM   46  C33 UNL     1       6.497  -1.534   1.109  1.00  0.00     0.013 C 
HETATM   47  C35 UNL     1       7.669  -2.214  -1.001  1.00  0.00     0.019 C 
HETATM   48  C36 UNL     1       8.478  -0.137   0.327  1.00  0.00     0.028 C 
HETATM   49  C32 UNL     1       5.065  -1.999   0.828  1.00  0.00     0.007 C 
HETATM   50  C41 UNL     1       7.838   1.223   0.678  1.00  0.00     0.013 C 
BRANCH  43  51
HETATM   51  O6  UNL     1       6.932   0.268  -2.225  1.00  0.00    -0.389 OA
HETATM   52  H57 UNL     1       6.756  -0.506  -2.789  1.00  0.00     0.210 HD
ENDBRANCH  43  51
BRANCH  48  53
HETATM   53  C37 UNL     1       9.642   0.000  -0.625  1.00  0.00    -0.045 A 
HETATM   54  C38 UNL     1       9.839   0.896  -1.595  1.00  0.00     0.087 A 
HETATM   55  C39 UNL     1      11.123   0.587  -2.219  1.00  0.00     0.283 A 
HETATM   56  O4  UNL     1      11.589   1.168  -3.180  1.00  0.00    -0.260 OA
HETATM   57  O5  UNL     1      11.697  -0.456  -1.563  1.00  0.00    -0.314 OA
HETATM   58  C40 UNL     1      10.825  -0.888  -0.520  1.00  0.00     0.213 A 
ENDBRANCH  48  53
ENDBRANCH  30  32
ENDBRANCH   1  30
TORSDOF 10
