REMARK  7 active torsions:
REMARK  status: ('A' for Active; 'I' for Inactive)
REMARK    1  A    between atoms: C3_3  and  C5_5 
REMARK    2  A    between atoms: C6_6  and  C7_7 
REMARK    3  A    between atoms: C8_8  and  C9_9 
REMARK    4  A    between atoms: C10_10  and  C12_12 
REMARK    5  A    between atoms: C12_12  and  C13_14 
REMARK    6  A    between atoms: C13_14  and  C15_16 
REMARK    7  A    between atoms: C15_16  and  O2_17 
ROOT
HETATM    1  C5  UNL     1      -1.791  -1.781  -0.482  1.00  0.00     0.058 C 
HETATM    2  C6  UNL     1      -1.074  -0.767   0.486  1.00  0.00     0.024 C 
HETATM    3  C16 UNL     1      -1.876   0.556   0.633  1.00  0.00     0.003 C 
HETATM    4  C17 UNL     1      -1.141   1.613   1.489  1.00  0.00     0.041 C 
HETATM    5  C18 UNL     1      -1.972   2.843   1.701  1.00  0.00     0.157 A 
HETATM    6  O3  UNL     1      -2.869   2.751   2.823  1.00  0.00    -0.370 OA
HETATM    7  C19 UNL     1      -3.474   2.819   1.527  1.00  0.00     0.084 A 
HETATM    8  C20 UNL     1      -4.208   4.098   1.279  1.00  0.00     0.049 C 
HETATM    9  C21 UNL     1      -4.153   1.550   1.091  1.00  0.00     0.048 C 
HETATM   10  C22 UNL     1      -3.271   0.299   1.260  1.00  0.00     0.025 C 
HETATM   11  C23 UNL     1      -3.966  -0.919   0.708  1.00  0.00     0.162 A 
HETATM   12  O4  UNL     1      -3.477  -2.134   1.312  1.00  0.00    -0.368 OA
HETATM   13  C24 UNL     1      -3.253  -1.985  -0.097  1.00  0.00     0.092 A 
HETATM   14  C25 UNL     1      -4.056  -2.973  -0.894  1.00  0.00     0.049 C 
ENDROOT
BRANCH   2  15
HETATM   15  C7  UNL     1       0.369  -0.522   0.080  1.00  0.00    -0.021 C 
HETATM   16  C8  UNL     1       1.426  -0.964   0.781  1.00  0.00    -0.003 C 
BRANCH  16  17
HETATM   17  C9  UNL     1       2.791  -0.715   0.367  1.00  0.00     0.010 C 
HETATM   18  C10 UNL     1       3.905  -1.101   1.016  1.00  0.00    -0.016 C 
HETATM   19  C11 UNL     1       3.975  -1.889   2.295  1.00  0.00     0.052 C 
BRANCH  18  20
HETATM   20  C12 UNL     1       5.262  -0.780   0.439  1.00  0.00     0.161 C 
HETATM   21  O1  UNL     1       6.164  -1.608   0.594  1.00  0.00    -0.292 OA
BRANCH  20  22
HETATM   22  C13 UNL     1       5.482   0.523  -0.343  1.00  0.00     0.080 C 
HETATM   23  C14 UNL     1       5.052   1.751   0.462  1.00  0.00     0.020 C 
BRANCH  22  24
HETATM   24  C15 UNL     1       6.950   0.640  -0.777  1.00  0.00     0.176 C 
BRANCH  24  25
HETATM   25  O2  UNL     1       7.774   1.072   0.300  1.00  0.00    -0.400 OA
HETATM   26  H22 UNL     1       8.616   0.586   0.229  1.00  0.00     0.209 HD
ENDBRANCH  24  25
ENDBRANCH  22  24
ENDBRANCH  20  22
ENDBRANCH  18  20
ENDBRANCH  16  17
ENDBRANCH   2  15
BRANCH   1  27
HETATM   27  C3  UNL     1      -1.586  -1.484  -1.987  1.00  0.00    -0.080 C 
HETATM   28  C2  UNL     1      -2.321  -0.565  -2.649  1.00  0.00    -0.028 C 
HETATM   29  C1  UNL     1      -2.240  -0.177  -4.093  1.00  0.00     0.036 C 
HETATM   30  C4  UNL     1      -0.555  -2.368  -2.648  1.00  0.00     0.043 C 
ENDBRANCH   1  27
TORSDOF 7
