REMARK  6 active torsions:
REMARK  status: ('A' for Active; 'I' for Inactive)
REMARK    1  A    between atoms: C2_2  and  C30_31 
REMARK    2  A    between atoms: C3_3  and  C4_4 
REMARK    3  A    between atoms: C4_4  and  C5_5 
REMARK    4  A    between atoms: C5_5  and  C6_6 
REMARK    5  A    between atoms: C6_6  and  C8_8 
REMARK    6  A    between atoms: C30_31  and  O3_33 
ROOT
HETATM    1  C8  UNL     1       2.083   0.252  -0.107  1.00  0.00    -0.002 C 
HETATM    2  C9  UNL     1       2.054   1.521  -1.020  1.00  0.00     0.007 C 
HETATM    3  C10 UNL     1       0.575   1.848  -1.318  1.00  0.00     0.015 C 
HETATM    4  C11 UNL     1      -0.212   1.025  -0.286  1.00  0.00    -0.013 C 
HETATM    5  C12 UNL     1      -0.166   1.837   1.055  1.00  0.00     0.021 C 
HETATM    6  C13 UNL     1      -1.701   0.756  -0.534  1.00  0.00    -0.070 C 
HETATM    7  C14 UNL     1      -2.523   1.751  -0.918  1.00  0.00    -0.022 C 
HETATM    8  C15 UNL     1      -4.014   1.683  -0.808  1.00  0.00     0.034 C 
HETATM    9  C16 UNL     1      -4.449   0.644   0.250  1.00  0.00     0.013 C 
HETATM   10  C17 UNL     1      -5.985   0.692   0.580  1.00  0.00     0.018 C 
HETATM   11  C18 UNL     1      -6.927   0.691  -0.635  1.00  0.00     0.023 C 
HETATM   12  C19 UNL     1      -6.282   1.987   1.379  1.00  0.00     0.023 C 
HETATM   13  C20 UNL     1      -6.374  -0.502   1.467  1.00  0.00     0.135 C 
HETATM   14  O1  UNL     1      -7.197  -0.404   2.379  1.00  0.00    -0.297 OA
HETATM   15  C21 UNL     1      -5.805  -1.854   1.114  1.00  0.00     0.080 C 
HETATM   16  C22 UNL     1      -4.294  -1.773   0.983  1.00  0.00     0.017 C 
HETATM   17  C23 UNL     1      -3.821  -0.755  -0.080  1.00  0.00    -0.031 C 
HETATM   18  C24 UNL     1      -4.246  -1.278  -1.483  1.00  0.00     0.016 C 
HETATM   19  C25 UNL     1      -2.227  -0.633  -0.128  1.00  0.00     0.024 C 
HETATM   20  C26 UNL     1      -1.439  -1.164   1.089  1.00  0.00     0.010 C 
HETATM   21  C27 UNL     1       0.103  -1.183   0.895  1.00  0.00     0.011 C 
HETATM   22  C28 UNL     1       0.625  -0.302  -0.266  1.00  0.00    -0.029 C 
HETATM   23  C29 UNL     1       0.573  -1.091  -1.617  1.00  0.00     0.016 C 
ENDROOT
BRANCH   1  24
HETATM   24  C6  UNL     1       3.306  -0.666  -0.412  1.00  0.00    -0.014 C 
HETATM   25  C7  UNL     1       3.283  -1.946   0.433  1.00  0.00     0.010 C 
BRANCH  24  26
HETATM   26  C5  UNL     1       4.634   0.096  -0.157  1.00  0.00     0.008 C 
BRANCH  26  27
HETATM   27  C4  UNL     1       5.848  -0.557  -0.833  1.00  0.00     0.028 C 
BRANCH  27  28
HETATM   28  C3  UNL     1       7.099   0.235  -0.568  1.00  0.00    -0.013 C 
HETATM   29  C2  UNL     1       8.136  -0.110   0.224  1.00  0.00     0.008 C 
HETATM   30  C1  UNL     1       8.234  -1.362   1.045  1.00  0.00     0.055 C 
BRANCH  29  31
HETATM   31  C30 UNL     1       9.316   0.786   0.362  1.00  0.00     0.171 C 
HETATM   32  O2  UNL     1      10.321   0.530   1.003  1.00  0.00    -0.646 OA
BRANCH  31  33
HETATM   33  O3  UNL     1       9.195   1.960  -0.282  1.00  0.00    -0.773 OA
HETATM   34  H46 UNL     1      10.036   2.418  -0.078  1.00  0.00     0.167 HD
ENDBRANCH  31  33
ENDBRANCH  29  31
ENDBRANCH  27  28
ENDBRANCH  26  27
ENDBRANCH  24  26
ENDBRANCH   1  24
TORSDOF 6
