REMARK  6 active torsions:
REMARK  status: ('A' for Active; 'I' for Inactive)
REMARK    1  A    between atoms: C2_2  and  C4_4 
REMARK    2  A    between atoms: C11_11  and  C12_12 
REMARK    3  A    between atoms: C12_12  and  O2_14 
REMARK    4  A    between atoms: C21_23  and  O3_24 
REMARK    5  A    between atoms: C22_25  and  C24_27 
REMARK    6  A    between atoms: C24_27  and  O4_28 
ROOT
HETATM    1  C4  UNL     1      -4.596   0.337   0.643  1.00  0.00     0.018 C 
HETATM    2  C5  UNL     1      -5.864  -0.371   0.088  1.00  0.00     0.010 C 
HETATM    3  C6  UNL     1      -5.395  -1.320  -1.027  1.00  0.00     0.010 C 
HETATM    4  C7  UNL     1      -4.021  -0.775  -1.435  1.00  0.00    -0.039 C 
HETATM    5  C8  UNL     1      -4.242   0.429  -2.388  1.00  0.00     0.015 C 
HETATM    6  C9  UNL     1      -3.102  -1.802  -2.108  1.00  0.00     0.011 C 
HETATM    7  C10 UNL     1      -1.654  -1.278  -2.219  1.00  0.00     0.022 C 
HETATM    8  C11 UNL     1      -1.028  -0.801  -0.854  1.00  0.00     0.057 C 
HETATM    9  C13 UNL     1      -2.039   0.220  -0.181  1.00  0.00     0.011 C 
HETATM   10  C14 UNL     1      -1.500   0.847   1.109  1.00  0.00     0.007 C 
HETATM   11  C15 UNL     1      -0.109   1.456   0.940  1.00  0.00     0.006 C 
HETATM   12  C16 UNL     1       0.911   0.454   0.357  1.00  0.00     0.003 C 
HETATM   13  C17 UNL     1       2.433   0.930   0.448  1.00  0.00    -0.035 C 
HETATM   14  C18 UNL     1       2.663   2.278  -0.276  1.00  0.00     0.016 C 
HETATM   15  C19 UNL     1       2.806   1.137   1.950  1.00  0.00     0.012 C 
HETATM   16  C20 UNL     1       4.300   1.307   2.211  1.00  0.00     0.033 C 
HETATM   17  C21 UNL     1       5.129   0.161   1.647  1.00  0.00     0.128 C 
HETATM   18  C22 UNL     1       4.879  -0.119   0.133  1.00  0.00     0.007 C 
HETATM   19  C23 UNL     1       5.551   0.958  -0.747  1.00  0.00     0.020 C 
HETATM   20  C25 UNL     1       3.326  -0.246  -0.103  1.00  0.00     0.007 C 
HETATM   21  C26 UNL     1       2.917  -0.625  -1.540  1.00  0.00     0.007 C 
HETATM   22  C27 UNL     1       1.468  -1.117  -1.582  1.00  0.00     0.011 C 
HETATM   23  C28 UNL     1       0.421  -0.101  -1.043  1.00  0.00    -0.022 C 
HETATM   24  C29 UNL     1       0.315   1.032  -2.105  1.00  0.00     0.017 C 
HETATM   25  C30 UNL     1      -3.438  -0.427  -0.042  1.00  0.00     0.007 C 
ENDROOT
BRANCH   8  26
HETATM   26  C12 UNL     1      -0.880  -2.056   0.055  1.00  0.00     0.149 C 
HETATM   27  O1  UNL     1      -0.900  -2.098   1.274  1.00  0.00    -0.649 OA
BRANCH  26  28
HETATM   28  O2  UNL     1      -0.677  -3.210  -0.612  1.00  0.00    -0.776 OA
HETATM   29  H18 UNL     1      -0.606  -3.878   0.102  1.00  0.00     0.167 HD
ENDBRANCH  26  28
ENDBRANCH   8  26
BRANCH   1  30
HETATM   30  C2  UNL     1      -4.662   0.417   2.160  1.00  0.00    -0.089 C 
HETATM   31  C1  UNL     1      -4.052  -0.429   3.006  1.00  0.00     0.014 C 
HETATM   32  C3  UNL     1      -5.505   1.546   2.698  1.00  0.00     0.043 C 
ENDBRANCH   1  30
BRANCH  18  33
HETATM   33  C24 UNL     1       5.565  -1.479  -0.221  1.00  0.00     0.176 C 
BRANCH  33  34
HETATM   34  O4  UNL     1       6.929  -1.506   0.201  1.00  0.00    -0.400 OA
HETATM   35  H39 UNL     1       7.304  -2.349  -0.112  1.00  0.00     0.209 HD
ENDBRANCH  33  34
ENDBRANCH  18  33
BRANCH  17  36
HETATM   36  O3  UNL     1       6.500   0.456   1.915  1.00  0.00    -0.395 OA
HETATM   37  H33 UNL     1       7.018  -0.222   1.429  1.00  0.00     0.210 HD
ENDBRANCH  17  36
TORSDOF 6
