REMARK  8 active torsions:
REMARK  status: ('A' for Active; 'I' for Inactive)
REMARK    1  A    between atoms: O1_2  and  C2_3 
REMARK    2  A    between atoms: C2_3  and  C3_4 
REMARK    3  A    between atoms: C7_8  and  C8_9 
REMARK    4  A    between atoms: C8_9  and  C9_10 
REMARK    5  A    between atoms: C8_9  and  C10_12 
REMARK    6  A    between atoms: C9_10  and  O2_11 
REMARK    7  A    between atoms: C19_21  and  S1_22 
REMARK    8  A    between atoms: S1_22  and  O5_25 
ROOT
HETATM    1  C10 UNL     1       1.325   0.252   0.446  1.00  0.00     0.003 C 
HETATM    2  C11 UNL     1       1.330  -1.086  -0.299  1.00  0.00     0.006 C 
HETATM    3  C12 UNL     1       0.116  -1.833   0.268  1.00  0.00     0.006 C 
HETATM    4  C13 UNL     1      -0.718  -0.788   1.054  1.00  0.00    -0.001 C 
HETATM    5  C14 UNL     1      -2.235  -1.051   0.989  1.00  0.00    -0.001 C 
HETATM    6  C15 UNL     1      -2.937  -0.579   2.274  1.00  0.00     0.033 C 
HETATM    7  C16 UNL     1      -4.426  -0.627   2.174  1.00  0.00    -0.022 C 
HETATM    8  C17 UNL     1      -5.062  -0.291   1.043  1.00  0.00    -0.066 C 
HETATM    9  C18 UNL     1      -6.566  -0.274   0.947  1.00  0.00     0.057 C 
HETATM   10  C19 UNL     1      -7.059  -1.247  -0.128  1.00  0.00     0.132 C 
HETATM   11  C20 UNL     1      -6.075  -1.433  -1.281  1.00  0.00     0.101 C 
HETATM   12  C21 UNL     1      -5.163  -0.232  -1.428  1.00  0.00     0.141 C 
HETATM   13  O6  UNL     1      -5.077   0.354  -2.508  1.00  0.00    -0.297 OA
HETATM   14  C22 UNL     1      -4.288   0.147  -0.202  1.00  0.00     0.044 C 
HETATM   15  C23 UNL     1      -4.143   1.677  -0.160  1.00  0.00     0.029 C 
HETATM   16  C24 UNL     1      -2.922  -0.622  -0.336  1.00  0.00     0.010 C 
HETATM   17  C25 UNL     1      -1.939  -0.031  -1.357  1.00  0.00     0.007 C 
HETATM   18  C26 UNL     1      -0.894   0.945  -0.816  1.00  0.00     0.010 C 
HETATM   19  C27 UNL     1      -0.207   0.583   0.529  1.00  0.00    -0.036 C 
HETATM   20  C28 UNL     1      -0.416   1.723   1.538  1.00  0.00     0.016 C 
ENDROOT
BRANCH   1  21
HETATM   21  C8  UNL     1       2.402   1.316   0.032  1.00  0.00     0.044 C 
BRANCH  21  22
HETATM   22  C7  UNL     1       3.820   0.651  -0.043  1.00  0.00     0.142 C 
HETATM   23  C6  UNL     1       4.992   1.602  -0.283  1.00  0.00     0.067 C 
HETATM   24  C4  UNL     1       6.301   0.870  -0.122  1.00  0.00    -0.067 C 
HETATM   25  C3  UNL     1       6.382  -0.236   0.652  1.00  0.00     0.043 C 
HETATM   26  C5  UNL     1       7.453   1.476  -0.874  1.00  0.00     0.044 C 
HETATM   27  C29 UNL     1       5.215  -0.629   1.485  1.00  0.00     0.292 C 
HETATM   28  O7  UNL     1       4.031  -0.031   1.217  1.00  0.00    -0.311 OA
HETATM   29  O8  UNL     1       5.325  -1.427   2.409  1.00  0.00    -0.260 OA
BRANCH  25  30
HETATM   30  C2  UNL     1       7.579  -1.132   0.846  1.00  0.00     0.212 C 
BRANCH  30  31
HETATM   31  O1  UNL     1       8.317  -1.269  -0.373  1.00  0.00    -0.391 OA
HETATM   32  C1  UNL     1       9.458  -2.099  -0.201  1.00  0.00     0.201 C 
ENDBRANCH  30  31
ENDBRANCH  25  30
ENDBRANCH  21  22
BRANCH  21  33
HETATM   33  C9  UNL     1       2.071   2.139  -1.215  1.00  0.00     0.171 C 
BRANCH  33  34
HETATM   34  O2  UNL     1       2.954   3.245  -1.363  1.00  0.00    -0.400 OA
HETATM   35  H15 UNL     1       2.746   3.885  -0.657  1.00  0.00     0.209 HD
ENDBRANCH  33  34
ENDBRANCH  21  33
ENDBRANCH   1  21
BRANCH  10  36
HETATM   36  S1  UNL     1      -8.669  -0.696  -0.706  1.00  0.00     0.099 S 
HETATM   37  O3  UNL     1      -9.605  -0.695   0.394  1.00  0.00    -0.601 OA
HETATM   38  O4  UNL     1      -8.529   0.436  -1.589  1.00  0.00    -0.601 OA
BRANCH  36  39
HETATM   39  O5  UNL     1      -9.042  -1.966  -1.629  1.00  0.00    -0.295 OA
HETATM   40  H29 UNL     1      -9.816  -1.731  -2.186  1.00  0.00     0.232 HD
ENDBRANCH  36  39
ENDBRANCH  10  36
TORSDOF 8
