REMARK  5 active torsions:
REMARK  status: ('A' for Active; 'I' for Inactive)
REMARK    1  A    between atoms: C2_2  and  C4_4 
REMARK    2  A    between atoms: C7_7  and  C8_8 
REMARK    3  A    between atoms: C8_8  and  O2_10 
REMARK    4  A    between atoms: C11_13  and  C12_14 
REMARK    5  A    between atoms: C12_14  and  O4_16 
ROOT
HETATM    1  C4  UNL     1      -4.214  -0.870   0.599  1.00  0.00     0.019 C 
HETATM    2  C5  UNL     1      -5.569  -0.190   0.272  1.00  0.00     0.011 C 
HETATM    3  C6  UNL     1      -5.259   0.954  -0.705  1.00  0.00     0.021 C 
HETATM    4  C7  UNL     1      -3.792   1.295  -0.419  1.00  0.00     0.050 C 
HETATM    5  C9  UNL     1      -3.068   2.029  -1.548  1.00  0.00     0.022 C 
HETATM    6  C10 UNL     1      -1.548   2.096  -1.286  1.00  0.00     0.023 C 
HETATM    7  C11 UNL     1      -0.829   0.752  -0.872  1.00  0.00     0.057 C 
HETATM    8  C13 UNL     1      -1.704  -0.092   0.113  1.00  0.00     0.011 C 
HETATM    9  C14 UNL     1      -1.109  -1.489   0.315  1.00  0.00     0.007 C 
HETATM   10  C15 UNL     1       0.420  -1.530   0.398  1.00  0.00     0.006 C 
HETATM   11  C16 UNL     1       1.094  -0.192   0.776  1.00  0.00     0.003 C 
HETATM   12  C17 UNL     1       2.687  -0.322   1.031  1.00  0.00    -0.035 C 
HETATM   13  C18 UNL     1       3.047   0.560   2.262  1.00  0.00     0.016 C 
HETATM   14  C19 UNL     1       3.093  -1.782   1.399  1.00  0.00     0.017 C 
HETATM   15  C20 UNL     1       4.588  -2.006   1.567  1.00  0.00     0.080 C 
HETATM   16  C21 UNL     1       5.340  -1.577   0.334  1.00  0.00     0.135 C 
HETATM   17  O5  UNL     1       6.248  -2.289  -0.102  1.00  0.00    -0.297 OA
HETATM   18  C22 UNL     1       5.027  -0.193  -0.260  1.00  0.00     0.017 C 
HETATM   19  C23 UNL     1       5.852   0.851   0.509  1.00  0.00     0.023 C 
HETATM   20  C24 UNL     1       5.547  -0.198  -1.723  1.00  0.00     0.023 C 
HETATM   21  C25 UNL     1       3.475   0.064  -0.265  1.00  0.00     0.009 C 
HETATM   22  C26 UNL     1       3.101   1.485  -0.719  1.00  0.00     0.007 C 
HETATM   23  C27 UNL     1       1.652   1.532  -1.174  1.00  0.00     0.011 C 
HETATM   24  C28 UNL     1       0.606   1.048  -0.129  1.00  0.00    -0.022 C 
HETATM   25  C29 UNL     1       0.446   2.247   0.870  1.00  0.00     0.017 C 
HETATM   26  C30 UNL     1      -3.193  -0.123  -0.293  1.00  0.00     0.018 C 
ENDROOT
BRANCH   4  27
HETATM   27  C8  UNL     1      -3.757   2.148   0.859  1.00  0.00     0.149 C 
HETATM   28  O1  UNL     1      -3.357   1.822   1.962  1.00  0.00    -0.649 OA
BRANCH  27  29
HETATM   29  O2  UNL     1      -4.265   3.385   0.680  1.00  0.00    -0.776 OA
HETATM   30  H11 UNL     1      -4.202   3.798   1.566  1.00  0.00     0.167 HD
ENDBRANCH  27  29
ENDBRANCH   4  27
BRANCH   1  31
HETATM   31  C2  UNL     1      -4.280  -2.380   0.437  1.00  0.00    -0.088 C 
HETATM   32  C1  UNL     1      -4.199  -3.192   1.507  1.00  0.00     0.014 C 
HETATM   33  C3  UNL     1      -4.462  -2.957  -0.943  1.00  0.00     0.043 C 
ENDBRANCH   1  31
BRANCH   7  34
HETATM   34  C12 UNL     1      -0.623  -0.078  -2.180  1.00  0.00     0.149 C 
HETATM   35  O3  UNL     1       0.295  -0.835  -2.454  1.00  0.00    -0.649 OA
BRANCH  34  36
HETATM   36  O4  UNL     1      -1.609   0.039  -3.088  1.00  0.00    -0.776 OA
HETATM   37  H16 UNL     1      -1.317  -0.549  -3.818  1.00  0.00     0.167 HD
ENDBRANCH  34  36
ENDBRANCH   7  34
TORSDOF 5
