REMARK  9 active torsions:
REMARK  status: ('A' for Active; 'I' for Inactive)
REMARK    1  A    between atoms: C2_2  and  C3_3 
REMARK    2  A    between atoms: C2_2  and  C9_12 
REMARK    3  A    between atoms: C3_3  and  C4_4 
REMARK    4  A    between atoms: C4_4  and  C5_5 
REMARK    5  A    between atoms: C5_5  and  O1_6 
REMARK    6  A    between atoms: C5_5  and  C6_7 
REMARK    7  A    between atoms: C6_7  and  O2_9 
REMARK    8  A    between atoms: C6_7  and  C8_10 
REMARK    9  A    between atoms: C8_10  and  O3_11 
ROOT
HETATM    1  C9  UNL     1       1.889   1.030   0.356  1.00  0.00    -0.002 C 
HETATM    2  C10 UNL     1       1.580   2.328   1.151  1.00  0.00     0.007 C 
HETATM    3  C11 UNL     1       0.053   2.380   1.354  1.00  0.00     0.015 C 
HETATM    4  C12 UNL     1      -0.447   0.958   1.029  1.00  0.00    -0.005 C 
HETATM    5  C13 UNL     1      -0.229   0.095   2.311  1.00  0.00     0.021 C 
HETATM    6  C14 UNL     1      -1.903   0.710   0.650  1.00  0.00    -0.000 C 
HETATM    7  C15 UNL     1      -2.248  -0.315  -0.175  1.00  0.00    -0.060 C 
HETATM    8  C16 UNL     1      -1.173  -1.217  -0.795  1.00  0.00     0.036 C 
HETATM    9  C17 UNL     1       0.305  -0.876  -0.514  1.00  0.00     0.015 C 
HETATM   10  C18 UNL     1       0.494   0.611  -0.197  1.00  0.00    -0.028 C 
HETATM   11  C19 UNL     1       0.152   1.431  -1.475  1.00  0.00     0.016 C 
HETATM   12  C20 UNL     1      -3.717  -0.600  -0.593  1.00  0.00    -0.014 C 
HETATM   13  C21 UNL     1      -3.918   0.136  -1.938  1.00  0.00     0.020 C 
HETATM   14  C22 UNL     1      -3.976  -2.116  -0.788  1.00  0.00     0.021 C 
HETATM   15  C23 UNL     1      -5.430  -2.453  -1.075  1.00  0.00     0.080 C 
HETATM   16  C24 UNL     1      -6.330  -1.950   0.026  1.00  0.00     0.135 C 
HETATM   17  O4  UNL     1      -7.211  -2.685   0.477  1.00  0.00    -0.297 OA
HETATM   18  C25 UNL     1      -6.181  -0.484   0.460  1.00  0.00     0.018 C 
HETATM   19  C26 UNL     1      -6.829  -0.345   1.862  1.00  0.00     0.023 C 
HETATM   20  C27 UNL     1      -7.004   0.383  -0.505  1.00  0.00     0.023 C 
HETATM   21  C28 UNL     1      -4.659  -0.114   0.561  1.00  0.00     0.020 C 
HETATM   22  C29 UNL     1      -4.402   1.367   0.855  1.00  0.00     0.090 C 
HETATM   23  C30 UNL     1      -2.959   1.598   1.236  1.00  0.00     0.157 C 
HETATM   24  O5  UNL     1      -2.671   2.519   1.997  1.00  0.00    -0.293 OA
ENDROOT
BRANCH   1  25
HETATM   25  C2  UNL     1       3.173   1.130  -0.525  1.00  0.00    -0.014 C 
HETATM   26  C1  UNL     1       3.200   2.233  -1.590  1.00  0.00     0.010 C 
BRANCH  25  27
HETATM   27  C3  UNL     1       3.538  -0.235  -1.148  1.00  0.00     0.007 C 
BRANCH  27  28
HETATM   28  C4  UNL     1       4.949  -0.375  -1.742  1.00  0.00     0.035 C 
BRANCH  28  29
HETATM   29  C5  UNL     1       6.162  -0.212  -0.804  1.00  0.00     0.154 C 
BRANCH  29  30
HETATM   30  O1  UNL     1       6.295   1.177  -0.489  1.00  0.00    -0.392 OA
HETATM   31  H10 UNL     1       6.963   1.258   0.221  1.00  0.00     0.210 HD
ENDBRANCH  29  30
BRANCH  29  32
HETATM   32  C6  UNL     1       6.202  -1.132   0.464  1.00  0.00     0.101 C 
HETATM   33  C7  UNL     1       6.078  -2.611   0.085  1.00  0.00     0.051 C 
BRANCH  32  34
HETATM   34  O2  UNL     1       5.134  -0.793   1.365  1.00  0.00    -0.385 OA
HETATM   35  H14 UNL     1       5.072  -1.484   2.045  1.00  0.00     0.210 HD
ENDBRANCH  32  34
BRANCH  32  36
HETATM   36  C8  UNL     1       7.513  -0.910   1.252  1.00  0.00     0.204 C 
BRANCH  36  37
HETATM   37  O3  UNL     1       7.557   0.428   1.758  1.00  0.00    -0.398 OA
HETATM   38  H17 UNL     1       6.679   0.576   2.172  1.00  0.00     0.209 HD
ENDBRANCH  36  37
ENDBRANCH  32  36
ENDBRANCH  29  32
ENDBRANCH  28  29
ENDBRANCH  27  28
ENDBRANCH  25  27
ENDBRANCH   1  25
TORSDOF 9
