REMARK  11 active torsions:
REMARK  status: ('A' for Active; 'I' for Inactive)
REMARK    1  A    between atoms: C3_3  and  O1_4 
REMARK    2  A    between atoms: N1_14  and  O2_16 
REMARK    3  A    between atoms: O2_16  and  C13_17 
REMARK    4  A    between atoms: C13_17  and  C14_18 
REMARK       I    between atoms: C14_18  and  N2_20 
REMARK    5  A    between atoms: N2_20  and  C15_21 
REMARK    6  A    between atoms: C15_21  and  C16_22 
REMARK    7  A    between atoms: C15_21  and  C17_25 
REMARK    8  A    between atoms: C16_22  and  O5_24 
REMARK    9  A    between atoms: C17_25  and  O6_26 
REMARK   10  A    between atoms: C17_25  and  C18_27 
REMARK   11  A    between atoms: C22_31  and  N3_32 
ROOT
HETATM    1  C1  UNL     1      -8.255  -0.059  -3.927  1.00  0.00     0.015 C 
HETATM    2  C2  UNL     1      -7.974   0.372  -2.841  1.00  0.00    -0.078 C 
HETATM    3  C3  UNL     1      -7.646   0.911  -1.513  1.00  0.00     0.128 C 
HETATM    4  C4  UNL     1      -6.661   2.075  -1.608  1.00  0.00     0.052 C 
HETATM    5  C5  UNL     1      -6.080   2.207  -0.204  1.00  0.00     0.010 C 
HETATM    6  C6  UNL     1      -6.218   0.826   0.474  1.00  0.00     0.002 C 
HETATM    7  C7  UNL     1      -4.889   0.211   0.959  1.00  0.00    -0.004 C 
HETATM    8  C8  UNL     1      -4.235   1.027   2.081  1.00  0.00     0.010 C 
HETATM    9  C9  UNL     1      -3.024   0.284   2.636  1.00  0.00     0.035 C 
HETATM   10  C10 UNL     1      -2.027  -0.106   1.566  1.00  0.00    -0.069 C 
HETATM   11  C11 UNL     1      -0.714   0.071   1.802  1.00  0.00     0.030 C 
HETATM   12  C12 UNL     1       0.331  -0.451   0.887  1.00  0.00     0.032 C 
HETATM   13  N1  UNL     1       1.567  -0.409   1.298  1.00  0.00    -0.271 N 
ATOM     14  H1  UNL     1       1.865   0.008   2.180  1.00  0.00     0.194 HD
HETATM   15  C24 UNL     1      -0.107  -1.092  -0.412  1.00  0.00     0.060 C 
HETATM   16  C25 UNL     1      -1.499  -0.638  -0.835  1.00  0.00     0.020 C 
HETATM   17  C26 UNL     1      -2.574  -0.755   0.285  1.00  0.00    -0.016 C 
HETATM   18  C27 UNL     1      -2.856  -2.245   0.586  1.00  0.00     0.020 C 
HETATM   19  C28 UNL     1      -3.871   0.005  -0.192  1.00  0.00     0.002 C 
HETATM   20  C29 UNL     1      -4.550  -0.584  -1.450  1.00  0.00     0.007 C 
HETATM   21  C30 UNL     1      -5.963  -1.108  -1.201  1.00  0.00     0.014 C 
HETATM   22  C31 UNL     1      -6.960  -0.106  -0.541  1.00  0.00     0.003 C 
HETATM   23  C32 UNL     1      -8.015  -0.964   0.200  1.00  0.00     0.020 C 
ENDROOT
BRANCH   3  24
HETATM   24  O1  UNL     1      -8.863   1.421  -0.958  1.00  0.00    -0.377 OA
HETATM   25  H2  UNL     1      -8.665   1.834  -0.102  1.00  0.00     0.211 HD
ENDBRANCH   3  24
BRANCH  13  26
HETATM   26  O2  UNL     1       2.437  -1.009   0.375  1.00  0.00    -0.271 OA
BRANCH  26  27
HETATM   27  C13 UNL     1       3.330  -1.872   1.072  1.00  0.00     0.303 C 
BRANCH  27  28
HETATM   28  C14 UNL     1       4.772  -1.560   0.706  1.00  0.00     0.244 C 
HETATM   29  O3  UNL     1       5.569  -2.418   0.331  1.00  0.00    -0.271 OA
HETATM   30  N2  UNL     1       5.142  -0.252   0.912  1.00  0.00    -0.342 N 
HETATM   31  H16 UNL     1       4.428   0.440   1.133  1.00  0.00     0.163 HD
BRANCH  30  32
HETATM   32  C15 UNL     1       6.518   0.208   0.699  1.00  0.00     0.216 C 
BRANCH  32  33
HETATM   33  C16 UNL     1       6.797   1.464   1.524  1.00  0.00     0.166 C 
HETATM   34  O4  UNL     1       7.861   2.067   1.583  1.00  0.00    -0.648 OA
BRANCH  33  35
HETATM   35  O5  UNL     1       5.732   1.925   2.215  1.00  0.00    -0.775 OA
HETATM   36  H18 UNL     1       6.089   2.679   2.739  1.00  0.00     0.167 HD
ENDBRANCH  33  35
ENDBRANCH  32  33
BRANCH  32  37
HETATM   37  C17 UNL     1       6.819   0.458  -0.807  1.00  0.00     0.184 C 
BRANCH  37  38
HETATM   38  O6  UNL     1       6.109   1.620  -1.271  1.00  0.00    -0.388 OA
HETATM   39  H20 UNL     1       6.538   2.402  -0.875  1.00  0.00     0.210 HD
ENDBRANCH  37  38
BRANCH  37  40
HETATM   40  C18 UNL     1       8.303   0.522  -1.161  1.00  0.00    -0.025 A 
HETATM   41  C19 UNL     1       8.861   1.596  -1.880  1.00  0.00     0.010 A 
HETATM   42  C20 UNL     1      10.225   1.626  -2.200  1.00  0.00     0.003 A 
HETATM   43  C21 UNL     1      11.060   0.579  -1.823  1.00  0.00     0.036 A 
HETATM   44  C22 UNL     1      10.517  -0.510  -1.134  1.00  0.00     0.103 A 
HETATM   45  C23 UNL     1       9.150  -0.547  -0.811  1.00  0.00     0.045 A 
BRANCH  44  46
HETATM   46  N3  UNL     1      11.387  -1.631  -0.751  1.00  0.00    -0.116 N 
HETATM   47  O7  UNL     1      10.898  -2.523  -0.038  1.00  0.00    -0.532 OA
HETATM   48  O8  UNL     1      12.561  -1.621  -1.160  1.00  0.00    -0.532 OA
ENDBRANCH  44  46
ENDBRANCH  37  40
ENDBRANCH  32  37
ENDBRANCH  30  32
ENDBRANCH  27  28
ENDBRANCH  26  27
ENDBRANCH  13  26
TORSDOF 11
