REMARK  11 active torsions:
REMARK  status: ('A' for Active; 'I' for Inactive)
REMARK    1  A    between atoms: C19_20  and  O2_21 
REMARK    2  A    between atoms: C19_20  and  C20_22 
REMARK    3  A    between atoms: C20_22  and  C21_24 
REMARK    4  A    between atoms: C21_24  and  O4_25 
REMARK    5  A    between atoms: O4_25  and  C22_26 
REMARK    6  A    between atoms: C22_26  and  C23_28 
REMARK    7  A    between atoms: C23_28  and  C24_29 
REMARK    8  A    between atoms: C24_29  and  C25_30 
REMARK       I    between atoms: C25_30  and  N1_32 
REMARK    9  A    between atoms: N1_32  and  C26_33 
REMARK   10  A    between atoms: C26_33  and  C27_34 
REMARK   11  A    between atoms: C27_34  and  C28_35 
ROOT
HETATM    1  C20 UNL     1       1.390   2.238  -1.406  1.00  0.00     0.185 C 
HETATM    2  O3  UNL     1       1.874   2.317  -2.547  1.00  0.00    -0.292 OA
ENDROOT
BRANCH   1   3
HETATM    3  C19 UNL     1       0.494   1.022  -1.051  1.00  0.00     0.128 C 
HETATM    4  C14 UNL     1      -1.001   1.238  -0.661  1.00  0.00    -0.002 C 
HETATM    5  C13 UNL     1      -1.962   1.578  -1.815  1.00  0.00     0.013 C 
HETATM    6  C15 UNL     1      -1.175   2.281   0.470  1.00  0.00     0.019 C 
HETATM    7  C16 UNL     1      -1.351  -0.201  -0.186  1.00  0.00     0.002 C 
HETATM    8  C12 UNL     1      -3.438   1.446  -1.393  1.00  0.00     0.007 C 
HETATM    9  C11 UNL     1      -3.784   0.060  -0.782  1.00  0.00     0.002 C 
HETATM   10  C2  UNL     1      -5.293  -0.087  -0.344  1.00  0.00    -0.016 C 
HETATM   11  C10 UNL     1      -2.784  -0.342   0.346  1.00  0.00    -0.004 C 
HETATM   12  C1  UNL     1      -5.706   0.996   0.677  1.00  0.00     0.020 C 
HETATM   13  C3  UNL     1      -6.183   0.043  -1.615  1.00  0.00     0.022 C 
HETATM   14  C7  UNL     1      -5.515  -1.461   0.304  1.00  0.00    -0.068 C 
HETATM   15  C4  UNL     1      -7.621  -0.412  -1.412  1.00  0.00     0.084 C 
HETATM   16  C5  UNL     1      -7.666  -1.812  -0.861  1.00  0.00     0.149 C 
HETATM   17  O1  UNL     1      -8.612  -2.568  -1.073  1.00  0.00    -0.293 OA
HETATM   18  C6  UNL     1      -6.570  -2.250   0.033  1.00  0.00     0.053 C 
HETATM   19  C8  UNL     1      -4.496  -1.911   1.324  1.00  0.00     0.035 C 
HETATM   20  C9  UNL     1      -3.069  -1.777   0.809  1.00  0.00     0.010 C 
HETATM   21  C17 UNL     1      -0.185  -0.557   0.730  1.00  0.00     0.009 C 
HETATM   22  C18 UNL     1       1.039   0.110   0.068  1.00  0.00     0.047 C 
BRANCH   3  23
HETATM   23  O2  UNL     1       0.503   0.203  -2.255  1.00  0.00    -0.381 OA
HETATM   24  H27 UNL     1       1.362   0.382  -2.693  1.00  0.00     0.211 HD
ENDBRANCH   3  23
ENDBRANCH   1   3
BRANCH   1  25
HETATM   25  C21 UNL     1       1.671   3.361  -0.412  1.00  0.00     0.260 C 
BRANCH  25  26
HETATM   26  O4  UNL     1       1.992   3.005   0.923  1.00  0.00    -0.314 OA
BRANCH  26  27
HETATM   27  C22 UNL     1       3.315   2.789   1.170  1.00  0.00     0.259 C 
HETATM   28  O5  UNL     1       4.206   2.862   0.338  1.00  0.00    -0.265 OA
BRANCH  27  29
HETATM   29  C23 UNL     1       3.540   2.524   2.639  1.00  0.00     0.120 C 
BRANCH  29  30
HETATM   30  C24 UNL     1       4.665   1.517   2.845  1.00  0.00     0.112 C 
BRANCH  30  31
HETATM   31  C25 UNL     1       4.184   0.088   2.685  1.00  0.00     0.218 C 
HETATM   32  O6  UNL     1       3.003  -0.230   2.761  1.00  0.00    -0.274 OA
HETATM   33  N1  UNL     1       5.213  -0.808   2.503  1.00  0.00    -0.361 N 
HETATM   34  H34 UNL     1       6.169  -0.474   2.545  1.00  0.00     0.162 HD
BRANCH  33  35
HETATM   35  C26 UNL     1       4.996  -2.242   2.396  1.00  0.00     0.127 C 
BRANCH  35  36
HETATM   36  C27 UNL     1       5.646  -2.848   1.149  1.00  0.00     0.060 C 
BRANCH  36  37
HETATM   37  C28 UNL     1       4.841  -2.660  -0.099  1.00  0.00    -0.029 A 
HETATM   38  C29 UNL     1       3.921  -3.557  -0.610  1.00  0.00     0.096 A 
HETATM   39  N2  UNL     1       3.406  -3.038  -1.766  1.00  0.00    -0.365 N 
HETATM   40  C30 UNL     1       3.977  -1.817  -2.034  1.00  0.00     0.042 A 
HETATM   41  H40 UNL     1       2.700  -3.478  -2.340  1.00  0.00     0.165 HD
HETATM   42  C31 UNL     1       3.760  -0.940  -3.103  1.00  0.00     0.030 A 
HETATM   43  C35 UNL     1       4.872  -1.545  -0.998  1.00  0.00    -0.002 A 
HETATM   44  C32 UNL     1       4.465   0.267  -3.102  1.00  0.00     0.002 A 
HETATM   45  C33 UNL     1       5.359   0.573  -2.080  1.00  0.00     0.001 A 
HETATM   46  C34 UNL     1       5.579  -0.325  -1.029  1.00  0.00     0.014 A 
ENDBRANCH  36  37
ENDBRANCH  35  36
ENDBRANCH  33  35
ENDBRANCH  30  31
ENDBRANCH  29  30
ENDBRANCH  27  29
ENDBRANCH  26  27
ENDBRANCH  25  26
ENDBRANCH   1  25
TORSDOF 11
