REMARK  12 active torsions:
REMARK  status: ('A' for Active; 'I' for Inactive)
REMARK    1  A    between atoms: C2_2  and  C3_3 
REMARK    2  A    between atoms: C4_4  and  C18_19 
REMARK    3  A    between atoms: C19_20  and  O1_21 
REMARK    4  A    between atoms: N2_22  and  C20_23 
REMARK    5  A    between atoms: C20_23  and  C21_24 
REMARK    6  A    between atoms: C21_24  and  O3_26 
REMARK    7  A    between atoms: O3_26  and  C22_27 
REMARK    8  A    between atoms: C25_30  and  C26_31 
REMARK    9  A    between atoms: C32_38  and  C33_39 
REMARK   10  A    between atoms: C39_47  and  O7_48 
REMARK   11  A    between atoms: C43_52  and  O8_53 
REMARK   12  A    between atoms: C45_55  and  O9_56 
ROOT
HETATM    1  C22 UNL     1       0.195   0.393   0.742  1.00  0.00     0.135 C 
HETATM    2  C23 UNL     1       1.097   1.564   1.123  1.00  0.00     0.034 C 
HETATM    3  C24 UNL     1       2.591   1.224   1.146  1.00  0.00     0.022 C 
HETATM    4  C25 UNL     1       3.020   0.100   0.158  1.00  0.00     0.048 C 
HETATM    5  C27 UNL     1       4.480   0.366  -0.382  1.00  0.00     0.011 C 
HETATM    6  C28 UNL     1       5.549   0.579   0.714  1.00  0.00     0.007 C 
HETATM    7  C29 UNL     1       6.765  -0.336   0.597  1.00  0.00     0.013 C 
HETATM    8  C30 UNL     1       7.429  -0.363  -0.802  1.00  0.00    -0.005 C 
HETATM    9  C31 UNL     1       8.412  -1.557  -0.803  1.00  0.00     0.019 C 
HETATM   10  C32 UNL     1       8.166   0.992  -1.110  1.00  0.00     0.028 C 
HETATM   11  C37 UNL     1       7.989   1.172  -2.617  1.00  0.00     0.013 C 
HETATM   12  C38 UNL     1       6.531   0.789  -2.813  1.00  0.00     0.040 C 
HETATM   13  C39 UNL     1       6.353  -0.478  -1.951  1.00  0.00     0.070 C 
HETATM   14  C40 UNL     1       4.904  -0.690  -1.435  1.00  0.00     0.026 C 
HETATM   15  C41 UNL     1       3.890  -0.750  -2.595  1.00  0.00     0.011 C 
HETATM   16  C42 UNL     1       2.463  -0.989  -2.108  1.00  0.00     0.039 C 
HETATM   17  C43 UNL     1       2.030   0.038  -1.045  1.00  0.00     0.074 C 
HETATM   18  C44 UNL     1       0.559  -0.189  -0.635  1.00  0.00     0.071 C 
ENDROOT
BRANCH   1  19
HETATM   19  O3  UNL     1      -1.160   0.906   0.724  1.00  0.00    -0.315 OA
BRANCH  19  20
HETATM   20  C21 UNL     1      -2.169  -0.013   0.679  1.00  0.00     0.285 C 
HETATM   21  O2  UNL     1      -2.022  -1.225   0.692  1.00  0.00    -0.263 OA
BRANCH  20  22
HETATM   22  C20 UNL     1      -3.504   0.712   0.493  1.00  0.00     0.352 C 
BRANCH  22  23
HETATM   23  N2  UNL     1      -4.724   0.309   1.400  1.00  0.00    -0.021 N 
HETATM   24  C6  UNL     1      -5.102  -1.202   1.176  1.00  0.00     0.214 C 
HETATM   25  C5  UNL     1      -5.953  -1.634   2.387  1.00  0.00     0.041 C 
HETATM   26  C7  UNL     1      -5.919  -1.415  -0.137  1.00  0.00     0.109 C 
HETATM   27  C4  UNL     1      -6.653  -0.400   2.977  1.00  0.00     0.004 C 
HETATM   28  C3  UNL     1      -5.552   0.329   3.790  1.00  0.00     0.047 C 
HETATM   29  C45 UNL     1      -4.327   0.569   2.858  1.00  0.00     0.329 C 
HETATM   30  N1  UNL     1      -5.117  -1.486  -1.391  1.00  0.00    -0.279 NA
HETATM   31  C15 UNL     1      -6.960  -0.287  -0.407  1.00  0.00     0.035 C 
HETATM   32  C8  UNL     1      -4.344  -2.710  -1.626  1.00  0.00     0.117 C 
HETATM   33  C9  UNL     1      -6.148  -1.261  -2.371  1.00  0.00     0.018 A 
HETATM   34  C10 UNL     1      -6.120  -1.581  -3.717  1.00  0.00     0.024 A 
HETATM   35  C14 UNL     1      -7.272  -0.604  -1.825  1.00  0.00    -0.024 A 
HETATM   36  C11 UNL     1      -7.234  -1.267  -4.502  1.00  0.00     0.002 A 
HETATM   37  C12 UNL     1      -8.354  -0.628  -3.943  1.00  0.00     0.001 A 
HETATM   38  C13 UNL     1      -8.379  -0.285  -2.591  1.00  0.00     0.010 A 
HETATM   39  C16 UNL     1      -6.348   1.113  -0.345  1.00  0.00     0.053 C 
HETATM   40  C19 UNL     1      -7.998  -0.165   0.707  1.00  0.00     0.139 C 
HETATM   41  C17 UNL     1      -5.969   1.179   1.113  1.00  0.00     0.203 C 
HETATM   42  C18 UNL     1      -7.179   0.522   1.849  1.00  0.00     0.051 C 
BRANCH  28  43
HETATM   43  C2  UNL     1      -6.071   1.618   4.455  1.00  0.00     0.005 C 
HETATM   44  C1  UNL     1      -5.119   2.148   5.520  1.00  0.00     0.005 C 
ENDBRANCH  28  43
BRANCH  29  45
HETATM   45  O9  UNL     1      -3.248  -0.237   3.260  1.00  0.00    -0.369 OA
HETATM   46  H59 UNL     1      -3.076  -0.075   4.206  1.00  0.00     0.212 HD
ENDBRANCH  29  45
BRANCH  40  47
HETATM   47  O1  UNL     1      -8.562  -1.392   1.108  1.00  0.00    -0.394 OA
HETATM   48  H24 UNL     1      -9.157  -1.703   0.396  1.00  0.00     0.210 HD
ENDBRANCH  40  47
ENDBRANCH  22  23
ENDBRANCH  20  22
ENDBRANCH  19  20
ENDBRANCH   1  19
BRANCH  17  49
HETATM   49  O8  UNL     1       2.057   1.340  -1.674  1.00  0.00    -0.389 OA
HETATM   50  H55 UNL     1       1.701   1.261  -2.575  1.00  0.00     0.210 HD
ENDBRANCH  17  49
BRANCH   4  51
HETATM   51  C26 UNL     1       3.034  -1.213   0.955  1.00  0.00     0.244 C 
HETATM   52  O4  UNL     1       2.247  -2.141   0.794  1.00  0.00    -0.306 OA
ENDBRANCH   4  51
BRANCH  13  53
HETATM   53  O7  UNL     1       6.671  -1.569  -2.827  1.00  0.00    -0.389 OA
HETATM   54  H49 UNL     1       6.468  -2.406  -2.375  1.00  0.00     0.210 HD
ENDBRANCH  13  53
BRANCH  10  55
HETATM   55  C33 UNL     1       9.577   1.164  -0.630  1.00  0.00    -0.045 A 
HETATM   56  C34 UNL     1       9.953   1.678   0.542  1.00  0.00     0.087 A 
HETATM   57  C35 UNL     1      11.414   1.676   0.569  1.00  0.00     0.283 A 
HETATM   58  O5  UNL     1      12.093   2.066   1.502  1.00  0.00    -0.260 OA
HETATM   59  O6  UNL     1      11.881   1.171  -0.603  1.00  0.00    -0.314 OA
HETATM   60  C36 UNL     1      10.775   0.834  -1.441  1.00  0.00     0.213 A 
ENDBRANCH  10  55
TORSDOF 12
