REMARK  11 active torsions:
REMARK  status: ('A' for Active; 'I' for Inactive)
REMARK    1  A    between atoms: N1_2  and  C2_3 
REMARK    2  A    between atoms: C2_3  and  C3_4 
REMARK    3  A    between atoms: C3_4  and  C4_5 
REMARK    4  A    between atoms: C7_8  and  C8_9 
REMARK    5  A    between atoms: C8_9  and  O1_10 
REMARK    6  A    between atoms: C9_12  and  C10_13 
REMARK    7  A    between atoms: C10_13  and  O3_14 
REMARK    8  A    between atoms: C10_13  and  C11_15 
REMARK    9  A    between atoms: C11_15  and  O4_17 
REMARK   10  A    between atoms: C11_15  and  C13_18 
REMARK   11  A    between atoms: C20_26  and  C21_27 
ROOT
HETATM    1  C13 UNL     1       1.488   2.062  -0.139  1.00  0.00     0.034 C 
HETATM    2  C14 UNL     1       0.564   3.321  -0.321  1.00  0.00     0.012 C 
HETATM    3  C15 UNL     1      -0.773   2.844  -0.895  1.00  0.00     0.044 C 
HETATM    4  C16 UNL     1      -0.806   1.348  -0.559  1.00  0.00     0.093 C 
HETATM    5  O5  UNL     1      -0.945   1.080   0.857  1.00  0.00    -0.363 OA
HETATM    6  C17 UNL     1      -1.796   1.870   1.673  1.00  0.00     0.263 C 
HETATM    7  C18 UNL     1      -3.040   1.163   1.992  1.00  0.00    -0.080 C 
HETATM    8  C19 UNL     1      -4.065   0.623   2.315  1.00  0.00    -0.093 C 
HETATM    9  C20 UNL     1      -5.330  -0.041   2.722  1.00  0.00     0.121 C 
HETATM   10  C27 UNL     1      -5.311  -1.567   2.449  1.00  0.00     0.190 C 
HETATM   11  O6  UNL     1      -5.589  -1.958   1.097  1.00  0.00    -0.384 OA
HETATM   12  C28 UNL     1      -4.493  -1.844   0.194  1.00  0.00     0.122 C 
HETATM   13  C29 UNL     1      -3.598  -3.084   0.258  1.00  0.00     0.033 C 
HETATM   14  C30 UNL     1      -2.793  -3.321  -1.029  1.00  0.00     0.013 C 
HETATM   15  C31 UNL     1      -2.528  -2.029  -1.860  1.00  0.00    -0.026 C 
HETATM   16  C32 UNL     1      -1.863  -2.465  -3.193  1.00  0.00     0.016 C 
HETATM   17  C33 UNL     1      -3.913  -1.405  -2.233  1.00  0.00     0.071 C 
HETATM   18  C34 UNL     1      -5.036  -1.644  -1.214  1.00  0.00     0.045 C 
HETATM   19  C35 UNL     1      -3.845   0.064  -2.601  1.00  0.00     0.154 C 
HETATM   20  O7  UNL     1      -4.667   0.592  -3.354  1.00  0.00    -0.293 OA
HETATM   21  C36 UNL     1      -2.807   0.921  -2.005  1.00  0.00     0.057 C 
HETATM   22  C37 UNL     1      -1.798   0.436  -1.271  1.00  0.00    -0.036 C 
HETATM   23  C38 UNL     1      -1.579  -1.054  -1.035  1.00  0.00     0.026 C 
HETATM   24  C39 UNL     1      -0.076  -1.463  -1.134  1.00  0.00     0.011 C 
HETATM   25  C40 UNL     1       0.904  -0.488  -0.464  1.00  0.00     0.014 C 
HETATM   26  C41 UNL     1       0.685   0.960  -0.939  1.00  0.00    -0.002 C 
HETATM   27  C42 UNL     1       0.956   1.035  -2.465  1.00  0.00     0.019 C 
ENDROOT
BRANCH   1  28
HETATM   28  C11 UNL     1       2.991   2.433  -0.398  1.00  0.00     0.087 C 
HETATM   29  C12 UNL     1       3.376   3.656   0.470  1.00  0.00     0.049 C 
BRANCH  28  30
HETATM   30  C10 UNL     1       4.104   1.347  -0.203  1.00  0.00     0.181 C 
BRANCH  30  31
HETATM   31  C9  UNL     1       4.322   0.790   1.222  1.00  0.00     0.158 C 
HETATM   32  C4  UNL     1       5.605  -0.031   1.511  1.00  0.00     0.025 C 
HETATM   33  C5  UNL     1       5.101  -1.468   1.516  1.00  0.00     0.019 C 
HETATM   34  C6  UNL     1       5.996  -2.452   2.259  1.00  0.00     0.013 C 
HETATM   35  C7  UNL     1       3.737  -1.274   2.183  1.00  0.00     0.149 C 
HETATM   36  O2  UNL     1       3.218  -0.058   1.607  1.00  0.00    -0.375 OA
BRANCH  32  37
HETATM   37  C3  UNL     1       6.919   0.295   0.771  1.00  0.00     0.037 C 
BRANCH  37  38
HETATM   38  C2  UNL     1       7.315  -0.531  -0.464  1.00  0.00     0.269 C 
BRANCH  38  39
HETATM   39  N1  UNL     1       6.523  -0.263  -1.667  1.00  0.00     0.079 N 
HETATM   40  C1  UNL     1       7.007   0.925  -2.381  1.00  0.00     0.306 C 
HETATM   41  H4  UNL     1       6.657  -1.051  -2.309  1.00  0.00     0.315 HD
ENDBRANCH  38  39
ENDBRANCH  37  38
ENDBRANCH  32  37
BRANCH  35  42
HETATM   42  C8  UNL     1       2.765  -2.434   1.964  1.00  0.00     0.196 C 
BRANCH  42  43
HETATM   43  O1  UNL     1       1.619  -2.281   2.802  1.00  0.00    -0.398 OA
HETATM   44  H17 UNL     1       0.843  -2.542   2.275  1.00  0.00     0.209 HD
ENDBRANCH  42  43
ENDBRANCH  35  42
ENDBRANCH  30  31
BRANCH  30  45
HETATM   45  O3  UNL     1       3.921   0.312  -1.177  1.00  0.00    -0.390 OA
HETATM   46  H20 UNL     1       4.814  -0.072  -1.320  1.00  0.00     0.210 HD
ENDBRANCH  30  45
ENDBRANCH  28  30
BRANCH  28  47
HETATM   47  O4  UNL     1       3.122   2.894  -1.762  1.00  0.00    -0.387 OA
HETATM   48  H24 UNL     1       3.315   2.092  -2.283  1.00  0.00     0.210 HD
ENDBRANCH  28  47
ENDBRANCH   1  28
BRANCH   9  49
HETATM   49  C21 UNL     1      -6.577   0.648   2.187  1.00  0.00    -0.040 A 
HETATM   50  C22 UNL     1      -7.729   0.731   2.989  1.00  0.00     0.008 A 
HETATM   51  C23 UNL     1      -8.886   1.348   2.511  1.00  0.00     0.001 A 
HETATM   52  C24 UNL     1      -8.918   1.882   1.223  1.00  0.00     0.000 A 
HETATM   53  C25 UNL     1      -7.785   1.800   0.414  1.00  0.00     0.001 A 
HETATM   54  C26 UNL     1      -6.627   1.190   0.892  1.00  0.00     0.008 A 
ENDBRANCH   9  49
TORSDOF 11
