REMARK  7 active torsions:
REMARK  status: ('A' for Active; 'I' for Inactive)
REMARK    1  A    between atoms: N1_2  and  C2_3 
REMARK    2  A    between atoms: C2_3  and  C3_4 
REMARK    3  A    between atoms: C5_6  and  O1_7 
REMARK    4  A    between atoms: C29_32  and  N2_33 
REMARK    5  A    between atoms: C29_32  and  C30_34 
REMARK    6  A    between atoms: C30_34  and  C31_35 
REMARK    7  A    between atoms: C31_35  and  O3_36 
ROOT
HETATM    1  C3  UNL     1       4.425   0.815  -0.474  1.00  0.00    -0.021 A 
HETATM    2  C4  UNL     1       4.732   1.866  -1.365  1.00  0.00     0.045 A 
HETATM    3  C5  UNL     1       4.042   3.065  -1.309  1.00  0.00     0.066 A 
HETATM    4  C6  UNL     1       3.057   3.263  -0.359  1.00  0.00     0.045 A 
HETATM    5  C7  UNL     1       2.724   2.248   0.561  1.00  0.00    -0.037 A 
HETATM    6  C8  UNL     1       3.377   0.979   0.479  1.00  0.00    -0.042 A 
HETATM    7  C9  UNL     1       2.978  -0.174   1.402  1.00  0.00     0.044 C 
HETATM    8  C10 UNL     1       2.322  -1.414   0.716  1.00  0.00    -0.006 C 
HETATM    9  C11 UNL     1       2.107  -2.548   1.730  1.00  0.00     0.005 C 
HETATM   10  C12 UNL     1       1.052  -2.243   2.794  1.00  0.00     0.001 C 
HETATM   11  C13 UNL     1      -0.102  -1.363   2.304  1.00  0.00     0.008 C 
HETATM   12  C14 UNL     1      -0.277  -1.434   0.785  1.00  0.00     0.026 C 
HETATM   13  C15 UNL     1       0.999  -1.070  -0.005  1.00  0.00    -0.003 C 
HETATM   14  C16 UNL     1       0.879  -1.724  -1.404  1.00  0.00     0.006 C 
HETATM   15  C17 UNL     1      -0.543  -1.604  -1.997  1.00  0.00     0.008 C 
HETATM   16  C18 UNL     1      -1.319  -0.454  -1.345  1.00  0.00     0.022 C 
HETATM   17  C19 UNL     1      -2.675  -0.156  -1.995  1.00  0.00     0.018 C 
HETATM   18  C20 UNL     1      -3.689   0.207  -0.864  1.00  0.00     0.060 C 
HETATM   19  C21 UNL     1      -3.899  -1.112  -0.048  1.00  0.00     0.061 C 
HETATM   20  C22 UNL     1      -4.501  -2.242  -0.911  1.00  0.00     0.046 C 
HETATM   21  C23 UNL     1      -4.814  -0.983   1.177  1.00  0.00     0.046 C 
HETATM   22  O2  UNL     1      -2.624  -1.588   0.418  1.00  0.00    -0.367 OA
HETATM   23  C24 UNL     1      -1.508  -0.673   0.194  1.00  0.00     0.086 C 
HETATM   24  C25 UNL     1      -1.890   0.697   0.858  1.00  0.00     0.139 C 
HETATM   25  C26 UNL     1      -0.714   1.574   1.075  1.00  0.00    -0.096 C 
HETATM   26  C27 UNL     1       0.335   2.119   1.294  1.00  0.00    -0.101 C 
HETATM   27  C28 UNL     1       1.681   2.617   1.606  1.00  0.00     0.133 C 
HETATM   28  C29 UNL     1      -3.055   1.366   0.015  1.00  0.00     0.180 C 
ENDROOT
BRANCH  28  29
HETATM   29  N2  UNL     1      -2.559   2.415  -0.916  1.00  0.00     0.090 N 
HETATM   30  H38 UNL     1      -2.068   3.144  -0.396  1.00  0.00     0.313 HD
HETATM   31  H39 UNL     1      -3.316   2.866  -1.421  1.00  0.00     0.313 HD
ENDBRANCH  28  29
BRANCH  28  32
HETATM   32  C30 UNL     1      -4.032   2.109   0.975  1.00  0.00     0.069 C 
BRANCH  32  33
HETATM   33  C31 UNL     1      -5.344   2.599   0.364  1.00  0.00     0.166 C 
BRANCH  33  34
HETATM   34  O3  UNL     1      -6.098   3.251   1.380  1.00  0.00    -0.401 OA
HETATM   35  H44 UNL     1      -6.924   3.563   0.971  1.00  0.00     0.209 HD
ENDBRANCH  33  34
ENDBRANCH  32  33
ENDBRANCH  28  32
BRANCH   3  36
HETATM   36  O1  UNL     1       4.319   4.091  -2.163  1.00  0.00    -0.361 OA
HETATM   37  H8  UNL     1       4.987   3.790  -2.801  1.00  0.00     0.217 HD
ENDBRANCH   3  36
BRANCH   1  38
HETATM   38  C2  UNL     1       5.281  -0.436  -0.593  1.00  0.00     0.308 C 
BRANCH  38  39
HETATM   39  N1  UNL     1       4.892  -1.243  -1.749  1.00  0.00     0.083 N 
HETATM   40  C1  UNL     1       5.763  -2.397  -1.903  1.00  0.00     0.307 C 
HETATM   41  H4  UNL     1       4.920  -0.673  -2.591  1.00  0.00     0.315 HD
ENDBRANCH  38  39
ENDBRANCH   1  38
TORSDOF 7
