REMARK  15 active torsions:
REMARK  status: ('A' for Active; 'I' for Inactive)
REMARK    1  A    between atoms: C19_20  and  O2_21 
REMARK    2  A    between atoms: C19_20  and  C20_22 
REMARK    3  A    between atoms: C20_22  and  C21_24 
REMARK    4  A    between atoms: C21_24  and  O4_25 
REMARK    5  A    between atoms: O4_25  and  C22_26 
REMARK    6  A    between atoms: C22_26  and  C23_28 
REMARK    7  A    between atoms: C23_28  and  C24_29 
REMARK    8  A    between atoms: C24_29  and  C25_30 
REMARK       I    between atoms: C25_30  and  N1_32 
REMARK    9  A    between atoms: N1_32  and  C26_33 
REMARK   10  A    between atoms: C26_33  and  C27_34 
REMARK       I    between atoms: C27_34  and  N2_36 
REMARK   11  A    between atoms: N2_36  and  C28_37 
REMARK   12  A    between atoms: C28_37  and  C29_38 
REMARK   13  A    between atoms: C28_37  and  C38_48 
REMARK   14  A    between atoms: C29_38  and  C30_39 
REMARK   15  A    between atoms: C38_48  and  O9_50 
ROOT
HETATM    1  C22 UNL     1       1.502  -2.531  -2.068  1.00  0.00     0.259 C 
HETATM    2  O5  UNL     1       2.042  -1.660  -1.396  1.00  0.00    -0.265 OA
ENDROOT
BRANCH   1   3
HETATM    3  O4  UNL     1       0.273  -3.066  -1.810  1.00  0.00    -0.314 OA
BRANCH   3   4
HETATM    4  C21 UNL     1      -0.421  -2.471  -0.713  1.00  0.00     0.260 C 
BRANCH   4   5
HETATM    5  C20 UNL     1      -1.011  -1.098  -1.046  1.00  0.00     0.185 C 
HETATM    6  O3  UNL     1      -0.787  -0.555  -2.133  1.00  0.00    -0.292 OA
BRANCH   5   7
HETATM    7  C19 UNL     1      -1.892  -0.436   0.046  1.00  0.00     0.128 C 
HETATM    8  C14 UNL     1      -3.361  -0.090  -0.375  1.00  0.00    -0.002 C 
HETATM    9  C13 UNL     1      -4.392  -1.236  -0.347  1.00  0.00     0.013 C 
HETATM   10  C15 UNL     1      -3.400   0.559  -1.790  1.00  0.00     0.019 C 
HETATM   11  C16 UNL     1      -3.722   0.911   0.761  1.00  0.00     0.002 C 
HETATM   12  C12 UNL     1      -5.842  -0.718  -0.457  1.00  0.00     0.007 C 
HETATM   13  C11 UNL     1      -6.163   0.338   0.628  1.00  0.00     0.002 C 
HETATM   14  C2  UNL     1      -7.632   0.880   0.630  1.00  0.00    -0.016 C 
HETATM   15  C10 UNL     1      -5.127   1.510   0.602  1.00  0.00    -0.004 C 
HETATM   16  C1  UNL     1      -7.910   1.786  -0.593  1.00  0.00     0.020 C 
HETATM   17  C3  UNL     1      -8.656  -0.286   0.638  1.00  0.00     0.022 C 
HETATM   18  C7  UNL     1      -7.825   1.687   1.917  1.00  0.00    -0.068 C 
HETATM   19  C4  UNL     1     -10.098   0.173   0.850  1.00  0.00     0.084 C 
HETATM   20  C5  UNL     1     -10.235   1.145   1.998  1.00  0.00     0.149 C 
HETATM   21  O1  UNL     1     -11.325   1.403   2.504  1.00  0.00    -0.293 OA
HETATM   22  C6  UNL     1      -9.021   1.814   2.520  1.00  0.00     0.053 C 
HETATM   23  C8  UNL     1      -6.594   2.261   2.586  1.00  0.00     0.035 C 
HETATM   24  C9  UNL     1      -5.461   2.614   1.625  1.00  0.00     0.010 C 
HETATM   25  C17 UNL     1      -2.516   1.849   0.796  1.00  0.00     0.009 C 
HETATM   26  C18 UNL     1      -1.312   0.953   0.431  1.00  0.00     0.047 C 
BRANCH   7  27
HETATM   27  O2  UNL     1      -1.873  -1.206   1.254  1.00  0.00    -0.381 OA
HETATM   28  H27 UNL     1      -2.444  -1.984   1.162  1.00  0.00     0.211 HD
ENDBRANCH   7  27
ENDBRANCH   5   7
ENDBRANCH   4   5
ENDBRANCH   3   4
ENDBRANCH   1   3
BRANCH   1  29
HETATM   29  C23 UNL     1       2.059  -3.168  -3.322  1.00  0.00     0.120 C 
BRANCH  29  30
HETATM   30  C24 UNL     1       3.400  -2.578  -3.743  1.00  0.00     0.112 C 
BRANCH  30  31
HETATM   31  C25 UNL     1       4.558  -3.161  -2.956  1.00  0.00     0.218 C 
HETATM   32  O6  UNL     1       4.418  -3.956  -2.035  1.00  0.00    -0.274 OA
HETATM   33  N1  UNL     1       5.785  -2.693  -3.376  1.00  0.00    -0.352 N 
HETATM   34  H34 UNL     1       5.842  -2.009  -4.122  1.00  0.00     0.162 HD
BRANCH  33  35
HETATM   35  C26 UNL     1       7.023  -3.092  -2.712  1.00  0.00     0.225 C 
BRANCH  35  36
HETATM   36  C27 UNL     1       7.380  -2.192  -1.518  1.00  0.00     0.236 C 
HETATM   37  O7  UNL     1       8.267  -2.475  -0.720  1.00  0.00    -0.272 OA
HETATM   38  N2  UNL     1       6.687  -1.001  -1.483  1.00  0.00    -0.345 N 
HETATM   39  H37 UNL     1       5.847  -0.998  -2.057  1.00  0.00     0.163 HD
BRANCH  38  40
HETATM   40  C28 UNL     1       6.503  -0.267  -0.218  1.00  0.00     0.186 C 
BRANCH  40  41
HETATM   41  C29 UNL     1       7.111   1.132  -0.321  1.00  0.00     0.077 C 
BRANCH  41  42
HETATM   42  C30 UNL     1       7.510   1.698   1.006  1.00  0.00    -0.028 A 
HETATM   43  C31 UNL     1       6.863   2.693   1.711  1.00  0.00     0.096 A 
HETATM   44  N3  UNL     1       7.548   2.908   2.877  1.00  0.00    -0.365 N 
HETATM   45  C32 UNL     1       8.641   2.078   2.949  1.00  0.00     0.042 A 
HETATM   46  H42 UNL     1       7.286   3.574   3.591  1.00  0.00     0.165 HD
HETATM   47  C33 UNL     1       9.615   1.948   3.947  1.00  0.00     0.030 A 
HETATM   48  C37 UNL     1       8.643   1.305   1.788  1.00  0.00    -0.002 A 
HETATM   49  C34 UNL     1      10.618   0.994   3.752  1.00  0.00     0.002 A 
HETATM   50  C35 UNL     1      10.644   0.202   2.606  1.00  0.00     0.001 A 
HETATM   51  C36 UNL     1       9.664   0.348   1.617  1.00  0.00     0.014 A 
ENDBRANCH  41  42
ENDBRANCH  40  41
BRANCH  40  52
HETATM   52  C38 UNL     1       4.983  -0.170   0.015  1.00  0.00     0.163 C 
HETATM   53  O8  UNL     1       4.406   0.202   1.022  1.00  0.00    -0.648 OA
BRANCH  52  54
HETATM   54  O9  UNL     1       4.290  -0.521  -1.102  1.00  0.00    -0.775 OA
HETATM   55  H47 UNL     1       3.340  -0.637  -0.841  1.00  0.00     0.167 HD
ENDBRANCH  52  54
ENDBRANCH  40  52
ENDBRANCH  38  40
ENDBRANCH  35  36
ENDBRANCH  33  35
ENDBRANCH  30  31
ENDBRANCH  29  30
ENDBRANCH   1  29
TORSDOF 15
