REMARK  15 active torsions:
REMARK  status: ('A' for Active; 'I' for Inactive)
REMARK    1  A    between atoms: O1_2  and  C2_3 
REMARK    2  A    between atoms: C10_14  and  C11_15 
REMARK    3  A    between atoms: C11_15  and  C12_16 
REMARK    4  A    between atoms: C12_16  and  O5_17 
REMARK    5  A    between atoms: C12_16  and  C13_18 
REMARK    6  A    between atoms: C13_18  and  C14_19 
REMARK    7  A    between atoms: C15_20  and  C16_21 
REMARK    8  A    between atoms: C17_22  and  C19_24 
REMARK    9  A    between atoms: C19_24  and  C20_25 
REMARK   10  A    between atoms: C21_26  and  C22_27 
REMARK   11  A    between atoms: C23_28  and  C24_29 
REMARK   12  A    between atoms: C24_29  and  C25_30 
REMARK   13  A    between atoms: C25_30  and  O6_31 
REMARK   14  A    between atoms: C32_39  and  O8_40 
REMARK   15  A    between atoms: C33_41  and  O9_42 
ROOT
HETATM    1  C2  UNL     1      -5.869  -1.012  -0.088  1.00  0.00     0.192 C 
HETATM    2  C3  UNL     1      -5.344  -2.052  -1.122  1.00  0.00     0.074 C 
HETATM    3  C4  UNL     1      -3.908  -2.543  -0.896  1.00  0.00     0.037 C 
HETATM    4  C5  UNL     1      -2.880  -1.670  -1.609  1.00  0.00     0.122 C 
HETATM    5  C6  UNL     1      -2.747  -1.904  -3.102  1.00  0.00     0.035 C 
HETATM    6  C7  UNL     1      -1.318  -1.463  -3.402  1.00  0.00     0.045 C 
HETATM    7  C8  UNL     1      -0.677  -1.259  -2.028  1.00  0.00     0.221 C 
HETATM    8  O2  UNL     1      -1.559  -1.943  -1.115  1.00  0.00    -0.371 OA
HETATM    9  C9  UNL     1      -0.588   0.222  -1.628  1.00  0.00     0.288 C 
HETATM   10  O3  UNL     1      -0.750   1.172  -2.385  1.00  0.00    -0.262 OA
HETATM   11  O4  UNL     1      -0.359   0.332  -0.286  1.00  0.00    -0.314 OA
HETATM   12  C10 UNL     1      -0.892   1.507   0.354  1.00  0.00     0.134 C 
HETATM   13  C26 UNL     1      -1.987   0.987   1.314  1.00  0.00     0.033 C 
HETATM   14  C27 UNL     1      -2.967   2.069   1.777  1.00  0.00     0.005 C 
HETATM   15  C28 UNL     1      -4.248   2.203   0.931  1.00  0.00     0.032 C 
HETATM   16  C29 UNL     1      -5.290   1.061   1.005  1.00  0.00     0.131 C 
HETATM   17  O7  UNL     1      -4.907   0.038   0.073  1.00  0.00    -0.347 OA
HETATM   18  C30 UNL     1      -5.533   0.483   2.407  1.00  0.00     0.042 C 
HETATM   19  C31 UNL     1      -6.048   1.546   3.387  1.00  0.00     0.015 C 
HETATM   20  C32 UNL     1      -6.527  -0.683   2.342  1.00  0.00     0.158 C 
HETATM   21  C33 UNL     1      -6.131  -1.713   1.275  1.00  0.00     0.209 C 
ENDROOT
BRANCH  12  22
HETATM   22  C11 UNL     1       0.220   2.233   1.127  1.00  0.00     0.064 C 
BRANCH  22  23
HETATM   23  C12 UNL     1       1.263   2.952   0.255  1.00  0.00     0.124 C 
BRANCH  23  24
HETATM   24  O5  UNL     1       1.970   3.852   1.124  1.00  0.00    -0.395 OA
HETATM   25  H18 UNL     1       2.881   3.947   0.800  1.00  0.00     0.210 HD
ENDBRANCH  23  24
BRANCH  23  26
HETATM   26  C13 UNL     1       2.260   2.065  -0.518  1.00  0.00     0.059 C 
BRANCH  26  27
HETATM   27  C14 UNL     1       2.969   1.035   0.320  1.00  0.00    -0.024 C 
HETATM   28  C15 UNL     1       4.236   1.036   0.764  1.00  0.00    -0.004 C 
BRANCH  28  29
HETATM   29  C16 UNL     1       5.232   2.058   0.551  1.00  0.00     0.002 C 
HETATM   30  C17 UNL     1       6.503   2.060   1.004  1.00  0.00    -0.080 C 
HETATM   31  C18 UNL     1       7.377   3.261   0.724  1.00  0.00     0.043 C 
BRANCH  30  32
HETATM   32  C19 UNL     1       7.155   0.961   1.826  1.00  0.00     0.060 C 
BRANCH  32  33
HETATM   33  C20 UNL     1       8.404   0.404   1.190  1.00  0.00    -0.022 C 
HETATM   34  C21 UNL     1       8.487  -0.576   0.276  1.00  0.00    -0.004 C 
BRANCH  34  35
HETATM   35  C22 UNL     1       7.362  -1.247  -0.343  1.00  0.00    -0.004 C 
HETATM   36  C23 UNL     1       7.412  -2.272  -1.205  1.00  0.00    -0.025 C 
BRANCH  36  37
HETATM   37  C24 UNL     1       8.623  -3.027  -1.693  1.00  0.00     0.053 C 
BRANCH  37  38
HETATM   38  C25 UNL     1       8.349  -4.531  -1.802  1.00  0.00     0.168 C 
BRANCH  38  39
HETATM   39  O6  UNL     1       7.418  -4.807  -2.851  1.00  0.00    -0.401 OA
HETATM   40  H37 UNL     1       7.779  -4.433  -3.673  1.00  0.00     0.209 HD
ENDBRANCH  38  39
ENDBRANCH  37  38
ENDBRANCH  36  37
ENDBRANCH  34  35
ENDBRANCH  32  33
ENDBRANCH  30  32
ENDBRANCH  28  29
ENDBRANCH  26  27
ENDBRANCH  23  26
ENDBRANCH  22  23
ENDBRANCH  12  22
BRANCH   1  41
HETATM   41  O1  UNL     1      -7.160  -0.505  -0.510  1.00  0.00    -0.358 OA
HETATM   42  C1  UNL     1      -7.167   0.181  -1.756  1.00  0.00     0.205 C 
ENDBRANCH   1  41
BRANCH  20  43
HETATM   43  O8  UNL     1      -6.554  -1.325   3.626  1.00  0.00    -0.392 OA
HETATM   44  H50 UNL     1      -7.485  -1.336   3.932  1.00  0.00     0.210 HD
ENDBRANCH  20  43
BRANCH  21  45
HETATM   45  O9  UNL     1      -7.197  -2.680   1.141  1.00  0.00    -0.387 OA
HETATM   46  H52 UNL     1      -7.903  -2.215   0.649  1.00  0.00     0.210 HD
ENDBRANCH  21  45
TORSDOF 15
