REMARK  8 active torsions:
REMARK  status: ('A' for Active; 'I' for Inactive)
REMARK    1  A    between atoms: C4_4  and  C5_5 
REMARK    2  A    between atoms: C5_5  and  O2_7 
REMARK    3  A    between atoms: O2_7  and  C6_8 
REMARK    4  A    between atoms: C15_17  and  C16_18 
REMARK    5  A    between atoms: C16_18  and  O4_20 
REMARK    6  A    between atoms: O4_20  and  C17_21 
REMARK    7  A    between atoms: C17_21  and  C18_22 
REMARK    8  A    between atoms: C18_22  and  N1_23 
ROOT
HETATM    1  C6  UNL     1       3.685   1.014  -0.144  1.00  0.00     0.140 C 
HETATM    2  C7  UNL     1       2.916   0.565  -1.388  1.00  0.00     0.034 C 
HETATM    3  C8  UNL     1       1.441   0.360  -1.076  1.00  0.00     0.012 C 
HETATM    4  C9  UNL     1       1.171  -0.674   0.052  1.00  0.00    -0.035 C 
HETATM    5  C10 UNL     1       1.408  -2.093  -0.523  1.00  0.00     0.016 C 
HETATM    6  C11 UNL     1      -0.344  -0.507   0.510  1.00  0.00     0.006 C 
HETATM    7  C12 UNL     1      -1.366  -1.185  -0.417  1.00  0.00     0.010 C 
HETATM    8  C13 UNL     1      -2.789  -0.716  -0.103  1.00  0.00     0.035 C 
HETATM    9  C14 UNL     1      -3.086  -0.620   1.381  1.00  0.00    -0.070 C 
HETATM   10  C15 UNL     1      -4.137   0.072   1.874  1.00  0.00     0.085 C 
HETATM   11  C21 UNL     1      -2.077  -1.374   2.262  1.00  0.00     0.022 C 
HETATM   12  C22 UNL     1      -2.384  -1.335   3.771  1.00  0.00     0.015 C 
HETATM   13  C23 UNL     1      -0.627  -0.873   1.998  1.00  0.00     0.068 C 
HETATM   14  C24 UNL     1       0.422  -1.864   2.479  1.00  0.00     0.132 C 
HETATM   15  O5  UNL     1       0.145  -2.970   2.944  1.00  0.00    -0.298 OA
HETATM   16  C25 UNL     1       1.866  -1.412   2.402  1.00  0.00     0.085 C 
HETATM   17  C26 UNL     1       2.081  -0.362   1.294  1.00  0.00     0.011 C 
HETATM   18  C27 UNL     1       3.598  -0.031   1.012  1.00  0.00    -0.016 C 
HETATM   19  C28 UNL     1       4.491  -1.256   0.704  1.00  0.00     0.018 C 
HETATM   20  C29 UNL     1       4.210   0.620   2.283  1.00  0.00     0.018 C 
ENDROOT
BRANCH  10  21
HETATM   21  C16 UNL     1      -5.214   0.825   1.180  1.00  0.00     0.283 C 
HETATM   22  O3  UNL     1      -5.990   1.539   1.800  1.00  0.00    -0.260 OA
BRANCH  21  23
HETATM   23  O4  UNL     1      -5.237   0.597  -0.151  1.00  0.00    -0.316 OA
BRANCH  23  24
HETATM   24  C17 UNL     1      -6.245   1.302  -0.899  1.00  0.00     0.209 C 
BRANCH  24  25
HETATM   25  C18 UNL     1      -7.536   0.468  -0.963  1.00  0.00     0.298 C 
BRANCH  25  26
HETATM   26  N1  UNL     1      -8.619   1.094  -1.747  1.00  0.00     0.082 N 
HETATM   27  C19 UNL     1      -9.877   0.373  -1.525  1.00  0.00     0.309 C 
HETATM   28  C20 UNL     1      -8.313   1.122  -3.178  1.00  0.00     0.309 C 
ENDBRANCH  25  26
ENDBRANCH  24  25
ENDBRANCH  23  24
ENDBRANCH  21  23
ENDBRANCH  10  21
BRANCH   1  29
HETATM   29  O2  UNL     1       5.066   1.221  -0.498  1.00  0.00    -0.312 OA
BRANCH  29  30
HETATM   30  C5  UNL     1       5.383   2.421  -1.038  1.00  0.00     0.283 C 
HETATM   31  O1  UNL     1       4.619   3.357  -1.217  1.00  0.00    -0.260 OA
BRANCH  30  32
HETATM   32  C4  UNL     1       6.830   2.517  -1.324  1.00  0.00     0.084 C 
HETATM   33  C2  UNL     1       7.674   1.537  -1.705  1.00  0.00    -0.082 C 
HETATM   34  C1  UNL     1       7.290   0.111  -1.988  1.00  0.00     0.043 C 
HETATM   35  C3  UNL     1       9.138   1.836  -1.910  1.00  0.00     0.043 C 
ENDBRANCH  30  32
ENDBRANCH  29  30
ENDBRANCH   1  29
TORSDOF 8
