REMARK  12 active torsions:
REMARK  status: ('A' for Active; 'I' for Inactive)
REMARK    1  A    between atoms: C3_3  and  C4_4 
REMARK    2  A    between atoms: C4_4  and  C5_5 
REMARK    3  A    between atoms: C4_4  and  N3_26 
REMARK       I    between atoms: C5_5  and  N1_7 
REMARK    4  A    between atoms: N1_7  and  C6_8 
REMARK    5  A    between atoms: C6_8  and  C7_9 
REMARK    6  A    between atoms: C6_8  and  C15_19 
REMARK    7  A    between atoms: C8_10  and  C9_11 
REMARK    8  A    between atoms: C9_11  and  O3_13 
REMARK    9  A    between atoms: O3_13  and  C10_14 
REMARK   10  A    between atoms: C15_19  and  C16_20 
REMARK   11  A    between atoms: C23_30  and  N4_31 
REMARK       I    between atoms: N4_31  and  C24_32 
REMARK   12  A    between atoms: C24_32  and  C25_34 
ROOT
HETATM    1  C1  UNL     1       2.124  -5.617  -3.456  1.00  0.00     0.012 C 
HETATM    2  C2  UNL     1       1.932  -5.135  -2.374  1.00  0.00    -0.115 C 
HETATM    3  C3  UNL     1       1.691  -4.525  -1.054  1.00  0.00     0.128 C 
ENDROOT
BRANCH   3   4
HETATM    4  C4  UNL     1       1.457  -2.999  -1.130  1.00  0.00     0.195 C 
BRANCH   4   5
HETATM    5  C5  UNL     1       0.009  -2.696  -1.597  1.00  0.00     0.242 C 
HETATM    6  O1  UNL     1      -0.454  -3.163  -2.635  1.00  0.00    -0.271 OA
HETATM    7  N1  UNL     1      -0.755  -1.927  -0.743  1.00  0.00    -0.351 N 
HETATM    8  H5  UNL     1      -0.267  -1.443  -0.001  1.00  0.00     0.163 HD
BRANCH   7   9
HETATM    9  C6  UNL     1      -2.111  -1.511  -1.054  1.00  0.00     0.108 C 
BRANCH   9  10
HETATM   10  C7  UNL     1      -2.144  -0.023  -0.812  1.00  0.00     0.004 C 
HETATM   11  C8  UNL     1      -2.195   0.888  -1.799  1.00  0.00     0.080 C 
BRANCH  11  12
HETATM   12  C9  UNL     1      -2.307   2.345  -1.581  1.00  0.00     0.283 C 
HETATM   13  O2  UNL     1      -2.072   3.159  -2.460  1.00  0.00    -0.260 OA
BRANCH  12  14
HETATM   14  O3  UNL     1      -2.748   2.617  -0.327  1.00  0.00    -0.313 OA
BRANCH  14  15
HETATM   15  C10 UNL     1      -2.981   3.997  -0.041  1.00  0.00     0.132 C 
HETATM   16  C11 UNL     1      -1.715   4.683   0.456  1.00  0.00     0.032 C 
HETATM   17  C12 UNL     1      -2.255   5.849   1.264  1.00  0.00     0.002 C 
HETATM   18  C13 UNL     1      -3.447   5.255   2.006  1.00  0.00     0.002 C 
HETATM   19  C14 UNL     1      -3.967   4.120   1.124  1.00  0.00     0.032 C 
ENDBRANCH  14  15
ENDBRANCH  12  14
ENDBRANCH  11  12
ENDBRANCH   9  10
BRANCH   9  20
HETATM   20  C15 UNL     1      -3.153  -2.205  -0.145  1.00  0.00     0.043 C 
BRANCH  20  21
HETATM   21  C16 UNL     1      -3.767  -3.506  -0.666  1.00  0.00     0.081 C 
HETATM   22  C17 UNL     1      -2.859  -4.731  -0.772  1.00  0.00     0.034 C 
HETATM   23  C18 UNL     1      -3.497  -5.560  -1.877  1.00  0.00     0.123 C 
HETATM   24  N2  UNL     1      -4.183  -4.600  -2.684  1.00  0.00    -0.361 N 
HETATM   25  C19 UNL     1      -4.339  -3.383  -2.062  1.00  0.00     0.222 C 
HETATM   26  H25 UNL     1      -4.481  -4.741  -3.643  1.00  0.00     0.162 HD
HETATM   27  O4  UNL     1      -4.881  -2.404  -2.542  1.00  0.00    -0.273 OA
ENDBRANCH  20  21
ENDBRANCH   9  20
ENDBRANCH   7   9
ENDBRANCH   4   5
BRANCH   4  28
HETATM   28  N3  UNL     1       1.817  -2.298   0.136  1.00  0.00    -0.308 N 
HETATM   29  C20 UNL     1       1.421  -2.800   1.369  1.00  0.00     0.095 A 
HETATM   30  C21 UNL     1       1.743  -2.177   2.507  1.00  0.00     0.020 A 
HETATM   31  C22 UNL     1       2.537  -0.975   2.482  1.00  0.00     0.037 A 
HETATM   32  C23 UNL     1       2.947  -0.431   1.327  1.00  0.00     0.104 A 
HETATM   33  C29 UNL     1       2.546  -1.108   0.032  1.00  0.00     0.275 A 
HETATM   34  O7  UNL     1       2.875  -0.590  -1.034  1.00  0.00    -0.265 OA
BRANCH  32  35
HETATM   35  N4  UNL     1       3.726   0.696   1.184  1.00  0.00    -0.317 N 
HETATM   36  C24 UNL     1       4.292   1.499   2.157  1.00  0.00     0.274 C 
HETATM   37  O5  UNL     1       4.134   1.367   3.367  1.00  0.00    -0.266 OA
HETATM   38  H29 UNL     1       3.946   0.952   0.217  1.00  0.00     0.169 HD
BRANCH  36  39
HETATM   39  C25 UNL     1       5.120   2.579   1.609  1.00  0.00     0.125 A 
HETATM   40  C26 UNL     1       5.796   3.598   2.328  1.00  0.00     0.071 A 
HETATM   41  C27 UNL     1       6.409   4.355   1.361  1.00  0.00     0.075 A 
HETATM   42  C28 UNL     1       7.239   5.572   1.383  1.00  0.00     0.079 C 
HETATM   43  O6  UNL     1       6.134   3.828   0.139  1.00  0.00    -0.242 OA
HETATM   44  N5  UNL     1       5.327   2.713   0.287  1.00  0.00    -0.256 N 
ATOM     45  H5  UNL     1       4.964   2.115  -0.455  1.00  0.00     0.195 HD
ENDBRANCH  36  39
ENDBRANCH  32  35
ENDBRANCH   4  28
ENDBRANCH   3   4
TORSDOF 12
