REMARK  6 active torsions:
REMARK  status: ('A' for Active; 'I' for Inactive)
REMARK    1  A    between atoms: C9_10  and  C10_11 
REMARK    2  A    between atoms: C11_13  and  O3_14 
REMARK    3  A    between atoms: C12_15  and  C13_16 
REMARK    4  A    between atoms: C14_18  and  O5_19 
REMARK    5  A    between atoms: C16_21  and  C17_22 
REMARK    6  A    between atoms: C17_22  and  C18_23 
ROOT
HETATM    1  C1  UNL     1       4.522   2.524  -0.581  1.00  0.00     0.043 C 
HETATM    2  C2  UNL     1       3.926   1.158  -0.845  1.00  0.00    -0.087 C 
HETATM    3  C3  UNL     1       3.010   1.024  -1.825  1.00  0.00    -0.024 C 
HETATM    4  C4  UNL     1       2.277  -0.174  -2.358  1.00  0.00     0.030 C 
HETATM    5  C5  UNL     1       1.918  -1.335  -1.429  1.00  0.00     0.042 C 
HETATM    6  C6  UNL     1       0.632  -1.200  -0.560  1.00  0.00     0.069 C 
HETATM    7  C7  UNL     1       0.544  -2.477   0.301  1.00  0.00     0.047 C 
HETATM    8  O1  UNL     1      -0.405  -1.301  -1.604  1.00  0.00    -0.338 OA
HETATM    9  C8  UNL     1      -1.694  -1.367  -1.157  1.00  0.00     0.095 A 
HETATM   10  C9  UNL     1      -2.602  -2.154  -1.881  1.00  0.00     0.070 A 
HETATM   11  C11 UNL     1      -3.907  -2.342  -1.404  1.00  0.00     0.097 A 
HETATM   12  C12 UNL     1      -4.291  -1.748  -0.201  1.00  0.00     0.069 A 
HETATM   13  C14 UNL     1      -3.380  -0.937   0.499  1.00  0.00     0.091 A 
HETATM   14  C15 UNL     1      -2.087  -0.692  -0.000  1.00  0.00     0.015 A 
HETATM   15  C16 UNL     1      -1.119   0.251   0.690  1.00  0.00     0.032 C 
HETATM   16  C21 UNL     1       0.375   0.151   0.167  1.00  0.00     0.034 C 
HETATM   17  C22 UNL     1       1.299   0.814   1.182  1.00  0.00     0.006 A 
HETATM   18  C23 UNL     1       2.703   0.613   1.724  1.00  0.00    -0.001 A 
HETATM   19  C24 UNL     1       3.670  -0.405   1.241  1.00  0.00     0.010 C 
HETATM   20  C25 UNL     1       4.500   0.052   0.021  1.00  0.00     0.034 C 
HETATM   21  C26 UNL     1       1.509   0.370   2.641  1.00  0.00    -0.039 A 
HETATM   22  C27 UNL     1       1.263  -1.019   3.164  1.00  0.00     0.015 C 
HETATM   23  C28 UNL     1       1.194   1.426   3.683  1.00  0.00     0.015 C 
ENDROOT
BRANCH  15  24
HETATM   24  C17 UNL     1      -1.653   1.721   0.793  1.00  0.00     0.014 C 
BRANCH  24  25
HETATM   25  C18 UNL     1      -2.099   2.537  -0.448  1.00  0.00    -0.022 C 
HETATM   26  C19 UNL     1      -3.432   2.086  -1.047  1.00  0.00     0.009 C 
HETATM   27  C20 UNL     1      -1.055   2.685  -1.549  1.00  0.00     0.009 C 
ENDBRANCH  24  25
ENDBRANCH  15  24
BRANCH  13  28
HETATM   28  O5  UNL     1      -3.713  -0.365   1.702  1.00  0.00    -0.359 OA
HETATM   29  H15 UNL     1      -4.646  -0.599   1.917  1.00  0.00     0.217 HD
ENDBRANCH  13  28
BRANCH  10  30
HETATM   30  C10 UNL     1      -2.161  -2.803  -3.132  1.00  0.00     0.275 C 
HETATM   31  O2  UNL     1      -2.934  -3.521  -3.763  1.00  0.00    -0.301 OA
ENDBRANCH  10  30
BRANCH  12  32
HETATM   32  C13 UNL     1      -5.654  -1.978   0.322  1.00  0.00     0.275 C 
HETATM   33  O4  UNL     1      -6.012  -1.461   1.378  1.00  0.00    -0.301 OA
ENDBRANCH  12  32
BRANCH  11  34
HETATM   34  O3  UNL     1      -4.820  -3.115  -2.078  1.00  0.00    -0.359 OA
HETATM   35  H13 UNL     1      -4.393  -3.474  -2.891  1.00  0.00     0.217 HD
ENDBRANCH  11  34
TORSDOF 6
