REMARK  19 active torsions:
REMARK  status: ('A' for Active; 'I' for Inactive)
REMARK    1  A    between atoms: C2_2  and  C3_3 
REMARK    2  A    between atoms: C3_3  and  C5_5 
REMARK    3  A    between atoms: C5_5  and  N1_6 
REMARK    4  A    between atoms: C5_5  and  C37_46 
REMARK       I    between atoms: N1_6  and  C6_7 
REMARK    5  A    between atoms: C6_7  and  C7_9 
REMARK    6  A    between atoms: C7_9  and  C8_10 
REMARK    7  A    between atoms: C8_10  and  C9_11 
REMARK    8  A    between atoms: C9_11  and  C10_12 
REMARK    9  A    between atoms: C10_12  and  C11_13 
REMARK   10  A    between atoms: C11_13  and  N2_14 
REMARK       I    between atoms: N2_14  and  C12_15 
REMARK   11  A    between atoms: C12_15  and  C13_17 
REMARK   12  A    between atoms: C13_17  and  C14_18 
REMARK   13  A    between atoms: C14_18  and  C15_19 
REMARK   14  A    between atoms: C15_19  and  O4_21 
REMARK   15  A    between atoms: O4_21  and  C16_22 
REMARK   16  A    between atoms: C16_22  and  C17_23 
REMARK   17  A    between atoms: C17_23  and  C18_25 
REMARK   18  A    between atoms: C18_25  and  O6_26 
REMARK   19  A    between atoms: C37_46  and  O9_48 
ROOT
HETATM    1  C15 UNL     1       0.158  -0.518  -0.969  1.00  0.00     0.259 C 
HETATM    2  O3  UNL     1       1.144   0.193  -0.838  1.00  0.00    -0.265 OA
ENDROOT
BRANCH   1   3
HETATM    3  C14 UNL     1       0.147  -2.026  -0.900  1.00  0.00     0.120 C 
BRANCH   3   4
HETATM    4  C13 UNL     1       1.530  -2.573  -0.570  1.00  0.00     0.112 C 
BRANCH   4   5
HETATM    5  C12 UNL     1       2.449  -2.555  -1.777  1.00  0.00     0.217 C 
HETATM    6  N2  UNL     1       3.764  -2.821  -1.450  1.00  0.00    -0.361 N 
HETATM    7  H22 UNL     1       4.026  -2.666  -0.486  1.00  0.00     0.162 HD
HETATM    8  O2  UNL     1       2.047  -2.379  -2.924  1.00  0.00    -0.274 OA
BRANCH   6   9
HETATM    9  C11 UNL     1       4.808  -2.732  -2.452  1.00  0.00     0.122 C 
BRANCH   9  10
HETATM   10  C10 UNL     1       6.079  -3.478  -2.043  1.00  0.00     0.020 C 
BRANCH  10  11
HETATM   11  C9  UNL     1       7.080  -2.648  -1.230  1.00  0.00     0.002 C 
BRANCH  11  12
HETATM   12  C8  UNL     1       6.578  -2.219   0.152  1.00  0.00     0.009 C 
BRANCH  12  13
HETATM   13  C7  UNL     1       7.690  -1.606   1.005  1.00  0.00     0.103 C 
BRANCH  13  14
HETATM   14  C6  UNL     1       8.132  -0.237   0.517  1.00  0.00     0.218 C 
HETATM   15  N1  UNL     1       9.350   0.145   1.036  1.00  0.00    -0.346 N 
HETATM   16  H11 UNL     1       9.619  -0.296   1.908  1.00  0.00     0.163 HD
HETATM   17  O1  UNL     1       7.469   0.458  -0.242  1.00  0.00    -0.274 OA
BRANCH  15  18
HETATM   18  C5  UNL     1       9.858   1.508   0.846  1.00  0.00     0.186 C 
BRANCH  18  19
HETATM   19  C3  UNL     1      11.360   1.511   0.471  1.00  0.00     0.014 C 
HETATM   20  C4  UNL     1      12.226   0.784   1.509  1.00  0.00     0.012 C 
BRANCH  19  21
HETATM   21  C2  UNL     1      11.554   0.927  -0.947  1.00  0.00     0.002 C 
HETATM   22  C1  UNL     1      12.969   1.092  -1.484  1.00  0.00     0.005 C 
ENDBRANCH  19  21
ENDBRANCH  18  19
BRANCH  18  23
HETATM   23  C37 UNL     1       9.612   2.364   2.097  1.00  0.00     0.163 C 
HETATM   24  O8  UNL     1       9.836   3.559   2.210  1.00  0.00    -0.648 OA
BRANCH  23  25
HETATM   25  O9  UNL     1       9.167   1.661   3.164  1.00  0.00    -0.775 OA
HETATM   26  H56 UNL     1       9.058   2.349   3.857  1.00  0.00     0.167 HD
ENDBRANCH  23  25
ENDBRANCH  18  23
ENDBRANCH  15  18
ENDBRANCH  13  14
ENDBRANCH  12  13
ENDBRANCH  11  12
ENDBRANCH  10  11
ENDBRANCH   9  10
ENDBRANCH   6   9
ENDBRANCH   4   5
ENDBRANCH   3   4
ENDBRANCH   1   3
BRANCH   1  27
HETATM   27  O4  UNL     1      -1.115  -0.064  -1.153  1.00  0.00    -0.314 OA
BRANCH  27  28
HETATM   28  C16 UNL     1      -1.216   1.361  -1.178  1.00  0.00     0.260 C 
BRANCH  28  29
HETATM   29  C17 UNL     1      -2.681   1.767  -1.099  1.00  0.00     0.185 C 
HETATM   30  O5  UNL     1      -3.178   2.482  -1.976  1.00  0.00    -0.292 OA
BRANCH  29  31
HETATM   31  C18 UNL     1      -3.490   1.298   0.150  1.00  0.00     0.128 C 
HETATM   32  C19 UNL     1      -4.027   2.544   0.878  1.00  0.00     0.047 C 
HETATM   33  C20 UNL     1      -5.491   2.708   0.452  1.00  0.00     0.009 C 
HETATM   34  C21 UNL     1      -5.786   1.587  -0.562  1.00  0.00     0.002 C 
HETATM   35  C22 UNL     1      -7.260   1.124  -0.720  1.00  0.00    -0.004 C 
HETATM   36  C35 UNL     1      -4.786   0.479  -0.171  1.00  0.00    -0.002 C 
HETATM   37  C23 UNL     1      -8.259   2.301  -0.656  1.00  0.00     0.010 C 
HETATM   38  C32 UNL     1      -7.659  -0.111   0.152  1.00  0.00     0.002 C 
HETATM   39  C24 UNL     1      -9.033   2.381   0.654  1.00  0.00     0.035 C 
HETATM   40  C25 UNL     1      -9.756   1.101   0.988  1.00  0.00    -0.068 C 
HETATM   41  C26 UNL     1     -10.832   1.140   1.797  1.00  0.00     0.053 C 
HETATM   42  C30 UNL     1      -9.211  -0.202   0.409  1.00  0.00    -0.016 C 
HETATM   43  C27 UNL     1     -11.568  -0.086   2.191  1.00  0.00     0.149 C 
HETATM   44  O7  UNL     1     -12.595   0.018   2.863  1.00  0.00    -0.293 OA
HETATM   45  C28 UNL     1     -11.050  -1.428   1.726  1.00  0.00     0.084 C 
HETATM   46  C29 UNL     1      -9.562  -1.356   1.391  1.00  0.00     0.022 C 
HETATM   47  C31 UNL     1      -9.918  -0.503  -0.944  1.00  0.00     0.020 C 
HETATM   48  C33 UNL     1      -6.778  -0.187   1.404  1.00  0.00     0.007 C 
HETATM   49  C34 UNL     1      -5.283  -0.299   1.087  1.00  0.00     0.013 C 
HETATM   50  C36 UNL     1      -4.561  -0.521  -1.321  1.00  0.00     0.019 C 
BRANCH  31  51
HETATM   51  O6  UNL     1      -2.643   0.587   1.050  1.00  0.00    -0.381 OA
HETATM   52  H29 UNL     1      -2.442  -0.273   0.640  1.00  0.00     0.211 HD
ENDBRANCH  31  51
ENDBRANCH  29  31
ENDBRANCH  28  29
ENDBRANCH  27  28
ENDBRANCH   1  27
TORSDOF 19
