REMARK  12 active torsions:
REMARK  status: ('A' for Active; 'I' for Inactive)
REMARK    1  A    between atoms: C4_4  and  C5_5 
REMARK    2  A    between atoms: C5_5  and  C6_6 
REMARK    3  A    between atoms: C6_6  and  C7_7 
REMARK    4  A    between atoms: C9_9  and  C10_10 
REMARK    5  A    between atoms: C11_11  and  C12_12 
REMARK    6  A    between atoms: C14_14  and  C15_15 
REMARK    7  A    between atoms: C19_20  and  C20_21 
REMARK    8  A    between atoms: C20_21  and  C21_22 
REMARK    9  A    between atoms: C21_22  and  C22_23 
REMARK   10  A    between atoms: C22_23  and  O2_24 
REMARK   11  A    between atoms: C24_26  and  C26_28 
REMARK   12  A    between atoms: C29_32  and  O4_34 
ROOT
HETATM    1  C15 UNL     1      -1.342   0.254   1.003  1.00  0.00     0.145 C 
HETATM    2  C16 UNL     1      -2.040   0.122  -0.353  1.00  0.00     0.051 C 
HETATM    3  C17 UNL     1      -3.183  -0.882  -0.127  1.00  0.00     0.022 C 
HETATM    4  C18 UNL     1      -2.531  -1.734   0.974  1.00  0.00     0.181 C 
HETATM    5  O1  UNL     1      -1.835  -0.818   1.829  1.00  0.00    -0.381 OA
HETATM    6  C19 UNL     1      -4.532  -0.212   0.369  1.00  0.00     0.029 C 
HETATM    7  C23 UNL     1      -5.569  -1.324   0.651  1.00  0.00    -0.066 C 
HETATM    8  C24 UNL     1      -6.099  -1.748   1.827  1.00  0.00    -0.021 C 
HETATM    9  C25 UNL     1      -7.225  -2.748   1.933  1.00  0.00     0.052 C 
HETATM   10  C27 UNL     1      -5.920  -2.028  -0.655  1.00  0.00     0.038 C 
HETATM   11  C28 UNL     1      -4.663  -2.700  -1.210  1.00  0.00     0.042 C 
HETATM   12  C29 UNL     1      -3.485  -1.726  -1.425  1.00  0.00     0.065 C 
HETATM   13  C30 UNL     1      -3.749  -0.848  -2.667  1.00  0.00     0.047 C 
ENDROOT
BRANCH   6  14
HETATM   14  C20 UNL     1      -4.422   0.977   1.358  1.00  0.00     0.012 C 
BRANCH  14  15
HETATM   15  C21 UNL     1      -5.738   1.702   1.697  1.00  0.00     0.027 C 
BRANCH  15  16
HETATM   16  C22 UNL     1      -6.523   2.219   0.496  1.00  0.00     0.164 C 
BRANCH  16  17
HETATM   17  O2  UNL     1      -5.680   2.993  -0.345  1.00  0.00    -0.401 OA
HETATM   18  H34 UNL     1      -6.254   3.427  -1.001  1.00  0.00     0.209 HD
ENDBRANCH  16  17
ENDBRANCH  15  16
ENDBRANCH  14  15
ENDBRANCH   6  14
BRANCH  12  19
HETATM   19  O4  UNL     1      -2.335  -2.523  -1.746  1.00  0.00    -0.389 OA
HETATM   20  H46 UNL     1      -2.500  -2.986  -2.587  1.00  0.00     0.210 HD
ENDBRANCH  12  19
BRANCH   1  21
HETATM   21  C14 UNL     1       0.153   0.129   0.914  1.00  0.00     0.011 C 
HETATM   22  C12 UNL     1       1.048   1.122   0.723  1.00  0.00    -0.063 C 
HETATM   23  C13 UNL     1       0.656   2.565   0.531  1.00  0.00     0.048 C 
BRANCH  22  24
HETATM   24  C11 UNL     1       2.471   0.783   0.679  1.00  0.00     0.006 C 
HETATM   25  C10 UNL     1       3.490   1.632   0.460  1.00  0.00     0.001 C 
BRANCH  25  26
HETATM   26  C9  UNL     1       4.871   1.194   0.423  1.00  0.00     0.002 C 
HETATM   27  C7  UNL     1       5.961   1.950   0.180  1.00  0.00    -0.084 C 
HETATM   28  C8  UNL     1       5.965   3.435  -0.071  1.00  0.00     0.043 C 
BRANCH  27  29
HETATM   29  C6  UNL     1       7.335   1.300   0.164  1.00  0.00     0.037 C 
BRANCH  29  30
HETATM   30  C5  UNL     1       7.869   1.105  -1.259  1.00  0.00     0.031 C 
BRANCH  30  31
HETATM   31  C4  UNL     1       9.204   0.409  -1.258  1.00  0.00    -0.024 C 
HETATM   32  C2  UNL     1       9.444  -0.896  -1.495  1.00  0.00    -0.091 C 
HETATM   33  C1  UNL     1      10.852  -1.432  -1.497  1.00  0.00     0.042 C 
HETATM   34  C3  UNL     1       8.386  -1.932  -1.759  1.00  0.00     0.042 C 
ENDBRANCH  30  31
ENDBRANCH  29  30
ENDBRANCH  27  29
ENDBRANCH  25  26
ENDBRANCH  22  24
ENDBRANCH   1  21
BRANCH   8  35
HETATM   35  C26 UNL     1      -5.574  -1.323   3.160  1.00  0.00     0.265 C 
HETATM   36  O3  UNL     1      -6.240  -1.375   4.187  1.00  0.00    -0.302 OA
ENDBRANCH   8  35
TORSDOF 12
