REMARK  2 active torsions:
REMARK  status: ('A' for Active; 'I' for Inactive)
REMARK    1  A    between atoms: C2_2  and  C3_3 
REMARK    2  A    between atoms: C3_3  and  C4_4 
ROOT
HETATM    1  C3  UNL     1       0.496   0.051  -0.256  1.00  0.00     0.011 C 
HETATM    2  C7  UNL     1      -0.101  -0.063   1.184  1.00  0.00     0.055 C 
HETATM    3  C8  UNL     1      -1.566  -0.248   0.926  1.00  0.00    -0.051 A 
HETATM    4  C9  UNL     1      -2.536  -0.709   1.803  1.00  0.00     0.011 A 
HETATM    5  C10 UNL     1      -3.858  -0.763   1.355  1.00  0.00     0.043 A 
HETATM    6  C11 UNL     1      -4.178  -0.346   0.058  1.00  0.00     0.117 A 
HETATM    7  F1  UNL     1      -5.454  -0.400  -0.348  1.00  0.00    -0.206 F 
HETATM    8  C12 UNL     1      -3.205   0.128  -0.817  1.00  0.00     0.049 A 
HETATM    9  C13 UNL     1      -1.896   0.165  -0.368  1.00  0.00    -0.048 A 
HETATM   10  C14 UNL     1      -0.682   0.658  -1.096  1.00  0.00     0.055 C 
ENDROOT
BRANCH   1  11
HETATM   11  C2  UNL     1       0.854  -1.353  -0.844  1.00  0.00     0.012 C 
HETATM   12  C1  UNL     1       1.980  -2.100  -0.136  1.00  0.00     0.006 C 
ENDBRANCH   1  11
BRANCH   1  13
HETATM   13  C4  UNL     1       1.700   0.961  -0.320  1.00  0.00     0.035 A 
HETATM   14  C5  UNL     1       2.577   1.351   0.673  1.00  0.00     0.114 A 
HETATM   15  N1  UNL     1       3.489   2.162   0.056  1.00  0.00    -0.360 N 
HETATM   16  C6  UNL     1       3.153   2.230  -1.264  1.00  0.00     0.180 A 
HETATM   17  H7  UNL     1       4.276   2.624   0.492  1.00  0.00     0.166 HD
HETATM   18  N2  UNL     1       2.084   1.515  -1.523  1.00  0.00    -0.354 N 
ATOM     19  H2  UNL     1       1.630   1.394  -2.428  1.00  0.00     0.166 HD
ENDBRANCH   1  13
TORSDOF 2
