REMARK  6 active torsions:
REMARK  status: ('A' for Active; 'I' for Inactive)
REMARK    1  A    between atoms: C6_8  and  C7_9 
REMARK    2  A    between atoms: C10_12  and  O1_13 
REMARK    3  A    between atoms: O1_13  and  C11_14 
REMARK    4  A    between atoms: C18_22  and  C19_23 
REMARK    5  A    between atoms: C22_26  and  O2_27 
REMARK    6  A    between atoms: O2_27  and  C23_28 
ROOT
HETATM    1  C1  UNL     1       3.419   0.144  -4.140  1.00  0.00     0.049 C 
HETATM    2  C2  UNL     1       1.995   0.258  -3.671  1.00  0.00    -0.046 A 
HETATM    3  C3  UNL     1       0.991   0.504  -4.542  1.00  0.00     0.056 A 
HETATM    4  C4  UNL     1      -0.351   0.614  -4.088  1.00  0.00     0.112 A 
HETATM    5  N1  UNL     1      -1.461   0.868  -4.745  1.00  0.00    -0.350 N 
ATOM      6  H1  UNL     1      -1.565   1.036  -5.746  1.00  0.00     0.166 HD
HETATM    7  C5  UNL     1      -2.447   0.859  -3.795  1.00  0.00     0.120 A 
HETATM    8  C6  UNL     1      -1.948   0.584  -2.535  1.00  0.00     0.066 A 
HETATM    9  N2  UNL     1      -0.582   0.445  -2.727  1.00  0.00    -0.305 N 
HETATM   10  C17 UNL     1       0.440   0.202  -1.809  1.00  0.00     0.112 A 
HETATM   11  C18 UNL     1       1.718   0.102  -2.230  1.00  0.00    -0.004 A 
ENDROOT
BRANCH   8  12
HETATM   12  C7  UNL     1      -2.645   0.477  -1.260  1.00  0.00    -0.007 A 
HETATM   13  C8  UNL     1      -2.638  -0.723  -0.537  1.00  0.00     0.016 A 
HETATM   14  C9  UNL     1      -3.317  -0.819   0.680  1.00  0.00     0.037 A 
HETATM   15  C10 UNL     1      -4.034   0.273   1.162  1.00  0.00     0.069 A 
HETATM   16  C15 UNL     1      -4.018   1.482   0.470  1.00  0.00     0.037 A 
HETATM   17  C16 UNL     1      -3.340   1.579  -0.747  1.00  0.00     0.016 A 
BRANCH  15  18
HETATM   18  O1  UNL     1      -4.650   0.204   2.378  1.00  0.00    -0.341 OA
BRANCH  18  19
HETATM   19  C11 UNL     1      -6.021  -0.256   2.388  1.00  0.00     0.057 C 
HETATM   20  C12 UNL     1      -6.140  -1.735   1.995  1.00  0.00     0.045 C 
HETATM   21  C13 UNL     1      -6.459  -0.114   3.856  1.00  0.00     0.045 C 
HETATM   22  C14 UNL     1      -6.953   0.610   1.527  1.00  0.00     0.045 C 
ENDBRANCH  18  19
ENDBRANCH  15  18
ENDBRANCH   8  12
BRANCH  11  23
HETATM   23  C19 UNL     1       2.742  -0.155  -1.204  1.00  0.00    -0.024 A 
HETATM   24  C20 UNL     1       3.142  -1.463  -0.917  1.00  0.00     0.015 A 
HETATM   25  C21 UNL     1       4.120  -1.699   0.052  1.00  0.00     0.037 A 
HETATM   26  C22 UNL     1       4.708  -0.640   0.749  1.00  0.00     0.069 A 
HETATM   27  C26 UNL     1       4.314   0.666   0.459  1.00  0.00     0.037 A 
HETATM   28  C27 UNL     1       3.335   0.907  -0.513  1.00  0.00     0.015 A 
BRANCH  26  29
HETATM   29  O2  UNL     1       5.651  -1.021   1.661  1.00  0.00    -0.347 OA
BRANCH  29  30
HETATM   30  C23 UNL     1       6.225  -0.039   2.529  1.00  0.00     0.120 C 
HETATM   31  C24 UNL     1       6.636  -0.770   3.806  1.00  0.00     0.040 C 
HETATM   32  C25 UNL     1       7.452   0.584   1.870  1.00  0.00     0.040 C 
ENDBRANCH  29  30
ENDBRANCH  26  29
ENDBRANCH  11  23
TORSDOF 6
