REMARK  14 active torsions:
REMARK  status: ('A' for Active; 'I' for Inactive)
REMARK    1  A    between atoms: C19_20  and  O2_21 
REMARK    2  A    between atoms: C19_20  and  C20_22 
REMARK    3  A    between atoms: C20_22  and  C21_24 
REMARK    4  A    between atoms: C21_24  and  O4_25 
REMARK    5  A    between atoms: O4_25  and  C22_26 
REMARK    6  A    between atoms: C22_26  and  C23_28 
REMARK    7  A    between atoms: C23_28  and  C24_29 
REMARK    8  A    between atoms: C24_29  and  C25_30 
REMARK       I    between atoms: C25_30  and  N1_32 
REMARK    9  A    between atoms: N1_32  and  C26_33 
REMARK   10  A    between atoms: C26_33  and  C27_34 
REMARK   11  A    between atoms: C26_33  and  C36_45 
REMARK   12  A    between atoms: C27_34  and  C28_35 
REMARK   13  A    between atoms: C33_41  and  O7_42 
REMARK   14  A    between atoms: C36_45  and  O9_47 
ROOT
HETATM    1  O4  UNL     1       0.666  -1.516   0.034  1.00  0.00    -0.314 OA
ENDROOT
BRANCH   1   2
HETATM    2  C21 UNL     1       0.391  -2.179  -1.194  1.00  0.00     0.260 C 
BRANCH   2   3
HETATM    3  C20 UNL     1       0.057  -1.191  -2.305  1.00  0.00     0.185 C 
HETATM    4  O3  UNL     1       0.599  -1.301  -3.411  1.00  0.00    -0.292 OA
BRANCH   3   5
HETATM    5  C19 UNL     1      -0.973  -0.066  -2.023  1.00  0.00     0.128 C 
HETATM    6  C14 UNL     1      -2.409  -0.525  -1.615  1.00  0.00    -0.002 C 
HETATM    7  C13 UNL     1      -2.621  -0.945  -0.147  1.00  0.00     0.013 C 
HETATM    8  C15 UNL     1      -2.891  -1.672  -2.548  1.00  0.00     0.019 C 
HETATM    9  C16 UNL     1      -3.183   0.810  -1.836  1.00  0.00     0.002 C 
HETATM   10  C12 UNL     1      -4.112  -1.030   0.239  1.00  0.00     0.007 C 
HETATM   11  C11 UNL     1      -4.873   0.278  -0.070  1.00  0.00     0.002 C 
HETATM   12  C2  UNL     1      -6.382   0.302   0.347  1.00  0.00    -0.016 C 
HETATM   13  C10 UNL     1      -4.688   0.680  -1.568  1.00  0.00    -0.004 C 
HETATM   14  C1  UNL     1      -7.231  -0.648  -0.531  1.00  0.00     0.020 C 
HETATM   15  C3  UNL     1      -6.553  -0.098   1.836  1.00  0.00     0.022 C 
HETATM   16  C7  UNL     1      -6.887   1.739   0.187  1.00  0.00    -0.068 C 
HETATM   17  C4  UNL     1      -7.979   0.093   2.355  1.00  0.00     0.084 C 
HETATM   18  C5  UNL     1      -8.558   1.437   1.981  1.00  0.00     0.149 C 
HETATM   19  O1  UNL     1      -9.572   1.878   2.518  1.00  0.00    -0.293 OA
HETATM   20  C6  UNL     1      -7.892   2.240   0.928  1.00  0.00     0.053 C 
HETATM   21  C8  UNL     1      -6.139   2.649  -0.762  1.00  0.00     0.035 C 
HETATM   22  C9  UNL     1      -5.512   1.926  -1.951  1.00  0.00     0.010 C 
HETATM   23  C17 UNL     1      -2.713   1.266  -3.212  1.00  0.00     0.009 C 
HETATM   24  C18 UNL     1      -1.246   0.800  -3.292  1.00  0.00     0.047 C 
BRANCH   5  25
HETATM   25  O2  UNL     1      -0.441   0.817  -1.026  1.00  0.00    -0.381 OA
HETATM   26  H27 UNL     1       0.389   1.186  -1.380  1.00  0.00     0.211 HD
ENDBRANCH   5  25
ENDBRANCH   3   5
ENDBRANCH   2   3
ENDBRANCH   1   2
BRANCH   1  27
HETATM   27  C22 UNL     1       0.578  -2.309   1.134  1.00  0.00     0.259 C 
HETATM   28  O5  UNL     1       0.249  -3.488   1.116  1.00  0.00    -0.265 OA
BRANCH  27  29
HETATM   29  C23 UNL     1       0.802  -1.535   2.412  1.00  0.00     0.120 C 
BRANCH  29  30
HETATM   30  C24 UNL     1       1.740  -0.339   2.287  1.00  0.00     0.112 C 
BRANCH  30  31
HETATM   31  C25 UNL     1       3.161  -0.764   1.981  1.00  0.00     0.218 C 
HETATM   32  O6  UNL     1       3.473  -1.908   1.683  1.00  0.00    -0.274 OA
HETATM   33  N1  UNL     1       4.065   0.273   2.062  1.00  0.00    -0.346 N 
HETATM   34  H34 UNL     1       3.797   1.049   2.655  1.00  0.00     0.163 HD
BRANCH  33  35
HETATM   35  C26 UNL     1       5.510  -0.007   1.996  1.00  0.00     0.186 C 
BRANCH  35  36
HETATM   36  C27 UNL     1       6.280   1.260   1.606  1.00  0.00     0.077 C 
BRANCH  36  37
HETATM   37  C28 UNL     1       7.741   1.033   1.375  1.00  0.00    -0.028 A 
HETATM   38  C29 UNL     1       8.761   1.287   2.271  1.00  0.00     0.096 A 
HETATM   39  N2  UNL     1       9.947   0.938   1.683  1.00  0.00    -0.365 N 
HETATM   40  C30 UNL     1       9.727   0.466   0.411  1.00  0.00     0.043 A 
HETATM   41  H39 UNL     1      10.858   1.015   2.115  1.00  0.00     0.165 HD
HETATM   42  C31 UNL     1      10.637  -0.000  -0.548  1.00  0.00     0.033 A 
HETATM   43  C35 UNL     1       8.351   0.517   0.186  1.00  0.00     0.001 A 
HETATM   44  C32 UNL     1      10.124  -0.426  -1.778  1.00  0.00     0.039 A 
HETATM   45  C33 UNL     1       8.756  -0.378  -2.023  1.00  0.00     0.066 A 
HETATM   46  C34 UNL     1       7.857   0.083  -1.062  1.00  0.00     0.050 A 
BRANCH  45  47
HETATM   47  O7  UNL     1       8.241  -0.784  -3.221  1.00  0.00    -0.361 OA
HETATM   48  H42 UNL     1       8.967  -1.105  -3.779  1.00  0.00     0.217 HD
ENDBRANCH  45  47
ENDBRANCH  36  37
ENDBRANCH  35  36
BRANCH  35  49
HETATM   49  C36 UNL     1       5.935  -0.457   3.392  1.00  0.00     0.163 C 
HETATM   50  O8  UNL     1       5.541   0.026   4.446  1.00  0.00    -0.648 OA
BRANCH  49  51
HETATM   51  O9  UNL     1       6.812  -1.477   3.392  1.00  0.00    -0.775 OA
HETATM   52  H44 UNL     1       6.960  -1.684   4.336  1.00  0.00     0.167 HD
ENDBRANCH  49  51
ENDBRANCH  35  49
ENDBRANCH  33  35
ENDBRANCH  30  31
ENDBRANCH  29  30
ENDBRANCH  27  29
ENDBRANCH   1  27
TORSDOF 14
