REMARK  2 active torsions:
REMARK  status: ('A' for Active; 'I' for Inactive)
REMARK    1  A    between atoms: C3_4  and  C4_5 
REMARK       I    between atoms: N3_16  and  C13_17 
REMARK       I    between atoms: C13_17  and  N4_19 
REMARK    2  A    between atoms: N4_19  and  C14_20 
ROOT
HETATM    1  C4  UNL     1      -5.193  -0.022  -0.660  1.00  0.00    -0.020 A 
HETATM    2  C5  UNL     1      -5.561  -1.376  -0.608  1.00  0.00     0.015 A 
HETATM    3  C6  UNL     1      -4.594  -2.390  -0.615  1.00  0.00     0.033 A 
HETATM    4  C7  UNL     1      -3.242  -2.063  -0.693  1.00  0.00     0.068 A 
HETATM    5  N2  UNL     1      -2.298  -3.108  -0.716  1.00  0.00    -0.325 N 
HETATM    6  C8  UNL     1      -1.080  -2.977  -1.351  1.00  0.00     0.222 C 
HETATM    7  O1  UNL     1      -0.926  -2.474  -2.459  1.00  0.00    -0.273 OA
HETATM    8  C9  UNL     1       0.068  -3.506  -0.519  1.00  0.00     0.108 C 
HETATM    9  C10 UNL     1       1.355  -2.702  -0.760  1.00  0.00     0.001 C 
HETATM   10  C11 UNL     1       2.546  -3.330  -0.002  1.00  0.00     0.025 C 
HETATM   11  C12 UNL     1       3.271  -2.388   0.948  1.00  0.00     0.128 C 
HETATM   12  N3  UNL     1       3.585  -1.092   0.361  1.00  0.00    -0.334 N 
HETATM   13  C13 UNL     1       4.578  -0.335   0.986  1.00  0.00     0.322 C 
HETATM   14  O2  UNL     1       5.073  -0.694   2.052  1.00  0.00    -0.247 OA
HETATM   15  N4  UNL     1       4.941   0.800   0.297  1.00  0.00    -0.309 N 
HETATM   16  C20 UNL     1       2.700  -0.591  -0.695  1.00  0.00     0.132 C 
HETATM   17  C21 UNL     1       1.265  -1.154  -0.606  1.00  0.00     0.010 C 
HETATM   18  C22 UNL     1       0.553  -0.554   0.636  1.00  0.00     0.033 C 
HETATM   19  C23 UNL     1      -0.978  -0.606   0.693  1.00  0.00     0.176 C 
HETATM   20  O3  UNL     1      -1.551  -0.296  -0.581  1.00  0.00    -0.349 OA
HETATM   21  C24 UNL     1      -2.862  -0.708  -0.664  1.00  0.00     0.096 A 
HETATM   22  C25 UNL     1      -3.830   0.300  -0.688  1.00  0.00     0.051 A 
HETATM   23  H7  UNL     1      -2.578  -4.034  -0.425  1.00  0.00     0.169 HD
HETATM   24  H15 UNL     1       4.726   0.789  -0.687  1.00  0.00     0.170 HD
ENDROOT
BRANCH  15  25
HETATM   25  C14 UNL     1       5.786   1.839   0.736  1.00  0.00     0.037 A 
HETATM   26  C15 UNL     1       6.210   1.987   2.058  1.00  0.00     0.029 A 
HETATM   27  C16 UNL     1       7.032   3.057   2.427  1.00  0.00     0.004 A 
HETATM   28  C17 UNL     1       7.436   3.990   1.476  1.00  0.00     0.024 A 
HETATM   29  C18 UNL     1       7.012   3.851   0.158  1.00  0.00     0.036 A 
HETATM   30 CL1  UNL     1       7.495   5.009  -1.021  1.00  0.00    -0.084 Cl
HETATM   31  C19 UNL     1       6.191   2.786  -0.214  1.00  0.00     0.053 A 
ENDBRANCH  15  25
BRANCH   1  32
HETATM   32  C3  UNL     1      -6.217   1.013  -0.677  1.00  0.00     0.008 A 
HETATM   33  C2  UNL     1      -6.032   2.335  -0.325  1.00  0.00     0.123 A 
HETATM   34  N1  UNL     1      -7.240   2.951  -0.482  1.00  0.00    -0.307 N 
HETATM   35  C1  UNL     1      -7.543   4.340  -0.245  1.00  0.00     0.177 C 
HETATM   36  N5  UNL     1      -8.213   2.124  -0.897  1.00  0.00    -0.310 N 
HETATM   37  C26 UNL     1      -7.589   0.950  -1.024  1.00  0.00     0.120 A 
ATOM     38  H5  UNL     1      -9.194   2.341  -1.073  1.00  0.00     0.186 HD
ENDBRANCH   1  32
TORSDOF 2
