REMARK  8 active torsions:
REMARK  status: ('A' for Active; 'I' for Inactive)
REMARK    1  A    between atoms: C2_2  and  C4_4 
REMARK    2  A    between atoms: C4_4  and  O1_5 
REMARK    3  A    between atoms: C4_4  and  C5_6 
REMARK    4  A    between atoms: C5_6  and  C6_7 
REMARK    5  A    between atoms: C6_7  and  C7_8 
REMARK    6  A    between atoms: C7_8  and  C9_10 
REMARK    7  A    between atoms: C12_13  and  C13_14 
REMARK    8  A    between atoms: C13_14  and  O3_16 
ROOT
HETATM    1  C9  UNL     1      -1.942  -0.737  -0.105  1.00  0.00    -0.001 C 
HETATM    2  C10 UNL     1      -1.844  -1.327  -1.545  1.00  0.00     0.007 C 
HETATM    3  C11 UNL     1      -0.363  -1.313  -1.958  1.00  0.00     0.022 C 
HETATM    4  C12 UNL     1       0.405  -1.033  -0.648  1.00  0.00     0.057 C 
HETATM    5  C14 UNL     1       1.798  -0.382  -0.837  1.00  0.00     0.014 C 
HETATM    6  C15 UNL     1       2.869  -1.298  -1.443  1.00  0.00     0.007 C 
HETATM    7  C16 UNL     1       4.157  -0.509  -1.685  1.00  0.00     0.007 C 
HETATM    8  C17 UNL     1       4.804  -0.142  -0.343  1.00  0.00     0.010 C 
HETATM    9  C18 UNL     1       6.133   0.672  -0.448  1.00  0.00     0.018 C 
HETATM   10  C19 UNL     1       7.217  -0.157  -1.162  1.00  0.00     0.023 C 
HETATM   11  C20 UNL     1       5.979   2.017  -1.175  1.00  0.00     0.023 C 
HETATM   12  C21 UNL     1       6.645   0.973   0.971  1.00  0.00     0.135 C 
HETATM   13  O4  UNL     1       7.653   1.655   1.165  1.00  0.00    -0.297 OA
HETATM   14  C22 UNL     1       5.912   0.341   2.129  1.00  0.00     0.080 C 
HETATM   15  C23 UNL     1       4.415   0.612   2.059  1.00  0.00     0.018 C 
HETATM   16  C24 UNL     1       3.836   0.516   0.646  1.00  0.00    -0.026 A 
HETATM   17  C25 UNL     1       2.956   1.669   0.218  1.00  0.00     0.021 A 
HETATM   18  C26 UNL     1       2.305   0.322   0.444  1.00  0.00    -0.027 A 
HETATM   19  C27 UNL     1       1.441   0.155   1.690  1.00  0.00     0.011 C 
HETATM   20  C28 UNL     1      -0.079   0.282   1.484  1.00  0.00     0.012 C 
HETATM   21  C29 UNL     1      -0.567  -0.005   0.050  1.00  0.00    -0.022 C 
HETATM   22  C30 UNL     1      -0.647   1.374  -0.682  1.00  0.00     0.017 C 
ENDROOT
BRANCH   1  23
HETATM   23  C7  UNL     1      -3.277   0.041   0.118  1.00  0.00    -0.014 C 
HETATM   24  C8  UNL     1      -3.359   0.662   1.515  1.00  0.00     0.010 C 
BRANCH  23  25
HETATM   25  C6  UNL     1      -4.494  -0.896  -0.127  1.00  0.00     0.007 C 
BRANCH  25  26
HETATM   26  C5  UNL     1      -5.861  -0.186  -0.139  1.00  0.00     0.036 C 
BRANCH  26  27
HETATM   27  C4  UNL     1      -6.682  -0.372   1.152  1.00  0.00     0.146 C 
BRANCH  27  28
HETATM   28  C2  UNL     1      -8.031   0.337   1.104  1.00  0.00    -0.065 C 
HETATM   29  C1  UNL     1      -9.217  -0.271   1.288  1.00  0.00     0.016 C 
HETATM   30  C3  UNL     1      -7.982   1.830   0.893  1.00  0.00     0.045 C 
ENDBRANCH  27  28
BRANCH  27  31
HETATM   31  O1  UNL     1      -6.868  -1.769   1.379  1.00  0.00    -0.391 OA
HETATM   32  H7  UNL     1      -7.332  -2.122   0.600  1.00  0.00     0.210 HD
ENDBRANCH  27  31
ENDBRANCH  26  27
ENDBRANCH  25  26
ENDBRANCH  23  25
ENDBRANCH   1  23
BRANCH   4  33
HETATM   33  C13 UNL     1       0.522  -2.385   0.106  1.00  0.00     0.149 C 
HETATM   34  O2  UNL     1       0.283  -2.613   1.280  1.00  0.00    -0.649 OA
BRANCH  33  35
HETATM   35  O3  UNL     1       0.939  -3.407  -0.670  1.00  0.00    -0.776 OA
HETATM   36  H21 UNL     1       0.943  -4.177  -0.061  1.00  0.00     0.167 HD
ENDBRANCH  33  35
ENDBRANCH   4  33
TORSDOF 8
