REMARK  11 active torsions:
REMARK  status: ('A' for Active; 'I' for Inactive)
REMARK    1  A    between atoms: C2_2  and  C4_4 
REMARK    2  A    between atoms: C4_4  and  C6_6 
REMARK    3  A    between atoms: C7_7  and  C8_8 
REMARK    4  A    between atoms: C8_8  and  C10_10 
REMARK    5  A    between atoms: C24_24  and  O1_25 
REMARK    6  A    between atoms: O1_25  and  C25_26 
REMARK    7  A    between atoms: C26_28  and  C27_29 
REMARK    8  A    between atoms: C27_29  and  O3_30 
REMARK    9  A    between atoms: C28_31  and  O4_32 
REMARK   10  A    between atoms: C29_33  and  O5_34 
REMARK   11  A    between atoms: C30_35  and  O6_36 
ROOT
HETATM    1  C10 UNL     1       3.980   0.021   2.374  1.00  0.00     0.002 C 
HETATM    2  C11 UNL     1       4.035   1.461   2.940  1.00  0.00     0.006 C 
HETATM    3  C12 UNL     1       2.600   2.014   2.850  1.00  0.00     0.009 C 
HETATM    4  C13 UNL     1       1.768   0.850   2.300  1.00  0.00     0.041 C 
HETATM    5  C14 UNL     1       2.753   0.052   1.409  1.00  0.00    -0.029 C 
HETATM    6  C15 UNL     1       3.058   0.747   0.065  1.00  0.00     0.016 C 
HETATM    7  C16 UNL     1       2.119  -1.332   1.135  1.00  0.00     0.037 C 
HETATM    8  C17 UNL     1       0.677  -1.222   0.693  1.00  0.00    -0.019 C 
HETATM    9  C18 UNL     1      -0.095  -0.131   0.904  1.00  0.00    -0.030 C 
HETATM   10  C19 UNL     1       0.392   1.112   1.678  1.00  0.00     0.142 C 
HETATM   11  C20 UNL     1       0.238   2.350   0.814  1.00  0.00     0.018 C 
HETATM   12  C21 UNL     1      -1.019   2.561   0.374  1.00  0.00     0.014 C 
HETATM   13  C22 UNL     1      -1.994   1.499   0.847  1.00  0.00     0.127 C 
HETATM   14  C23 UNL     1      -3.440   1.820   0.457  1.00  0.00     0.078 C 
HETATM   15  C24 UNL     1      -4.419   0.661   0.719  1.00  0.00     0.128 C 
HETATM   16  C31 UNL     1      -3.820  -0.500   1.514  1.00  0.00     0.033 C 
HETATM   17  C32 UNL     1      -2.496  -1.030   0.955  1.00  0.00     0.020 C 
HETATM   18  C33 UNL     1      -1.541   0.056   0.385  1.00  0.00     0.021 C 
HETATM   19  C34 UNL     1      -1.513  -0.054  -1.164  1.00  0.00     0.024 C 
HETATM   20  O7  UNL     1      -1.923   1.577   2.300  1.00  0.00    -0.223 OA
HETATM   21  O8  UNL     1      -0.551   1.258   2.786  1.00  0.00    -0.219 OA
ENDROOT
BRANCH  15  22
HETATM   22  O1  UNL     1      -4.874   0.204  -0.558  1.00  0.00    -0.353 OA
BRANCH  22  23
HETATM   23  C25 UNL     1      -6.276  -0.080  -0.621  1.00  0.00     0.292 C 
HETATM   24  O2  UNL     1      -6.530  -1.407  -0.164  1.00  0.00    -0.348 OA
HETATM   25  C26 UNL     1      -7.936  -1.684  -0.007  1.00  0.00     0.179 C 
HETATM   26  C28 UNL     1      -8.810  -0.982  -1.082  1.00  0.00     0.180 C 
HETATM   27  C29 UNL     1      -8.011  -0.769  -2.379  1.00  0.00     0.183 C 
HETATM   28  C30 UNL     1      -6.731   0.057  -2.098  1.00  0.00     0.204 C 
BRANCH  25  29
HETATM   29  C27 UNL     1      -8.108  -3.216  -0.010  1.00  0.00     0.198 C 
BRANCH  29  30
HETATM   30  O3  UNL     1      -9.355  -3.634   0.531  1.00  0.00    -0.398 OA
HETATM   31  H39 UNL     1     -10.077  -3.227   0.024  1.00  0.00     0.209 HD
ENDBRANCH  29  30
ENDBRANCH  25  29
BRANCH  26  32
HETATM   32  O4  UNL     1      -9.223   0.318  -0.614  1.00  0.00    -0.390 OA
HETATM   33  H41 UNL     1      -9.688   0.195   0.234  1.00  0.00     0.210 HD
ENDBRANCH  26  32
BRANCH  27  34
HETATM   34  O5  UNL     1      -7.737  -2.042  -2.977  1.00  0.00    -0.390 OA
HETATM   35  H43 UNL     1      -6.774  -2.192  -2.967  1.00  0.00     0.210 HD
ENDBRANCH  27  34
BRANCH  28  36
HETATM   36  O6  UNL     1      -6.952   1.441  -2.430  1.00  0.00    -0.388 OA
HETATM   37  H45 UNL     1      -7.750   1.745  -1.958  1.00  0.00     0.210 HD
ENDBRANCH  28  36
ENDBRANCH  22  23
ENDBRANCH  15  22
BRANCH   1  38
HETATM   38  C8  UNL     1       5.322  -0.585   1.894  1.00  0.00     0.008 C 
HETATM   39  C9  UNL     1       6.288  -0.736   3.081  1.00  0.00     0.014 C 
BRANCH  38  40
HETATM   40  C7  UNL     1       6.049   0.165   0.805  1.00  0.00    -0.026 C 
HETATM   41  C6  UNL     1       6.478  -0.411  -0.335  1.00  0.00    -0.026 C 
BRANCH  41  42
HETATM   42  C4  UNL     1       7.250   0.310  -1.419  1.00  0.00     0.007 C 
HETATM   43  C5  UNL     1       8.628  -0.344  -1.562  1.00  0.00     0.014 C 
BRANCH  42  44
HETATM   44  C2  UNL     1       6.441   0.376  -2.748  1.00  0.00    -0.015 C 
HETATM   45  C1  UNL     1       7.049   1.397  -3.718  1.00  0.00     0.010 C 
HETATM   46  C3  UNL     1       6.285  -0.974  -3.458  1.00  0.00     0.010 C 
ENDBRANCH  42  44
ENDBRANCH  41  42
ENDBRANCH  38  40
ENDBRANCH   1  38
TORSDOF 11
