REMARK  8 active torsions:
REMARK  status: ('A' for Active; 'I' for Inactive)
REMARK    1  A    between atoms: C2_2  and  C3_3 
REMARK    2  A    between atoms: C2_2  and  C5_6 
REMARK    3  A    between atoms: C3_3  and  C4_4 
REMARK    4  A    between atoms: C5_6  and  C6_7 
REMARK    5  A    between atoms: C6_7  and  C7_9 
REMARK    6  A    between atoms: C7_9  and  C8_10 
REMARK    7  A    between atoms: C8_10  and  C10_12 
REMARK    8  A    between atoms: C12_14  and  O3_15 
ROOT
HETATM    1  C10 UNL     1       1.139   0.439  -0.018  1.00  0.00     0.002 C 
HETATM    2  C11 UNL     1       1.029  -0.348  -1.338  1.00  0.00     0.038 C 
HETATM    3  C12 UNL     1       0.397   0.598  -2.349  1.00  0.00     0.132 C 
HETATM    4  C13 UNL     1      -0.497   1.569  -1.514  1.00  0.00     0.021 C 
HETATM    5  C14 UNL     1      -0.836   2.836  -2.327  1.00  0.00     0.024 C 
HETATM    6  C15 UNL     1      -1.806   0.905  -1.018  1.00  0.00     0.010 C 
HETATM    7  C16 UNL     1      -2.225   0.795   0.268  1.00  0.00     0.007 C 
HETATM    8  C17 UNL     1      -1.403   1.494   1.316  1.00  0.00     0.157 C 
HETATM    9  O4  UNL     1      -1.652   1.373   2.513  1.00  0.00    -0.293 OA
HETATM   10  C18 UNL     1      -0.286   2.406   0.883  1.00  0.00     0.094 C 
HETATM   11  C19 UNL     1       0.503   1.858  -0.311  1.00  0.00    -0.019 C 
HETATM   12  C20 UNL     1       1.566   2.928  -0.653  1.00  0.00     0.017 C 
HETATM   13  C21 UNL     1      -3.466  -0.009   0.756  1.00  0.00    -0.007 C 
HETATM   14  C22 UNL     1      -2.908  -1.280   1.449  1.00  0.00     0.021 C 
HETATM   15  C23 UNL     1      -4.330   0.789   1.783  1.00  0.00     0.022 C 
HETATM   16  C24 UNL     1      -5.819   0.438   1.818  1.00  0.00     0.080 C 
HETATM   17  C25 UNL     1      -6.096  -0.959   1.315  1.00  0.00     0.135 C 
HETATM   18  O5  UNL     1      -6.729  -1.763   1.998  1.00  0.00    -0.297 OA
HETATM   19  C26 UNL     1      -5.627  -1.279  -0.109  1.00  0.00     0.018 C 
HETATM   20  C27 UNL     1      -5.342  -2.786  -0.250  1.00  0.00     0.023 C 
HETATM   21  C28 UNL     1      -6.808  -0.945  -1.046  1.00  0.00     0.023 C 
HETATM   22  C29 UNL     1      -4.407  -0.362  -0.451  1.00  0.00     0.021 C 
HETATM   23  C30 UNL     1      -3.584  -0.840  -1.643  1.00  0.00     0.090 C 
HETATM   24  C31 UNL     1      -2.737   0.332  -2.053  1.00  0.00     0.157 C 
HETATM   25  O6  UNL     1      -2.888   0.849  -3.156  1.00  0.00    -0.293 OA
ENDROOT
BRANCH   1  26
HETATM   26  C8  UNL     1       2.533   0.264   0.650  1.00  0.00    -0.007 C 
HETATM   27  C9  UNL     1       2.580   0.840   2.069  1.00  0.00     0.011 C 
BRANCH  26  28
HETATM   28  C7  UNL     1       3.741   0.745  -0.175  1.00  0.00     0.083 C 
BRANCH  28  29
HETATM   29  C6  UNL     1       4.866  -0.275  -0.151  1.00  0.00     0.127 C 
HETATM   30  O2  UNL     1       4.765  -1.326  -0.784  1.00  0.00    -0.298 OA
BRANCH  29  31
HETATM   31  C5  UNL     1       6.112   0.089   0.646  1.00  0.00     0.082 C 
BRANCH  31  32
HETATM   32  C2  UNL     1       7.109  -1.043   0.963  1.00  0.00    -0.005 C 
HETATM   33  C1  UNL     1       7.632  -1.781  -0.271  1.00  0.00     0.011 C 
BRANCH  32  34
HETATM   34  C3  UNL     1       6.630  -2.005   2.060  1.00  0.00     0.074 C 
BRANCH  34  35
HETATM   35  C4  UNL     1       5.296  -2.650   1.791  1.00  0.00     0.231 C 
HETATM   36  O1  UNL     1       4.284  -2.343   2.414  1.00  0.00    -0.307 OA
ENDBRANCH  34  35
ENDBRANCH  32  34
ENDBRANCH  31  32
ENDBRANCH  29  31
ENDBRANCH  28  29
ENDBRANCH  26  28
ENDBRANCH   1  26
BRANCH   3  37
HETATM   37  O3  UNL     1      -0.277  -0.142  -3.345  1.00  0.00    -0.394 OA
HETATM   38  H20 UNL     1       0.384  -0.648  -3.846  1.00  0.00     0.210 HD
ENDBRANCH   3  37
TORSDOF 8
