REMARK  8 active torsions:
REMARK  status: ('A' for Active; 'I' for Inactive)
REMARK    1  A    between atoms: C2_2  and  O2_4 
REMARK    2  A    between atoms: O2_4  and  C3_5 
REMARK    3  A    between atoms: C5_7  and  O3_8 
REMARK    4  A    between atoms: C14_17  and  C15_18 
REMARK    5  A    between atoms: C15_18  and  O5_20 
REMARK    6  A    between atoms: O5_20  and  C16_21 
REMARK    7  A    between atoms: C16_21  and  C17_22 
REMARK    8  A    between atoms: C17_22  and  N1_23 
ROOT
HETATM    1  C3  UNL     1      -4.478   0.688   0.942  1.00  0.00     0.097 C 
HETATM    2  C4  UNL     1      -4.803   1.812   1.946  1.00  0.00     0.050 C 
HETATM    3  C5  UNL     1      -5.058  -0.641   1.561  1.00  0.00     0.153 C 
HETATM    4  C6  UNL     1      -4.333  -1.926   1.134  1.00  0.00     0.035 C 
HETATM    5  C7  UNL     1      -3.693  -1.821  -0.244  1.00  0.00     0.012 C 
HETATM    6  C8  UNL     1      -2.644  -0.669  -0.367  1.00  0.00    -0.033 C 
HETATM    7  C9  UNL     1      -2.710  -0.163  -1.831  1.00  0.00     0.016 C 
HETATM    8  C10 UNL     1      -1.176  -1.154  -0.053  1.00  0.00     0.006 C 
HETATM    9  C11 UNL     1      -0.666  -2.356  -0.891  1.00  0.00     0.010 C 
HETATM   10  C12 UNL     1       0.627  -2.084  -1.666  1.00  0.00     0.035 C 
HETATM   11  C13 UNL     1       1.733  -1.493  -0.810  1.00  0.00    -0.070 C 
HETATM   12  C14 UNL     1       3.004  -1.891  -1.035  1.00  0.00     0.085 C 
HETATM   13  C20 UNL     1       1.280  -0.474   0.236  1.00  0.00     0.022 C 
HETATM   14  C21 UNL     1       1.387  -1.081   1.646  1.00  0.00     0.015 C 
HETATM   15  C22 UNL     1      -0.153   0.016  -0.101  1.00  0.00     0.068 C 
HETATM   16  C23 UNL     1      -0.605   1.209   0.740  1.00  0.00     0.132 C 
HETATM   17  O6  UNL     1       0.165   1.845   1.457  1.00  0.00    -0.298 OA
HETATM   18  C24 UNL     1      -2.045   1.659   0.560  1.00  0.00     0.087 C 
HETATM   19  C25 UNL     1      -2.958   0.441   0.718  1.00  0.00     0.038 C 
ENDROOT
BRANCH  12  20
HETATM   20  C15 UNL     1       4.280  -1.493  -0.396  1.00  0.00     0.283 C 
HETATM   21  O4  UNL     1       5.290  -2.172  -0.513  1.00  0.00    -0.260 OA
BRANCH  20  22
HETATM   22  O5  UNL     1       4.189  -0.315   0.253  1.00  0.00    -0.316 OA
BRANCH  22  23
HETATM   23  C16 UNL     1       5.388   0.132   0.913  1.00  0.00     0.209 C 
BRANCH  23  24
HETATM   24  C17 UNL     1       6.306   0.863  -0.080  1.00  0.00     0.298 C 
BRANCH  24  25
HETATM   25  N1  UNL     1       7.483   1.494   0.547  1.00  0.00     0.082 N 
HETATM   26  C18 UNL     1       8.143   2.383  -0.414  1.00  0.00     0.309 C 
HETATM   27  C19 UNL     1       8.439   0.491   1.025  1.00  0.00     0.309 C 
ENDBRANCH  24  25
ENDBRANCH  23  24
ENDBRANCH  22  23
ENDBRANCH  20  22
ENDBRANCH  12  20
BRANCH   1  28
HETATM   28  O2  UNL     1      -5.222   0.888  -0.298  1.00  0.00    -0.308 OA
BRANCH  28  29
HETATM   29  C2  UNL     1      -5.151   2.054  -0.993  1.00  0.00     0.255 C 
HETATM   30  C1  UNL     1      -6.127   2.025  -2.130  1.00  0.00     0.126 C 
HETATM   31  O1  UNL     1      -4.415   2.996  -0.747  1.00  0.00    -0.266 OA
ENDBRANCH  28  29
ENDBRANCH   1  28
BRANCH   3  32
HETATM   32  O3  UNL     1      -6.452  -0.769   1.260  1.00  0.00    -0.393 OA
HETATM   33  H8  UNL     1      -6.558  -0.480   0.334  1.00  0.00     0.210 HD
ENDBRANCH   3  32
TORSDOF 8
