REMARK  12 active torsions:
REMARK  status: ('A' for Active; 'I' for Inactive)
REMARK    1  A    between atoms: O1_2  and  C2_3 
REMARK    2  A    between atoms: C2_3  and  C3_4 
REMARK    3  A    between atoms: C3_4  and  C4_5 
REMARK    4  A    between atoms: C4_5  and  N1_6 
REMARK    5  A    between atoms: N1_6  and  C5_7 
REMARK    6  A    between atoms: C5_7  and  C6_8 
REMARK    7  A    between atoms: C10_12  and  O2_13 
REMARK    8  A    between atoms: C16_19  and  O3_20 
REMARK    9  A    between atoms: C25_29  and  C26_30 
REMARK   10  A    between atoms: C33_37  and  O4_38 
REMARK   11  A    between atoms: C36_41  and  C37_42 
REMARK   12  A    between atoms: C38_44  and  O6_45 
ROOT
HETATM    1  C6  UNL     1       5.313   0.681  -0.347  1.00  0.00    -0.022 C 
HETATM    2  C7  UNL     1       4.054   0.612  -0.847  1.00  0.00    -0.014 C 
HETATM    3  C8  UNL     1       3.038  -0.344  -0.274  1.00  0.00     0.021 C 
HETATM    4  C9  UNL     1       1.567   0.075  -0.252  1.00  0.00     0.051 C 
HETATM    5  C10 UNL     1       0.942  -1.077   0.568  1.00  0.00     0.098 C 
HETATM    6  C11 UNL     1       1.971  -1.293   1.754  1.00  0.00    -0.002 C 
HETATM    7  C12 UNL     1       2.116  -2.775   2.134  1.00  0.00     0.019 C 
HETATM    8  C13 UNL     1       1.564  -0.495   3.027  1.00  0.00     0.013 C 
HETATM    9  C14 UNL     1       0.087  -0.573   3.379  1.00  0.00     0.010 C 
HETATM   10  C15 UNL     1      -0.766  -0.024   2.216  1.00  0.00     0.041 C 
HETATM   11  C16 UNL     1      -0.564  -0.913   0.977  1.00  0.00     0.095 C 
HETATM   12  C17 UNL     1      -1.422  -0.403  -0.192  1.00  0.00     0.049 C 
HETATM   13  C18 UNL     1      -2.922  -0.332   0.148  1.00  0.00     0.025 C 
HETATM   14  C19 UNL     1      -3.718  -0.066  -1.167  1.00  0.00     0.013 C 
HETATM   15  C20 UNL     1      -5.033   0.726  -1.047  1.00  0.00    -0.002 C 
HETATM   16  C21 UNL     1      -4.772   2.258  -0.942  1.00  0.00     0.013 C 
HETATM   17  C22 UNL     1      -4.776   2.947  -2.300  1.00  0.00    -0.026 C 
HETATM   18  C23 UNL     1      -5.082   2.346  -3.457  1.00  0.00    -0.030 C 
HETATM   19  C24 UNL     1      -5.550   0.928  -3.544  1.00  0.00     0.032 C 
HETATM   20  C25 UNL     1      -6.059   0.417  -2.185  1.00  0.00    -0.002 C 
HETATM   21  C31 UNL     1      -3.445   2.648  -0.259  1.00  0.00     0.019 C 
HETATM   22  C32 UNL     1      -3.071   2.094   1.129  1.00  0.00     0.051 C 
HETATM   23  C33 UNL     1      -3.744   2.889   2.279  1.00  0.00     0.125 C 
HETATM   24  C34 UNL     1      -3.529   2.246   3.656  1.00  0.00     0.033 C 
HETATM   25  C35 UNL     1      -2.280   1.377   3.692  1.00  0.00     0.023 C 
HETATM   26  C36 UNL     1      -2.272   0.208   2.634  1.00  0.00     0.051 C 
HETATM   27  C38 UNL     1      -3.203   0.564   1.387  1.00  0.00     0.082 C 
HETATM   28  C39 UNL     1       3.302  -0.634   1.220  1.00  0.00     0.036 C 
HETATM   29  C40 UNL     1       4.704  -1.142   1.285  1.00  0.00    -0.035 C 
HETATM   30  C41 UNL     1       5.256  -2.330   1.506  1.00  0.00     0.088 C 
HETATM   31  C42 UNL     1       6.666  -2.195   1.130  1.00  0.00     0.284 C 
HETATM   32  O7  UNL     1       7.484  -3.095   1.202  1.00  0.00    -0.260 OA
HETATM   33  O8  UNL     1       6.898  -0.945   0.650  1.00  0.00    -0.304 OA
HETATM   34  C43 UNL     1       5.744  -0.145   0.867  1.00  0.00     0.192 C 
ENDROOT
BRANCH   1  35
HETATM   35  C5  UNL     1       6.310   1.682  -0.878  1.00  0.00     0.306 C 
BRANCH  35  36
HETATM   36  N1  UNL     1       7.448   1.025  -1.501  1.00  0.00     0.087 N 
HETATM   37  H10 UNL     1       7.123   0.418  -2.252  1.00  0.00     0.316 HD
BRANCH  36  38
HETATM   38  C4  UNL     1       8.419   1.987  -2.016  1.00  0.00     0.272 C 
BRANCH  38  39
HETATM   39  C3  UNL     1       9.674   1.276  -2.521  1.00  0.00     0.056 C 
BRANCH  39  40
HETATM   40  C2  UNL     1      10.451   0.588  -1.398  1.00  0.00     0.168 C 
BRANCH  40  41
HETATM   41  O1  UNL     1      11.693   0.077  -1.891  1.00  0.00    -0.396 OA
HETATM   42  C1  UNL     1      11.562  -1.221  -2.457  1.00  0.00     0.201 C 
ENDBRANCH  40  41
ENDBRANCH  39  40
ENDBRANCH  38  39
ENDBRANCH  36  38
ENDBRANCH  35  36
ENDBRANCH   1  35
BRANCH   5  43
HETATM   43  O2  UNL     1       0.973  -2.261  -0.278  1.00  0.00    -0.386 OA
HETATM   44  H17 UNL     1       0.687  -2.017  -1.177  1.00  0.00     0.210 HD
ENDBRANCH   5  43
BRANCH  11  45
HETATM   45  O3  UNL     1      -1.063  -2.226   1.293  1.00  0.00    -0.386 OA
HETATM   46  H26 UNL     1      -0.501  -2.855   0.789  1.00  0.00     0.210 HD
ENDBRANCH  11  45
BRANCH  26  47
HETATM   47  C37 UNL     1      -2.810  -1.069   3.306  1.00  0.00     0.244 C 
HETATM   48  O5  UNL     1      -3.003  -1.202   4.513  1.00  0.00    -0.306 OA
ENDBRANCH  26  47
BRANCH  27  49
HETATM   49  O6  UNL     1      -4.570   0.340   1.797  1.00  0.00    -0.388 OA
HETATM   50  H58 UNL     1      -4.802  -0.599   1.688  1.00  0.00     0.210 HD
ENDBRANCH  27  49
BRANCH  23  51
HETATM   51  O4  UNL     1      -5.147   3.013   2.066  1.00  0.00    -0.395 OA
HETATM   52  H52 UNL     1      -5.479   2.092   2.011  1.00  0.00     0.210 HD
ENDBRANCH  23  51
BRANCH  20  53
HETATM   53  C26 UNL     1      -6.498  -1.064  -2.274  1.00  0.00    -0.010 C 
HETATM   54  C27 UNL     1      -7.696  -1.291  -3.210  1.00  0.00     0.005 C 
HETATM   55  C28 UNL     1      -8.421  -2.531  -2.681  1.00  0.00     0.000 C 
HETATM   56  C29 UNL     1      -7.713  -2.921  -1.389  1.00  0.00     0.000 C 
HETATM   57  C30 UNL     1      -6.985  -1.659  -0.952  1.00  0.00     0.005 C 
ENDBRANCH  20  53
TORSDOF 12
