REMARK  6 active torsions:
REMARK  status: ('A' for Active; 'I' for Inactive)
REMARK    1  A    between atoms: O1_2  and  C2_3 
REMARK    2  A    between atoms: C7_9  and  C8_10 
REMARK    3  A    between atoms: C8_10  and  C9_11 
REMARK    4  A    between atoms: C9_11  and  N2_12 
REMARK       I    between atoms: N2_12  and  C10_13 
REMARK    5  A    between atoms: C10_13  and  C11_15 
REMARK    6  A    between atoms: C16_21  and  C17_22 
ROOT
HETATM    1  C11 UNL     1       0.550   0.676   0.579  1.00  0.00     0.034 A 
HETATM    2  C12 UNL     1       0.926   1.987   0.904  1.00  0.00     0.020 A 
HETATM    3  C13 UNL     1       2.276   2.342   0.946  1.00  0.00     0.040 A 
HETATM    4  C14 UNL     1       3.250   1.383   0.674  1.00  0.00     0.103 A 
HETATM    5  O3  UNL     1       4.558   1.783   0.729  1.00  0.00    -0.303 OA
HETATM    6  C15 UNL     1       5.562   0.839   0.488  1.00  0.00     0.144 A 
HETATM    7  C16 UNL     1       6.833   1.271   0.576  1.00  0.00     0.054 C 
HETATM    8  C23 UNL     1       5.204  -0.584   0.144  1.00  0.00     0.280 A 
HETATM    9  O4  UNL     1       6.016  -1.469  -0.105  1.00  0.00    -0.265 OA
HETATM   10  N3  UNL     1       3.866  -0.869   0.113  1.00  0.00    -0.319 N 
HETATM   11  C24 UNL     1       2.879   0.077   0.369  1.00  0.00     0.070 A 
HETATM   12  C25 UNL     1       1.533  -0.289   0.321  1.00  0.00     0.049 A 
HETATM   13  H20 UNL     1       3.632  -1.828  -0.108  1.00  0.00     0.169 HD
ENDROOT
BRANCH   1  14
HETATM   14  C10 UNL     1      -0.900   0.345   0.550  1.00  0.00     0.251 C 
HETATM   15  N2  UNL     1      -1.283  -0.655  -0.320  1.00  0.00    -0.357 N 
HETATM   16  H12 UNL     1      -0.634  -0.980  -1.022  1.00  0.00     0.162 HD
HETATM   17  O2  UNL     1      -1.686   0.973   1.249  1.00  0.00    -0.268 OA
BRANCH  15  18
HETATM   18  C9  UNL     1      -2.683  -1.008  -0.486  1.00  0.00     0.127 C 
BRANCH  18  19
HETATM   19  C8  UNL     1      -3.439  -0.010  -1.368  1.00  0.00     0.060 C 
BRANCH  19  20
HETATM   20  C7  UNL     1      -4.846  -0.442  -1.635  1.00  0.00    -0.029 A 
HETATM   21  C6  UNL     1      -5.317  -1.049  -2.783  1.00  0.00     0.096 A 
HETATM   22  N1  UNL     1      -6.658  -1.280  -2.628  1.00  0.00    -0.365 N 
HETATM   23  C5  UNL     1      -7.077  -0.840  -1.395  1.00  0.00     0.043 A 
HETATM   24  H6  UNL     1      -7.259  -1.711  -3.316  1.00  0.00     0.165 HD
HETATM   25  C4  UNL     1      -8.346  -0.871  -0.808  1.00  0.00     0.033 A 
HETATM   26  C26 UNL     1      -5.963  -0.306  -0.749  1.00  0.00     0.001 A 
HETATM   27  C3  UNL     1      -8.483  -0.339   0.482  1.00  0.00     0.039 A 
HETATM   28  C2  UNL     1      -7.391   0.204   1.159  1.00  0.00     0.069 A 
HETATM   29  C27 UNL     1      -6.130   0.223   0.547  1.00  0.00     0.051 A 
BRANCH  28  30
HETATM   30  O1  UNL     1      -7.417   0.746   2.416  1.00  0.00    -0.356 OA
HETATM   31  C1  UNL     1      -8.668   0.755   3.090  1.00  0.00     0.210 C 
ENDBRANCH  28  30
ENDBRANCH  19  20
ENDBRANCH  18  19
ENDBRANCH  15  18
ENDBRANCH   1  14
BRANCH   7  32
HETATM   32  C17 UNL     1       8.061   0.499   0.385  1.00  0.00    -0.032 A 
HETATM   33  C18 UNL     1       8.735   0.553  -0.841  1.00  0.00     0.011 A 
HETATM   34  C19 UNL     1       9.914  -0.172  -1.028  1.00  0.00     0.003 A 
HETATM   35  C20 UNL     1      10.425  -0.951   0.010  1.00  0.00     0.024 A 
HETATM   36  C21 UNL     1       9.754  -1.003   1.231  1.00  0.00     0.034 A 
HETATM   37 CL1  UNL     1      10.389  -1.962   2.512  1.00  0.00    -0.084 Cl
HETATM   38  C22 UNL     1       8.577  -0.281   1.425  1.00  0.00     0.035 A 
ENDBRANCH   7  32
TORSDOF 6
