REMARK  9 active torsions:
REMARK  status: ('A' for Active; 'I' for Inactive)
REMARK    1  A    between atoms: C2_2  and  C30_35 
REMARK    2  A    between atoms: C3_3  and  C4_4 
REMARK    3  A    between atoms: C4_4  and  O1_5 
REMARK    4  A    between atoms: C4_4  and  C5_6 
REMARK    5  A    between atoms: C5_6  and  C6_7 
REMARK    6  A    between atoms: C6_7  and  C8_9 
REMARK    7  A    between atoms: C10_11  and  O2_12 
REMARK    8  A    between atoms: C29_33  and  O5_34 
REMARK    9  A    between atoms: C30_35  and  O7_37 
ROOT
HETATM    1  C8  UNL     1       1.961  -1.776  -1.006  1.00  0.00     0.001 C 
HETATM    2  C9  UNL     1       1.249  -3.162  -1.051  1.00  0.00     0.038 C 
HETATM    3  C10 UNL     1      -0.239  -2.900  -0.761  1.00  0.00     0.132 C 
HETATM    4  C11 UNL     1      -0.435  -1.407  -1.120  1.00  0.00     0.017 C 
HETATM    5  C12 UNL     1      -0.515  -1.270  -2.679  1.00  0.00     0.023 C 
HETATM    6  C13 UNL     1      -1.655  -0.668  -0.579  1.00  0.00    -0.029 C 
HETATM    7  C14 UNL     1      -1.643   0.687  -0.471  1.00  0.00     0.002 C 
HETATM    8  C15 UNL     1      -0.342   1.427  -0.763  1.00  0.00     0.157 C 
HETATM    9  O3  UNL     1      -0.321   2.654  -0.856  1.00  0.00    -0.293 OA
HETATM   10  C16 UNL     1       0.967   0.656  -0.946  1.00  0.00     0.094 C 
HETATM   11  C17 UNL     1       0.862  -0.797  -0.474  1.00  0.00    -0.019 C 
HETATM   12  C18 UNL     1       0.831  -0.789   1.081  1.00  0.00     0.017 C 
HETATM   13  C19 UNL     1      -2.880   1.516  -0.047  1.00  0.00    -0.008 C 
HETATM   14  C20 UNL     1      -2.585   2.036   1.381  1.00  0.00     0.021 C 
HETATM   15  C21 UNL     1      -3.113   2.742  -0.990  1.00  0.00     0.022 C 
HETATM   16  C22 UNL     1      -4.564   3.180  -1.174  1.00  0.00     0.080 C 
HETATM   17  C23 UNL     1      -5.418   2.820   0.016  1.00  0.00     0.135 C 
HETATM   18  O4  UNL     1      -6.068   3.678   0.614  1.00  0.00    -0.297 OA
HETATM   19  C24 UNL     1      -5.493   1.333   0.375  1.00  0.00     0.018 C 
HETATM   20  C25 UNL     1      -5.780   1.170   1.880  1.00  0.00     0.023 C 
HETATM   21  C26 UNL     1      -6.708   0.760  -0.385  1.00  0.00     0.023 C 
HETATM   22  C27 UNL     1      -4.181   0.628  -0.115  1.00  0.00     0.016 C 
HETATM   23  C28 UNL     1      -3.950  -0.745   0.532  1.00  0.00     0.043 C 
HETATM   24  C29 UNL     1      -2.848  -1.512  -0.195  1.00  0.00     0.149 C 
ENDROOT
BRANCH   1  25
HETATM   25  C6  UNL     1       3.401  -1.838  -0.411  1.00  0.00    -0.011 C 
HETATM   26  C7  UNL     1       3.522  -2.365   1.024  1.00  0.00     0.010 C 
BRANCH  25  27
HETATM   27  C5  UNL     1       4.153  -0.500  -0.612  1.00  0.00     0.040 C 
BRANCH  27  28
HETATM   28  C4  UNL     1       5.667  -0.556  -0.334  1.00  0.00     0.142 C 
BRANCH  28  29
HETATM   29  C3  UNL     1       6.017  -0.245   1.097  1.00  0.00     0.018 C 
HETATM   30  C2  UNL     1       6.311   0.946   1.662  1.00  0.00     0.010 C 
HETATM   31  C1  UNL     1       6.291   2.280   0.980  1.00  0.00     0.055 C 
BRANCH  30  32
HETATM   32  C30 UNL     1       6.613   0.924   3.113  1.00  0.00     0.171 C 
HETATM   33  O6  UNL     1       6.274   0.068   3.910  1.00  0.00    -0.646 OA
BRANCH  32  34
HETATM   34  O7  UNL     1       7.322   1.996   3.503  1.00  0.00    -0.773 OA
HETATM   35  H44 UNL     1       7.434   1.863   4.466  1.00  0.00     0.167 HD
ENDBRANCH  32  34
ENDBRANCH  30  32
ENDBRANCH  28  29
BRANCH  28  36
HETATM   36  O1  UNL     1       6.331   0.372  -1.187  1.00  0.00    -0.392 OA
HETATM   37  H6  UNL     1       6.231   0.052  -2.098  1.00  0.00     0.210 HD
ENDBRANCH  28  36
ENDBRANCH  27  28
ENDBRANCH  25  27
ENDBRANCH   1  25
BRANCH   3  38
HETATM   38  O2  UNL     1      -1.087  -3.758  -1.513  1.00  0.00    -0.394 OA
HETATM   39  H17 UNL     1      -0.786  -4.673  -1.360  1.00  0.00     0.210 HD
ENDBRANCH   3  38
BRANCH  24  40
HETATM   40  O5  UNL     1      -3.397  -2.085  -1.374  1.00  0.00    -0.391 OA
HETATM   41  H43 UNL     1      -2.770  -2.786  -1.655  1.00  0.00     0.210 HD
ENDBRANCH  24  40
TORSDOF 9
