REMARK  19 active torsions:
REMARK  status: ('A' for Active; 'I' for Inactive)
REMARK    1  A    between atoms: C2_2  and  C3_3 
REMARK    2  A    between atoms: C2_2  and  C30_37 
REMARK    3  A    between atoms: C4_4  and  C5_5 
REMARK    4  A    between atoms: C6_6  and  C7_7 
REMARK    5  A    between atoms: C6_6  and  C11_14 
REMARK    6  A    between atoms: C7_7  and  O1_8 
REMARK    7  A    between atoms: O1_8  and  C8_9 
REMARK    8  A    between atoms: C8_9  and  C9_10 
REMARK    9  A    between atoms: C9_10  and  O2_11 
REMARK   10  A    between atoms: C9_10  and  C10_12 
REMARK   11  A    between atoms: C10_12  and  O3_13 
REMARK   12  A    between atoms: C17_20  and  C19_22 
REMARK   13  A    between atoms: C22_26  and  O5_28 
REMARK   14  A    between atoms: C24_29  and  C25_30 
REMARK   15  A    between atoms: C25_30  and  C26_31 
REMARK   16  A    between atoms: C26_31  and  O6_32 
REMARK   17  A    between atoms: C29_35  and  O7_36 
REMARK   18  A    between atoms: C30_37  and  C31_38 
REMARK   19  A    between atoms: C31_38  and  C32_39 
ROOT
HETATM    1  C11 UNL     1      -0.251   1.165  -0.003  1.00  0.00     0.052 C 
HETATM    2  C12 UNL     1      -1.023   1.149  -1.331  1.00  0.00     0.013 C 
HETATM    3  C13 UNL     1      -2.453   0.839  -0.942  1.00  0.00     0.017 C 
HETATM    4  C14 UNL     1      -2.386  -0.169   0.261  1.00  0.00     0.030 C 
HETATM    5  C15 UNL     1      -2.008  -1.618  -0.268  1.00  0.00     0.033 C 
HETATM    6  C16 UNL     1      -3.072  -2.140  -1.237  1.00  0.00    -0.066 C 
HETATM    7  C17 UNL     1      -2.807  -2.747  -2.425  1.00  0.00    -0.021 C 
HETATM    8  C18 UNL     1      -3.845  -3.128  -3.450  1.00  0.00     0.052 C 
HETATM    9  C20 UNL     1      -4.504  -1.812  -0.848  1.00  0.00     0.038 C 
HETATM   10  C21 UNL     1      -4.677  -1.384   0.600  1.00  0.00     0.042 C 
HETATM   11  C22 UNL     1      -3.793  -0.193   1.019  1.00  0.00     0.066 C 
HETATM   12  C23 UNL     1      -4.642   1.091   0.879  1.00  0.00     0.047 C 
HETATM   13  C24 UNL     1      -1.441  -2.624   0.802  1.00  0.00    -0.003 C 
HETATM   14  C27 UNL     1      -1.014  -1.922   2.103  1.00  0.00     0.008 C 
HETATM   15  C28 UNL     1      -0.317  -0.599   1.847  1.00  0.00     0.040 C 
HETATM   16  C29 UNL     1      -1.166   0.427   1.063  1.00  0.00     0.076 C 
ENDROOT
BRANCH   1  17
HETATM   17  C6  UNL     1       0.296   2.542   0.409  1.00  0.00    -0.049 C 
HETATM   18  C5  UNL     1       1.577   2.756   0.789  1.00  0.00     0.005 C 
BRANCH  18  19
HETATM   19  C4  UNL     1       2.659   1.800   0.864  1.00  0.00     0.001 C 
HETATM   20  C3  UNL     1       3.908   2.148   1.218  1.00  0.00     0.006 C 
BRANCH  20  21
HETATM   21  C2  UNL     1       5.065   1.260   1.273  1.00  0.00    -0.067 C 
HETATM   22  C1  UNL     1       6.259   1.752   1.651  1.00  0.00     0.019 C 
BRANCH  21  23
HETATM   23  C30 UNL     1       4.934  -0.193   0.853  1.00  0.00     0.041 C 
BRANCH  23  24
HETATM   24  C31 UNL     1       4.395  -1.086   1.979  1.00  0.00     0.032 C 
BRANCH  24  25
HETATM   25  C32 UNL     1       3.797  -2.386   1.511  1.00  0.00    -0.024 C 
HETATM   26  C33 UNL     1       4.400  -3.370   0.815  1.00  0.00    -0.091 C 
HETATM   27  C34 UNL     1       5.844  -3.358   0.404  1.00  0.00     0.042 C 
HETATM   28  C35 UNL     1       3.633  -4.601   0.402  1.00  0.00     0.042 C 
ENDBRANCH  24  25
ENDBRANCH  23  24
ENDBRANCH  21  23
ENDBRANCH  20  21
ENDBRANCH  18  19
BRANCH  17  29
HETATM   29  C7  UNL     1      -0.698   3.707   0.372  1.00  0.00     0.202 C 
BRANCH  29  30
HETATM   30  O1  UNL     1      -0.041   4.981   0.371  1.00  0.00    -0.384 OA
BRANCH  30  31
HETATM   31  C8  UNL     1       0.296   5.413  -0.960  1.00  0.00     0.201 C 
BRANCH  31  32
HETATM   32  C9  UNL     1       1.184   6.654  -0.827  1.00  0.00     0.165 C 
BRANCH  32  33
HETATM   33  O2  UNL     1       0.436   7.685  -0.161  1.00  0.00    -0.391 OA
HETATM   34  H11 UNL     1       0.046   7.241   0.620  1.00  0.00     0.210 HD
ENDBRANCH  32  33
BRANCH  32  35
HETATM   35  C10 UNL     1       1.643   7.185  -2.184  1.00  0.00     0.198 C 
BRANCH  35  36
HETATM   36  O3  UNL     1       0.517   7.587  -2.963  1.00  0.00    -0.398 OA
HETATM   37  H14 UNL     1       0.009   8.187  -2.378  1.00  0.00     0.209 HD
ENDBRANCH  35  36
ENDBRANCH  32  35
ENDBRANCH  31  32
ENDBRANCH  30  31
ENDBRANCH  29  30
ENDBRANCH  17  29
ENDBRANCH   1  17
BRANCH  16  38
HETATM   38  O7  UNL     1      -1.676   1.371   2.020  1.00  0.00    -0.388 OA
HETATM   39  H43 UNL     1      -0.910   1.752   2.491  1.00  0.00     0.210 HD
ENDBRANCH  16  38
BRANCH  11  40
HETATM   40  O5  UNL     1      -3.614  -0.334   2.435  1.00  0.00    -0.389 OA
HETATM   41  H32 UNL     1      -3.011   0.395   2.695  1.00  0.00     0.210 HD
ENDBRANCH  11  40
BRANCH  13  42
HETATM   42  C25 UNL     1      -2.208  -3.916   1.187  1.00  0.00     0.031 C 
BRANCH  42  43
HETATM   43  C26 UNL     1      -2.393  -4.983   0.114  1.00  0.00     0.164 C 
BRANCH  43  44
HETATM   44  O6  UNL     1      -1.181  -5.194  -0.593  1.00  0.00    -0.401 OA
HETATM   45  H38 UNL     1      -1.338  -5.921  -1.222  1.00  0.00     0.209 HD
ENDBRANCH  43  44
ENDBRANCH  42  43
ENDBRANCH  13  42
BRANCH   7  46
HETATM   46  C19 UNL     1      -1.419  -3.120  -2.851  1.00  0.00     0.265 C 
HETATM   47  O4  UNL     1      -1.174  -3.597  -3.956  1.00  0.00    -0.302 OA
ENDBRANCH   7  46
TORSDOF 19
