REMARK  11 active torsions:
REMARK  status: ('A' for Active; 'I' for Inactive)
REMARK    1  A    between atoms: C19_21  and  O3_22 
REMARK    2  A    between atoms: C19_21  and  C20_23 
REMARK    3  A    between atoms: C20_23  and  C21_25 
REMARK    4  A    between atoms: C21_25  and  O5_26 
REMARK    5  A    between atoms: O5_26  and  C22_27 
REMARK    6  A    between atoms: C22_27  and  C23_29 
REMARK    7  A    between atoms: C23_29  and  C24_30 
REMARK    8  A    between atoms: C24_30  and  C25_31 
REMARK       I    between atoms: C25_31  and  N1_33 
REMARK    9  A    between atoms: N1_33  and  C26_34 
REMARK   10  A    between atoms: C26_34  and  C27_35 
REMARK   11  A    between atoms: C27_35  and  C28_36 
ROOT
HETATM    1  C20 UNL     1      -0.948   1.830  -1.595  1.00  0.00     0.185 C 
HETATM    2  O4  UNL     1      -0.319   2.876  -1.379  1.00  0.00    -0.292 OA
ENDROOT
BRANCH   1   3
HETATM    3  C19 UNL     1      -2.495   1.900  -1.732  1.00  0.00     0.128 C 
HETATM    4  C14 UNL     1      -3.326   1.489  -0.475  1.00  0.00     0.005 C 
HETATM    5  C13 UNL     1      -4.634   2.314  -0.365  1.00  0.00     0.091 C 
HETATM    6  C15 UNL     1      -2.520   1.696   0.826  1.00  0.00     0.019 C 
HETATM    7  C16 UNL     1      -3.670  -0.018  -0.701  1.00  0.00     0.002 C 
HETATM    8  C12 UNL     1      -5.510   1.811   0.766  1.00  0.00     0.133 C 
HETATM    9  C11 UNL     1      -5.673   0.296   0.909  1.00  0.00     0.072 C 
HETATM   10  O2  UNL     1      -5.993   2.608   1.567  1.00  0.00    -0.297 OA
HETATM   11  C2  UNL     1      -7.091  -0.252   1.355  1.00  0.00    -0.009 C 
HETATM   12  C10 UNL     1      -5.144  -0.391  -0.385  1.00  0.00     0.003 C 
HETATM   13  C1  UNL     1      -6.880  -1.098   2.644  1.00  0.00     0.021 C 
HETATM   14  C3  UNL     1      -8.182   0.785   1.744  1.00  0.00     0.022 C 
HETATM   15  C7  UNL     1      -7.640  -1.154   0.240  1.00  0.00    -0.067 C 
HETATM   16  C4  UNL     1      -8.841   1.464   0.554  1.00  0.00     0.084 C 
HETATM   17  C5  UNL     1      -9.440   0.424  -0.357  1.00  0.00     0.149 C 
HETATM   18  O1  UNL     1     -10.433   0.639  -1.046  1.00  0.00    -0.293 OA
HETATM   19  C6  UNL     1      -8.724  -0.865  -0.500  1.00  0.00     0.053 C 
HETATM   20  C8  UNL     1      -6.783  -2.345  -0.113  1.00  0.00     0.035 C 
HETATM   21  C9  UNL     1      -5.319  -1.924  -0.292  1.00  0.00     0.010 C 
HETATM   22  C17 UNL     1      -3.352  -0.316  -2.184  1.00  0.00     0.009 C 
HETATM   23  C18 UNL     1      -3.053   1.020  -2.843  1.00  0.00     0.047 C 
BRANCH   3  24
HETATM   24  O3  UNL     1      -2.783   3.261  -2.088  1.00  0.00    -0.381 OA
HETATM   25  H25 UNL     1      -2.034   3.807  -1.759  1.00  0.00     0.211 HD
ENDBRANCH   3  24
ENDBRANCH   1   3
BRANCH   1  26
HETATM   26  C21 UNL     1      -0.238   0.486  -1.732  1.00  0.00     0.260 C 
BRANCH  26  27
HETATM   27  O5  UNL     1       1.174   0.599  -1.537  1.00  0.00    -0.314 OA
BRANCH  27  28
HETATM   28  C22 UNL     1       1.576   0.573  -0.239  1.00  0.00     0.259 C 
HETATM   29  O6  UNL     1       0.842   0.353   0.715  1.00  0.00    -0.265 OA
BRANCH  28  30
HETATM   30  C23 UNL     1       3.059   0.781  -0.131  1.00  0.00     0.120 C 
BRANCH  30  31
HETATM   31  C24 UNL     1       3.728  -0.528   0.257  1.00  0.00     0.112 C 
BRANCH  31  32
HETATM   32  C25 UNL     1       5.226  -0.373   0.386  1.00  0.00     0.218 C 
HETATM   33  O7  UNL     1       5.820   0.676   0.170  1.00  0.00    -0.274 OA
HETATM   34  N1  UNL     1       5.855  -1.540   0.762  1.00  0.00    -0.361 N 
HETATM   35  H32 UNL     1       5.308  -2.369   0.947  1.00  0.00     0.162 HD
BRANCH  34  36
HETATM   36  C26 UNL     1       7.292  -1.598   0.967  1.00  0.00     0.127 C 
BRANCH  36  37
HETATM   37  C27 UNL     1       8.074  -1.653  -0.348  1.00  0.00     0.060 C 
BRANCH  37  38
HETATM   38  C28 UNL     1       9.548  -1.763  -0.123  1.00  0.00    -0.029 A 
HETATM   39  C29 UNL     1      10.319  -2.904  -0.236  1.00  0.00     0.096 A 
HETATM   40  N2  UNL     1      11.616  -2.576   0.054  1.00  0.00    -0.365 N 
HETATM   41  C30 UNL     1      11.714  -1.240   0.361  1.00  0.00     0.042 A 
HETATM   42  H38 UNL     1      12.396  -3.218   0.047  1.00  0.00     0.165 HD
HETATM   43  C31 UNL     1      12.830  -0.475   0.719  1.00  0.00     0.030 A 
HETATM   44  C35 UNL     1      10.432  -0.700   0.254  1.00  0.00    -0.002 A 
HETATM   45  C32 UNL     1      12.628   0.885   0.975  1.00  0.00     0.002 A 
HETATM   46  C33 UNL     1      11.360   1.453   0.876  1.00  0.00     0.001 A 
HETATM   47  C34 UNL     1      10.254   0.674   0.516  1.00  0.00     0.014 A 
ENDBRANCH  37  38
ENDBRANCH  36  37
ENDBRANCH  34  36
ENDBRANCH  31  32
ENDBRANCH  30  31
ENDBRANCH  28  30
ENDBRANCH  27  28
ENDBRANCH  26  27
ENDBRANCH   1  26
TORSDOF 11
