REMARK  6 active torsions:
REMARK  status: ('A' for Active; 'I' for Inactive)
REMARK    1  A    between atoms: C2_2  and  C30_31 
REMARK    2  A    between atoms: C3_3  and  C4_4 
REMARK    3  A    between atoms: C4_4  and  C5_5 
REMARK    4  A    between atoms: C5_5  and  C6_6 
REMARK    5  A    between atoms: C6_6  and  C8_8 
REMARK    6  A    between atoms: C30_31  and  O3_33 
ROOT
HETATM    1  C8  UNL     1       2.336   0.167   0.168  1.00  0.00    -0.002 C 
HETATM    2  C9  UNL     1       2.400  -1.191   0.914  1.00  0.00     0.007 C 
HETATM    3  C10 UNL     1       0.984  -1.794   0.863  1.00  0.00     0.015 C 
HETATM    4  C11 UNL     1       0.057  -0.562   0.833  1.00  0.00    -0.013 C 
HETATM    5  C12 UNL     1      -0.023  -0.042   2.299  1.00  0.00     0.021 C 
HETATM    6  C13 UNL     1      -1.397  -0.741   0.405  1.00  0.00    -0.070 C 
HETATM    7  C14 UNL     1      -2.088  -1.868   0.661  1.00  0.00    -0.022 C 
HETATM    8  C15 UNL     1      -3.560  -2.037   0.418  1.00  0.00     0.034 C 
HETATM    9  C16 UNL     1      -4.209  -0.887  -0.385  1.00  0.00     0.013 C 
HETATM   10  C17 UNL     1      -5.776  -0.967  -0.532  1.00  0.00     0.018 C 
HETATM   11  C18 UNL     1      -6.136  -1.290  -2.000  1.00  0.00     0.023 C 
HETATM   12  C19 UNL     1      -6.421  -2.062   0.345  1.00  0.00     0.023 C 
HETATM   13  C20 UNL     1      -6.474   0.364  -0.211  1.00  0.00     0.135 C 
HETATM   14  O1  UNL     1      -7.594   0.401   0.306  1.00  0.00    -0.297 OA
HETATM   15  C21 UNL     1      -5.824   1.660  -0.632  1.00  0.00     0.080 C 
HETATM   16  C22 UNL     1      -4.319   1.578  -0.818  1.00  0.00     0.017 C 
HETATM   17  C23 UNL     1      -3.636   0.506   0.060  1.00  0.00    -0.031 C 
HETATM   18  C24 UNL     1      -3.895   0.802   1.557  1.00  0.00     0.016 C 
HETATM   19  C25 UNL     1      -2.083   0.471  -0.242  1.00  0.00     0.024 C 
HETATM   20  C26 UNL     1      -1.336   1.808   0.002  1.00  0.00     0.010 C 
HETATM   21  C27 UNL     1       0.207   1.775  -0.164  1.00  0.00     0.011 C 
HETATM   22  C28 UNL     1       0.812   0.360  -0.180  1.00  0.00    -0.029 C 
HETATM   23  C29 UNL     1       0.712  -0.155  -1.668  1.00  0.00     0.016 C 
ENDROOT
BRANCH   1  24
HETATM   24  C6  UNL     1       3.165   1.337   0.775  1.00  0.00    -0.014 C 
HETATM   25  C7  UNL     1       2.843   1.705   2.227  1.00  0.00     0.010 C 
BRANCH  24  26
HETATM   26  C5  UNL     1       4.693   1.063   0.695  1.00  0.00     0.008 C 
BRANCH  26  27
HETATM   27  C4  UNL     1       5.259   1.119  -0.729  1.00  0.00     0.028 C 
BRANCH  27  28
HETATM   28  C3  UNL     1       6.757   0.978  -0.726  1.00  0.00    -0.013 C 
HETATM   29  C2  UNL     1       7.484  -0.113  -1.042  1.00  0.00     0.008 C 
HETATM   30  C1  UNL     1       8.984  -0.100  -1.031  1.00  0.00     0.055 C 
BRANCH  29  31
HETATM   31  C30 UNL     1       6.836  -1.405  -1.364  1.00  0.00     0.171 C 
HETATM   32  O2  UNL     1       5.806  -1.850  -0.895  1.00  0.00    -0.646 OA
BRANCH  31  33
HETATM   33  O3  UNL     1       7.540  -2.093  -2.279  1.00  0.00    -0.773 OA
HETATM   34  H46 UNL     1       7.010  -2.905  -2.412  1.00  0.00     0.167 HD
ENDBRANCH  31  33
ENDBRANCH  29  31
ENDBRANCH  27  28
ENDBRANCH  26  27
ENDBRANCH  24  26
ENDBRANCH   1  24
TORSDOF 6
