REMARK  7 active torsions:
REMARK  status: ('A' for Active; 'I' for Inactive)
REMARK    1  A    between atoms: C2_2  and  C30_33 
REMARK    2  A    between atoms: C3_3  and  C4_4 
REMARK    3  A    between atoms: C4_4  and  C5_5 
REMARK    4  A    between atoms: C5_5  and  C6_6 
REMARK    5  A    between atoms: C6_6  and  C8_8 
REMARK    6  A    between atoms: C15_15  and  O1_16 
REMARK    7  A    between atoms: C30_33  and  O5_35 
ROOT
HETATM    1  C8  UNL     1       2.089   0.023   1.128  1.00  0.00    -0.002 C 
HETATM    2  C9  UNL     1       2.177   1.549   0.902  1.00  0.00     0.007 C 
HETATM    3  C10 UNL     1       0.762   2.014   0.479  1.00  0.00     0.015 C 
HETATM    4  C11 UNL     1      -0.175   0.837   0.832  1.00  0.00    -0.005 C 
HETATM    5  C12 UNL     1      -0.504   0.965   2.354  1.00  0.00     0.021 C 
HETATM    6  C13 UNL     1      -1.542   0.667   0.181  1.00  0.00     0.002 C 
HETATM    7  C14 UNL     1      -2.092  -0.569  -0.007  1.00  0.00    -0.032 C 
HETATM    8  C15 UNL     1      -1.318  -1.840   0.361  1.00  0.00     0.149 C 
HETATM    9  C16 UNL     1       0.111  -1.666   0.928  1.00  0.00     0.047 C 
HETATM   10  C17 UNL     1       0.758  -0.369   0.425  1.00  0.00    -0.026 C 
HETATM   11  C18 UNL     1       0.949  -0.467  -1.118  1.00  0.00     0.016 C 
HETATM   12  C19 UNL     1      -3.501  -0.724  -0.650  1.00  0.00    -0.012 C 
HETATM   13  C20 UNL     1      -3.267  -0.676  -2.185  1.00  0.00     0.021 C 
HETATM   14  C21 UNL     1      -4.261  -2.053  -0.344  1.00  0.00     0.021 C 
HETATM   15  C22 UNL     1      -5.206  -1.956   0.844  1.00  0.00     0.080 C 
HETATM   16  C23 UNL     1      -6.304  -0.964   0.524  1.00  0.00     0.135 C 
HETATM   17  O2  UNL     1      -7.470  -1.202   0.841  1.00  0.00    -0.297 OA
HETATM   18  C24 UNL     1      -5.899   0.340  -0.189  1.00  0.00     0.018 C 
HETATM   19  C25 UNL     1      -6.453   0.297  -1.617  1.00  0.00     0.023 C 
HETATM   20  C26 UNL     1      -6.590   1.501   0.561  1.00  0.00     0.023 C 
HETATM   21  C27 UNL     1      -4.345   0.479  -0.092  1.00  0.00     0.020 C 
HETATM   22  C28 UNL     1      -3.762   1.800  -0.592  1.00  0.00     0.090 C 
HETATM   23  C29 UNL     1      -2.301   1.910  -0.206  1.00  0.00     0.157 C 
HETATM   24  O3  UNL     1      -1.756   3.012  -0.211  1.00  0.00    -0.293 OA
ENDROOT
BRANCH   1  25
HETATM   25  C6  UNL     1       3.384  -0.819   0.956  1.00  0.00    -0.014 C 
HETATM   26  C7  UNL     1       4.419  -0.393   2.013  1.00  0.00     0.010 C 
BRANCH  25  27
HETATM   27  C5  UNL     1       4.052  -1.012  -0.426  1.00  0.00     0.008 C 
BRANCH  27  28
HETATM   28  C4  UNL     1       4.580   0.179  -1.233  1.00  0.00     0.028 C 
BRANCH  28  29
HETATM   29  C3  UNL     1       5.708   0.938  -0.597  1.00  0.00    -0.013 C 
HETATM   30  C2  UNL     1       7.027   0.694  -0.730  1.00  0.00     0.008 C 
HETATM   31  C1  UNL     1       7.633  -0.430  -1.515  1.00  0.00     0.055 C 
BRANCH  30  32
HETATM   32  C30 UNL     1       7.948   1.612  -0.012  1.00  0.00     0.171 C 
HETATM   33  O4  UNL     1       7.637   2.509   0.751  1.00  0.00    -0.646 OA
BRANCH  32  34
HETATM   34  O5  UNL     1       9.238   1.363  -0.291  1.00  0.00    -0.773 OA
HETATM   35  H44 UNL     1       9.717   2.036   0.236  1.00  0.00     0.167 HD
ENDBRANCH  32  34
ENDBRANCH  30  32
ENDBRANCH  28  29
ENDBRANCH  27  28
ENDBRANCH  25  27
ENDBRANCH   1  25
BRANCH   8  36
HETATM   36  O1  UNL     1      -1.225  -2.639  -0.817  1.00  0.00    -0.391 OA
HETATM   37  H22 UNL     1      -0.817  -3.485  -0.568  1.00  0.00     0.210 HD
ENDBRANCH   8  36
TORSDOF 7
