REMARK  12 active torsions:
REMARK  status: ('A' for Active; 'I' for Inactive)
REMARK    1  A    between atoms: C3_4  and  O2_5 
REMARK    2  A    between atoms: O2_5  and  C4_6 
REMARK    3  A    between atoms: C7_9  and  C8_10 
REMARK    4  A    between atoms: N1_11  and  C9_13 
REMARK    5  A    between atoms: C9_13  and  C10_14 
REMARK    6  A    between atoms: C10_14  and  C11_15 
REMARK    7  A    between atoms: C11_15  and  O3_16 
REMARK    8  A    between atoms: C17_22  and  C18_23 
REMARK    9  A    between atoms: C24_31  and  O6_32 
REMARK   10  A    between atoms: C28_36  and  O7_37 
REMARK   11  A    between atoms: C31_40  and  O8_41 
REMARK   12  A    between atoms: C32_42  and  O9_43 
ROOT
HETATM    1  C4  UNL     1      -2.775   1.384   0.857  1.00  0.00     0.127 C 
HETATM    2  C5  UNL     1      -2.691  -0.067   1.346  1.00  0.00     0.033 C 
HETATM    3  C6  UNL     1      -1.248  -0.549   1.433  1.00  0.00     0.021 C 
HETATM    4  C7  UNL     1      -0.453  -0.465   0.085  1.00  0.00     0.026 C 
HETATM    5  C12 UNL     1       0.996   0.086   0.408  1.00  0.00     0.009 C 
HETATM    6  C13 UNL     1       1.795  -0.790   1.398  1.00  0.00     0.007 C 
HETATM    7  C14 UNL     1       3.132  -0.156   1.766  1.00  0.00     0.013 C 
HETATM    8  C15 UNL     1       4.036   0.149   0.537  1.00  0.00    -0.005 C 
HETATM    9  C16 UNL     1       4.553  -1.189  -0.027  1.00  0.00     0.019 C 
HETATM   10  C17 UNL     1       5.184   1.113   1.011  1.00  0.00     0.028 C 
HETATM   11  C22 UNL     1       4.640   2.542   0.773  1.00  0.00     0.013 C 
HETATM   12  C23 UNL     1       3.264   2.401   0.118  1.00  0.00     0.040 C 
HETATM   13  C24 UNL     1       3.254   0.996  -0.504  1.00  0.00     0.070 C 
HETATM   14  C25 UNL     1       1.840   0.436  -0.846  1.00  0.00     0.026 C 
HETATM   15  C26 UNL     1       1.048   1.388  -1.761  1.00  0.00     0.011 C 
HETATM   16  C27 UNL     1      -0.305   0.811  -2.145  1.00  0.00     0.039 C 
HETATM   17  C28 UNL     1      -1.198   0.456  -0.947  1.00  0.00     0.073 C 
HETATM   18  C29 UNL     1      -1.747   1.715  -0.244  1.00  0.00     0.071 C 
ENDROOT
BRANCH   1  19
HETATM   19  O2  UNL     1      -4.080   1.699   0.348  1.00  0.00    -0.356 OA
BRANCH  19  20
HETATM   20  C3  UNL     1      -5.103   1.714   1.341  1.00  0.00     0.263 C 
HETATM   21  O1  UNL     1      -5.769   0.454   1.454  1.00  0.00    -0.354 OA
HETATM   22  C2  UNL     1      -6.625   0.075   0.362  1.00  0.00     0.151 C 
HETATM   23  C1  UNL     1      -5.855  -0.384  -0.871  1.00  0.00     0.042 C 
HETATM   24  C32 UNL     1      -7.649   1.175   0.056  1.00  0.00     0.175 C 
HETATM   25  C31 UNL     1      -6.959   2.528  -0.144  1.00  0.00     0.154 C 
HETATM   26  C30 UNL     1      -6.072   2.854   1.049  1.00  0.00     0.095 C 
BRANCH  24  27
HETATM   27  O9  UNL     1      -8.566   1.309   1.164  1.00  0.00    -0.390 OA
HETATM   28  H49 UNL     1      -8.089   1.024   1.969  1.00  0.00     0.210 HD
ENDBRANCH  24  27
BRANCH  25  29
HETATM   29  O8  UNL     1      -7.948   3.552  -0.279  1.00  0.00    -0.393 OA
HETATM   30  H47 UNL     1      -8.653   3.333   0.366  1.00  0.00     0.210 HD
ENDBRANCH  25  29
ENDBRANCH  19  20
ENDBRANCH   1  19
BRANCH  17  31
HETATM   31  O7  UNL     1      -2.330  -0.233  -1.510  1.00  0.00    -0.389 OA
HETATM   32  H41 UNL     1      -2.886   0.423  -1.968  1.00  0.00     0.210 HD
ENDBRANCH  17  31
BRANCH   4  33
HETATM   33  C8  UNL     1      -0.463  -1.881  -0.512  1.00  0.00     0.068 C 
HETATM   34  N1  UNL     1       0.609  -2.502  -0.857  1.00  0.00    -0.401 N 
ATOM     35  H1  UNL     1       1.538  -2.102  -0.725  1.00  0.00     0.158 HD
BRANCH  34  36
HETATM   36  C9  UNL     1       0.401  -3.826  -1.453  1.00  0.00     0.121 C 
BRANCH  36  37
HETATM   37  C10 UNL     1       0.788  -4.893  -0.431  1.00  0.00     0.045 C 
BRANCH  37  38
HETATM   38  C11 UNL     1       0.608  -6.301  -0.985  1.00  0.00     0.165 C 
BRANCH  38  39
HETATM   39  O3  UNL     1       1.465  -6.529  -2.095  1.00  0.00    -0.401 OA
HETATM   40  H18 UNL     1       2.379  -6.396  -1.787  1.00  0.00     0.209 HD
ENDBRANCH  38  39
ENDBRANCH  37  38
ENDBRANCH  36  37
ENDBRANCH  34  36
ENDBRANCH   4  33
BRANCH  13  41
HETATM   41  O6  UNL     1       4.028   1.063  -1.709  1.00  0.00    -0.389 OA
HETATM   42  H35 UNL     1       3.614   1.701  -2.315  1.00  0.00     0.210 HD
ENDBRANCH  13  41
BRANCH  10  43
HETATM   43  C18 UNL     1       6.572   0.930   0.451  1.00  0.00    -0.045 A 
HETATM   44  C19 UNL     1       7.633   0.535   1.157  1.00  0.00     0.087 A 
HETATM   45  C20 UNL     1       8.781   0.534   0.256  1.00  0.00     0.283 A 
HETATM   46  O4  UNL     1       9.913   0.220   0.577  1.00  0.00    -0.260 OA
HETATM   47  O5  UNL     1       8.382   0.948  -0.974  1.00  0.00    -0.314 OA
HETATM   48  C21 UNL     1       6.973   1.197  -0.953  1.00  0.00     0.213 A 
ENDBRANCH  10  43
TORSDOF 12
