REMARK  11 active torsions:
REMARK  status: ('A' for Active; 'I' for Inactive)
REMARK    1  A    between atoms: C3_3  and  C4_4 
REMARK    2  A    between atoms: C4_4  and  C5_6 
REMARK    3  A    between atoms: C5_6  and  O2_7 
REMARK    4  A    between atoms: C9_11  and  C10_12 
REMARK    5  A    between atoms: C10_12  and  O4_14 
REMARK    6  A    between atoms: C15_19  and  C16_20 
REMARK    7  A    between atoms: C19_26  and  O6_27 
REMARK    8  A    between atoms: C21_29  and  C22_30 
REMARK    9  A    between atoms: C22_30  and  C23_31 
REMARK   10  A    between atoms: C23_31  and  C24_32 
REMARK   11  A    between atoms: C24_32  and  C25_33 
ROOT
HETATM    1  C5  UNL     1      -2.333  -1.915  -0.648  1.00  0.00     0.132 C 
HETATM    2  C6  UNL     1      -3.792  -1.544  -0.998  1.00  0.00     0.052 C 
HETATM    3  C7  UNL     1      -3.970  -0.105  -0.506  1.00  0.00    -0.005 C 
HETATM    4  C8  UNL     1      -5.045   0.703  -1.233  1.00  0.00     0.020 C 
HETATM    5  C9  UNL     1      -4.781   2.225  -1.192  1.00  0.00     0.084 C 
HETATM    6  C11 UNL     1      -3.876   2.620  -0.009  1.00  0.00     0.020 C 
HETATM    7  C12 UNL     1      -2.521   1.871   0.068  1.00  0.00    -0.013 C 
HETATM    8  C13 UNL     1      -1.374   2.745  -0.440  1.00  0.00     0.010 C 
HETATM    9  C14 UNL     1      -2.579   0.518  -0.666  1.00  0.00     0.007 C 
HETATM   10  C15 UNL     1      -1.681  -0.605  -0.109  1.00  0.00     0.090 C 
ENDROOT
BRANCH  10  11
HETATM   11  C16 UNL     1      -0.167  -0.584  -0.211  1.00  0.00     0.072 A 
HETATM   12  C17 UNL     1       0.614  -0.237  -1.246  1.00  0.00     0.076 A 
HETATM   13  C18 UNL     1       0.352   0.254  -2.650  1.00  0.00     0.261 A 
HETATM   14  C20 UNL     1       2.043  -0.350  -1.149  1.00  0.00     0.038 A 
HETATM   15  O5  UNL     1      -0.729   0.518  -3.138  1.00  0.00    -0.267 OA
HETATM   16  N1  UNL     1       1.573   0.403  -3.301  1.00  0.00    -0.303 N 
HETATM   17  C19 UNL     1       2.492   0.064  -2.463  1.00  0.00     0.154 A 
ATOM     18  H1  UNL     1       1.714   0.720  -4.260  1.00  0.00     0.171 HD
HETATM   19  C21 UNL     1       2.668  -0.776  -0.046  1.00  0.00    -0.036 A 
HETATM   20  C27 UNL     1       1.822  -1.169   1.151  1.00  0.00     0.154 A 
HETATM   21  C28 UNL     1       2.169  -0.379   2.411  1.00  0.00     0.045 C 
HETATM   22  O7  UNL     1       0.393  -1.037   0.979  1.00  0.00    -0.344 OA
BRANCH  17  23
HETATM   23  O6  UNL     1       3.778   0.096  -2.782  1.00  0.00    -0.345 OA
HETATM   24  H22 UNL     1       3.849   0.397  -3.704  1.00  0.00     0.219 HD
ENDBRANCH  17  23
BRANCH  19  25
HETATM   25  C22 UNL     1       4.161  -0.987   0.048  1.00  0.00     0.038 C 
BRANCH  25  26
HETATM   26  C23 UNL     1       4.934   0.304   0.345  1.00  0.00     0.004 C 
BRANCH  26  27
HETATM   27  C24 UNL     1       6.441   0.037   0.397  1.00  0.00    -0.000 C 
BRANCH  27  28
HETATM   28  C25 UNL     1       7.263   1.266   0.791  1.00  0.00    -0.005 C 
HETATM   29  C26 UNL     1       7.217   2.385  -0.239  1.00  0.00     0.005 C 
ENDBRANCH  27  28
ENDBRANCH  26  27
ENDBRANCH  25  26
ENDBRANCH  19  25
ENDBRANCH  10  11
BRANCH   1  30
HETATM   30  C4  UNL     1      -2.223  -3.070   0.376  1.00  0.00     0.183 C 
HETATM   31  O1  UNL     1      -1.536  -4.062   0.115  1.00  0.00    -0.290 OA
BRANCH  30  32
HETATM   32  C3  UNL     1      -2.937  -2.953   1.684  1.00  0.00     0.049 C 
HETATM   33  C2  UNL     1      -2.825  -3.908   2.618  1.00  0.00    -0.027 C 
HETATM   34  C1  UNL     1      -3.489  -3.845   3.955  1.00  0.00     0.036 C 
ENDBRANCH  30  32
ENDBRANCH   1  30
BRANCH   1  35
HETATM   35  O2  UNL     1      -1.703  -2.329  -1.868  1.00  0.00    -0.381 OA
HETATM   36  H6  UNL     1      -1.186  -3.133  -1.652  1.00  0.00     0.211 HD
ENDBRANCH   1  35
BRANCH   5  37
HETATM   37  C10 UNL     1      -4.280   2.748  -2.530  1.00  0.00     0.143 C 
HETATM   38  O3  UNL     1      -4.385   2.202  -3.615  1.00  0.00    -0.650 OA
BRANCH  37  39
HETATM   39  O4  UNL     1      -3.760   3.990  -2.460  1.00  0.00    -0.776 OA
HETATM   40  H13 UNL     1      -3.496   4.173  -3.387  1.00  0.00     0.167 HD
ENDBRANCH  37  39
ENDBRANCH   5  37
TORSDOF 11
