REMARK  11 active torsions:
REMARK  status: ('A' for Active; 'I' for Inactive)
REMARK    1  A    between atoms: C2_2  and  C4_4 
REMARK    2  A    between atoms: C4_4  and  C6_6 
REMARK    3  A    between atoms: C7_7  and  C8_8 
REMARK    4  A    between atoms: C8_8  and  C10_10 
REMARK    5  A    between atoms: C24_24  and  O1_25 
REMARK    6  A    between atoms: O1_25  and  C25_26 
REMARK    7  A    between atoms: C26_28  and  C27_29 
REMARK    8  A    between atoms: C27_29  and  O3_30 
REMARK    9  A    between atoms: C28_31  and  O4_32 
REMARK   10  A    between atoms: C29_33  and  O5_34 
REMARK   11  A    between atoms: C30_35  and  O6_36 
ROOT
HETATM    1  C10 UNL     1       3.828  -0.215  -0.737  1.00  0.00     0.001 C 
HETATM    2  C11 UNL     1       4.068   0.456   0.650  1.00  0.00     0.006 C 
HETATM    3  C12 UNL     1       2.688   0.844   1.208  1.00  0.00     0.009 C 
HETATM    4  C13 UNL     1       1.716   0.189   0.236  1.00  0.00     0.032 C 
HETATM    5  C14 UNL     1       2.413   0.312  -1.143  1.00  0.00    -0.033 C 
HETATM    6  C15 UNL     1       2.517   1.747  -1.700  1.00  0.00     0.016 C 
HETATM    7  C16 UNL     1       1.635  -0.582  -2.129  1.00  0.00     0.010 C 
HETATM    8  C17 UNL     1       0.133  -0.245  -2.160  1.00  0.00     0.009 C 
HETATM    9  C18 UNL     1      -0.526  -0.309  -0.769  1.00  0.00     0.035 C 
HETATM   10  C19 UNL     1       0.221   0.529   0.312  1.00  0.00     0.105 C 
HETATM   11  C20 UNL     1      -0.165   2.010   0.272  1.00  0.00     0.045 C 
HETATM   12  C21 UNL     1      -1.631   2.137   0.703  1.00  0.00     0.045 C 
HETATM   13  C22 UNL     1      -2.303   0.752   0.638  1.00  0.00     0.106 C 
HETATM   14  C23 UNL     1      -3.791   0.870   0.998  1.00  0.00     0.074 C 
HETATM   15  C24 UNL     1      -4.529  -0.472   0.938  1.00  0.00     0.127 C 
HETATM   16  C31 UNL     1      -4.337  -1.141  -0.425  1.00  0.00     0.033 C 
HETATM   17  C32 UNL     1      -2.858  -1.306  -0.765  1.00  0.00     0.015 C 
HETATM   18  C33 UNL     1      -2.062   0.032  -0.726  1.00  0.00    -0.003 C 
HETATM   19  C34 UNL     1      -2.527   0.905  -1.914  1.00  0.00     0.019 C 
HETATM   20  O7  UNL     1      -1.687  -0.091   1.639  1.00  0.00    -0.228 OA
HETATM   21  O8  UNL     1      -0.222   0.095   1.626  1.00  0.00    -0.228 OA
ENDROOT
BRANCH  15  22
HETATM   22  O1  UNL     1      -5.909  -0.198   1.224  1.00  0.00    -0.353 OA
BRANCH  22  23
HETATM   23  C25 UNL     1      -6.709  -1.367   1.379  1.00  0.00     0.292 C 
HETATM   24  O2  UNL     1      -7.435  -1.649   0.186  1.00  0.00    -0.348 OA
HETATM   25  C26 UNL     1      -8.344  -0.610  -0.240  1.00  0.00     0.179 C 
HETATM   26  C28 UNL     1      -8.864   0.265   0.916  1.00  0.00     0.180 C 
HETATM   27  C29 UNL     1      -9.029  -0.616   2.147  1.00  0.00     0.183 C 
HETATM   28  C30 UNL     1      -7.677  -1.197   2.578  1.00  0.00     0.204 C 
BRANCH  25  29
HETATM   29  C27 UNL     1      -7.744   0.264  -1.354  1.00  0.00     0.198 C 
BRANCH  29  30
HETATM   30  O3  UNL     1      -7.424  -0.532  -2.496  1.00  0.00    -0.398 OA
HETATM   31  H43 UNL     1      -7.424   0.062  -3.267  1.00  0.00     0.209 HD
ENDBRANCH  29  30
ENDBRANCH  25  29
BRANCH  26  32
HETATM   32  O4  UNL     1     -10.121   0.860   0.574  1.00  0.00    -0.390 OA
HETATM   33  H45 UNL     1     -10.513   1.130   1.433  1.00  0.00     0.210 HD
ENDBRANCH  26  32
BRANCH  27  34
HETATM   34  O5  UNL     1      -9.618   0.153   3.211  1.00  0.00    -0.390 OA
HETATM   35  H47 UNL     1      -9.621  -0.435   3.991  1.00  0.00     0.210 HD
ENDBRANCH  27  34
BRANCH  28  36
HETATM   36  O6  UNL     1      -7.944  -2.459   3.225  1.00  0.00    -0.388 OA
HETATM   37  H49 UNL     1      -8.142  -3.107   2.524  1.00  0.00     0.210 HD
ENDBRANCH  28  36
ENDBRANCH  22  23
ENDBRANCH  15  22
BRANCH   1  38
HETATM   38  C8  UNL     1       5.033  -0.016  -1.693  1.00  0.00     0.008 C 
HETATM   39  C9  UNL     1       4.827  -0.661  -3.065  1.00  0.00     0.014 C 
BRANCH  38  40
HETATM   40  C7  UNL     1       6.287  -0.613  -1.079  1.00  0.00    -0.026 C 
HETATM   41  C6  UNL     1       7.400   0.092  -0.819  1.00  0.00    -0.026 C 
BRANCH  41  42
HETATM   42  C4  UNL     1       8.690  -0.420  -0.202  1.00  0.00     0.007 C 
HETATM   43  C5  UNL     1       8.881  -1.934  -0.382  1.00  0.00     0.014 C 
BRANCH  42  44
HETATM   44  C2  UNL     1       8.812   0.008   1.291  1.00  0.00    -0.015 C 
HETATM   45  C1  UNL     1      10.135  -0.451   1.915  1.00  0.00     0.010 C 
HETATM   46  C3  UNL     1       8.686   1.527   1.477  1.00  0.00     0.010 C 
ENDBRANCH  42  44
ENDBRANCH  41  42
ENDBRANCH  38  40
ENDBRANCH   1  38
TORSDOF 11
