REMARK  8 active torsions:
REMARK  status: ('A' for Active; 'I' for Inactive)
REMARK    1  A    between atoms: C2_2  and  C3_3 
REMARK    2  A    between atoms: C2_2  and  C27_30 
REMARK    3  A    between atoms: C3_3  and  C4_4 
REMARK    4  A    between atoms: C4_4  and  C5_5 
REMARK    5  A    between atoms: C5_5  and  C7_7 
REMARK    6  A    between atoms: C26_28  and  O3_29 
REMARK    7  A    between atoms: C27_30  and  C29_32 
REMARK    8  A    between atoms: C29_32  and  O5_34 
ROOT
HETATM    1  C7  UNL     1       1.616  -0.831   0.345  1.00  0.00    -0.002 C 
HETATM    2  C8  UNL     1       1.193  -1.644   1.582  1.00  0.00     0.006 C 
HETATM    3  C9  UNL     1      -0.309  -1.812   1.418  1.00  0.00     0.010 C 
HETATM    4  C10 UNL     1      -0.737  -0.410   0.983  1.00  0.00     0.027 C 
HETATM    5  C11 UNL     1      -2.182  -0.295   0.537  1.00  0.00    -0.036 C 
HETATM    6  C12 UNL     1      -2.567   0.002  -0.726  1.00  0.00     0.002 C 
HETATM    7  C13 UNL     1      -1.512   0.009  -1.803  1.00  0.00     0.157 C 
HETATM    8  O1  UNL     1      -1.803   0.228  -2.978  1.00  0.00    -0.293 OA
HETATM    9  C14 UNL     1      -0.100  -0.398  -1.458  1.00  0.00     0.093 C 
HETATM   10  C15 UNL     1       0.345   0.021  -0.047  1.00  0.00    -0.026 C 
HETATM   11  C16 UNL     1       0.494   1.551  -0.009  1.00  0.00     0.016 C 
HETATM   12  C17 UNL     1      -4.028   0.307  -1.140  1.00  0.00    -0.008 C 
HETATM   13  C18 UNL     1      -4.077   1.720  -1.797  1.00  0.00     0.021 C 
HETATM   14  C19 UNL     1      -4.503  -0.757  -2.180  1.00  0.00     0.022 C 
HETATM   15  C20 UNL     1      -5.754  -1.548  -1.825  1.00  0.00     0.080 C 
HETATM   16  C21 UNL     1      -6.854  -0.676  -1.293  1.00  0.00     0.131 C 
HETATM   17  O2  UNL     1      -8.024  -0.847  -1.654  1.00  0.00    -0.298 OA
HETATM   18  C22 UNL     1      -6.486   0.396  -0.280  1.00  0.00     0.056 C 
HETATM   19  C23 UNL     1      -7.435   0.331   0.918  1.00  0.00     0.018 C 
HETATM   20  C24 UNL     1      -4.985   0.376   0.110  1.00  0.00     0.012 C 
HETATM   21  C25 UNL     1      -4.616  -0.688   1.156  1.00  0.00     0.042 C 
HETATM   22  C26 UNL     1      -3.186  -0.477   1.649  1.00  0.00     0.148 C 
ENDROOT
BRANCH   1  23
HETATM   23  C5  UNL     1       3.039  -0.218   0.479  1.00  0.00    -0.014 C 
HETATM   24  C6  UNL     1       3.174   0.888   1.527  1.00  0.00     0.010 C 
BRANCH  23  25
HETATM   25  C4  UNL     1       3.595   0.213  -0.903  1.00  0.00     0.009 C 
BRANCH  25  26
HETATM   26  C3  UNL     1       5.122   0.059  -1.062  1.00  0.00     0.034 C 
BRANCH  26  27
HETATM   27  C2  UNL     1       6.028   1.020  -0.314  1.00  0.00    -0.075 C 
HETATM   28  C1  UNL     1       5.769   2.340  -0.251  1.00  0.00     0.015 C 
BRANCH  27  29
HETATM   29  C27 UNL     1       7.298   0.453   0.322  1.00  0.00     0.107 C 
HETATM   30  C28 UNL     1       6.996  -0.521   1.460  1.00  0.00     0.026 C 
BRANCH  29  31
HETATM   31  C29 UNL     1       8.228  -0.199  -0.702  1.00  0.00     0.147 C 
HETATM   32  O4  UNL     1       7.987  -0.505  -1.857  1.00  0.00    -0.650 OA
BRANCH  31  33
HETATM   33  O5  UNL     1       9.456  -0.445  -0.192  1.00  0.00    -0.776 OA
HETATM   34  H42 UNL     1       9.939  -0.851  -0.943  1.00  0.00     0.167 HD
ENDBRANCH  31  33
ENDBRANCH  29  31
ENDBRANCH  27  29
ENDBRANCH  26  27
ENDBRANCH  25  26
ENDBRANCH  23  25
ENDBRANCH   1  23
BRANCH  22  35
HETATM   35  O3  UNL     1      -3.116   0.677   2.480  1.00  0.00    -0.391 OA
HETATM   36  H37 UNL     1      -3.680   0.517   3.255  1.00  0.00     0.210 HD
ENDBRANCH  22  35
TORSDOF 8
