REMARK  7 active torsions:
REMARK  status: ('A' for Active; 'I' for Inactive)
REMARK    1  A    between atoms: C4_4  and  C5_5 
REMARK    2  A    between atoms: C5_5  and  C6_6 
REMARK    3  A    between atoms: C6_6  and  C7_7 
REMARK    4  A    between atoms: C7_7  and  C9_9 
REMARK    5  A    between atoms: C22_22  and  O1_23 
REMARK    6  A    between atoms: C23_24  and  O2_25 
REMARK    7  A    between atoms: C24_26  and  O3_27 
ROOT
HETATM    1  C9  UNL     1       2.224   0.246  -0.463  1.00  0.00    -0.002 C 
HETATM    2  C10 UNL     1       2.314  -1.305  -0.408  1.00  0.00     0.007 C 
HETATM    3  C11 UNL     1       0.886  -1.860  -0.263  1.00  0.00     0.015 C 
HETATM    4  C12 UNL     1      -0.029  -0.674  -0.599  1.00  0.00    -0.013 C 
HETATM    5  C13 UNL     1      -0.139  -0.606  -2.154  1.00  0.00     0.021 C 
HETATM    6  C14 UNL     1      -1.469  -0.693  -0.099  1.00  0.00    -0.068 C 
HETATM    7  C15 UNL     1      -2.122   0.477   0.124  1.00  0.00    -0.065 C 
HETATM    8  C16 UNL     1      -1.411   1.825  -0.019  1.00  0.00     0.036 C 
HETATM    9  C17 UNL     1       0.095   1.813  -0.367  1.00  0.00     0.015 C 
HETATM   10  C18 UNL     1       0.775   0.508   0.069  1.00  0.00    -0.029 C 
HETATM   11  C19 UNL     1       0.776   0.439   1.630  1.00  0.00     0.016 C 
HETATM   12  C20 UNL     1      -3.603   0.511   0.585  1.00  0.00     0.012 C 
HETATM   13  C21 UNL     1      -3.557   0.682   2.129  1.00  0.00     0.023 C 
HETATM   14  C22 UNL     1      -4.412   1.701  -0.026  1.00  0.00     0.162 C 
HETATM   15  C23 UNL     1      -5.886   1.684   0.404  1.00  0.00     0.177 C 
HETATM   16  C24 UNL     1      -6.571   0.362   0.040  1.00  0.00     0.153 C 
HETATM   17  C25 UNL     1      -5.822  -0.867   0.590  1.00  0.00     0.018 C 
HETATM   18  C26 UNL     1      -6.529  -2.148   0.117  1.00  0.00     0.013 C 
HETATM   19  C27 UNL     1      -4.325  -0.824   0.164  1.00  0.00     0.007 C 
HETATM   20  C28 UNL     1      -3.524  -2.037   0.652  1.00  0.00     0.010 C 
HETATM   21  C29 UNL     1      -2.119  -2.048   0.053  1.00  0.00     0.036 C 
ENDROOT
BRANCH   1  22
HETATM   22  C7  UNL     1       3.441   0.950   0.217  1.00  0.00    -0.014 C 
HETATM   23  C8  UNL     1       3.269   2.477   0.255  1.00  0.00     0.010 C 
BRANCH  22  24
HETATM   24  C6  UNL     1       4.793   0.665  -0.504  1.00  0.00     0.008 C 
BRANCH  24  25
HETATM   25  C5  UNL     1       5.443  -0.684  -0.176  1.00  0.00     0.028 C 
BRANCH  25  26
HETATM   26  C4  UNL     1       6.865  -0.731  -0.670  1.00  0.00    -0.025 C 
HETATM   27  C2  UNL     1       7.993  -0.895   0.049  1.00  0.00    -0.091 C 
HETATM   28  C1  UNL     1       8.061  -1.085   1.539  1.00  0.00     0.042 C 
HETATM   29  C3  UNL     1       9.338  -0.895  -0.632  1.00  0.00     0.042 C 
ENDBRANCH  25  26
ENDBRANCH  24  25
ENDBRANCH  22  24
ENDBRANCH   1  22
BRANCH  14  30
HETATM   30  O1  UNL     1      -4.365   1.669  -1.463  1.00  0.00    -0.392 OA
HETATM   31  H35 UNL     1      -5.104   2.225  -1.777  1.00  0.00     0.210 HD
ENDBRANCH  14  30
BRANCH  15  32
HETATM   32  O2  UNL     1      -6.588   2.749  -0.273  1.00  0.00    -0.390 OA
HETATM   33  H37 UNL     1      -6.275   3.586   0.118  1.00  0.00     0.210 HD
ENDBRANCH  15  32
BRANCH  16  34
HETATM   34  O3  UNL     1      -7.903   0.397   0.572  1.00  0.00    -0.393 OA
HETATM   35  H39 UNL     1      -8.298   1.213   0.211  1.00  0.00     0.210 HD
ENDBRANCH  16  34
TORSDOF 7
