REMARK  13 active torsions:
REMARK  status: ('A' for Active; 'I' for Inactive)
REMARK    1  A    between atoms: C19_21  and  O3_22 
REMARK    2  A    between atoms: C19_21  and  C20_23 
REMARK    3  A    between atoms: C20_23  and  C21_25 
REMARK    4  A    between atoms: C21_25  and  O5_26 
REMARK    5  A    between atoms: O5_26  and  C22_27 
REMARK    6  A    between atoms: C22_27  and  C23_29 
REMARK    7  A    between atoms: C23_29  and  C24_30 
REMARK    8  A    between atoms: C24_30  and  C25_31 
REMARK       I    between atoms: C25_31  and  N1_33 
REMARK    9  A    between atoms: N1_33  and  C26_34 
REMARK   10  A    between atoms: C26_34  and  C27_35 
REMARK   11  A    between atoms: C27_35  and  C28_36 
REMARK   12  A    between atoms: C27_35  and  C29_39 
REMARK   13  A    between atoms: C28_36  and  O9_38 
ROOT
HETATM    1  C20 UNL     1      -0.126   0.864   1.684  1.00  0.00     0.185 C 
HETATM    2  O4  UNL     1      -0.472   1.423   2.727  1.00  0.00    -0.292 OA
ENDROOT
BRANCH   1   3
HETATM    3  C19 UNL     1      -1.152   0.286   0.678  1.00  0.00     0.128 C 
HETATM    4  C14 UNL     1      -2.674   0.462   1.007  1.00  0.00     0.005 C 
HETATM    5  C13 UNL     1      -3.284   1.843   0.713  1.00  0.00     0.091 C 
HETATM    6  C15 UNL     1      -2.998   0.093   2.486  1.00  0.00     0.019 C 
HETATM    7  C16 UNL     1      -3.269  -0.572  -0.006  1.00  0.00     0.002 C 
HETATM    8  C12 UNL     1      -4.806   1.736   0.724  1.00  0.00     0.133 C 
HETATM    9  C11 UNL     1      -5.396   0.720  -0.265  1.00  0.00     0.072 C 
HETATM   10  O2  UNL     1      -5.486   2.455   1.450  1.00  0.00    -0.297 OA
HETATM   11  C2  UNL     1      -6.946   0.681  -0.425  1.00  0.00    -0.009 C 
HETATM   12  C10 UNL     1      -4.802  -0.683   0.070  1.00  0.00     0.003 C 
HETATM   13  C1  UNL     1      -7.640   0.103   0.831  1.00  0.00     0.021 C 
HETATM   14  C3  UNL     1      -7.523   2.089  -0.734  1.00  0.00     0.022 C 
HETATM   15  C7  UNL     1      -7.237  -0.223  -1.635  1.00  0.00    -0.067 C 
HETATM   16  C4  UNL     1      -8.997   2.061  -1.137  1.00  0.00     0.084 C 
HETATM   17  C5  UNL     1      -9.265   1.062  -2.234  1.00  0.00     0.149 C 
HETATM   18  O1  UNL     1     -10.273   1.113  -2.938  1.00  0.00    -0.293 OA
HETATM   19  C6  UNL     1      -8.298  -0.041  -2.442  1.00  0.00     0.053 C 
HETATM   20  C8  UNL     1      -6.212  -1.284  -1.997  1.00  0.00     0.035 C 
HETATM   21  C9  UNL     1      -5.401  -1.799  -0.812  1.00  0.00     0.010 C 
HETATM   22  C17 UNL     1      -2.425  -1.815   0.253  1.00  0.00     0.009 C 
HETATM   23  C18 UNL     1      -1.015  -1.258   0.542  1.00  0.00     0.047 C 
BRANCH   3  24
HETATM   24  O3  UNL     1      -0.871   0.850  -0.616  1.00  0.00    -0.381 OA
HETATM   25  H25 UNL     1      -0.902   1.822  -0.546  1.00  0.00     0.211 HD
ENDBRANCH   3  24
ENDBRANCH   1   3
BRANCH   1  26
HETATM   26  C21 UNL     1       1.352   0.854   1.284  1.00  0.00     0.260 C 
BRANCH  26  27
HETATM   27  O5  UNL     1       1.743  -0.327   0.598  1.00  0.00    -0.314 OA
BRANCH  27  28
HETATM   28  C22 UNL     1       2.702  -0.151  -0.352  1.00  0.00     0.259 C 
HETATM   29  O6  UNL     1       3.254   0.910  -0.607  1.00  0.00    -0.265 OA
BRANCH  28  30
HETATM   30  C23 UNL     1       2.925  -1.442  -1.103  1.00  0.00     0.120 C 
BRANCH  30  31
HETATM   31  C24 UNL     1       4.225  -1.392  -1.898  1.00  0.00     0.112 C 
BRANCH  31  32
HETATM   32  C25 UNL     1       5.435  -1.449  -0.987  1.00  0.00     0.218 C 
HETATM   33  O7  UNL     1       5.381  -1.822   0.181  1.00  0.00    -0.274 OA
HETATM   34  N1  UNL     1       6.603  -1.085  -1.616  1.00  0.00    -0.360 N 
HETATM   35  H32 UNL     1       6.524  -0.475  -2.424  1.00  0.00     0.162 HD
BRANCH  34  36
HETATM   36  C26 UNL     1       7.860  -1.004  -0.880  1.00  0.00     0.142 C 
BRANCH  36  37
HETATM   37  C27 UNL     1       7.962   0.228   0.043  1.00  0.00     0.134 C 
BRANCH  37  38
HETATM   38  C28 UNL     1       8.212   1.508  -0.752  1.00  0.00     0.150 C 
HETATM   39  O8  UNL     1       8.945   2.441  -0.462  1.00  0.00    -0.649 OA
BRANCH  38  40
HETATM   40  O9  UNL     1       7.465   1.605  -1.876  1.00  0.00    -0.776 OA
HETATM   41  H36 UNL     1       7.682   2.507  -2.199  1.00  0.00     0.167 HD
ENDBRANCH  38  40
ENDBRANCH  37  38
BRANCH  37  42
HETATM   42  C29 UNL     1       9.012  -0.046   1.118  1.00  0.00    -0.042 A 
HETATM   43  C30 UNL     1       8.599  -0.554   2.361  1.00  0.00     0.008 A 
HETATM   44  C31 UNL     1       9.532  -0.850   3.356  1.00  0.00     0.001 A 
HETATM   45  C32 UNL     1      10.890  -0.644   3.125  1.00  0.00     0.000 A 
HETATM   46  C33 UNL     1      11.318  -0.158   1.891  1.00  0.00     0.001 A 
HETATM   47  C34 UNL     1      10.387   0.130   0.890  1.00  0.00     0.008 A 
ENDBRANCH  37  42
ENDBRANCH  36  37
ENDBRANCH  34  36
ENDBRANCH  31  32
ENDBRANCH  30  31
ENDBRANCH  28  30
ENDBRANCH  27  28
ENDBRANCH  26  27
ENDBRANCH   1  26
TORSDOF 13
