REMARK  18 active torsions:
REMARK  status: ('A' for Active; 'I' for Inactive)
REMARK    1  A    between atoms: C2_2  and  C14_18 
REMARK    2  A    between atoms: C3_3  and  C4_4 
REMARK    3  A    between atoms: C4_4  and  O2_6 
REMARK    4  A    between atoms: O2_6  and  C5_7 
REMARK    5  A    between atoms: C5_7  and  C6_8 
REMARK    6  A    between atoms: C6_8  and  C7_9 
REMARK    7  A    between atoms: C7_9  and  C8_10 
REMARK    8  A    between atoms: C8_10  and  C9_11 
REMARK    9  A    between atoms: C9_11  and  C10_12 
REMARK   10  A    between atoms: C10_12  and  C11_13 
REMARK   11  A    between atoms: C11_13  and  C12_14 
REMARK   12  A    between atoms: C12_14  and  C13_15 
REMARK   13  A    between atoms: C13_15  and  O4_17 
REMARK   14  A    between atoms: C14_18  and  C15_19 
REMARK   15  A    between atoms: C21_27  and  O7_28 
REMARK   16  A    between atoms: C22_30  and  C23_31 
REMARK   17  A    between atoms: C23_31  and  C25_33 
REMARK   18  A    between atoms: C25_33  and  O9_35 
ROOT
HETATM    1  C15 UNL     1      -2.814  -1.096  -0.438  1.00  0.00     0.190 C 
HETATM    2  O5  UNL     1      -2.757  -0.614  -1.802  1.00  0.00    -0.380 OA
HETATM    3  C16 UNL     1      -3.898   0.150  -2.186  1.00  0.00     0.175 C 
HETATM    4  C17 UNL     1      -5.134  -0.743  -2.219  1.00  0.00     0.046 C 
HETATM    5  C18 UNL     1      -6.433  -0.015  -1.872  1.00  0.00     0.044 C 
HETATM    6  C19 UNL     1      -6.941  -0.727  -0.617  1.00  0.00     0.152 C 
HETATM    7  O6  UNL     1      -6.464  -2.078  -0.851  1.00  0.00    -0.372 OA
HETATM    8  C20 UNL     1      -5.073  -1.870  -1.191  1.00  0.00     0.193 C 
HETATM    9  C21 UNL     1      -4.270  -1.396   0.049  1.00  0.00     0.216 C 
HETATM   10  O8  UNL     1      -4.860  -0.204   0.605  1.00  0.00    -0.342 OA
HETATM   11  C22 UNL     1      -6.302  -0.297   0.730  1.00  0.00     0.160 C 
ENDROOT
BRANCH   1  12
HETATM   12  C14 UNL     1      -2.070  -0.105   0.483  1.00  0.00     0.071 C 
BRANCH  12  13
HETATM   13  C2  UNL     1      -0.570  -0.056   0.226  1.00  0.00    -0.075 C 
HETATM   14  C1  UNL     1       0.203  -1.251   0.717  1.00  0.00     0.043 C 
HETATM   15  C3  UNL     1      -0.024   1.027  -0.366  1.00  0.00     0.084 C 
BRANCH  15  16
HETATM   16  C4  UNL     1       1.390   1.268  -0.729  1.00  0.00     0.283 C 
HETATM   17  O1  UNL     1       1.864   2.394  -0.768  1.00  0.00    -0.260 OA
BRANCH  16  18
HETATM   18  O2  UNL     1       2.023   0.119  -1.058  1.00  0.00    -0.318 OA
BRANCH  18  19
HETATM   19  C5  UNL     1       3.398   0.251  -1.447  1.00  0.00     0.179 C 
BRANCH  19  20
HETATM   20  C6  UNL     1       4.291   0.227  -0.210  1.00  0.00     0.027 C 
BRANCH  20  21
HETATM   21  C7  UNL     1       5.773   0.270  -0.582  1.00  0.00     0.002 C 
BRANCH  21  22
HETATM   22  C8  UNL     1       6.654   0.236   0.669  1.00  0.00     0.000 C 
BRANCH  22  23
HETATM   23  C9  UNL     1       8.152   0.363   0.367  1.00  0.00     0.000 C 
BRANCH  23  24
HETATM   24  C10 UNL     1       8.733  -0.864  -0.338  1.00  0.00     0.001 C 
BRANCH  24  25
HETATM   25  C11 UNL     1      10.215  -0.727  -0.710  1.00  0.00     0.010 C 
BRANCH  25  26
HETATM   26  C12 UNL     1      11.173  -0.704   0.480  1.00  0.00     0.110 C 
BRANCH  26  27
HETATM   27  C13 UNL     1      11.330   0.646   1.124  1.00  0.00     0.139 C 
HETATM   28  O3  UNL     1      11.233   0.885   2.317  1.00  0.00    -0.650 OA
BRANCH  27  29
HETATM   29  O4  UNL     1      11.659   1.620   0.257  1.00  0.00    -0.776 OA
HETATM   30  H21 UNL     1      11.749   2.418   0.819  1.00  0.00     0.167 HD
ENDBRANCH  27  29
ENDBRANCH  26  27
ENDBRANCH  25  26
ENDBRANCH  24  25
ENDBRANCH  23  24
ENDBRANCH  22  23
ENDBRANCH  21  22
ENDBRANCH  20  21
ENDBRANCH  19  20
ENDBRANCH  18  19
ENDBRANCH  16  18
ENDBRANCH  15  16
ENDBRANCH  12  13
ENDBRANCH   1  12
BRANCH   9  31
HETATM   31  O7  UNL     1      -4.258  -2.396   1.061  1.00  0.00    -0.361 OA
HETATM   32  H32 UNL     1      -3.724  -2.038   1.788  1.00  0.00     0.213 HD
ENDBRANCH   9  31
BRANCH  11  33
HETATM   33  C23 UNL     1      -6.807   1.009   1.396  1.00  0.00     0.041 C 
HETATM   34  C24 UNL     1      -6.390   2.285   0.653  1.00  0.00     0.015 C 
BRANCH  33  35
HETATM   35  C25 UNL     1      -8.319   1.043   1.704  1.00  0.00     0.120 C 
HETATM   36  C26 UNL     1      -8.812  -0.153   2.509  1.00  0.00     0.040 C 
BRANCH  35  37
HETATM   37  O9  UNL     1      -9.067   1.133   0.495  1.00  0.00    -0.396 OA
HETATM   38  H42 UNL     1     -10.007   1.218   0.736  1.00  0.00     0.210 HD
ENDBRANCH  35  37
ENDBRANCH  33  35
ENDBRANCH  11  33
TORSDOF 18
