REMARK  2 active torsions:
REMARK  status: ('A' for Active; 'I' for Inactive)
REMARK    1  A    between atoms: C3_4  and  C4_5 
REMARK       I    between atoms: N2_13  and  C11_14 
REMARK    2  A    between atoms: C11_14  and  C12_16 
ROOT
HETATM    1  C4  UNL     1       4.760   0.743  -0.462  1.00  0.00    -0.021 A 
HETATM    2  C5  UNL     1       4.038   1.914  -0.215  1.00  0.00     0.015 A 
HETATM    3  C6  UNL     1       2.674   1.850   0.065  1.00  0.00     0.040 A 
HETATM    4  C7  UNL     1       2.021   0.613   0.120  1.00  0.00     0.095 A 
HETATM    5  O1  UNL     1       0.720   0.615   0.542  1.00  0.00    -0.347 OA
HETATM    6  C8  UNL     1      -0.160   1.064  -0.500  1.00  0.00     0.213 C 
HETATM    7  C9  UNL     1      -1.455   0.234  -0.445  1.00  0.00     0.265 C 
HETATM    8  C10 UNL     1      -2.417   0.852   0.599  1.00  0.00     0.164 C 
HETATM    9  N2  UNL     1      -3.698   0.136   0.630  1.00  0.00    -0.344 N 
HETATM   10  C11 UNL     1      -4.859   0.878   0.823  1.00  0.00     0.254 C 
HETATM   11  O2  UNL     1      -4.890   2.101   0.924  1.00  0.00    -0.267 OA
HETATM   12  C18 UNL     1      -3.593  -1.321   0.766  1.00  0.00     0.156 C 
HETATM   13  C19 UNL     1      -2.517  -1.937  -0.152  1.00  0.00     0.293 C 
HETATM   14  N3  UNL     1      -1.255  -1.192  -0.110  1.00  0.00     0.107 N 
HETATM   15  C20 UNL     1      -0.142  -1.850  -0.797  1.00  0.00     0.375 C 
HETATM   16  C21 UNL     1       0.912  -2.297   0.232  1.00  0.00     0.250 C 
HETATM   17  O3  UNL     1       0.668  -3.121   1.125  1.00  0.00    -0.271 OA
HETATM   18  N4  UNL     1       2.210  -1.890   0.068  1.00  0.00    -0.323 N 
HETATM   19  C22 UNL     1       2.727  -0.578  -0.092  1.00  0.00     0.069 A 
HETATM   20  C23 UNL     1       4.099  -0.494  -0.390  1.00  0.00     0.044 A 
HETATM   21  H22 UNL     1       2.849  -2.505   0.562  1.00  0.00     0.169 HD
ENDROOT
BRANCH  10  22
HETATM   22  C12 UNL     1      -6.147   0.171   0.838  1.00  0.00     0.033 A 
HETATM   23  C13 UNL     1      -6.629  -0.400   2.015  1.00  0.00     0.017 A 
HETATM   24  C14 UNL     1      -7.867  -1.042   2.010  1.00  0.00     0.003 A 
HETATM   25  C15 UNL     1      -8.611  -1.100   0.833  1.00  0.00     0.024 A 
HETATM   26  C16 UNL     1      -8.120  -0.518  -0.336  1.00  0.00     0.035 A 
HETATM   27 CL1  UNL     1      -9.042  -0.607  -1.783  1.00  0.00    -0.084 Cl
HETATM   28  C17 UNL     1      -6.888   0.126  -0.342  1.00  0.00     0.041 A 
ENDBRANCH  10  22
BRANCH   1  29
HETATM   29  C3  UNL     1       6.176   0.802  -0.763  1.00  0.00     0.008 A 
HETATM   30  C2  UNL     1       7.082   1.633  -0.137  1.00  0.00     0.123 A 
HETATM   31  N1  UNL     1       8.300   1.361  -0.692  1.00  0.00    -0.307 N 
HETATM   32  C1  UNL     1       9.558   1.975  -0.356  1.00  0.00     0.177 C 
HETATM   33  N5  UNL     1       8.258   0.401  -1.635  1.00  0.00    -0.310 N 
HETATM   34  C24 UNL     1       6.964   0.066  -1.682  1.00  0.00     0.120 A 
ATOM     35  H5  UNL     1       9.029   0.020  -2.183  1.00  0.00     0.186 HD
ENDBRANCH   1  29
TORSDOF 2
