REMARK  6 active torsions:
REMARK  status: ('A' for Active; 'I' for Inactive)
REMARK    1  A    between atoms: C3_3  and  C4_4 
REMARK    2  A    between atoms: C4_4  and  O1_5 
REMARK    3  A    between atoms: C6_9  and  C7_10 
REMARK    4  A    between atoms: C7_10  and  C9_12 
REMARK    5  A    between atoms: C21_26  and  C22_27 
REMARK    6  A    between atoms: C22_27  and  O6_28 
ROOT
HETATM    1  C9  UNL     1      -1.502  -1.009  -0.456  1.00  0.00     0.000 C 
HETATM    2  C10 UNL     1      -1.652  -0.436  -1.897  1.00  0.00     0.006 C 
HETATM    3  C11 UNL     1      -0.292   0.140  -2.309  1.00  0.00     0.006 C 
HETATM    4  C12 UNL     1       0.645  -0.299  -1.196  1.00  0.00    -0.001 C 
HETATM    5  C13 UNL     1       1.992   0.433  -1.065  1.00  0.00    -0.002 C 
HETATM    6  C14 UNL     1       2.762   0.341  -2.386  1.00  0.00     0.040 C 
HETATM    7  C15 UNL     1       4.181   0.761  -2.296  1.00  0.00     0.159 A 
HETATM    8  O4  UNL     1       4.445   2.001  -1.644  1.00  0.00    -0.368 OA
HETATM    9  C16 UNL     1       4.920   0.812  -0.978  1.00  0.00     0.104 A 
HETATM   10  C17 UNL     1       6.414   0.612  -1.069  1.00  0.00     0.042 C 
HETATM   11  C18 UNL     1       7.111   0.877   0.253  1.00  0.00     0.010 C 
HETATM   12  C19 UNL     1       6.583  -0.032   1.352  1.00  0.00     0.079 C 
HETATM   13  C20 UNL     1       5.133  -0.444   1.153  1.00  0.00     0.141 C 
HETATM   14  O5  UNL     1       4.745  -1.498   1.660  1.00  0.00    -0.297 OA
HETATM   15  C21 UNL     1       4.205   0.515   0.357  1.00  0.00     0.079 C 
HETATM   16  C23 UNL     1       2.811  -0.196   0.105  1.00  0.00     0.011 C 
HETATM   17  C24 UNL     1       1.947  -0.327   1.394  1.00  0.00     0.007 C 
HETATM   18  C25 UNL     1       0.572  -0.976   1.168  1.00  0.00     0.010 C 
HETATM   19  C26 UNL     1      -0.239  -0.253   0.076  1.00  0.00    -0.036 C 
HETATM   20  C27 UNL     1      -0.604   1.183   0.522  1.00  0.00     0.016 C 
ENDROOT
BRANCH   1  21
HETATM   21  C7  UNL     1      -2.846  -0.970   0.353  1.00  0.00     0.016 C 
HETATM   22  C8  UNL     1      -2.641  -1.386   1.814  1.00  0.00     0.013 C 
BRANCH  21  23
HETATM   23  C6  UNL     1      -3.936  -1.872  -0.331  1.00  0.00     0.140 C 
HETATM   24  O3  UNL     1      -4.346  -1.304  -1.594  1.00  0.00    -0.311 OA
HETATM   25  C5  UNL     1      -5.260  -0.298  -1.641  1.00  0.00     0.292 C 
HETATM   26  C3  UNL     1      -6.002   0.005  -0.381  1.00  0.00     0.042 C 
HETATM   27  O2  UNL     1      -5.483   0.302  -2.685  1.00  0.00    -0.260 OA
HETATM   28  C2  UNL     1      -6.032  -0.918   0.607  1.00  0.00    -0.067 C 
HETATM   29  C1  UNL     1      -6.823  -0.812   1.878  1.00  0.00     0.044 C 
HETATM   30  C28 UNL     1      -5.213  -2.172   0.461  1.00  0.00     0.067 C 
BRANCH  26  31
HETATM   31  C4  UNL     1      -6.757   1.302  -0.382  1.00  0.00     0.209 C 
BRANCH  31  32
HETATM   32  O1  UNL     1      -6.071   2.261   0.419  1.00  0.00    -0.396 OA
HETATM   33  H6  UNL     1      -5.889   1.853   1.281  1.00  0.00     0.209 HD
ENDBRANCH  31  32
ENDBRANCH  26  31
ENDBRANCH  21  23
ENDBRANCH   1  21
BRANCH  15  34
HETATM   34  C22 UNL     1       4.093   1.801   1.231  1.00  0.00     0.185 C 
BRANCH  34  35
HETATM   35  O6  UNL     1       2.984   2.625   0.896  1.00  0.00    -0.400 OA
HETATM   36  H30 UNL     1       3.089   3.468   1.367  1.00  0.00     0.209 HD
ENDBRANCH  34  35
ENDBRANCH  15  34
TORSDOF 6
