REMARK  6 active torsions:
REMARK  status: ('A' for Active; 'I' for Inactive)
REMARK    1  A    between atoms: C12_13  and  C13_14 
REMARK    2  A    between atoms: C13_14  and  C15_16 
REMARK    3  A    between atoms: C15_16  and  C16_17 
REMARK    4  A    between atoms: C16_17  and  C17_18 
REMARK    5  A    between atoms: C18_19  and  C20_21 
REMARK    6  A    between atoms: C20_21  and  O3_23 
ROOT
HETATM    1  C1  UNL     1      -7.052  -1.816  -0.815  1.00  0.00     0.052 C 
HETATM    2  C2  UNL     1      -6.200  -0.873  -0.009  1.00  0.00    -0.013 C 
HETATM    3  C3  UNL     1      -4.852  -0.900   0.131  1.00  0.00    -0.066 C 
HETATM    4  C4  UNL     1      -3.995  -1.970  -0.516  1.00  0.00     0.036 C 
HETATM    5  C5  UNL     1      -2.803  -1.379  -1.260  1.00  0.00     0.010 C 
HETATM    6  C6  UNL     1      -1.923  -0.589  -0.288  1.00  0.00     0.007 C 
HETATM    7  C7  UNL     1      -2.734   0.586   0.326  1.00  0.00     0.068 C 
HETATM    8  C8  UNL     1      -1.820   1.357   1.299  1.00  0.00     0.133 C 
HETATM    9  O1  UNL     1      -2.158   1.636   2.450  1.00  0.00    -0.298 OA
HETATM   10  C9  UNL     1      -0.451   1.798   0.780  1.00  0.00     0.089 C 
HETATM   11  C10 UNL     1       0.300   0.573   0.242  1.00  0.00    -0.026 C 
HETATM   12  C11 UNL     1       0.581  -0.378   1.451  1.00  0.00     0.016 C 
HETATM   13  C12 UNL     1       1.640   0.813  -0.523  1.00  0.00    -0.002 C 
HETATM   14  C21 UNL     1       1.755  -0.479  -1.396  1.00  0.00     0.006 C 
HETATM   15  C22 UNL     1       0.366  -1.147  -1.440  1.00  0.00     0.011 C 
HETATM   16  C23 UNL     1      -0.588  -0.074  -0.900  1.00  0.00    -0.032 C 
HETATM   17  C24 UNL     1      -0.889   0.883  -2.102  1.00  0.00     0.016 C 
HETATM   18  C25 UNL     1      -4.067   0.113   0.988  1.00  0.00     0.027 C 
HETATM   19  C26 UNL     1      -4.938   1.347   1.311  1.00  0.00     0.018 C 
HETATM   20  C27 UNL     1      -6.311   0.950   1.808  1.00  0.00     0.084 C 
HETATM   21  C28 UNL     1      -7.008   0.142   0.751  1.00  0.00     0.155 C 
HETATM   22  O4  UNL     1      -8.216   0.261   0.552  1.00  0.00    -0.293 OA
ENDROOT
BRANCH  13  23
HETATM   23  C13 UNL     1       2.959   1.098   0.261  1.00  0.00    -0.014 C 
HETATM   24  C14 UNL     1       2.839   2.327   1.168  1.00  0.00     0.010 C 
BRANCH  23  25
HETATM   25  C15 UNL     1       4.139   1.295  -0.734  1.00  0.00     0.008 C 
BRANCH  25  26
HETATM   26  C16 UNL     1       5.542   1.359  -0.113  1.00  0.00     0.028 C 
BRANCH  26  27
HETATM   27  C17 UNL     1       5.912   0.110   0.637  1.00  0.00    -0.013 C 
HETATM   28  C18 UNL     1       6.616  -0.940   0.169  1.00  0.00     0.008 C 
HETATM   29  C19 UNL     1       7.141  -1.089  -1.227  1.00  0.00     0.055 C 
BRANCH  28  30
HETATM   30  C20 UNL     1       6.864  -2.052   1.123  1.00  0.00     0.171 C 
HETATM   31  O2  UNL     1       6.419  -2.157   2.252  1.00  0.00    -0.646 OA
BRANCH  30  32
HETATM   32  O3  UNL     1       7.673  -2.994   0.611  1.00  0.00    -0.773 OA
HETATM   33  H28 UNL     1       7.751  -3.646   1.338  1.00  0.00     0.167 HD
ENDBRANCH  30  32
ENDBRANCH  28  30
ENDBRANCH  26  27
ENDBRANCH  25  26
ENDBRANCH  23  25
ENDBRANCH  13  23
TORSDOF 6
