REMARK  8 active torsions:
REMARK  status: ('A' for Active; 'I' for Inactive)
REMARK    1  A    between atoms: C2_2  and  C30_33 
REMARK    2  A    between atoms: C3_3  and  C4_4 
REMARK    3  A    between atoms: C4_4  and  C5_5 
REMARK    4  A    between atoms: C5_5  and  C6_6 
REMARK    5  A    between atoms: C6_6  and  C8_8 
REMARK    6  A    between atoms: C15_15  and  O1_16 
REMARK    7  A    between atoms: C23_24  and  O2_25 
REMARK    8  A    between atoms: C30_33  and  O4_34 
ROOT
HETATM    1  C8  UNL     1       2.281   0.259   0.001  1.00  0.00    -0.002 C 
HETATM    2  C9  UNL     1       2.375  -0.823   1.110  1.00  0.00     0.007 C 
HETATM    3  C10 UNL     1       0.946  -1.310   1.405  1.00  0.00     0.015 C 
HETATM    4  C11 UNL     1       0.094  -0.789   0.232  1.00  0.00    -0.005 C 
HETATM    5  C12 UNL     1       0.268  -1.802  -0.942  1.00  0.00     0.021 C 
HETATM    6  C13 UNL     1      -1.414  -0.630   0.381  1.00  0.00     0.002 C 
HETATM    7  C14 UNL     1      -2.107   0.304  -0.329  1.00  0.00    -0.032 C 
HETATM    8  C15 UNL     1      -1.357   1.291  -1.244  1.00  0.00     0.149 C 
HETATM    9  C16 UNL     1       0.189   1.200  -1.286  1.00  0.00     0.047 C 
HETATM   10  C17 UNL     1       0.763   0.623   0.016  1.00  0.00    -0.026 C 
HETATM   11  C18 UNL     1       0.485   1.622   1.185  1.00  0.00     0.016 C 
HETATM   12  C19 UNL     1      -3.670   0.432  -0.248  1.00  0.00    -0.013 C 
HETATM   13  C20 UNL     1      -3.953   1.605   0.725  1.00  0.00     0.021 C 
HETATM   14  C21 UNL     1      -4.282   0.717  -1.656  1.00  0.00     0.017 C 
HETATM   15  C22 UNL     1      -5.648   0.086  -1.957  1.00  0.00     0.033 C 
HETATM   16  C23 UNL     1      -6.534  -0.087  -0.732  1.00  0.00     0.126 C 
HETATM   17  C24 UNL     1      -5.863  -0.998   0.339  1.00  0.00    -0.017 C 
HETATM   18  C25 UNL     1      -6.257  -2.468   0.007  1.00  0.00     0.018 C 
HETATM   19  C26 UNL     1      -6.449  -0.715   1.741  1.00  0.00     0.018 C 
HETATM   20  C27 UNL     1      -4.284  -0.913   0.270  1.00  0.00     0.015 C 
HETATM   21  C28 UNL     1      -3.595  -1.352   1.561  1.00  0.00     0.090 C 
HETATM   22  C29 UNL     1      -2.130  -1.575   1.300  1.00  0.00     0.157 C 
HETATM   23  O3  UNL     1      -1.542  -2.508   1.844  1.00  0.00    -0.293 OA
ENDROOT
BRANCH   1  24
HETATM   24  C6  UNL     1       3.347   1.377   0.193  1.00  0.00    -0.014 C 
HETATM   25  C7  UNL     1       3.274   2.461  -0.888  1.00  0.00     0.010 C 
BRANCH  24  26
HETATM   26  C5  UNL     1       4.797   0.820   0.284  1.00  0.00     0.008 C 
BRANCH  26  27
HETATM   27  C4  UNL     1       5.374   0.278  -1.032  1.00  0.00     0.028 C 
BRANCH  27  28
HETATM   28  C3  UNL     1       6.595  -0.604  -0.928  1.00  0.00    -0.022 C 
HETATM   29  C2  UNL     1       7.681  -0.510  -0.133  1.00  0.00    -0.064 C 
HETATM   30  C1  UNL     1       7.950   0.627   0.814  1.00  0.00     0.045 C 
BRANCH  29  31
HETATM   31  C30 UNL     1       8.762  -1.565  -0.197  1.00  0.00     0.197 C 
BRANCH  31  32
HETATM   32  O4  UNL     1       8.751  -2.359   0.980  1.00  0.00    -0.397 OA
HETATM   33  H48 UNL     1       8.310  -1.858   1.686  1.00  0.00     0.209 HD
ENDBRANCH  31  32
ENDBRANCH  29  31
ENDBRANCH  27  28
ENDBRANCH  26  27
ENDBRANCH  24  26
ENDBRANCH   1  24
BRANCH   8  34
HETATM   34  O1  UNL     1      -1.693   2.616  -0.843  1.00  0.00    -0.391 OA
HETATM   35  H22 UNL     1      -1.347   3.225  -1.517  1.00  0.00     0.210 HD
ENDBRANCH   8  34
BRANCH  16  36
HETATM   36  O2  UNL     1      -6.856   1.199  -0.213  1.00  0.00    -0.395 OA
HETATM   37  H36 UNL     1      -7.320   1.694  -0.909  1.00  0.00     0.210 HD
ENDBRANCH  16  36
TORSDOF 8
