REMARK  9 active torsions:
REMARK  status: ('A' for Active; 'I' for Inactive)
REMARK    1  A    between atoms: C2_2  and  C32_37 
REMARK    2  A    between atoms: C3_3  and  C4_4 
REMARK    3  A    between atoms: C4_4  and  O1_5 
REMARK    4  A    between atoms: C4_4  and  C5_6 
REMARK    5  A    between atoms: C5_6  and  C6_7 
REMARK    6  A    between atoms: C6_7  and  C8_9 
REMARK    7  A    between atoms: C29_32  and  O4_33 
REMARK    8  A    between atoms: C30_34  and  O5_35 
REMARK    9  A    between atoms: C32_37  and  O7_39 
ROOT
HETATM    1  C8  UNL     1       1.901  -0.607   1.793  1.00  0.00    -0.026 C 
HETATM    2  C9  UNL     1       1.440  -1.551   2.970  1.00  0.00     0.011 C 
HETATM    3  C10 UNL     1       0.173  -1.124   3.688  1.00  0.00     0.002 C 
HETATM    4  C11 UNL     1      -0.898  -0.653   2.725  1.00  0.00     0.017 C 
HETATM    5  C12 UNL     1      -0.360   0.216   1.545  1.00  0.00     0.021 C 
HETATM    6  C13 UNL     1      -1.578   0.498   0.665  1.00  0.00    -0.029 C 
HETATM    7  C14 UNL     1      -1.962  -0.343  -0.331  1.00  0.00     0.002 C 
HETATM    8  C15 UNL     1      -1.165  -1.623  -0.535  1.00  0.00     0.157 C 
HETATM    9  O2  UNL     1      -1.609  -2.548  -1.215  1.00  0.00    -0.293 OA
HETATM   10  C16 UNL     1       0.183  -1.815   0.154  1.00  0.00     0.094 C 
HETATM   11  C17 UNL     1       0.752  -0.506   0.700  1.00  0.00    -0.015 C 
HETATM   12  C18 UNL     1       1.162   0.380  -0.536  1.00  0.00     0.018 C 
HETATM   13  C19 UNL     1      -3.276  -0.122  -1.135  1.00  0.00    -0.008 C 
HETATM   14  C20 UNL     1      -3.113  -0.587  -2.610  1.00  0.00     0.021 C 
HETATM   15  C21 UNL     1      -4.316  -1.020  -0.419  1.00  0.00     0.022 C 
HETATM   16  C22 UNL     1      -5.736  -0.813  -0.876  1.00  0.00     0.080 C 
HETATM   17  C23 UNL     1      -6.135   0.598  -0.557  1.00  0.00     0.135 C 
HETATM   18  O3  UNL     1      -7.175   0.813   0.064  1.00  0.00    -0.297 OA
HETATM   19  C24 UNL     1      -5.298   1.721  -1.179  1.00  0.00     0.018 C 
HETATM   20  C25 UNL     1      -5.672   3.037  -0.460  1.00  0.00     0.023 C 
HETATM   21  C26 UNL     1      -5.833   1.870  -2.627  1.00  0.00     0.023 C 
HETATM   22  C27 UNL     1      -3.733   1.417  -1.209  1.00  0.00     0.016 C 
HETATM   23  C28 UNL     1      -2.839   2.344  -0.348  1.00  0.00     0.043 C 
HETATM   24  C29 UNL     1      -2.386   1.730   0.962  1.00  0.00     0.149 C 
HETATM   25  C30 UNL     1       0.472   1.423   2.082  1.00  0.00     0.132 C 
HETATM   26  C31 UNL     1       1.898   0.864   2.334  1.00  0.00     0.043 C 
ENDROOT
BRANCH   1  27
HETATM   27  C6  UNL     1       3.349  -1.142   1.403  1.00  0.00    -0.006 C 
HETATM   28  C7  UNL     1       4.416  -0.663   2.412  1.00  0.00     0.011 C 
BRANCH  27  29
HETATM   29  C5  UNL     1       3.834  -0.927  -0.049  1.00  0.00     0.040 C 
BRANCH  29  30
HETATM   30  C4  UNL     1       5.221  -1.521  -0.374  1.00  0.00     0.142 C 
BRANCH  30  31
HETATM   31  C3  UNL     1       5.398  -1.710  -1.859  1.00  0.00     0.018 C 
HETATM   32  C2  UNL     1       5.970  -0.888  -2.767  1.00  0.00     0.010 C 
HETATM   33  C1  UNL     1       6.512   0.484  -2.485  1.00  0.00     0.055 C 
BRANCH  32  34
HETATM   34  C32 UNL     1       6.080  -1.299  -4.193  1.00  0.00     0.171 C 
HETATM   35  O6  UNL     1       6.719  -0.714  -5.049  1.00  0.00    -0.646 OA
BRANCH  34  36
HETATM   36  O7  UNL     1       5.368  -2.398  -4.503  1.00  0.00    -0.773 OA
HETATM   37  H46 UNL     1       5.531  -2.512  -5.463  1.00  0.00     0.167 HD
ENDBRANCH  34  36
ENDBRANCH  32  34
ENDBRANCH  30  31
BRANCH  30  38
HETATM   38  O1  UNL     1       6.252  -0.691   0.135  1.00  0.00    -0.392 OA
HETATM   39  H6  UNL     1       7.072  -1.218   0.089  1.00  0.00     0.210 HD
ENDBRANCH  30  38
ENDBRANCH  29  30
ENDBRANCH  27  29
ENDBRANCH   1  27
BRANCH  25  40
HETATM   40  O5  UNL     1      -0.076   1.990   3.262  1.00  0.00    -0.394 OA
HETATM   41  H43 UNL     1       0.506   2.727   3.526  1.00  0.00     0.210 HD
ENDBRANCH  25  40
BRANCH  24  42
HETATM   42  O4  UNL     1      -3.513   1.379   1.742  1.00  0.00    -0.391 OA
HETATM   43  H41 UNL     1      -3.200   1.268   2.658  1.00  0.00     0.210 HD
ENDBRANCH  24  42
TORSDOF 9
