REMARK  19 active torsions:
REMARK  status: ('A' for Active; 'I' for Inactive)
REMARK    1  A    between atoms: C3_3  and  C4_4 
REMARK    2  A    between atoms: C5_5  and  C6_6 
REMARK    3  A    between atoms: C7_8  and  O2_9 
REMARK    4  A    between atoms: C7_8  and  C8_10 
REMARK    5  A    between atoms: C8_10  and  C10_12 
REMARK       I    between atoms: C10_12  and  N1_14 
REMARK    6  A    between atoms: N1_14  and  C11_15 
REMARK    7  A    between atoms: C11_15  and  C12_16 
REMARK    8  A    between atoms: C13_17  and  C14_18 
REMARK    9  A    between atoms: C15_19  and  C17_21 
REMARK   10  A    between atoms: C17_21  and  O4_22 
REMARK   11  A    between atoms: C17_21  and  C19_24 
REMARK   12  A    between atoms: C19_24  and  C21_26 
REMARK   13  A    between atoms: C23_28  and  O5_29 
REMARK   14  A    between atoms: C24_30  and  C25_31 
REMARK   15  A    between atoms: C26_32  and  C27_33 
REMARK   16  A    between atoms: C28_34  and  C29_35 
REMARK   17  A    between atoms: C30_36  and  C31_37 
REMARK   18  A    between atoms: C31_37  and  O7_39 
REMARK   19  A    between atoms: C33_42  and  O9_43 
ROOT
HETATM    1  C12 UNL     1       0.324  -0.383   1.019  1.00  0.00    -0.007 C 
HETATM    2  C13 UNL     1       1.220  -1.143   0.369  1.00  0.00    -0.002 C 
ENDROOT
BRANCH   2   3
HETATM    3  C14 UNL     1       1.865  -0.692  -0.845  1.00  0.00     0.005 C 
HETATM    4  C15 UNL     1       2.786  -1.348  -1.583  1.00  0.00    -0.055 C 
HETATM    5  C16 UNL     1       3.342  -0.653  -2.804  1.00  0.00     0.046 C 
BRANCH   4   6
HETATM    6  C17 UNL     1       3.285  -2.762  -1.291  1.00  0.00     0.155 C 
BRANCH   6   7
HETATM    7  O4  UNL     1       3.481  -3.480  -2.516  1.00  0.00    -0.386 OA
HETATM    8  C18 UNL     1       2.286  -4.073  -3.014  1.00  0.00     0.202 C 
ENDBRANCH   6   7
BRANCH   6   9
HETATM    9  C19 UNL     1       4.588  -2.787  -0.431  1.00  0.00     0.044 C 
HETATM   10  C20 UNL     1       4.343  -3.671   0.810  1.00  0.00     0.015 C 
BRANCH   9  11
HETATM   11  C21 UNL     1       5.851  -3.280  -1.169  1.00  0.00     0.131 C 
HETATM   12  C22 UNL     1       6.348  -2.359  -2.274  1.00  0.00     0.067 C 
HETATM   13  C23 UNL     1       7.808  -2.730  -2.334  1.00  0.00     0.153 C 
HETATM   14  C24 UNL     1       8.156  -2.885  -0.846  1.00  0.00     0.173 C 
HETATM   15  O8  UNL     1       6.957  -3.422  -0.241  1.00  0.00    -0.374 OA
BRANCH  13  16
HETATM   16  O5  UNL     1       8.593  -1.811  -3.066  1.00  0.00    -0.393 OA
HETATM   17  H35 UNL     1       8.262  -1.808  -3.979  1.00  0.00     0.210 HD
ENDBRANCH  13  16
BRANCH  14  18
HETATM   18  C25 UNL     1       8.539  -1.703   0.010  1.00  0.00     0.007 C 
HETATM   19  C26 UNL     1       8.577  -0.404  -0.324  1.00  0.00    -0.001 C 
BRANCH  19  20
HETATM   20  C27 UNL     1       9.004   0.624   0.601  1.00  0.00    -0.000 C 
HETATM   21  C28 UNL     1       8.959   1.933   0.311  1.00  0.00     0.000 C 
BRANCH  21  22
HETATM   22  C29 UNL     1       9.427   2.945   1.233  1.00  0.00     0.007 C 
HETATM   23  C30 UNL     1       9.320   4.257   0.985  1.00  0.00     0.081 C 
BRANCH  23  24
HETATM   24  C31 UNL     1       9.849   5.223   1.957  1.00  0.00     0.165 C 
HETATM   25  O6  UNL     1      10.489   4.990   2.966  1.00  0.00    -0.647 OA
BRANCH  24  26
HETATM   26  O7  UNL     1       9.538   6.472   1.579  1.00  0.00    -0.773 OA
HETATM   27  H43 UNL     1       9.952   7.033   2.269  1.00  0.00     0.167 HD
ENDBRANCH  24  26
ENDBRANCH  23  24
ENDBRANCH  21  22
ENDBRANCH  19  20
ENDBRANCH  14  18
ENDBRANCH   9  11
ENDBRANCH   6   9
ENDBRANCH   4   6
ENDBRANCH   2   3
BRANCH   1  28
HETATM   28  C11 UNL     1      -0.342  -0.748   2.307  1.00  0.00     0.149 C 
BRANCH  28  29
HETATM   29  N1  UNL     1      -1.748  -0.940   2.050  1.00  0.00    -0.357 N 
HETATM   30  C10 UNL     1      -2.628   0.119   1.976  1.00  0.00     0.227 C 
HETATM   31  O3  UNL     1      -2.284   1.283   2.168  1.00  0.00    -0.273 OA
HETATM   32  H14 UNL     1      -2.033  -1.834   1.668  1.00  0.00     0.162 HD
BRANCH  30  33
HETATM   33  C8  UNL     1      -4.052  -0.268   1.588  1.00  0.00     0.136 C 
HETATM   34  C9  UNL     1      -4.658  -1.210   2.630  1.00  0.00     0.026 C 
BRANCH  33  35
HETATM   35  C7  UNL     1      -4.922   0.985   1.292  1.00  0.00     0.176 C 
HETATM   36  O1  UNL     1      -6.144   0.498   0.723  1.00  0.00    -0.344 OA
HETATM   37  C6  UNL     1      -7.088   1.540   0.489  1.00  0.00     0.158 C 
HETATM   38  C34 UNL     1      -7.693   2.032   1.840  1.00  0.00     0.008 C 
HETATM   39  C33 UNL     1      -6.643   1.882   2.982  1.00  0.00     0.134 C 
HETATM   40  C35 UNL     1      -8.047   3.532   1.675  1.00  0.00     0.020 C 
HETATM   41  C36 UNL     1      -8.998   1.298   2.228  1.00  0.00     0.020 C 
HETATM   42  C32 UNL     1      -5.199   1.922   2.489  1.00  0.00     0.101 C 
BRANCH  37  43
HETATM   43  C5  UNL     1      -8.074   0.997  -0.513  1.00  0.00     0.006 C 
HETATM   44  C4  UNL     1      -8.390   1.598  -1.671  1.00  0.00    -0.002 C 
BRANCH  44  45
HETATM   45  C3  UNL     1      -9.326   1.036  -2.615  1.00  0.00    -0.005 C 
HETATM   46  C2  UNL     1      -9.655   1.642  -3.765  1.00  0.00    -0.031 C 
HETATM   47  C1  UNL     1     -10.621   1.072  -4.752  1.00  0.00     0.036 C 
ENDBRANCH  44  45
ENDBRANCH  37  43
BRANCH  39  48
HETATM   48  O9  UNL     1      -6.839   0.672   3.720  1.00  0.00    -0.395 OA
HETATM   49  H47 UNL     1      -6.366   0.760   4.566  1.00  0.00     0.210 HD
ENDBRANCH  39  48
BRANCH  35  50
HETATM   50  O2  UNL     1      -4.244   1.748   0.281  1.00  0.00    -0.364 OA
HETATM   51  H9  UNL     1      -3.406   2.055   0.683  1.00  0.00     0.213 HD
ENDBRANCH  35  50
ENDBRANCH  33  35
ENDBRANCH  30  33
ENDBRANCH  28  29
ENDBRANCH   1  28
TORSDOF 19
