REMARK  11 active torsions:
REMARK  status: ('A' for Active; 'I' for Inactive)
REMARK    1  A    between atoms: C2_2  and  C3_3 
REMARK    2  A    between atoms: C3_3  and  C4_4 
REMARK    3  A    between atoms: C4_4  and  C6_6 
REMARK    4  A    between atoms: C9_9  and  O1_10 
REMARK    5  A    between atoms: C15_16  and  O2_17 
REMARK    6  A    between atoms: O2_17  and  C16_18 
REMARK    7  A    between atoms: C17_20  and  C18_21 
REMARK    8  A    between atoms: C18_21  and  O4_22 
REMARK    9  A    between atoms: C19_23  and  O5_24 
REMARK   10  A    between atoms: C20_25  and  O6_26 
REMARK   11  A    between atoms: C21_27  and  O7_28 
ROOT
HETATM    1  C6  UNL     1       5.036  -0.309   0.060  1.00  0.00     0.000 C 
HETATM    2  C7  UNL     1       5.234  -0.522  -1.469  1.00  0.00     0.009 C 
HETATM    3  C8  UNL     1       3.882  -0.948  -2.069  1.00  0.00     0.039 C 
HETATM    4  C9  UNL     1       3.014  -1.222  -0.849  1.00  0.00     0.070 C 
HETATM    5  C10 UNL     1       1.494  -1.369  -1.050  1.00  0.00     0.030 C 
HETATM    6  C11 UNL     1       0.796  -0.369  -1.977  1.00  0.00     0.009 C 
HETATM    7  C12 UNL     1      -0.717  -0.611  -2.120  1.00  0.00     0.006 C 
HETATM    8  C13 UNL     1      -1.298  -1.739  -1.241  1.00  0.00    -0.003 C 
HETATM    9  C14 UNL     1      -2.831  -1.725  -1.244  1.00  0.00     0.037 C 
HETATM   10  C15 UNL     1      -3.422  -0.475  -0.574  1.00  0.00     0.125 C 
HETATM   11  C22 UNL     1      -2.626  -0.039   0.666  1.00  0.00     0.033 C 
HETATM   12  C23 UNL     1      -1.751  -1.158   1.224  1.00  0.00     0.013 C 
HETATM   13  C24 UNL     1      -0.759  -1.669   0.190  1.00  0.00    -0.028 A 
HETATM   14  C25 UNL     1       0.151  -2.781   0.671  1.00  0.00     0.021 A 
HETATM   15  C26 UNL     1       0.761  -1.448   0.304  1.00  0.00    -0.025 A 
HETATM   16  C27 UNL     1       1.300  -0.576   1.431  1.00  0.00     0.012 C 
HETATM   17  C28 UNL     1       2.835  -0.503   1.521  1.00  0.00     0.013 C 
HETATM   18  C29 UNL     1       3.476  -0.133   0.169  1.00  0.00    -0.009 C 
HETATM   19  C30 UNL     1       3.094   1.320  -0.202  1.00  0.00     0.019 C 
ENDROOT
BRANCH  10  20
HETATM   20  O2  UNL     1      -4.772  -0.803  -0.218  1.00  0.00    -0.353 OA
BRANCH  20  21
HETATM   21  C16 UNL     1      -5.701   0.277  -0.438  1.00  0.00     0.292 C 
HETATM   22  O3  UNL     1      -5.408   1.348   0.455  1.00  0.00    -0.348 OA
HETATM   23  C17 UNL     1      -6.515   2.173   0.845  1.00  0.00     0.179 C 
HETATM   24  C19 UNL     1      -7.636   1.355   1.530  1.00  0.00     0.180 C 
HETATM   25  C20 UNL     1      -7.555  -0.137   1.186  1.00  0.00     0.183 C 
HETATM   26  C21 UNL     1      -7.114  -0.324  -0.256  1.00  0.00     0.204 C 
BRANCH  23  27
HETATM   27  C18 UNL     1      -7.003   3.016  -0.349  1.00  0.00     0.198 C 
BRANCH  27  28
HETATM   28  O4  UNL     1      -8.031   3.917   0.032  1.00  0.00    -0.398 OA
HETATM   29  H31 UNL     1      -8.217   4.492  -0.730  1.00  0.00     0.209 HD
ENDBRANCH  27  28
ENDBRANCH  23  27
BRANCH  24  30
HETATM   30  O5  UNL     1      -7.524   1.465   2.963  1.00  0.00    -0.390 OA
HETATM   31  H33 UNL     1      -8.239   0.909   3.326  1.00  0.00     0.210 HD
ENDBRANCH  24  30
BRANCH  25  32
HETATM   32  O6  UNL     1      -8.846  -0.737   1.392  1.00  0.00    -0.390 OA
HETATM   33  H35 UNL     1      -8.817  -1.580   0.896  1.00  0.00     0.210 HD
ENDBRANCH  25  32
BRANCH  26  34
HETATM   34  O7  UNL     1      -7.154  -1.722  -0.592  1.00  0.00    -0.388 OA
HETATM   35  H37 UNL     1      -6.254  -2.054  -0.381  1.00  0.00     0.210 HD
ENDBRANCH  26  34
ENDBRANCH  20  21
ENDBRANCH  10  20
BRANCH   4  36
HETATM   36  O1  UNL     1       3.460  -2.516  -0.351  1.00  0.00    -0.389 OA
HETATM   37  H17 UNL     1       3.201  -3.197  -0.996  1.00  0.00     0.210 HD
ENDBRANCH   4  36
BRANCH   1  38
HETATM   38  C4  UNL     1       5.993   0.774   0.647  1.00  0.00    -0.014 C 
HETATM   39  C5  UNL     1       5.726   1.010   2.142  1.00  0.00     0.010 C 
BRANCH  38  40
HETATM   40  C3  UNL     1       7.496   0.389   0.508  1.00  0.00     0.004 C 
BRANCH  40  41
HETATM   41  C2  UNL     1       8.188   0.668  -0.831  1.00  0.00    -0.004 C 
HETATM   42  C1  UNL     1       8.140   2.127  -1.261  1.00  0.00     0.005 C 
ENDBRANCH  40  41
ENDBRANCH  38  40
ENDBRANCH   1  38
TORSDOF 11
