REMARK  16 active torsions:
REMARK  status: ('A' for Active; 'I' for Inactive)
REMARK    1  A    between atoms: C2_2  and  C4_4 
REMARK    2  A    between atoms: C4_4  and  C6_6 
REMARK    3  A    between atoms: C7_7  and  C8_8 
REMARK    4  A    between atoms: C8_8  and  C10_10 
REMARK    5  A    between atoms: C15_15  and  O1_16 
REMARK    6  A    between atoms: C19_21  and  O3_22 
REMARK    7  A    between atoms: O3_22  and  C20_23 
REMARK    8  A    between atoms: C20_23  and  C21_24 
REMARK    9  A    between atoms: C21_24  and  N1_25 
REMARK   10  A    between atoms: C21_24  and  C22_26 
REMARK   11  A    between atoms: C22_26  and  O4_27 
REMARK   12  A    between atoms: C22_26  and  C23_32 
REMARK   13  A    between atoms: O4_27  and  S1_28 
REMARK   14  A    between atoms: S1_28  and  O7_31 
REMARK   15  A    between atoms: C33_42  and  C34_43 
REMARK   16  A    between atoms: C34_43  and  O9_45 
ROOT
HETATM    1  C10 UNL     1       4.543   0.151   0.871  1.00  0.00     0.016 C 
HETATM    2  C11 UNL     1       4.677  -1.284   1.416  1.00  0.00     0.011 C 
HETATM    3  C12 UNL     1       3.244  -1.780   1.540  1.00  0.00     0.036 C 
HETATM    4  C13 UNL     1       2.427  -0.535   1.758  1.00  0.00    -0.055 C 
HETATM    5  C14 UNL     1       1.090  -0.487   1.946  1.00  0.00    -0.040 C 
HETATM    6  C15 UNL     1       0.228  -1.724   1.934  1.00  0.00     0.179 C 
HETATM    7  C16 UNL     1      -1.111  -1.569   1.288  1.00  0.00     0.191 A 
HETATM    8  O2  UNL     1      -1.168  -0.669   0.164  1.00  0.00    -0.365 OA
HETATM    9  C17 UNL     1      -1.836  -0.253   1.366  1.00  0.00     0.100 A 
HETATM   10  C18 UNL     1      -3.334  -0.256   1.240  1.00  0.00     0.073 C 
HETATM   11  C19 UNL     1      -3.857   1.080   0.704  1.00  0.00     0.124 C 
HETATM   12  C26 UNL     1      -3.324   2.240   1.554  1.00  0.00     0.033 C 
HETATM   13  C27 UNL     1      -1.793   2.234   1.591  1.00  0.00     0.015 C 
HETATM   14  C28 UNL     1      -1.178   0.902   2.123  1.00  0.00    -0.002 C 
HETATM   15  C29 UNL     1      -1.535   0.776   3.633  1.00  0.00     0.019 C 
HETATM   16  C30 UNL     1       0.415   0.889   2.018  1.00  0.00     0.029 C 
HETATM   17  C31 UNL     1       0.993   1.755   0.871  1.00  0.00     0.011 C 
HETATM   18  C32 UNL     1       2.534   1.759   0.741  1.00  0.00     0.026 C 
HETATM   19  C33 UNL     1       3.287   0.714   1.604  1.00  0.00     0.073 C 
ENDROOT
BRANCH  11  20
HETATM   20  O3  UNL     1      -5.288   1.102   0.785  1.00  0.00    -0.384 OA
BRANCH  20  21
HETATM   21  C20 UNL     1      -5.923   0.709  -0.449  1.00  0.00     0.206 C 
BRANCH  21  22
HETATM   22  C21 UNL     1      -7.438   0.555  -0.184  1.00  0.00     0.272 C 
BRANCH  22  23
HETATM   23  N1  UNL     1      -7.956   1.829   0.378  1.00  0.00     0.087 N 
HETATM   24  H32 UNL     1      -7.348   2.059   1.169  1.00  0.00     0.313 HD
HETATM   25  H33 UNL     1      -7.771   2.589  -0.289  1.00  0.00     0.313 HD
ENDBRANCH  22  23
BRANCH  22  26
HETATM   26  C22 UNL     1      -8.287   0.142  -1.422  1.00  0.00     0.182 C 
BRANCH  26  27
HETATM   27  O4  UNL     1      -7.772   0.709  -2.631  1.00  0.00    -0.256 OA
BRANCH  27  28
HETATM   28  S1  UNL     1      -8.323   2.170  -3.083  1.00  0.00     0.240 S 
HETATM   29  O5  UNL     1      -9.751   2.075  -3.300  1.00  0.00    -0.579 OA
HETATM   30  O6  UNL     1      -7.732   3.170  -2.223  1.00  0.00    -0.579 OA
BRANCH  28  31
HETATM   31  O7  UNL     1      -7.683   2.335  -4.551  1.00  0.00    -0.274 OA
HETATM   32  H35 UNL     1      -8.320   1.966  -5.193  1.00  0.00     0.234 HD
ENDBRANCH  28  31
ENDBRANCH  27  28
ENDBRANCH  26  27
BRANCH  26  33
HETATM   33  C23 UNL     1      -8.431  -1.395  -1.606  1.00  0.00     0.010 C 
HETATM   34  C24 UNL     1      -9.442  -1.704  -2.719  1.00  0.00     0.012 C 
HETATM   35  C25 UNL     1      -7.125  -2.130  -1.911  1.00  0.00     0.012 C 
ENDBRANCH  26  33
ENDBRANCH  22  26
ENDBRANCH  21  22
ENDBRANCH  20  21
ENDBRANCH  11  20
BRANCH   6  36
HETATM   36  O1  UNL     1       0.044  -2.128   3.289  1.00  0.00    -0.388 OA
HETATM   37  H24 UNL     1      -0.233  -3.058   3.267  1.00  0.00     0.210 HD
ENDBRANCH   6  36
BRANCH  19  38
HETATM   38  C34 UNL     1       3.591   1.305   2.997  1.00  0.00     0.153 C 
HETATM   39  O8  UNL     1       3.205   2.380   3.428  1.00  0.00    -0.649 OA
BRANCH  38  40
HETATM   40  O9  UNL     1       4.321   0.507   3.807  1.00  0.00    -0.776 OA
HETATM   41  H55 UNL     1       4.342   1.007   4.649  1.00  0.00     0.167 HD
ENDBRANCH  38  40
ENDBRANCH  19  38
BRANCH   1  42
HETATM   42  C8  UNL     1       5.884   0.934   0.965  1.00  0.00     0.009 C 
HETATM   43  C9  UNL     1       5.771   2.399   0.533  1.00  0.00     0.014 C 
BRANCH  42  44
HETATM   44  C7  UNL     1       7.012   0.278   0.178  1.00  0.00    -0.026 C 
HETATM   45  C6  UNL     1       6.898  -0.248  -1.054  1.00  0.00    -0.026 C 
BRANCH  45  46
HETATM   46  C4  UNL     1       8.021  -0.931  -1.806  1.00  0.00     0.007 C 
HETATM   47  C5  UNL     1       8.210  -0.237  -3.161  1.00  0.00     0.014 C 
BRANCH  46  48
HETATM   48  C2  UNL     1       7.774  -2.463  -1.906  1.00  0.00    -0.015 C 
HETATM   49  C1  UNL     1       6.489  -2.852  -2.647  1.00  0.00     0.010 C 
HETATM   50  C3  UNL     1       8.964  -3.192  -2.539  1.00  0.00     0.010 C 
ENDBRANCH  46  48
ENDBRANCH  45  46
ENDBRANCH  42  44
ENDBRANCH   1  42
TORSDOF 16
