REMARK  7 active torsions:
REMARK  status: ('A' for Active; 'I' for Inactive)
REMARK    1  A    between atoms: C2_2  and  C30_32 
REMARK    2  A    between atoms: C3_3  and  C4_4 
REMARK    3  A    between atoms: C4_4  and  O1_5 
REMARK    4  A    between atoms: C4_4  and  C5_6 
REMARK    5  A    between atoms: C5_6  and  C6_7 
REMARK    6  A    between atoms: C6_7  and  C8_9 
REMARK    7  A    between atoms: C30_32  and  O3_33 
ROOT
HETATM    1  C8  UNL     1       1.983   0.143  -0.514  1.00  0.00    -0.002 C 
HETATM    2  C9  UNL     1       2.035   1.117   0.706  1.00  0.00     0.007 C 
HETATM    3  C10 UNL     1       0.583   1.368   1.163  1.00  0.00     0.015 C 
HETATM    4  C11 UNL     1      -0.281   0.823   0.012  1.00  0.00    -0.013 C 
HETATM    5  C12 UNL     1      -0.313   1.952  -1.078  1.00  0.00     0.021 C 
HETATM    6  C13 UNL     1      -1.750   0.490   0.293  1.00  0.00    -0.070 C 
HETATM    7  C14 UNL     1      -2.496   1.301   1.054  1.00  0.00    -0.022 C 
HETATM    8  C15 UNL     1      -3.976   1.221   1.143  1.00  0.00     0.034 C 
HETATM    9  C16 UNL     1      -4.647   0.578  -0.104  1.00  0.00     0.013 C 
HETATM   10  C17 UNL     1      -6.218   0.538   0.103  1.00  0.00     0.018 C 
HETATM   11  C18 UNL     1      -6.745   1.872   0.693  1.00  0.00     0.023 C 
HETATM   12  C19 UNL     1      -7.005   0.324  -1.209  1.00  0.00     0.023 C 
HETATM   13  C20 UNL     1      -6.565  -0.600   1.075  1.00  0.00     0.135 C 
HETATM   14  O2  UNL     1      -7.428  -0.475   1.946  1.00  0.00    -0.297 OA
HETATM   15  C21 UNL     1      -5.893  -1.940   0.867  1.00  0.00     0.080 C 
HETATM   16  C22 UNL     1      -4.388  -1.815   0.672  1.00  0.00     0.017 C 
HETATM   17  C23 UNL     1      -3.962  -0.806  -0.442  1.00  0.00    -0.031 C 
HETATM   18  C24 UNL     1      -4.432  -1.376  -1.800  1.00  0.00     0.016 C 
HETATM   19  C25 UNL     1      -2.353  -0.716  -0.432  1.00  0.00     0.024 C 
HETATM   20  C26 UNL     1      -1.624  -0.927  -1.786  1.00  0.00     0.010 C 
HETATM   21  C27 UNL     1      -0.075  -1.015  -1.699  1.00  0.00     0.011 C 
HETATM   22  C28 UNL     1       0.537  -0.449  -0.400  1.00  0.00    -0.029 C 
HETATM   23  C29 UNL     1       0.573  -1.562   0.698  1.00  0.00     0.016 C 
ENDROOT
BRANCH   1  24
HETATM   24  C6  UNL     1       3.219  -0.808  -0.566  1.00  0.00    -0.011 C 
HETATM   25  C7  UNL     1       3.139  -1.783  -1.746  1.00  0.00     0.010 C 
BRANCH  24  26
HETATM   26  C5  UNL     1       4.530   0.027  -0.645  1.00  0.00     0.040 C 
BRANCH  26  27
HETATM   27  C4  UNL     1       5.833  -0.786  -0.597  1.00  0.00     0.141 C 
BRANCH  27  28
HETATM   28  C3  UNL     1       7.048   0.107  -0.564  1.00  0.00     0.009 C 
HETATM   29  C2  UNL     1       7.652   0.709   0.486  1.00  0.00    -0.062 C 
HETATM   30  C1  UNL     1       7.149   0.641   1.906  1.00  0.00     0.045 C 
BRANCH  29  31
HETATM   31  C30 UNL     1       8.911   1.539   0.350  1.00  0.00     0.198 C 
BRANCH  31  32
HETATM   32  O3  UNL     1       9.233   1.806  -1.007  1.00  0.00    -0.397 OA
HETATM   33  H48 UNL     1       8.519   2.371  -1.349  1.00  0.00     0.209 HD
ENDBRANCH  31  32
ENDBRANCH  29  31
ENDBRANCH  27  28
BRANCH  27  34
HETATM   34  O1  UNL     1       5.830  -1.669   0.517  1.00  0.00    -0.392 OA
HETATM   35  H6  UNL     1       6.741  -1.995   0.616  1.00  0.00     0.210 HD
ENDBRANCH  27  34
ENDBRANCH  26  27
ENDBRANCH  24  26
ENDBRANCH   1  24
TORSDOF 7
