REMARK  0 active torsions:
REMARK  status: ('A' for Active; 'I' for Inactive)
ROOT
HETATM    1  C1  UNL     1      -5.767   0.408  -1.772  1.00  0.00     0.023 C 
HETATM    2  C2  UNL     1      -5.079   0.455  -0.390  1.00  0.00     0.017 C 
HETATM    3  C3  UNL     1      -5.793  -0.566   0.515  1.00  0.00     0.023 C 
HETATM    4  C4  UNL     1      -5.310   1.866   0.162  1.00  0.00     0.135 C 
HETATM    5  O1  UNL     1      -6.335   2.182   0.767  1.00  0.00    -0.297 OA
HETATM    6  C5  UNL     1      -4.254   2.896  -0.147  1.00  0.00     0.080 C 
HETATM    7  C6  UNL     1      -2.874   2.483   0.354  1.00  0.00     0.017 C 
HETATM    8  C7  UNL     1      -2.630   0.937   0.494  1.00  0.00    -0.035 C 
HETATM    9  C8  UNL     1      -2.997   0.569   1.951  1.00  0.00     0.016 C 
HETATM   10  C9  UNL     1      -1.103   0.647   0.151  1.00  0.00     0.003 C 
HETATM   11  C10 UNL     1      -0.101   1.337   1.101  1.00  0.00     0.006 C 
HETATM   12  C11 UNL     1       1.341   1.277   0.590  1.00  0.00     0.006 C 
HETATM   13  C12 UNL     1       1.801  -0.152   0.283  1.00  0.00    -0.000 C 
HETATM   14  C13 UNL     1       3.274  -0.263  -0.177  1.00  0.00     0.009 C 
HETATM   15  C14 UNL     1       4.409   0.378   0.648  1.00  0.00     0.067 A 
HETATM   16  C15 UNL     1       5.653  -0.492   0.289  1.00  0.00     0.140 A 
HETATM   17  C16 UNL     1       5.165  -1.612  -0.638  1.00  0.00     0.042 C 
HETATM   18  C17 UNL     1       3.687  -1.757  -0.270  1.00  0.00    -0.037 C 
HETATM   19  C18 UNL     1       3.590  -2.547   1.062  1.00  0.00     0.015 C 
HETATM   20  C19 UNL     1       2.835  -2.447  -1.342  1.00  0.00     0.010 C 
HETATM   21  C20 UNL     1       1.329  -2.330  -1.032  1.00  0.00     0.011 C 
HETATM   22  C21 UNL     1       0.824  -0.870  -0.743  1.00  0.00    -0.032 C 
HETATM   23  C22 UNL     1       0.873  -0.141  -2.130  1.00  0.00     0.016 C 
HETATM   24  C23 UNL     1      -0.688  -0.851  -0.128  1.00  0.00    -0.032 C 
HETATM   25  C24 UNL     1      -0.738  -1.708   1.172  1.00  0.00     0.016 C 
HETATM   26  C25 UNL     1      -1.712  -1.471  -1.118  1.00  0.00     0.011 C 
HETATM   27  C26 UNL     1      -3.174  -1.283  -0.707  1.00  0.00     0.007 C 
HETATM   28  C27 UNL     1      -3.536   0.205  -0.560  1.00  0.00     0.009 C 
HETATM   29  O2  UNL     1       6.625   0.308  -0.401  1.00  0.00    -0.313 OA
HETATM   30  C28 UNL     1       6.205   1.601  -0.468  1.00  0.00     0.297 A 
HETATM   31  O3  UNL     1       6.825   2.523  -0.970  1.00  0.00    -0.262 OA
HETATM   32  C29 UNL     1       4.905   1.714   0.210  1.00  0.00     0.175 A 
HETATM   33  C30 UNL     1       4.511   2.993   0.909  1.00  0.00     0.218 A 
HETATM   34  O4  UNL     1       3.943   2.612  -0.352  1.00  0.00    -0.364 OA
ENDROOT
TORSDOF 0
