REMARK  8 active torsions:
REMARK  status: ('A' for Active; 'I' for Inactive)
REMARK    1  A    between atoms: C4_4  and  C5_5 
REMARK    2  A    between atoms: C5_5  and  C6_6 
REMARK    3  A    between atoms: C6_6  and  C7_7 
REMARK    4  A    between atoms: C7_7  and  C9_9 
REMARK    5  A    between atoms: C15_15  and  O1_16 
REMARK    6  A    between atoms: C18_19  and  C20_21 
REMARK    7  A    between atoms: C20_21  and  O3_23 
REMARK    8  A    between atoms: C21_24  and  O4_25 
ROOT
HETATM    1  C9  UNL     1       2.417   0.428  -0.102  1.00  0.00    -0.002 C 
HETATM    2  C10 UNL     1       2.466  -0.472   1.159  1.00  0.00     0.006 C 
HETATM    3  C11 UNL     1       1.041  -0.985   1.430  1.00  0.00     0.011 C 
HETATM    4  C12 UNL     1       0.225  -0.606   0.180  1.00  0.00    -0.030 C 
HETATM    5  C13 UNL     1       0.448  -1.753  -0.853  1.00  0.00     0.016 C 
HETATM    6  C14 UNL     1      -1.301  -0.394   0.428  1.00  0.00     0.032 C 
HETATM    7  C15 UNL     1      -2.113  -1.677   0.702  1.00  0.00     0.124 C 
HETATM    8  C16 UNL     1      -3.571  -1.323   1.008  1.00  0.00     0.039 C 
HETATM    9  C17 UNL     1      -4.275  -0.784  -0.244  1.00  0.00     0.018 C 
HETATM   10  C18 UNL     1      -5.770  -0.353  -0.029  1.00  0.00     0.072 C 
HETATM   11  C19 UNL     1      -6.016   0.406   1.292  1.00  0.00     0.030 C 
HETATM   12  C21 UNL     1      -6.291   0.505  -1.236  1.00  0.00     0.137 C 
HETATM   13  C22 UNL     1      -5.503   0.226  -2.517  1.00  0.00     0.034 C 
HETATM   14  C23 UNL     1      -4.022   0.583  -2.368  1.00  0.00     0.013 C 
HETATM   15  C24 UNL     1      -3.481   0.304  -0.965  1.00  0.00    -0.026 A 
HETATM   16  C25 UNL     1      -2.958   1.496  -0.201  1.00  0.00     0.021 A 
HETATM   17  C26 UNL     1      -1.960   0.461  -0.689  1.00  0.00    -0.025 A 
HETATM   18  C27 UNL     1      -1.083   0.840  -1.881  1.00  0.00     0.011 C 
HETATM   19  C28 UNL     1       0.385   1.189  -1.591  1.00  0.00     0.011 C 
HETATM   20  C29 UNL     1       0.891   0.769  -0.204  1.00  0.00    -0.032 C 
HETATM   21  C30 UNL     1       0.563   1.922   0.794  1.00  0.00     0.016 C 
ENDROOT
BRANCH   1  22
HETATM   22  C7  UNL     1       3.481   1.570  -0.081  1.00  0.00    -0.014 C 
HETATM   23  C8  UNL     1       3.341   2.504  -1.294  1.00  0.00     0.010 C 
BRANCH  22  24
HETATM   24  C6  UNL     1       4.939   1.024  -0.093  1.00  0.00     0.008 C 
BRANCH  24  25
HETATM   25  C5  UNL     1       5.522   0.704   1.288  1.00  0.00     0.028 C 
BRANCH  25  26
HETATM   26  C4  UNL     1       6.999   0.421   1.196  1.00  0.00    -0.025 C 
HETATM   27  C2  UNL     1       7.600  -0.783   1.134  1.00  0.00    -0.091 C 
HETATM   28  C1  UNL     1       9.100  -0.893   1.067  1.00  0.00     0.042 C 
HETATM   29  C3  UNL     1       6.883  -2.105   1.109  1.00  0.00     0.042 C 
ENDBRANCH  25  26
ENDBRANCH  24  25
ENDBRANCH  22  24
ENDBRANCH   1  22
BRANCH   7  30
HETATM   30  O1  UNL     1      -1.581  -2.362   1.835  1.00  0.00    -0.395 OA
HETATM   31  H26 UNL     1      -2.090  -3.181   1.946  1.00  0.00     0.210 HD
ENDBRANCH   7  30
BRANCH  10  32
HETATM   32  C20 UNL     1      -6.602  -1.640  -0.034  1.00  0.00     0.151 C 
HETATM   33  O2  UNL     1      -7.088  -2.184  -1.015  1.00  0.00    -0.649 OA
BRANCH  32  34
HETATM   34  O3  UNL     1      -6.747  -2.218   1.173  1.00  0.00    -0.776 OA
HETATM   35  H33 UNL     1      -7.294  -3.012   0.996  1.00  0.00     0.167 HD
ENDBRANCH  32  34
ENDBRANCH  10  32
BRANCH  12  36
HETATM   36  O4  UNL     1      -6.214   1.915  -0.992  1.00  0.00    -0.394 OA
HETATM   37  H35 UNL     1      -6.958   2.165  -0.419  1.00  0.00     0.210 HD
ENDBRANCH  12  36
TORSDOF 8
