REMARK  10 active torsions:
REMARK  status: ('A' for Active; 'I' for Inactive)
REMARK    1  A    between atoms: C3_3  and  O1_4 
REMARK    2  A    between atoms: N1_14  and  O2_16 
REMARK    3  A    between atoms: O2_16  and  C13_17 
REMARK    4  A    between atoms: C13_17  and  C14_18 
REMARK       I    between atoms: C14_18  and  N2_20 
REMARK    5  A    between atoms: N2_20  and  C15_21 
REMARK    6  A    between atoms: C15_21  and  C16_22 
REMARK    7  A    between atoms: C15_21  and  C19_29 
REMARK       I    between atoms: C16_22  and  N3_24 
REMARK    8  A    between atoms: N3_24  and  C17_25 
REMARK    9  A    between atoms: C17_25  and  C18_26 
REMARK   10  A    between atoms: C18_26  and  O6_28 
ROOT
HETATM    1  C1  UNL     1      -8.782  -2.883  -0.313  1.00  0.00     0.015 C 
HETATM    2  C2  UNL     1      -7.696  -2.422  -0.547  1.00  0.00    -0.078 C 
HETATM    3  C3  UNL     1      -6.351  -1.872  -0.784  1.00  0.00     0.128 C 
HETATM    4  C4  UNL     1      -5.894  -2.056  -2.230  1.00  0.00     0.052 C 
HETATM    5  C5  UNL     1      -4.683  -1.136  -2.322  1.00  0.00     0.010 C 
HETATM    6  C6  UNL     1      -5.027   0.103  -1.465  1.00  0.00     0.002 C 
HETATM    7  C7  UNL     1      -3.793   0.661  -0.722  1.00  0.00    -0.004 C 
HETATM    8  C8  UNL     1      -3.934   2.172  -0.420  1.00  0.00     0.010 C 
HETATM    9  C9  UNL     1      -3.105   2.650   0.777  1.00  0.00     0.035 C 
HETATM   10  C10 UNL     1      -1.860   1.820   0.934  1.00  0.00    -0.069 C 
HETATM   11  C11 UNL     1      -0.645   2.374   0.787  1.00  0.00     0.030 C 
HETATM   12  C12 UNL     1       0.593   1.558   0.843  1.00  0.00     0.032 C 
HETATM   13  N1  UNL     1       1.730   2.190   0.910  1.00  0.00    -0.271 N 
ATOM     14  H1  UNL     1       1.822   3.206   0.896  1.00  0.00     0.194 HD
HETATM   15  C22 UNL     1       0.471   0.044   0.843  1.00  0.00     0.060 C 
HETATM   16  C23 UNL     1      -0.924  -0.431   0.443  1.00  0.00     0.020 C 
HETATM   17  C24 UNL     1      -2.075   0.325   1.169  1.00  0.00    -0.016 C 
HETATM   18  C25 UNL     1      -1.985   0.018   2.681  1.00  0.00     0.020 C 
HETATM   19  C26 UNL     1      -3.456  -0.145   0.551  1.00  0.00     0.002 C 
HETATM   20  C27 UNL     1      -4.649  -0.160   1.533  1.00  0.00     0.007 C 
HETATM   21  C28 UNL     1      -6.036   0.057   0.920  1.00  0.00     0.014 C 
HETATM   22  C29 UNL     1      -6.226  -0.329  -0.558  1.00  0.00     0.003 C 
HETATM   23  C30 UNL     1      -7.490   0.419  -1.072  1.00  0.00     0.020 C 
ENDROOT
BRANCH   3  24
HETATM   24  O1  UNL     1      -5.438  -2.587   0.048  1.00  0.00    -0.377 OA
HETATM   25  H2  UNL     1      -5.650  -3.531  -0.045  1.00  0.00     0.211 HD
ENDBRANCH   3  24
BRANCH  13  26
HETATM   26  O2  UNL     1       2.811   1.303   1.003  1.00  0.00    -0.271 OA
BRANCH  26  27
HETATM   27  C13 UNL     1       3.975   2.049   1.343  1.00  0.00     0.303 C 
BRANCH  27  28
HETATM   28  C14 UNL     1       5.165   1.107   1.446  1.00  0.00     0.244 C 
HETATM   29  O3  UNL     1       6.041   1.226   2.300  1.00  0.00    -0.271 OA
HETATM   30  N2  UNL     1       5.235   0.154   0.452  1.00  0.00    -0.346 N 
HETATM   31  H16 UNL     1       4.526   0.178  -0.273  1.00  0.00     0.163 HD
BRANCH  30  32
HETATM   32  C15 UNL     1       6.248  -0.913   0.428  1.00  0.00     0.180 C 
BRANCH  32  33
HETATM   33  C16 UNL     1       7.543  -0.502  -0.330  1.00  0.00     0.241 C 
HETATM   34  O4  UNL     1       8.353  -1.312  -0.778  1.00  0.00    -0.271 OA
HETATM   35  N3  UNL     1       7.797   0.851  -0.349  1.00  0.00    -0.349 N 
HETATM   36  H18 UNL     1       7.249   1.441   0.272  1.00  0.00     0.163 HD
BRANCH  35  37
HETATM   37  C17 UNL     1       9.053   1.386  -0.840  1.00  0.00     0.232 C 
BRANCH  37  38
HETATM   38  C18 UNL     1       8.936   2.885  -1.042  1.00  0.00     0.158 C 
HETATM   39  O5  UNL     1       7.969   3.584  -0.780  1.00  0.00    -0.649 OA
BRANCH  38  40
HETATM   40  O6  UNL     1      10.058   3.431  -1.552  1.00  0.00    -0.775 OA
HETATM   41  H21 UNL     1       9.853   4.386  -1.619  1.00  0.00     0.167 HD
ENDBRANCH  38  40
ENDBRANCH  37  38
ENDBRANCH  35  37
ENDBRANCH  32  33
BRANCH  32  42
HETATM   42  C19 UNL     1       5.606  -2.226  -0.082  1.00  0.00     0.009 C 
HETATM   43  C20 UNL     1       5.337  -2.223  -1.590  1.00  0.00     0.012 C 
HETATM   44  C21 UNL     1       6.412  -3.467   0.313  1.00  0.00     0.012 C 
ENDBRANCH  32  42
ENDBRANCH  30  32
ENDBRANCH  27  28
ENDBRANCH  26  27
ENDBRANCH  13  26
TORSDOF 10
