REMARK  12 active torsions:
REMARK  status: ('A' for Active; 'I' for Inactive)
REMARK    1  A    between atoms: C4_4  and  C5_5 
REMARK    2  A    between atoms: C5_5  and  C6_7 
REMARK    3  A    between atoms: C6_7  and  C7_8 
REMARK    4  A    between atoms: C7_8  and  C9_10 
REMARK    5  A    between atoms: C15_16  and  O2_17 
REMARK    6  A    between atoms: O2_17  and  C16_18 
REMARK    7  A    between atoms: C17_20  and  C18_21 
REMARK    8  A    between atoms: C18_21  and  O4_22 
REMARK    9  A    between atoms: C19_23  and  O5_24 
REMARK   10  A    between atoms: C20_25  and  O6_26 
REMARK   11  A    between atoms: C21_27  and  O7_28 
REMARK   12  A    between atoms: C24_31  and  O8_32 
ROOT
HETATM    1  C9  UNL     1       2.788   0.486   0.494  1.00  0.00    -0.002 C 
HETATM    2  C10 UNL     1       2.154   1.345   1.612  1.00  0.00     0.006 C 
HETATM    3  C11 UNL     1       0.713   0.824   1.777  1.00  0.00     0.006 C 
HETATM    4  C12 UNL     1       0.554  -0.235   0.684  1.00  0.00     0.002 C 
HETATM    5  C13 UNL     1      -0.535  -1.303   0.867  1.00  0.00     0.022 C 
HETATM    6  C14 UNL     1      -1.947  -0.684   0.856  1.00  0.00     0.042 C 
HETATM    7  C15 UNL     1      -2.723  -0.862  -0.451  1.00  0.00     0.130 C 
HETATM    8  C22 UNL     1      -2.651  -2.287  -1.078  1.00  0.00     0.029 C 
HETATM    9  C23 UNL     1      -4.009  -2.963  -1.351  1.00  0.00     0.039 C 
HETATM   10  C24 UNL     1      -3.854  -4.211  -2.230  1.00  0.00     0.118 C 
HETATM   11  C25 UNL     1      -2.773  -5.171  -1.733  1.00  0.00     0.033 C 
HETATM   12  C26 UNL     1      -1.453  -4.457  -1.402  1.00  0.00     0.016 C 
HETATM   13  C27 UNL     1      -1.633  -3.263  -0.413  1.00  0.00    -0.014 C 
HETATM   14  C28 UNL     1      -2.103  -3.873   0.934  1.00  0.00     0.020 C 
HETATM   15  C29 UNL     1      -0.367  -2.420  -0.175  1.00  0.00    -0.070 C 
HETATM   16  C30 UNL     1       0.782  -2.557  -0.876  1.00  0.00    -0.022 C 
HETATM   17  C31 UNL     1       2.007  -1.678  -0.735  1.00  0.00     0.037 C 
HETATM   18  C32 UNL     1       1.977  -0.839   0.553  1.00  0.00    -0.033 C 
HETATM   19  C33 UNL     1       2.367  -1.746   1.743  1.00  0.00     0.016 C 
ENDROOT
BRANCH   7  20
HETATM   20  O2  UNL     1      -4.094  -0.493  -0.235  1.00  0.00    -0.353 OA
BRANCH  20  21
HETATM   21  C16 UNL     1      -4.395   0.858  -0.611  1.00  0.00     0.292 C 
HETATM   22  O3  UNL     1      -3.741   1.806   0.235  1.00  0.00    -0.348 OA
HETATM   23  C17 UNL     1      -4.496   2.126   1.414  1.00  0.00     0.179 C 
HETATM   24  C19 UNL     1      -5.726   2.961   0.993  1.00  0.00     0.180 C 
HETATM   25  C20 UNL     1      -6.326   2.446  -0.339  1.00  0.00     0.183 C 
HETATM   26  C21 UNL     1      -5.940   0.995  -0.605  1.00  0.00     0.204 C 
BRANCH  23  27
HETATM   27  C18 UNL     1      -3.577   2.815   2.437  1.00  0.00     0.198 C 
BRANCH  27  28
HETATM   28  O4  UNL     1      -3.081   4.076   1.994  1.00  0.00    -0.398 OA
HETATM   29  H28 UNL     1      -3.868   4.649   1.893  1.00  0.00     0.209 HD
ENDBRANCH  27  28
ENDBRANCH  23  27
BRANCH  24  30
HETATM   30  O5  UNL     1      -5.374   4.350   0.828  1.00  0.00    -0.390 OA
HETATM   31  H30 UNL     1      -4.763   4.400   0.066  1.00  0.00     0.210 HD
ENDBRANCH  24  30
BRANCH  25  32
HETATM   32  O6  UNL     1      -7.756   2.560  -0.307  1.00  0.00    -0.390 OA
HETATM   33  H32 UNL     1      -8.069   1.822   0.253  1.00  0.00     0.210 HD
ENDBRANCH  25  32
BRANCH  26  34
HETATM   34  O7  UNL     1      -6.541   0.177   0.429  1.00  0.00    -0.388 OA
HETATM   35  H34 UNL     1      -5.942  -0.595   0.511  1.00  0.00     0.210 HD
ENDBRANCH  26  34
ENDBRANCH  20  21
ENDBRANCH   7  20
BRANCH  10  36
HETATM   36  O8  UNL     1      -3.510  -3.806  -3.556  1.00  0.00    -0.396 OA
HETATM   37  H39 UNL     1      -4.260  -3.294  -3.909  1.00  0.00     0.210 HD
ENDBRANCH  10  36
BRANCH   1  38
HETATM   38  C7  UNL     1       4.337   0.457   0.445  1.00  0.00    -0.007 C 
HETATM   39  C8  UNL     1       5.050   0.126   1.764  1.00  0.00     0.011 C 
BRANCH  38  40
HETATM   40  C6  UNL     1       4.846   1.835  -0.050  1.00  0.00     0.087 C 
BRANCH  40  41
HETATM   41  C5  UNL     1       6.293   1.811  -0.522  1.00  0.00     0.149 C 
HETATM   42  O1  UNL     1       6.764   0.847  -1.119  1.00  0.00    -0.293 OA
BRANCH  41  43
HETATM   43  C4  UNL     1       7.092   3.051  -0.252  1.00  0.00     0.052 C 
HETATM   44  C2  UNL     1       8.345   3.292  -0.685  1.00  0.00    -0.084 C 
HETATM   45  C1  UNL     1       9.146   2.345  -1.536  1.00  0.00     0.043 C 
HETATM   46  C3  UNL     1       9.044   4.576  -0.329  1.00  0.00     0.043 C 
ENDBRANCH  41  43
ENDBRANCH  40  41
ENDBRANCH  38  40
ENDBRANCH   1  38
TORSDOF 12
