REMARK  9 active torsions:
REMARK  status: ('A' for Active; 'I' for Inactive)
REMARK       I    between atoms: N1_1  and  C1_2 
REMARK       I    between atoms: C1_2  and  N2_3 
REMARK    1  A    between atoms: N3_4  and  C2_6 
REMARK    2  A    between atoms: C11_16  and  S1_17 
REMARK    3  A    between atoms: S1_17  and  O4_20 
REMARK    4  A    between atoms: C18_27  and  C19_28 
REMARK    5  A    between atoms: C19_28  and  C20_29 
REMARK    6  A    between atoms: C20_29  and  C21_30 
REMARK    7  A    between atoms: C21_30  and  O5_31 
REMARK    8  A    between atoms: C22_33  and  C23_34 
REMARK    9  A    between atoms: C26_37  and  O7_38 
ROOT
HETATM    1  C2  UNL     1       4.840   2.544   0.450  1.00  0.00     0.263 C 
HETATM    2  O1  UNL     1       5.277   1.716   1.579  1.00  0.00    -0.322 OA
HETATM    3  C3  UNL     1       5.025   0.373   1.453  1.00  0.00     0.071 C 
HETATM    4  C4  UNL     1       4.295  -0.220   2.486  1.00  0.00     0.037 C 
HETATM    5  C5  UNL     1       3.734  -1.484   2.303  1.00  0.00     0.010 C 
HETATM    6  C6  UNL     1       3.939  -2.177   1.101  1.00  0.00    -0.058 C 
HETATM    7  C7  UNL     1       4.827  -1.642   0.153  1.00  0.00     0.010 C 
HETATM    8  C8  UNL     1       5.366  -0.367   0.325  1.00  0.00     0.037 C 
HETATM    9  C9  UNL     1       3.119  -3.403   0.775  1.00  0.00     0.040 C 
HETATM   10  C10 UNL     1       1.642  -3.068   0.450  1.00  0.00     0.027 C 
HETATM   11  C11 UNL     1       1.397  -2.000  -0.649  1.00  0.00     0.130 C 
HETATM   12  C12 UNL     1      -0.080  -1.466  -0.792  1.00  0.00     0.037 C 
HETATM   13  C13 UNL     1      -1.127  -1.810   0.262  1.00  0.00    -0.014 C 
HETATM   14  C14 UNL     1      -2.389  -1.366   0.053  1.00  0.00    -0.050 C 
HETATM   15  C15 UNL     1      -2.641  -0.539  -1.190  1.00  0.00     0.042 C 
HETATM   16  C16 UNL     1      -1.702   0.656  -0.966  1.00  0.00     0.001 C 
HETATM   17  C17 UNL     1      -1.972   1.284   0.446  1.00  0.00     0.037 C 
HETATM   18  C18 UNL     1      -3.423   1.269   1.007  1.00  0.00     0.123 C 
HETATM   19  O6  UNL     1      -4.140   0.023   0.920  1.00  0.00    -0.371 OA
HETATM   20  C22 UNL     1      -3.420  -1.201   1.148  1.00  0.00     0.183 C 
HETATM   21  C29 UNL     1      -0.227   0.091  -1.206  1.00  0.00     0.032 C 
HETATM   22  C30 UNL     1       0.942   0.980  -0.793  1.00  0.00    -0.053 C 
HETATM   23  C31 UNL     1       1.195   1.364   0.529  1.00  0.00     0.008 C 
HETATM   24  C32 UNL     1       2.393   1.997   0.886  1.00  0.00     0.012 C 
HETATM   25  C33 UNL     1       3.427   2.161  -0.047  1.00  0.00    -0.010 C 
HETATM   26  C34 UNL     1       3.156   1.841  -1.383  1.00  0.00     0.012 C 
HETATM   27  C35 UNL     1       1.925   1.287  -1.753  1.00  0.00     0.008 C 
ENDROOT
BRANCH   1  28
HETATM   28  N3  UNL     1       5.851   2.673  -0.609  1.00  0.00    -0.341 N 
HETATM   29  C1  UNL     1       5.895   3.730  -1.326  1.00  0.00     0.124 C 
HETATM   30  N1  UNL     1       6.868   3.859  -2.254  1.00  0.00    -0.279 NA
HETATM   31  N2  UNL     1       5.104   4.827  -1.339  1.00  0.00    -0.279 NA
HETATM   32  H1  UNL     1       7.358   4.740  -2.167  1.00  0.00     0.126 HD
HETATM   33  H2  UNL     1       7.534   3.095  -2.151  1.00  0.00     0.126 HD
HETATM   34  H3  UNL     1       5.071   5.252  -2.259  1.00  0.00     0.126 HD
HETATM   35  H4  UNL     1       4.166   4.667  -0.996  1.00  0.00     0.126 HD
ATOM     36  H3  UNL     1       6.518   1.919  -0.772  1.00  0.00     0.164 HD
ENDBRANCH   1  28
BRANCH  11  37
HETATM   37  S1  UNL     1       1.933  -2.604  -2.305  1.00  0.00     0.099 S 
HETATM   38  O2  UNL     1       1.509  -1.689  -3.341  1.00  0.00    -0.601 OA
HETATM   39  O3  UNL     1       3.280  -3.125  -2.283  1.00  0.00    -0.601 OA
BRANCH  37  40
HETATM   40  O4  UNL     1       0.991  -3.911  -2.407  1.00  0.00    -0.295 OA
HETATM   41  H15 UNL     1       1.562  -4.677  -2.639  1.00  0.00     0.232 HD
ENDBRANCH  37  40
ENDBRANCH  11  37
BRANCH  18  42
HETATM   42  C19 UNL     1      -4.331   2.317   0.336  1.00  0.00     0.034 C 
BRANCH  42  43
HETATM   43  C20 UNL     1      -3.919   3.764   0.622  1.00  0.00     0.028 C 
BRANCH  43  44
HETATM   44  C21 UNL     1      -4.947   4.761   0.100  1.00  0.00     0.164 C 
BRANCH  44  45
HETATM   45  O5  UNL     1      -5.056   4.675  -1.313  1.00  0.00    -0.401 OA
HETATM   46  H30 UNL     1      -4.181   4.875  -1.687  1.00  0.00     0.209 HD
ENDBRANCH  44  45
ENDBRANCH  43  44
ENDBRANCH  42  43
ENDBRANCH  18  42
BRANCH  20  47
HETATM   47  C23 UNL     1      -4.391  -2.369   1.165  1.00  0.00    -0.025 A 
HETATM   48  C24 UNL     1      -5.560  -2.367   0.386  1.00  0.00     0.013 A 
HETATM   49  C25 UNL     1      -6.415  -3.472   0.374  1.00  0.00     0.037 A 
HETATM   50  C26 UNL     1      -6.097  -4.589   1.142  1.00  0.00     0.065 A 
HETATM   51  C27 UNL     1      -4.946  -4.617   1.918  1.00  0.00     0.037 A 
HETATM   52  C28 UNL     1      -4.093  -3.512   1.928  1.00  0.00     0.013 A 
BRANCH  50  53
HETATM   53  O7  UNL     1      -6.897  -5.695   1.149  1.00  0.00    -0.361 OA
HETATM   54  H34 UNL     1      -7.650  -5.530   0.558  1.00  0.00     0.217 HD
ENDBRANCH  50  53
ENDBRANCH  20  47
TORSDOF 9
