REMARK  18 active torsions:
REMARK  status: ('A' for Active; 'I' for Inactive)
REMARK    1  A    between atoms: C14_15  and  O2_16 
REMARK    2  A    between atoms: C14_15  and  C15_17 
REMARK    3  A    between atoms: C15_17  and  C16_19 
REMARK    4  A    between atoms: C16_19  and  O4_20 
REMARK    5  A    between atoms: O4_20  and  C17_21 
REMARK    6  A    between atoms: C17_21  and  C18_23 
REMARK    7  A    between atoms: C18_23  and  C19_24 
REMARK    8  A    between atoms: C19_24  and  C20_25 
REMARK       I    between atoms: C20_25  and  N1_27 
REMARK    9  A    between atoms: N1_27  and  C21_28 
REMARK   10  A    between atoms: C21_28  and  C22_29 
REMARK   11  A    between atoms: C22_29  and  C23_30 
REMARK   12  A    between atoms: C23_30  and  C24_31 
REMARK   13  A    between atoms: C24_31  and  C25_32 
REMARK   14  A    between atoms: C25_32  and  C26_33 
REMARK       I    between atoms: C26_33  and  N2_35 
REMARK   15  A    between atoms: N2_35  and  C27_36 
REMARK   16  A    between atoms: C27_36  and  C28_37 
REMARK   17  A    between atoms: C31_40  and  C32_41 
REMARK   18  A    between atoms: C32_41  and  O9_43 
ROOT
HETATM    1  C17 UNL     1       0.486   0.857   0.750  1.00  0.00     0.259 C 
HETATM    2  O5  UNL     1      -0.090  -0.186   0.473  1.00  0.00    -0.265 OA
ENDROOT
BRANCH   1   3
HETATM    3  O4  UNL     1       0.185   1.668   1.791  1.00  0.00    -0.314 OA
BRANCH   3   4
HETATM    4  C16 UNL     1      -0.849   1.308   2.704  1.00  0.00     0.260 C 
BRANCH   4   5
HETATM    5  C15 UNL     1      -1.836   0.129   2.559  1.00  0.00     0.185 C 
HETATM    6  O3  UNL     1      -1.753  -0.834   3.330  1.00  0.00    -0.292 OA
BRANCH   5   7
HETATM    7  C14 UNL     1      -2.969   0.242   1.494  1.00  0.00     0.128 C 
HETATM    8  C13 UNL     1      -3.316  -1.159   0.972  1.00  0.00     0.047 C 
HETATM    9  C12 UNL     1      -4.378  -1.691   1.916  1.00  0.00     0.009 C 
HETATM   10  C11 UNL     1      -5.168  -0.474   2.422  1.00  0.00     0.002 C 
HETATM   11  C10 UNL     1      -6.632  -0.398   1.920  1.00  0.00    -0.004 C 
HETATM   12  C35 UNL     1      -4.336   0.796   2.038  1.00  0.00    -0.002 C 
HETATM   13  C9  UNL     1      -7.474  -1.602   2.376  1.00  0.00     0.010 C 
HETATM   14  C39 UNL     1      -6.717  -0.227   0.382  1.00  0.00     0.002 C 
HETATM   15  C8  UNL     1      -8.930  -1.439   1.958  1.00  0.00     0.035 C 
HETATM   16  C7  UNL     1      -9.069  -1.211   0.471  1.00  0.00    -0.068 C 
HETATM   17  C2  UNL     1      -8.199  -0.105  -0.146  1.00  0.00    -0.016 C 
HETATM   18  C6  UNL     1      -9.946  -1.946  -0.237  1.00  0.00     0.053 C 
HETATM   19  C1  UNL     1      -8.836   1.255   0.222  1.00  0.00     0.020 C 
HETATM   20  C3  UNL     1      -8.169  -0.263  -1.697  1.00  0.00     0.022 C 
HETATM   21  C4  UNL     1      -9.540  -0.500  -2.314  1.00  0.00     0.084 C 
HETATM   22  C5  UNL     1     -10.212  -1.684  -1.671  1.00  0.00     0.149 C 
HETATM   23  O1  UNL     1     -11.020  -2.387  -2.276  1.00  0.00    -0.293 OA
HETATM   24  C38 UNL     1      -5.776   0.894  -0.122  1.00  0.00     0.007 C 
HETATM   25  C37 UNL     1      -5.098   1.673   1.001  1.00  0.00     0.013 C 
HETATM   26  C36 UNL     1      -4.173   1.684   3.292  1.00  0.00     0.019 C 
BRANCH   7  27
HETATM   27  O2  UNL     1      -2.502   1.008   0.384  1.00  0.00    -0.381 OA
HETATM   28  H19 UNL     1      -1.827   0.452  -0.056  1.00  0.00     0.211 HD
ENDBRANCH   7  27
ENDBRANCH   5   7
ENDBRANCH   4   5
ENDBRANCH   3   4
ENDBRANCH   1   3
BRANCH   1  29
HETATM   29  C18 UNL     1       1.607   1.463  -0.056  1.00  0.00     0.120 C 
BRANCH  29  30
HETATM   30  C19 UNL     1       1.951   0.591  -1.259  1.00  0.00     0.112 C 
BRANCH  30  31
HETATM   31  C20 UNL     1       2.973   1.258  -2.153  1.00  0.00     0.217 C 
HETATM   32  O6  UNL     1       3.511   2.327  -1.881  1.00  0.00    -0.274 OA
HETATM   33  N1  UNL     1       3.244   0.532  -3.294  1.00  0.00    -0.361 N 
HETATM   34  H26 UNL     1       2.601  -0.214  -3.537  1.00  0.00     0.162 HD
BRANCH  33  35
HETATM   35  C21 UNL     1       4.057   1.085  -4.360  1.00  0.00     0.122 C 
BRANCH  35  36
HETATM   36  C22 UNL     1       4.703  -0.003  -5.209  1.00  0.00     0.020 C 
BRANCH  36  37
HETATM   37  C23 UNL     1       5.689  -0.916  -4.468  1.00  0.00     0.002 C 
BRANCH  37  38
HETATM   38  C24 UNL     1       6.976  -0.225  -4.003  1.00  0.00     0.009 C 
BRANCH  38  39
HETATM   39  C25 UNL     1       6.930   0.235  -2.547  1.00  0.00     0.103 C 
BRANCH  39  40
HETATM   40  C26 UNL     1       8.251   0.838  -2.103  1.00  0.00     0.217 C 
HETATM   41  O7  UNL     1       9.236   0.929  -2.825  1.00  0.00    -0.274 OA
HETATM   42  N2  UNL     1       8.220   1.272  -0.796  1.00  0.00    -0.357 N 
HETATM   43  H37 UNL     1       7.417   1.045  -0.227  1.00  0.00     0.162 HD
BRANCH  42  44
HETATM   44  C27 UNL     1       9.398   1.780  -0.134  1.00  0.00     0.161 C 
BRANCH  44  45
HETATM   45  C28 UNL     1      10.032   0.713   0.722  1.00  0.00    -0.040 A 
HETATM   46  C29 UNL     1      10.879  -0.241   0.139  1.00  0.00     0.010 A 
HETATM   47  C30 UNL     1      11.454  -1.248   0.916  1.00  0.00     0.019 A 
HETATM   48  C31 UNL     1      11.188  -1.315   2.289  1.00  0.00     0.037 A 
HETATM   49  C33 UNL     1      10.335  -0.373   2.875  1.00  0.00     0.019 A 
HETATM   50  C34 UNL     1       9.757   0.633   2.094  1.00  0.00     0.010 A 
BRANCH  48  51
HETATM   51  C32 UNL     1      11.822  -2.401   3.074  1.00  0.00     0.176 C 
HETATM   52  O8  UNL     1      12.554  -3.268   2.634  1.00  0.00    -0.646 OA
BRANCH  51  53
HETATM   53  O9  UNL     1      11.510  -2.353   4.381  1.00  0.00    -0.773 OA
HETATM   54  H42 UNL     1      11.997  -3.114   4.761  1.00  0.00     0.167 HD
ENDBRANCH  51  53
ENDBRANCH  48  51
ENDBRANCH  44  45
ENDBRANCH  42  44
ENDBRANCH  39  40
ENDBRANCH  38  39
ENDBRANCH  37  38
ENDBRANCH  36  37
ENDBRANCH  35  36
ENDBRANCH  33  35
ENDBRANCH  30  31
ENDBRANCH  29  30
ENDBRANCH   1  29
TORSDOF 18
