REMARK  10 active torsions:
REMARK  status: ('A' for Active; 'I' for Inactive)
REMARK    1  A    between atoms: O1_2  and  C2_3 
REMARK    2  A    between atoms: C2_3  and  C3_5 
REMARK    3  A    between atoms: C3_5  and  C4_6 
REMARK    4  A    between atoms: C3_5  and  N1_13 
REMARK    5  A    between atoms: C4_6  and  C5_7 
REMARK       I    between atoms: N1_13  and  C11_14 
REMARK    6  A    between atoms: C11_14  and  C12_16 
REMARK    7  A    between atoms: C12_16  and  O4_17 
REMARK    8  A    between atoms: O4_17  and  N2_18 
REMARK    9  A    between atoms: C27_34  and  O5_35 
REMARK   10  A    between atoms: C27_34  and  C28_36 
ROOT
HETATM    1  N2  UNL     1       1.996  -2.658  -0.070  1.00  0.00    -0.271 N 
ATOM      2  H2  UNL     1       2.030  -3.662  -0.247  1.00  0.00     0.194 HD
HETATM    3  C13 UNL     1       0.966  -1.903  -0.330  1.00  0.00     0.032 C 
HETATM    4  C14 UNL     1      -0.203  -2.529  -0.997  1.00  0.00     0.030 C 
HETATM    5  C15 UNL     1      -1.330  -1.840  -1.251  1.00  0.00    -0.069 C 
HETATM    6  C16 UNL     1      -2.436  -2.489  -2.050  1.00  0.00     0.035 C 
HETATM    7  C17 UNL     1      -3.787  -2.374  -1.356  1.00  0.00     0.010 C 
HETATM    8  C18 UNL     1      -4.126  -0.913  -1.031  1.00  0.00    -0.004 C 
HETATM    9  C19 UNL     1      -3.006  -0.293  -0.140  1.00  0.00     0.002 C 
HETATM   10  C20 UNL     1      -3.378   1.135   0.333  1.00  0.00     0.007 C 
HETATM   11  C21 UNL     1      -4.778   1.223   0.967  1.00  0.00     0.013 C 
HETATM   12  C22 UNL     1      -5.872   0.654   0.045  1.00  0.00    -0.002 C 
HETATM   13  C23 UNL     1      -6.012   1.556  -1.210  1.00  0.00     0.019 C 
HETATM   14  C24 UNL     1      -5.465  -0.803  -0.290  1.00  0.00     0.002 C 
HETATM   15  C25 UNL     1      -6.707  -1.381  -0.956  1.00  0.00     0.009 C 
HETATM   16  C26 UNL     1      -7.883  -0.703  -0.229  1.00  0.00     0.047 C 
HETATM   17  C27 UNL     1      -7.273   0.399   0.687  1.00  0.00     0.125 C 
HETATM   18  C30 UNL     1      -1.573  -0.398  -0.790  1.00  0.00    -0.016 C 
HETATM   19  C31 UNL     1      -1.421   0.535  -2.013  1.00  0.00     0.020 C 
HETATM   20  C32 UNL     1      -0.519   0.001   0.283  1.00  0.00     0.020 C 
HETATM   21  C33 UNL     1       0.904  -0.414  -0.064  1.00  0.00     0.060 C 
ENDROOT
BRANCH   1  22
HETATM   22  O4  UNL     1       3.051  -1.921   0.482  1.00  0.00    -0.271 OA
BRANCH  22  23
HETATM   23  C12 UNL     1       4.070  -2.814   0.925  1.00  0.00     0.303 C 
BRANCH  23  24
HETATM   24  C11 UNL     1       5.413  -2.095   1.010  1.00  0.00     0.244 C 
HETATM   25  N1  UNL     1       5.462  -0.891   0.335  1.00  0.00    -0.345 N 
HETATM   26  H12 UNL     1       4.714  -0.749  -0.335  1.00  0.00     0.163 HD
HETATM   27  O3  UNL     1       6.380  -2.572   1.596  1.00  0.00    -0.271 OA
BRANCH  25  28
HETATM   28  C3  UNL     1       6.740  -0.207   0.092  1.00  0.00     0.188 C 
BRANCH  28  29
HETATM   29  C2  UNL     1       7.431  -0.737  -1.182  1.00  0.00     0.281 C 
HETATM   30  O2  UNL     1       8.529  -0.368  -1.581  1.00  0.00    -0.263 OA
BRANCH  29  31
HETATM   31  O1  UNL     1       6.642  -1.633  -1.850  1.00  0.00    -0.325 OA
HETATM   32  C1  UNL     1       7.240  -2.179  -3.026  1.00  0.00     0.213 C 
ENDBRANCH  29  31
ENDBRANCH  28  29
BRANCH  28  33
HETATM   33  C4  UNL     1       6.496   1.304  -0.054  1.00  0.00     0.074 C 
BRANCH  33  34
HETATM   34  C5  UNL     1       7.594   2.144   0.555  1.00  0.00    -0.056 A 
HETATM   35  C6  UNL     1       8.663   2.601  -0.226  1.00  0.00     0.007 A 
HETATM   36  C7  UNL     1       9.681   3.364   0.349  1.00  0.00     0.001 A 
HETATM   37  C8  UNL     1       9.641   3.676   1.706  1.00  0.00     0.000 A 
HETATM   38  C9  UNL     1       8.584   3.224   2.492  1.00  0.00     0.001 A 
HETATM   39  C10 UNL     1       7.566   2.460   1.920  1.00  0.00     0.007 A 
ENDBRANCH  33  34
ENDBRANCH  28  33
ENDBRANCH  25  28
ENDBRANCH  23  24
ENDBRANCH  22  23
ENDBRANCH   1  22
BRANCH  17  40
HETATM   40  O5  UNL     1      -7.113  -0.165   1.993  1.00  0.00    -0.381 OA
HETATM   41  H34 UNL     1      -7.971  -0.529   2.274  1.00  0.00     0.211 HD
ENDBRANCH  17  40
BRANCH  17  42
HETATM   42  C28 UNL     1      -8.179   1.648   0.787  1.00  0.00     0.158 C 
HETATM   43  C29 UNL     1      -7.905   2.625   1.904  1.00  0.00     0.094 C 
HETATM   44  O6  UNL     1      -9.098   1.865  -0.004  1.00  0.00    -0.295 OA
ENDBRANCH  17  42
TORSDOF 10
