REMARK  11 active torsions:
REMARK  status: ('A' for Active; 'I' for Inactive)
REMARK    1  A    between atoms: C2_2  and  C4_4 
REMARK    2  A    between atoms: C4_4  and  C6_6 
REMARK    3  A    between atoms: C7_7  and  C8_8 
REMARK    4  A    between atoms: C8_8  and  C10_10 
REMARK    5  A    between atoms: C24_24  and  O1_25 
REMARK    6  A    between atoms: O1_25  and  C25_26 
REMARK    7  A    between atoms: C26_28  and  C27_29 
REMARK    8  A    between atoms: C27_29  and  O3_30 
REMARK    9  A    between atoms: C28_31  and  O4_32 
REMARK   10  A    between atoms: C29_33  and  O5_34 
REMARK   11  A    between atoms: C30_35  and  O6_36 
ROOT
HETATM    1  C10 UNL     1       3.739  -0.362   1.763  1.00  0.00     0.002 C 
HETATM    2  C11 UNL     1       4.005   1.094   2.227  1.00  0.00     0.006 C 
HETATM    3  C12 UNL     1       2.671   1.849   2.080  1.00  0.00     0.009 C 
HETATM    4  C13 UNL     1       1.665   0.763   1.712  1.00  0.00     0.041 C 
HETATM    5  C14 UNL     1       2.474  -0.248   0.863  1.00  0.00    -0.029 C 
HETATM    6  C15 UNL     1       2.799   0.248  -0.559  1.00  0.00     0.016 C 
HETATM    7  C16 UNL     1       1.640  -1.549   0.773  1.00  0.00     0.037 C 
HETATM    8  C17 UNL     1       0.180  -1.289   0.462  1.00  0.00    -0.019 C 
HETATM    9  C18 UNL     1      -0.423  -0.087   0.600  1.00  0.00    -0.030 C 
HETATM   10  C19 UNL     1       0.303   1.163   1.133  1.00  0.00     0.142 C 
HETATM   11  C20 UNL     1       0.268   2.246   0.075  1.00  0.00     0.018 C 
HETATM   12  C21 UNL     1      -0.971   2.572  -0.330  1.00  0.00     0.014 C 
HETATM   13  C22 UNL     1      -2.053   1.790   0.394  1.00  0.00     0.127 C 
HETATM   14  C23 UNL     1      -3.468   2.276   0.052  1.00  0.00     0.078 C 
HETATM   15  C24 UNL     1      -4.584   1.351   0.588  1.00  0.00     0.128 C 
HETATM   16  C31 UNL     1      -4.079   0.308   1.590  1.00  0.00     0.033 C 
HETATM   17  C32 UNL     1      -2.895  -0.534   1.089  1.00  0.00     0.020 C 
HETATM   18  C33 UNL     1      -1.880   0.238   0.202  1.00  0.00     0.021 C 
HETATM   19  C34 UNL     1      -2.075  -0.161  -1.281  1.00  0.00     0.024 C 
HETATM   20  O7  UNL     1      -1.841   2.107   1.801  1.00  0.00    -0.223 OA
HETATM   21  O8  UNL     1      -0.489   1.647   2.250  1.00  0.00    -0.219 OA
ENDROOT
BRANCH  15  22
HETATM   22  O1  UNL     1      -5.206   0.743  -0.555  1.00  0.00    -0.353 OA
BRANCH  22  23
HETATM   23  C25 UNL     1      -6.514   0.207  -0.302  1.00  0.00     0.292 C 
HETATM   24  O2  UNL     1      -6.434  -1.139   0.155  1.00  0.00    -0.348 OA
HETATM   25  C26 UNL     1      -7.702  -1.588   0.678  1.00  0.00     0.179 C 
HETATM   26  C28 UNL     1      -8.907  -1.080  -0.158  1.00  0.00     0.180 C 
HETATM   27  C29 UNL     1      -8.491  -0.735  -1.601  1.00  0.00     0.183 C 
HETATM   28  C30 UNL     1      -7.268   0.207  -1.649  1.00  0.00     0.204 C 
BRANCH  25  29
HETATM   29  C27 UNL     1      -7.644  -3.118   0.766  1.00  0.00     0.198 C 
BRANCH  29  30
HETATM   30  O3  UNL     1      -8.784  -3.639   1.441  1.00  0.00    -0.398 OA
HETATM   31  H39 UNL     1      -8.478  -4.414   1.950  1.00  0.00     0.209 HD
ENDBRANCH  29  30
ENDBRANCH  25  29
BRANCH  26  32
HETATM   32  O4  UNL     1      -9.410   0.115   0.471  1.00  0.00    -0.390 OA
HETATM   33  H41 UNL     1     -10.207   0.387  -0.020  1.00  0.00     0.210 HD
ENDBRANCH  26  32
BRANCH  27  34
HETATM   34  O5  UNL     1      -8.232  -1.943  -2.334  1.00  0.00    -0.390 OA
HETATM   35  H43 UNL     1      -7.337  -2.257  -2.109  1.00  0.00     0.210 HD
ENDBRANCH  27  34
BRANCH  28  36
HETATM   36  O6  UNL     1      -7.662   1.544  -1.992  1.00  0.00    -0.388 OA
HETATM   37  H45 UNL     1      -6.835   2.062  -2.015  1.00  0.00     0.210 HD
ENDBRANCH  28  36
ENDBRANCH  22  23
ENDBRANCH  15  22
BRANCH   1  38
HETATM   38  C8  UNL     1       4.966  -1.159   1.250  1.00  0.00     0.008 C 
HETATM   39  C9  UNL     1       5.897  -1.487   2.426  1.00  0.00     0.014 C 
BRANCH  38  40
HETATM   40  C7  UNL     1       5.806  -0.496   0.180  1.00  0.00    -0.026 C 
HETATM   41  C6  UNL     1       6.219  -1.111  -0.943  1.00  0.00    -0.026 C 
BRANCH  41  42
HETATM   42  C4  UNL     1       7.093  -0.553  -2.056  1.00  0.00     0.007 C 
HETATM   43  C5  UNL     1       8.301  -1.483  -2.235  1.00  0.00     0.014 C 
BRANCH  42  44
HETATM   44  C2  UNL     1       7.501   0.948  -1.925  1.00  0.00    -0.015 C 
HETATM   45  C1  UNL     1       7.930   1.529  -3.282  1.00  0.00     0.010 C 
HETATM   46  C3  UNL     1       8.608   1.208  -0.893  1.00  0.00     0.010 C 
ENDBRANCH  42  44
ENDBRANCH  41  42
ENDBRANCH  38  40
ENDBRANCH   1  38
TORSDOF 11
