REMARK  6 active torsions:
REMARK  status: ('A' for Active; 'I' for Inactive)
REMARK    1  A    between atoms: C2_2  and  C3_3 
REMARK    2  A    between atoms: C4_5  and  C5_6 
REMARK    3  A    between atoms: C5_6  and  C6_7 
REMARK    4  A    between atoms: C6_7  and  C7_8 
REMARK    5  A    between atoms: C7_8  and  C9_10 
REMARK    6  A    between atoms: C30_32  and  O3_33 
ROOT
HETATM    1  C9  UNL     1       2.354   0.037   0.260  1.00  0.00    -0.002 C 
HETATM    2  C10 UNL     1       2.319  -1.198   1.205  1.00  0.00     0.007 C 
HETATM    3  C11 UNL     1       0.847  -1.625   1.357  1.00  0.00     0.015 C 
HETATM    4  C12 UNL     1       0.098  -0.884   0.235  1.00  0.00    -0.010 C 
HETATM    5  C13 UNL     1       0.288  -1.718  -1.073  1.00  0.00     0.021 C 
HETATM    6  C14 UNL     1      -1.409  -0.655   0.368  1.00  0.00    -0.039 C 
HETATM    7  C15 UNL     1      -1.983   0.405  -0.265  1.00  0.00    -0.066 C 
HETATM    8  C16 UNL     1      -1.133   1.419  -1.045  1.00  0.00     0.036 C 
HETATM    9  C17 UNL     1       0.403   1.278  -0.992  1.00  0.00     0.015 C 
HETATM   10  C18 UNL     1       0.862   0.497   0.245  1.00  0.00    -0.029 C 
HETATM   11  C19 UNL     1       0.570   1.354   1.514  1.00  0.00     0.016 C 
HETATM   12  C20 UNL     1      -3.515   0.667  -0.227  1.00  0.00    -0.015 C 
HETATM   13  C21 UNL     1      -3.748   1.866   0.723  1.00  0.00     0.020 C 
HETATM   14  C22 UNL     1      -4.033   1.015  -1.646  1.00  0.00     0.021 C 
HETATM   15  C23 UNL     1      -5.546   0.981  -1.836  1.00  0.00     0.080 C 
HETATM   16  C24 UNL     1      -6.345   0.654  -0.597  1.00  0.00     0.135 C 
HETATM   17  O2  UNL     1      -7.426   1.218  -0.403  1.00  0.00    -0.297 OA
HETATM   18  C25 UNL     1      -5.841  -0.451   0.337  1.00  0.00     0.018 C 
HETATM   19  C26 UNL     1      -6.318  -0.129   1.770  1.00  0.00     0.023 C 
HETATM   20  C27 UNL     1      -6.540  -1.752  -0.104  1.00  0.00     0.023 C 
HETATM   21  C28 UNL     1      -4.289  -0.622   0.215  1.00  0.00     0.016 C 
HETATM   22  C29 UNL     1      -3.639  -1.245   1.460  1.00  0.00     0.043 C 
HETATM   23  C30 UNL     1      -2.193  -1.654   1.185  1.00  0.00     0.148 C 
ENDROOT
BRANCH   1  24
HETATM   24  C7  UNL     1       3.469   1.050   0.652  1.00  0.00    -0.014 C 
HETATM   25  C8  UNL     1       3.523   2.263  -0.282  1.00  0.00     0.010 C 
BRANCH  24  26
HETATM   26  C6  UNL     1       4.876   0.400   0.737  1.00  0.00     0.008 C 
BRANCH  26  27
HETATM   27  C5  UNL     1       5.377  -0.262  -0.553  1.00  0.00     0.028 C 
BRANCH  27  28
HETATM   28  C4  UNL     1       6.776  -0.786  -0.371  1.00  0.00    -0.017 C 
HETATM   29  C2  UNL     1       7.890  -0.411  -1.028  1.00  0.00    -0.028 C 
HETATM   30  C1  UNL     1       8.011   0.627  -2.100  1.00  0.00     0.051 C 
BRANCH  29  31
HETATM   31  C3  UNL     1       9.176  -1.082  -0.657  1.00  0.00     0.265 C 
HETATM   32  O1  UNL     1       9.295  -1.873   0.272  1.00  0.00    -0.302 OA
ENDBRANCH  29  31
ENDBRANCH  27  28
ENDBRANCH  26  27
ENDBRANCH  24  26
ENDBRANCH   1  24
BRANCH  23  33
HETATM   33  O3  UNL     1      -2.196  -2.892   0.480  1.00  0.00    -0.391 OA
HETATM   34  H46 UNL     1      -2.595  -3.557   1.065  1.00  0.00     0.210 HD
ENDBRANCH  23  33
TORSDOF 6
