REMARK  11 active torsions:
REMARK  status: ('A' for Active; 'I' for Inactive)
REMARK    1  A    between atoms: O1_2  and  C2_3 
REMARK    2  A    between atoms: C4_5  and  O2_6 
REMARK    3  A    between atoms: O2_6  and  C5_7 
REMARK    4  A    between atoms: C8_10  and  C9_11 
REMARK    5  A    between atoms: N1_12  and  C10_14 
REMARK    6  A    between atoms: C10_14  and  C11_15 
REMARK    7  A    between atoms: C11_15  and  O3_16 
REMARK    8  A    between atoms: C17_22  and  C18_23 
REMARK    9  A    between atoms: C24_31  and  O6_32 
REMARK   10  A    between atoms: C28_36  and  O7_37 
REMARK   11  A    between atoms: C32_42  and  O9_43 
ROOT
HETATM    1  C5  UNL     1      -2.767  -0.404   0.240  1.00  0.00     0.127 C 
HETATM    2  C6  UNL     1      -2.118  -1.094   1.448  1.00  0.00     0.033 C 
HETATM    3  C7  UNL     1      -0.602  -0.902   1.512  1.00  0.00     0.021 C 
HETATM    4  C8  UNL     1       0.174  -1.331   0.214  1.00  0.00     0.026 C 
HETATM    5  C12 UNL     1       1.462  -0.407   0.123  1.00  0.00     0.009 C 
HETATM    6  C13 UNL     1       2.490  -0.687   1.252  1.00  0.00     0.007 C 
HETATM    7  C14 UNL     1       3.695   0.249   1.203  1.00  0.00     0.013 C 
HETATM    8  C15 UNL     1       4.417   0.245  -0.166  1.00  0.00    -0.005 C 
HETATM    9  C16 UNL     1       5.166  -1.090  -0.359  1.00  0.00     0.019 C 
HETATM   10  C17 UNL     1       5.386   1.466  -0.326  1.00  0.00     0.028 C 
HETATM   11  C22 UNL     1       4.452   2.647  -0.704  1.00  0.00     0.013 C 
HETATM   12  C23 UNL     1       3.132   2.024  -1.198  1.00  0.00     0.040 C 
HETATM   13  C24 UNL     1       3.403   0.517  -1.319  1.00  0.00     0.070 C 
HETATM   14  C25 UNL     1       2.149  -0.397  -1.263  1.00  0.00     0.026 C 
HETATM   15  C26 UNL     1       1.110  -0.064  -2.349  1.00  0.00     0.011 C 
HETATM   16  C27 UNL     1       0.016  -1.114  -2.368  1.00  0.00     0.039 C 
HETATM   17  C28 UNL     1      -0.760  -1.229  -1.049  1.00  0.00     0.073 C 
HETATM   18  C29 UNL     1      -1.763  -0.082  -0.875  1.00  0.00     0.071 C 
ENDROOT
BRANCH   1  19
HETATM   19  O2  UNL     1      -3.419   0.812   0.636  1.00  0.00    -0.356 OA
BRANCH  19  20
HETATM   20  C4  UNL     1      -4.709   0.962   0.035  1.00  0.00     0.263 C 
HETATM   21  C3  UNL     1      -5.759   0.315   0.939  1.00  0.00     0.095 C 
HETATM   22  C2  UNL     1      -7.151   0.788   0.552  1.00  0.00     0.156 C 
HETATM   23  C32 UNL     1      -7.234   2.337   0.623  1.00  0.00     0.175 C 
HETATM   24  C30 UNL     1      -5.824   2.974   0.703  1.00  0.00     0.151 C 
HETATM   25  O8  UNL     1      -4.971   2.339  -0.250  1.00  0.00    -0.354 OA
HETATM   26  C31 UNL     1      -5.844   4.464   0.399  1.00  0.00     0.042 C 
BRANCH  22  27
HETATM   27  O1  UNL     1      -8.083   0.169   1.455  1.00  0.00    -0.388 OA
HETATM   28  C1  UNL     1      -9.426   0.188   0.967  1.00  0.00     0.202 C 
ENDBRANCH  22  27
BRANCH  23  29
HETATM   29  O9  UNL     1      -7.932   2.789  -0.555  1.00  0.00    -0.390 OA
HETATM   30  H49 UNL     1      -7.307   2.747  -1.308  1.00  0.00     0.210 HD
ENDBRANCH  23  29
ENDBRANCH  19  20
ENDBRANCH   1  19
BRANCH  17  31
HETATM   31  O7  UNL     1      -1.567  -2.419  -1.167  1.00  0.00    -0.389 OA
HETATM   32  H41 UNL     1      -2.030  -2.388  -2.027  1.00  0.00     0.210 HD
ENDBRANCH  17  31
BRANCH   4  33
HETATM   33  C9  UNL     1       0.545  -2.818   0.364  1.00  0.00     0.068 C 
HETATM   34  N1  UNL     1       1.543  -3.349  -0.264  1.00  0.00    -0.399 N 
ATOM     35  H1  UNL     1       2.192  -2.808  -0.836  1.00  0.00     0.158 HD
BRANCH  34  36
HETATM   36  C10 UNL     1       1.657  -4.800  -0.079  1.00  0.00     0.144 C 
BRANCH  36  37
HETATM   37  C11 UNL     1       2.869  -5.310  -0.865  1.00  0.00     0.183 C 
BRANCH  37  38
HETATM   38  O3  UNL     1       2.797  -6.717  -1.050  1.00  0.00    -0.399 OA
HETATM   39  H18 UNL     1       2.116  -6.871  -1.727  1.00  0.00     0.209 HD
ENDBRANCH  37  38
ENDBRANCH  36  37
ENDBRANCH  34  36
ENDBRANCH   4  33
BRANCH  13  40
HETATM   40  O6  UNL     1       4.078   0.307  -2.569  1.00  0.00    -0.389 OA
HETATM   41  H35 UNL     1       3.512   0.607  -3.298  1.00  0.00     0.210 HD
ENDBRANCH  13  40
BRANCH  10  42
HETATM   42  C18 UNL     1       6.364   1.727   0.787  1.00  0.00    -0.045 A 
HETATM   43  C19 UNL     1       6.329   2.663   1.735  1.00  0.00     0.087 A 
HETATM   44  C20 UNL     1       7.562   2.536   2.517  1.00  0.00     0.283 A 
HETATM   45  O4  UNL     1       7.852   3.235   3.470  1.00  0.00    -0.260 OA
HETATM   46  O5  UNL     1       8.323   1.536   1.998  1.00  0.00    -0.314 OA
HETATM   47  C21 UNL     1       7.635   0.959   0.887  1.00  0.00     0.213 A 
ENDBRANCH  10  42
TORSDOF 11
