REMARK  5 active torsions:
REMARK  status: ('A' for Active; 'I' for Inactive)
REMARK    1  A    between atoms: C2_2  and  C3_3 
REMARK    2  A    between atoms: C6_6  and  C7_7 
REMARK    3  A    between atoms: C7_7  and  O1_8 
REMARK    4  A    between atoms: C7_7  and  C8_9 
REMARK    5  A    between atoms: C26_32  and  O6_33 
ROOT
HETATM    1  C3  UNL     1      -0.869   3.305  -0.639  1.00  0.00     0.008 C 
HETATM    2  C4  UNL     1      -1.413   1.998  -0.086  1.00  0.00    -0.023 C 
HETATM    3  C5  UNL     1      -1.925   0.968  -0.782  1.00  0.00     0.005 C 
HETATM    4  C6  UNL     1      -2.473  -0.300  -0.168  1.00  0.00     0.187 C 
HETATM    5  O2  UNL     1      -1.783  -1.394  -0.826  1.00  0.00    -0.308 OA
HETATM    6  C12 UNL     1      -0.709  -1.921  -0.180  1.00  0.00     0.276 C 
HETATM    7  O3  UNL     1      -0.428  -1.720   0.997  1.00  0.00    -0.264 OA
HETATM    8  C13 UNL     1       0.116  -2.868  -1.104  1.00  0.00     0.095 C 
HETATM    9  C14 UNL     1      -0.277  -2.759  -2.591  1.00  0.00     0.036 C 
HETATM   10  C15 UNL     1      -0.289  -4.251  -0.634  1.00  0.00     0.003 C 
HETATM   11  C16 UNL     1       0.413  -5.387  -0.572  1.00  0.00     0.072 C 
HETATM   12  C17 UNL     1       1.808  -5.644  -0.954  1.00  0.00     0.245 C 
HETATM   13  O4  UNL     1       2.159  -6.809  -1.137  1.00  0.00    -0.268 OA
HETATM   14  N1  UNL     1       2.718  -4.648  -1.023  1.00  0.00    -0.320 N 
HETATM   15  C18 UNL     1       2.670  -3.284  -0.892  1.00  0.00     0.098 C 
HETATM   16  C19 UNL     1       1.585  -2.492  -0.924  1.00  0.00     0.045 C 
HETATM   17  C20 UNL     1       1.833  -1.011  -0.878  1.00  0.00     0.194 C 
HETATM   18  O5  UNL     1       1.079  -0.224  -1.433  1.00  0.00    -0.287 OA
HETATM   19  C21 UNL     1       3.034  -0.513  -0.205  1.00  0.00     0.046 A 
HETATM   20  C22 UNL     1       4.158  -1.324  -0.224  1.00  0.00     0.032 A 
HETATM   21  C23 UNL     1       5.376  -0.869   0.297  1.00  0.00     0.026 A 
HETATM   22  C24 UNL     1       5.464   0.397   0.892  1.00  0.00    -0.027 A 
HETATM   23  C25 UNL     1       6.757   0.850   1.506  1.00  0.00     0.051 C 
HETATM   24  C26 UNL     1       4.304   1.176   0.981  1.00  0.00     0.086 A 
HETATM   25  C27 UNL     1       3.103   0.746   0.399  1.00  0.00     0.059 A 
HETATM   26  C28 UNL     1       1.911   1.591   0.577  1.00  0.00     0.163 C 
HETATM   27  O7  UNL     1       1.269   1.425   1.608  1.00  0.00    -0.292 OA
HETATM   28  C29 UNL     1       1.668   2.687  -0.445  1.00  0.00     0.084 C 
HETATM   29  C30 UNL     1       0.526   3.635  -0.054  1.00  0.00     0.016 C 
HETATM   30  C31 UNL     1       4.047  -2.687  -0.760  1.00  0.00     0.210 C 
HETATM   31  O8  UNL     1       5.047  -3.348  -1.016  1.00  0.00    -0.285 OA
HETATM   32  H24 UNL     1       3.662  -5.023  -1.143  1.00  0.00     0.169 HD
ENDROOT
BRANCH   4  33
HETATM   33  C7  UNL     1      -3.987  -0.484  -0.472  1.00  0.00     0.174 C 
BRANCH  33  34
HETATM   34  O1  UNL     1      -4.428  -1.783  -0.066  1.00  0.00    -0.389 OA
HETATM   35  H11 UNL     1      -3.753  -2.407  -0.383  1.00  0.00     0.210 HD
ENDBRANCH  33  34
BRANCH  33  36
HETATM   36  C8  UNL     1      -4.865   0.586   0.133  1.00  0.00     0.009 C 
HETATM   37  C9  UNL     1      -5.593   0.579   1.269  1.00  0.00    -0.089 C 
HETATM   38  C10 UNL     1      -6.461   1.755   1.631  1.00  0.00     0.042 C 
HETATM   39  C11 UNL     1      -5.613  -0.542   2.270  1.00  0.00     0.042 C 
ENDBRANCH  33  36
ENDBRANCH   4  33
BRANCH   1  40
HETATM   40  C2  UNL     1      -0.936   3.422  -2.182  1.00  0.00     0.004 C 
HETATM   41  C1  UNL     1      -0.492   4.773  -2.728  1.00  0.00     0.006 C 
ENDBRANCH   1  40
BRANCH  24  42
HETATM   42  O6  UNL     1       4.369   2.351   1.681  1.00  0.00    -0.359 OA
HETATM   43  H29 UNL     1       3.574   2.406   2.247  1.00  0.00     0.217 HD
ENDBRANCH  24  42
TORSDOF 5
