REMARK  4 active torsions:
REMARK  status: ('A' for Active; 'I' for Inactive)
REMARK    1  A    between atoms: N1_5  and  C5_6 
REMARK    2  A    between atoms: C5_6  and  C6_7 
REMARK    3  A    between atoms: C6_7  and  N2_8 
REMARK    4  A    between atoms: N3_11  and  C9_12 
ROOT
HETATM    1  N2  UNL     1      -0.628  -1.291  -0.165  1.00  0.00    -0.331 N 
HETATM    2  C7  UNL     1      -0.832  -1.546   1.236  1.00  0.00     0.148 C 
HETATM    3  C8  UNL     1      -2.343  -1.495   1.387  1.00  0.00     0.154 C 
HETATM    4  N3  UNL     1      -2.796  -0.747   0.232  1.00  0.00    -0.298 N 
HETATM    5  C15 UNL     1      -1.756  -0.667  -0.724  1.00  0.00     0.325 C 
HETATM    6  O1  UNL     1      -1.770  -0.156  -1.831  1.00  0.00    -0.247 OA
ENDROOT
BRANCH   1   7
HETATM    7  C6  UNL     1       0.697  -1.200  -0.759  1.00  0.00     0.158 C 
BRANCH   7   8
HETATM    8  C5  UNL     1       1.350   0.180  -0.563  1.00  0.00     0.292 C 
BRANCH   8   9
HETATM    9  N1  UNL     1       2.730   0.194  -1.069  1.00  0.00     0.091 N 
HETATM   10  C4  UNL     1       3.345   1.526  -0.853  1.00  0.00     0.283 C 
HETATM   11  C2  UNL     1       4.630   0.802  -0.361  1.00  0.00     0.005 C 
HETATM   12  C1  UNL     1       5.673   0.547  -1.449  1.00  0.00     0.018 C 
HETATM   13  C3  UNL     1       5.257   1.408   0.889  1.00  0.00     0.018 C 
HETATM   14  C16 UNL     1       3.674  -0.393  -0.087  1.00  0.00     0.283 C 
ENDBRANCH   8   9
ENDBRANCH   7   8
ENDBRANCH   1   7
BRANCH   4  15
HETATM   15  C9  UNL     1      -4.131  -0.286   0.081  1.00  0.00     0.040 A 
HETATM   16  C10 UNL     1      -5.099  -0.576   1.060  1.00  0.00     0.030 A 
HETATM   17  C11 UNL     1      -6.420  -0.130   0.935  1.00  0.00     0.004 A 
HETATM   18  C12 UNL     1      -6.798   0.618  -0.174  1.00  0.00     0.024 A 
HETATM   19  C13 UNL     1      -5.854   0.915  -1.151  1.00  0.00     0.036 A 
HETATM   20 CL1  UNL     1      -6.320   1.846  -2.523  1.00  0.00    -0.084 Cl
HETATM   21  C14 UNL     1      -4.534   0.469  -1.028  1.00  0.00     0.053 A 
ENDBRANCH   4  15
TORSDOF 4
