REMARK  13 active torsions:
REMARK  status: ('A' for Active; 'I' for Inactive)
REMARK    1  A    between atoms: O1_2  and  C2_3 
REMARK    2  A    between atoms: C2_3  and  C3_5 
REMARK    3  A    between atoms: C16_18  and  C17_19 
REMARK    4  A    between atoms: C17_19  and  C18_20 
REMARK    5  A    between atoms: C18_20  and  O4_22 
REMARK    6  A    between atoms: C24_32  and  C25_33 
REMARK    7  A    between atoms: C25_33  and  C26_34 
REMARK    8  A    between atoms: C26_34  and  C27_35 
REMARK    9  A    between atoms: C27_35  and  O9_36 
REMARK   10  A    between atoms: C29_39  and  C30_40 
REMARK   11  A    between atoms: C30_40  and  C32_42 
REMARK   12  A    between atoms: C43_53  and  O10_54 
REMARK   13  A    between atoms: C44_55  and  O11_56 
ROOT
HETATM    1  C3  UNL     1       6.383  -0.548   0.165  1.00  0.00     0.020 C 
HETATM    2  C4  UNL     1       5.982   0.241  -0.852  1.00  0.00     0.003 C 
HETATM    3  C5  UNL     1       4.633   0.997  -0.934  1.00  0.00     0.026 C 
HETATM    4  C6  UNL     1       3.972   0.340  -2.145  1.00  0.00    -0.012 C 
HETATM    5  C7  UNL     1       2.886   0.763  -2.801  1.00  0.00     0.002 C 
HETATM    6  C8  UNL     1       1.997   1.828  -2.262  1.00  0.00     0.144 C 
HETATM    7  C9  UNL     1       2.642   3.170  -2.562  1.00  0.00     0.036 C 
HETATM    8  C10 UNL     1       3.751   3.502  -1.530  1.00  0.00     0.009 C 
HETATM    9  C11 UNL     1       4.963   2.508  -1.307  1.00  0.00     0.007 C 
HETATM   10  C12 UNL     1       5.982   3.198  -0.344  1.00  0.00     0.033 C 
HETATM   11  C13 UNL     1       6.203   2.835   1.106  1.00  0.00    -0.030 C 
HETATM   12  C14 UNL     1       5.752   1.869   1.919  1.00  0.00    -0.023 C 
HETATM   13  C15 UNL     1       4.811   0.701   1.666  1.00  0.00     0.047 C 
HETATM   14  C16 UNL     1       5.548  -0.651   1.428  1.00  0.00     0.044 C 
HETATM   15  C19 UNL     1       3.864   1.000   0.476  1.00  0.00     0.149 C 
HETATM   16  O5  UNL     1       2.569   0.427   0.719  1.00  0.00    -0.351 OA
HETATM   17  C20 UNL     1       2.206  -0.856   0.269  1.00  0.00     0.297 C 
HETATM   18  O6  UNL     1       1.586  -0.747  -1.017  1.00  0.00    -0.347 OA
HETATM   19  C21 UNL     1       0.307  -0.093  -0.973  1.00  0.00     0.191 C 
HETATM   20  C22 UNL     1      -0.017   0.437  -2.383  1.00  0.00     0.204 C 
HETATM   21  O7  UNL     1       0.672   1.672  -2.772  1.00  0.00    -0.379 OA
HETATM   22  C23 UNL     1      -0.693  -1.088  -0.299  1.00  0.00     0.148 A 
HETATM   23  O8  UNL     1      -1.488  -1.720  -1.324  1.00  0.00    -0.332 OA
HETATM   24  C24 UNL     1      -2.858  -1.573  -1.305  1.00  0.00     0.075 A 
HETATM   25  C28 UNL     1      -3.494  -0.902  -0.338  1.00  0.00     0.072 A 
HETATM   26  N1  UNL     1      -4.809  -0.629  -0.082  1.00  0.00    -0.357 N 
HETATM   27  C29 UNL     1      -4.964   0.072   1.105  1.00  0.00     0.014 A 
HETATM   28  C38 UNL     1      -3.748   0.330   1.652  1.00  0.00     0.039 A 
HETATM   29  C39 UNL     1      -2.775  -0.276   0.761  1.00  0.00     0.001 A 
HETATM   30  C40 UNL     1      -1.440  -0.343   0.821  1.00  0.00    -0.027 A 
HETATM   31  C41 UNL     1      -0.573   0.224   1.927  1.00  0.00     0.041 C 
HETATM   32  C42 UNL     1       0.571  -0.706   2.365  1.00  0.00     0.050 C 
HETATM   33  C43 UNL     1       1.217  -1.585   1.259  1.00  0.00     0.136 C 
HETATM   34  C44 UNL     1       0.115  -2.234   0.398  1.00  0.00     0.199 C 
HETATM   35  H34 UNL     1      -5.562  -1.136  -0.532  1.00  0.00     0.166 HD
ENDROOT
BRANCH  27  36
HETATM   36  C30 UNL     1      -6.308   0.486   1.656  1.00  0.00     0.035 C 
HETATM   37  C31 UNL     1      -7.216  -0.737   1.859  1.00  0.00     0.017 C 
BRANCH  36  38
HETATM   38  C32 UNL     1      -6.954   1.631   0.820  1.00  0.00    -0.005 C 
HETATM   39  C33 UNL     1      -7.465   1.219  -0.584  1.00  0.00     0.005 C 
HETATM   40  C34 UNL     1      -8.959   1.452  -0.776  1.00  0.00     0.000 C 
HETATM   41  C35 UNL     1      -9.370   2.889  -0.469  1.00  0.00     0.000 C 
HETATM   42  C36 UNL     1      -8.698   3.461   0.785  1.00  0.00     0.000 C 
HETATM   43  C37 UNL     1      -8.029   2.381   1.630  1.00  0.00     0.005 C 
ENDBRANCH  36  38
ENDBRANCH  27  36
BRANCH  24  44
HETATM   44  C25 UNL     1      -3.551  -2.198  -2.490  1.00  0.00     0.069 C 
BRANCH  44  45
HETATM   45  C26 UNL     1      -3.319  -3.708  -2.613  1.00  0.00     0.033 C 
BRANCH  45  46
HETATM   46  C27 UNL     1      -3.882  -4.509  -1.443  1.00  0.00     0.164 C 
BRANCH  46  47
HETATM   47  O9  UNL     1      -5.283  -4.302  -1.326  1.00  0.00    -0.401 OA
HETATM   48  H33 UNL     1      -5.703  -4.712  -2.101  1.00  0.00     0.209 HD
ENDBRANCH  46  47
ENDBRANCH  45  46
ENDBRANCH  44  45
ENDBRANCH  24  44
BRANCH  34  49
HETATM   49  O11 UNL     1      -0.676  -3.131   1.214  1.00  0.00    -0.389 OA
HETATM   50  H57 UNL     1      -1.530  -2.696   1.416  1.00  0.00     0.210 HD
ENDBRANCH  34  49
BRANCH  33  51
HETATM   51  O10 UNL     1       1.944  -2.626   1.949  1.00  0.00    -0.382 OA
HETATM   52  H55 UNL     1       1.270  -3.298   2.184  1.00  0.00     0.210 HD
ENDBRANCH  33  51
BRANCH  14  53
HETATM   53  C17 UNL     1       6.085  -1.370   2.676  1.00  0.00     0.120 C 
BRANCH  53  54
HETATM   54  C18 UNL     1       7.202  -0.791   3.501  1.00  0.00     0.140 C 
HETATM   55  O3  UNL     1       7.192   0.262   4.127  1.00  0.00    -0.650 OA
BRANCH  54  56
HETATM   56  O4  UNL     1       8.206  -1.672   3.683  1.00  0.00    -0.776 OA
HETATM   57  H21 UNL     1       8.851  -1.192   4.242  1.00  0.00     0.167 HD
ENDBRANCH  54  56
ENDBRANCH  53  54
ENDBRANCH  14  53
BRANCH   1  58
HETATM   58  C2  UNL     1       7.599  -1.374  -0.010  1.00  0.00     0.289 C 
HETATM   59  O2  UNL     1       8.451  -1.542   0.842  1.00  0.00    -0.260 OA
BRANCH  58  60
HETATM   60  O1  UNL     1       7.540  -1.999  -1.219  1.00  0.00    -0.323 OA
HETATM   61  C1  UNL     1       8.589  -2.939  -1.449  1.00  0.00     0.213 C 
ENDBRANCH  58  60
ENDBRANCH   1  58
TORSDOF 13
