REMARK  4 active torsions:
REMARK  status: ('A' for Active; 'I' for Inactive)
REMARK    1  A    between atoms: C4_4  and  O1_5 
REMARK    2  A    between atoms: C4_4  and  C5_6 
REMARK    3  A    between atoms: C5_6  and  C6_7 
REMARK    4  A    between atoms: C6_7  and  C8_9 
ROOT
HETATM    1  C8  UNL     1       2.181  -1.516  -0.686  1.00  0.00    -0.001 C 
HETATM    2  C9  UNL     1       1.946  -2.784   0.180  1.00  0.00     0.007 C 
HETATM    3  C10 UNL     1       0.454  -2.755   0.612  1.00  0.00     0.015 C 
HETATM    4  C11 UNL     1      -0.182  -1.634  -0.240  1.00  0.00    -0.013 C 
HETATM    5  C12 UNL     1      -0.523  -2.279  -1.631  1.00  0.00     0.021 C 
HETATM    6  C13 UNL     1      -1.489  -0.976   0.220  1.00  0.00    -0.070 C 
HETATM    7  C14 UNL     1      -2.525  -1.727   0.636  1.00  0.00    -0.022 C 
HETATM    8  C15 UNL     1      -3.933  -1.223   0.720  1.00  0.00     0.034 C 
HETATM    9  C16 UNL     1      -4.138   0.007  -0.193  1.00  0.00     0.013 C 
HETATM   10  C17 UNL     1      -5.643   0.434  -0.336  1.00  0.00     0.018 C 
HETATM   11  C18 UNL     1      -6.376  -0.615  -1.213  1.00  0.00     0.023 C 
HETATM   12  C19 UNL     1      -6.428   0.539   0.981  1.00  0.00     0.023 C 
HETATM   13  C20 UNL     1      -5.748   1.790  -1.052  1.00  0.00     0.135 C 
HETATM   14  O2  UNL     1      -6.645   2.039  -1.860  1.00  0.00    -0.297 OA
HETATM   15  C21 UNL     1      -4.777   2.872  -0.655  1.00  0.00     0.080 C 
HETATM   16  C22 UNL     1      -3.351   2.352  -0.733  1.00  0.00     0.017 C 
HETATM   17  C23 UNL     1      -3.095   1.121   0.168  1.00  0.00    -0.031 C 
HETATM   18  C24 UNL     1      -3.201   1.575   1.653  1.00  0.00     0.016 C 
HETATM   19  C25 UNL     1      -1.614   0.546  -0.005  1.00  0.00     0.024 C 
HETATM   20  C26 UNL     1      -0.830   0.970  -1.269  1.00  0.00     0.010 C 
HETATM   21  C27 UNL     1       0.659   0.526  -1.277  1.00  0.00     0.011 C 
HETATM   22  C28 UNL     1       0.995  -0.594  -0.268  1.00  0.00    -0.029 C 
HETATM   23  C29 UNL     1       1.269   0.012   1.145  1.00  0.00     0.016 C 
ENDROOT
BRANCH   1  24
HETATM   24  C6  UNL     1       3.646  -0.990  -0.786  1.00  0.00    -0.008 C 
HETATM   25  C7  UNL     1       4.489  -2.051  -1.518  1.00  0.00     0.010 C 
BRANCH  24  26
HETATM   26  C5  UNL     1       4.317  -0.547   0.539  1.00  0.00     0.078 C 
BRANCH  26  27
HETATM   27  C4  UNL     1       5.799  -0.127   0.456  1.00  0.00     0.191 A 
HETATM   28  C3  UNL     1       6.228   0.633   1.652  1.00  0.00     0.054 A 
HETATM   29  C2  UNL     1       6.585   1.872   1.320  1.00  0.00     0.015 A 
HETATM   30  C1  UNL     1       7.063   2.994   2.152  1.00  0.00     0.054 C 
HETATM   31  C30 UNL     1       6.417   1.973  -0.134  1.00  0.00     0.291 A 
HETATM   32  O3  UNL     1       6.001   0.775  -0.624  1.00  0.00    -0.276 OA
HETATM   33  O4  UNL     1       6.632   2.971  -0.797  1.00  0.00    -0.260 OA
BRANCH  27  34
HETATM   34  O1  UNL     1       6.627  -1.266   0.327  1.00  0.00    -0.362 OA
HETATM   35  H5  UNL     1       7.542  -0.967   0.451  1.00  0.00     0.213 HD
ENDBRANCH  27  34
ENDBRANCH  26  27
ENDBRANCH  24  26
ENDBRANCH   1  24
TORSDOF 4
