REMARK  7 active torsions:
REMARK  status: ('A' for Active; 'I' for Inactive)
REMARK    1  A    between atoms: S1_2  and  C2_4 
REMARK    2  A    between atoms: C2_4  and  C3_5 
REMARK    3  A    between atoms: C3_5  and  N1_6 
REMARK       I    between atoms: N1_6  and  C4_7 
REMARK       I    between atoms: C4_7  and  N2_9 
REMARK    4  A    between atoms: N2_9  and  C5_10 
REMARK    5  A    between atoms: N2_9  and  N3_13 
REMARK    6  A    between atoms: C5_10  and  C6_11 
REMARK    7  A    between atoms: N3_13  and  O3_15 
ROOT
HETATM    1  N1  UNL     1       0.118  -0.761   0.445  1.00  0.00    -0.341 N 
HETATM    2  C4  UNL     1       1.143  -1.595   0.880  1.00  0.00     0.338 C 
HETATM    3  O2  UNL     1       0.878  -2.691   1.368  1.00  0.00    -0.245 OA
HETATM    4  N2  UNL     1       2.429  -1.080   0.674  1.00  0.00    -0.222 N 
HETATM    5  H8  UNL     1       0.276   0.219   0.634  1.00  0.00     0.164 HD
ENDROOT
BRANCH   1   6
HETATM    6  C3  UNL     1      -1.270  -1.155   0.661  1.00  0.00     0.137 C 
BRANCH   6   7
HETATM    7  C2  UNL     1      -2.242  -0.512  -0.323  1.00  0.00     0.128 C 
BRANCH   7   8
HETATM    8  S1  UNL     1      -2.175   1.308  -0.253  1.00  0.00     0.012 S 
HETATM    9  C1  UNL     1      -3.715   1.592  -1.157  1.00  0.00     0.127 C 
HETATM   10  O1  UNL     1      -2.389   1.719   1.173  1.00  0.00    -0.258 OA
ENDBRANCH   7   8
ENDBRANCH   6   7
ENDBRANCH   1   6
BRANCH   4  11
HETATM   11  C5  UNL     1       2.736   0.148  -0.061  1.00  0.00     0.171 C 
BRANCH  11  12
HETATM   12  C6  UNL     1       2.883   1.340   0.877  1.00  0.00     0.136 C 
HETATM   13 CL1  UNL     1       3.142   2.831  -0.057  1.00  0.00    -0.129 Cl
ENDBRANCH  11  12
ENDBRANCH   4  11
BRANCH   4  14
HETATM   14  N3  UNL     1       3.648  -1.793   1.199  1.00  0.00    -0.204 N 
ATOM     15  H3  UNL     1       4.597  -1.480   0.994  1.00  0.00     0.216 HD
BRANCH  14  16
HETATM   16  O3  UNL     1       3.413  -2.783   1.894  1.00  0.00    -0.274 OA
ATOM     17  H3  UNL     1       4.182  -3.233   2.225  1.00  0.00     0.246 HD
ENDBRANCH  14  16
ENDBRANCH   4  14
TORSDOF 7
