REMARK  11 active torsions:
REMARK  status: ('A' for Active; 'I' for Inactive)
REMARK    1  A    between atoms: C4_4  and  C5_5 
REMARK    2  A    between atoms: C5_5  and  O2_7 
REMARK    3  A    between atoms: O2_7  and  C6_8 
REMARK    4  A    between atoms: C6_8  and  C7_9 
REMARK    5  A    between atoms: C17_19  and  O3_21 
REMARK    6  A    between atoms: C19_22  and  C20_23 
REMARK    7  A    between atoms: C20_23  and  C21_24 
REMARK    8  A    between atoms: C21_24  and  C22_25 
REMARK    9  A    between atoms: C22_25  and  C24_27 
REMARK   10  A    between atoms: C24_27  and  C25_28 
REMARK   11  A    between atoms: C25_28  and  O4_29 
ROOT
HETATM    1  C7  UNL     1       1.848  -0.283  -0.888  1.00  0.00    -0.018 C 
HETATM    2  C8  UNL     1       2.477  -0.262  -2.300  1.00  0.00     0.018 C 
HETATM    3  C9  UNL     1       1.633  -1.767  -0.498  1.00  0.00     0.012 C 
HETATM    4  C10 UNL     1       0.563  -1.918   0.565  1.00  0.00     0.002 C 
HETATM    5  C11 UNL     1      -0.809  -1.527   0.025  1.00  0.00     0.010 C 
HETATM    6  C12 UNL     1      -0.850  -0.255  -0.893  1.00  0.00    -0.033 C 
HETATM    7  C13 UNL     1      -1.021  -0.731  -2.361  1.00  0.00     0.016 C 
HETATM    8  C14 UNL     1       0.498   0.542  -0.755  1.00  0.00     0.004 C 
HETATM    9  C15 UNL     1       0.495   1.830  -1.607  1.00  0.00     0.009 C 
HETATM   10  C16 UNL     1      -0.846   2.564  -1.648  1.00  0.00     0.038 C 
HETATM   11  C17 UNL     1      -1.765   2.222  -0.476  1.00  0.00     0.059 C 
HETATM   12  C18 UNL     1      -2.985   3.157  -0.499  1.00  0.00     0.046 C 
HETATM   13  C19 UNL     1      -2.097   0.677  -0.431  1.00  0.00     0.028 C 
ENDROOT
BRANCH   1  14
HETATM   14  C6  UNL     1       2.888   0.366   0.086  1.00  0.00     0.188 C 
BRANCH  14  15
HETATM   15  O2  UNL     1       4.131  -0.355   0.063  1.00  0.00    -0.317 OA
BRANCH  15  16
HETATM   16  C5  UNL     1       5.066   0.123   0.924  1.00  0.00     0.283 C 
HETATM   17  O1  UNL     1       4.951   1.101   1.640  1.00  0.00    -0.260 OA
BRANCH  16  18
HETATM   18  C4  UNL     1       6.238  -0.785   0.847  1.00  0.00     0.084 C 
HETATM   19  C2  UNL     1       7.443  -0.594   1.418  1.00  0.00    -0.082 C 
HETATM   20  C1  UNL     1       7.867   0.616   2.205  1.00  0.00     0.043 C 
HETATM   21  C3  UNL     1       8.511  -1.650   1.296  1.00  0.00     0.043 C 
ENDBRANCH  16  18
ENDBRANCH  15  16
ENDBRANCH  14  15
ENDBRANCH   1  14
BRANCH  13  22
HETATM   22  C20 UNL     1      -3.460   0.344  -1.117  1.00  0.00     0.009 C 
BRANCH  22  23
HETATM   23  C21 UNL     1      -4.073  -1.042  -0.847  1.00  0.00     0.005 C 
BRANCH  23  24
HETATM   24  C22 UNL     1      -5.117  -1.141   0.294  1.00  0.00    -0.017 C 
HETATM   25  C23 UNL     1      -6.363  -0.299   0.001  1.00  0.00     0.010 C 
BRANCH  24  26
HETATM   26  C24 UNL     1      -4.514  -0.818   1.674  1.00  0.00     0.030 C 
BRANCH  26  27
HETATM   27  C25 UNL     1      -5.447  -1.077   2.856  1.00  0.00     0.164 C 
BRANCH  27  28
HETATM   28  O4  UNL     1      -5.942  -2.408   2.845  1.00  0.00    -0.401 OA
HETATM   29  H44 UNL     1      -5.178  -3.008   2.794  1.00  0.00     0.209 HD
ENDBRANCH  27  28
ENDBRANCH  26  27
ENDBRANCH  24  26
ENDBRANCH  23  24
ENDBRANCH  22  23
ENDBRANCH  13  22
BRANCH  11  30
HETATM   30  O3  UNL     1      -1.073   2.543   0.746  1.00  0.00    -0.390 OA
HETATM   31  H30 UNL     1      -0.833   3.485   0.722  1.00  0.00     0.210 HD
ENDBRANCH  11  30
TORSDOF 11
