REMARK  11 active torsions:
REMARK  status: ('A' for Active; 'I' for Inactive)
REMARK    1  A    between atoms: C7_8  and  C8_9 
REMARK    2  A    between atoms: C8_9  and  C10_11 
REMARK    3  A    between atoms: C10_11  and  O2_12 
REMARK    4  A    between atoms: C16_18  and  O3_20 
REMARK    5  A    between atoms: O3_20  and  C18_21 
REMARK    6  A    between atoms: C18_21  and  C19_23 
REMARK    7  A    between atoms: C19_23  and  C20_24 
REMARK    8  A    between atoms: C19_23  and  O5_26 
REMARK    9  A    between atoms: O5_26  and  C22_27 
REMARK   10  A    between atoms: C22_27  and  C23_29 
REMARK   11  A    between atoms: C23_29  and  C24_30 
ROOT
HETATM    1  C1  UNL     1      -3.227  -4.368  -3.665  1.00  0.00     0.022 C 
HETATM    2  C2  UNL     1      -2.689  -3.636  -2.674  1.00  0.00    -0.019 C 
HETATM    3  C3  UNL     1      -3.406  -2.490  -1.996  1.00  0.00     0.074 C 
HETATM    4  C4  UNL     1      -2.717  -1.129  -2.179  1.00  0.00     0.135 C 
HETATM    5  O1  UNL     1      -1.298  -1.337  -2.079  1.00  0.00    -0.376 OA
HETATM    6  C5  UNL     1      -0.738  -0.594  -0.997  1.00  0.00     0.162 C 
HETATM    7  C6  UNL     1      -1.669   0.618  -0.895  1.00  0.00     0.033 C 
HETATM    8  C7  UNL     1      -1.524   1.559   0.320  1.00  0.00    -0.001 C 
HETATM    9  C11 UNL     1      -2.876   2.234   0.575  1.00  0.00     0.010 C 
HETATM   10  C12 UNL     1      -3.939   1.186   0.910  1.00  0.00     0.034 C 
HETATM   11  C13 UNL     1      -4.068   0.071  -0.113  1.00  0.00    -0.082 C 
HETATM   12  C14 UNL     1      -5.121  -0.756   0.034  1.00  0.00     0.015 C 
HETATM   13  C15 UNL     1      -3.075   0.084  -1.266  1.00  0.00     0.050 C 
HETATM   14  C16 UNL     1      -0.423  -1.563   0.198  1.00  0.00     0.094 C 
HETATM   15  C17 UNL     1      -1.573  -1.782   1.197  1.00  0.00     0.049 C 
HETATM   16  C26 UNL     1       0.080  -2.972  -0.293  1.00  0.00     0.048 C 
HETATM   17  C27 UNL     1      -0.968  -4.006  -0.743  1.00  0.00     0.086 C 
HETATM   18  C28 UNL     1      -1.290  -4.002  -2.234  1.00  0.00     0.155 C 
HETATM   19  O7  UNL     1      -0.453  -4.359  -3.063  1.00  0.00    -0.293 OA
ENDROOT
BRANCH  14  20
HETATM   20  O3  UNL     1       0.609  -0.972   1.071  1.00  0.00    -0.306 OA
BRANCH  20  21
HETATM   21  C18 UNL     1       1.889  -0.777   0.645  1.00  0.00     0.289 C 
HETATM   22  O4  UNL     1       2.291  -0.941  -0.498  1.00  0.00    -0.262 OA
BRANCH  21  23
HETATM   23  C19 UNL     1       2.771  -0.346   1.822  1.00  0.00     0.231 C 
BRANCH  23  24
HETATM   24  C20 UNL     1       2.995  -1.538   2.759  1.00  0.00     0.038 C 
HETATM   25  C21 UNL     1       3.767  -1.144   4.012  1.00  0.00     0.008 C 
ENDBRANCH  23  24
BRANCH  23  26
HETATM   26  O5  UNL     1       4.059   0.085   1.351  1.00  0.00    -0.306 OA
BRANCH  26  27
HETATM   27  C22 UNL     1       4.072   1.332   0.801  1.00  0.00     0.259 C 
HETATM   28  O6  UNL     1       3.117   2.094   0.790  1.00  0.00    -0.265 OA
BRANCH  27  29
HETATM   29  C23 UNL     1       5.443   1.621   0.243  1.00  0.00     0.111 C 
BRANCH  29  30
HETATM   30  C24 UNL     1       5.553   2.999  -0.409  1.00  0.00     0.005 C 
HETATM   31  C25 UNL     1       4.866   3.060  -1.767  1.00  0.00     0.005 C 
ENDBRANCH  29  30
ENDBRANCH  27  29
ENDBRANCH  26  27
ENDBRANCH  23  26
ENDBRANCH  21  23
ENDBRANCH  20  21
ENDBRANCH  14  20
BRANCH   8  32
HETATM   32  C8  UNL     1      -0.325   2.546   0.145  1.00  0.00     0.010 C 
HETATM   33  C9  UNL     1      -0.620   3.719  -0.800  1.00  0.00     0.012 C 
BRANCH  32  34
HETATM   34  C10 UNL     1       0.204   3.077   1.491  1.00  0.00     0.168 C 
BRANCH  34  35
HETATM   35  O2  UNL     1      -0.754   3.885   2.158  1.00  0.00    -0.400 OA
HETATM   36  H15 UNL     1      -0.336   4.207   2.976  1.00  0.00     0.209 HD
ENDBRANCH  34  35
ENDBRANCH  32  34
ENDBRANCH   8  32
TORSDOF 11
