REMARK  9 active torsions:
REMARK  status: ('A' for Active; 'I' for Inactive)
REMARK    1  A    between atoms: C3_3  and  O1_4 
REMARK    2  A    between atoms: N1_14  and  O2_16 
REMARK    3  A    between atoms: O2_16  and  C13_17 
REMARK    4  A    between atoms: C13_17  and  C14_18 
REMARK       I    between atoms: C14_18  and  N2_20 
REMARK    5  A    between atoms: N2_20  and  C15_21 
REMARK    6  A    between atoms: C15_21  and  C16_22 
REMARK    7  A    between atoms: C15_21  and  C18_26 
REMARK    8  A    between atoms: C16_22  and  C17_23 
REMARK    9  A    between atoms: C17_23  and  O5_25 
ROOT
HETATM    1  C1  UNL     1      -7.244   3.183  -1.087  1.00  0.00     0.015 C 
HETATM    2  C2  UNL     1      -7.625   2.081  -0.795  1.00  0.00    -0.078 C 
HETATM    3  C3  UNL     1      -8.147   0.751  -0.418  1.00  0.00     0.128 C 
HETATM    4  C4  UNL     1      -8.586   0.762   1.049  1.00  0.00     0.052 C 
HETATM    5  C5  UNL     1      -7.323   0.436   1.844  1.00  0.00     0.010 C 
HETATM    6  C6  UNL     1      -6.321  -0.251   0.874  1.00  0.00     0.002 C 
HETATM    7  C7  UNL     1      -4.989   0.540   0.796  1.00  0.00    -0.004 C 
HETATM    8  C8  UNL     1      -4.190   0.448   2.117  1.00  0.00     0.010 C 
HETATM    9  C9  UNL     1      -3.352  -0.822   2.244  1.00  0.00     0.035 C 
HETATM   10  C10 UNL     1      -2.444  -0.916   1.045  1.00  0.00    -0.069 C 
HETATM   11  C11 UNL     1      -1.115  -0.777   1.204  1.00  0.00     0.030 C 
HETATM   12  C12 UNL     1      -0.224  -0.629   0.019  1.00  0.00     0.032 C 
HETATM   13  N1  UNL     1       1.065  -0.779  -0.000  1.00  0.00    -0.271 N 
ATOM     14  H1  UNL     1       1.644  -0.661  -0.832  1.00  0.00     0.194 HD
HETATM   15  C25 UNL     1      -0.904  -0.223  -1.267  1.00  0.00     0.060 C 
HETATM   16  C26 UNL     1      -2.112  -1.119  -1.471  1.00  0.00     0.020 C 
HETATM   17  C27 UNL     1      -3.158  -1.042  -0.310  1.00  0.00    -0.016 C 
HETATM   18  C28 UNL     1      -3.903  -2.393  -0.369  1.00  0.00     0.020 C 
HETATM   19  C29 UNL     1      -4.097   0.222  -0.442  1.00  0.00     0.002 C 
HETATM   20  C30 UNL     1      -4.943   0.348  -1.719  1.00  0.00     0.007 C 
HETATM   21  C31 UNL     1      -6.237  -0.455  -1.739  1.00  0.00     0.014 C 
HETATM   22  C32 UNL     1      -7.104  -0.414  -0.461  1.00  0.00     0.003 C 
HETATM   23  C33 UNL     1      -7.854  -1.786  -0.423  1.00  0.00     0.020 C 
ENDROOT
BRANCH   3  24
HETATM   24  O1  UNL     1      -9.278   0.475  -1.236  1.00  0.00    -0.377 OA
HETATM   25  H2  UNL     1      -9.038   0.724  -2.146  1.00  0.00     0.211 HD
ENDBRANCH   3  24
BRANCH  13  26
HETATM   26  O2  UNL     1       1.565  -1.124   1.267  1.00  0.00    -0.271 OA
BRANCH  26  27
HETATM   27  C13 UNL     1       2.971  -1.266   1.188  1.00  0.00     0.303 C 
BRANCH  27  28
HETATM   28  C14 UNL     1       3.746   0.046   1.343  1.00  0.00     0.244 C 
HETATM   29  O3  UNL     1       3.229   1.139   1.554  1.00  0.00    -0.271 OA
HETATM   30  N2  UNL     1       5.121  -0.122   1.225  1.00  0.00    -0.354 N 
HETATM   31  H16 UNL     1       5.483  -1.068   1.240  1.00  0.00     0.162 HD
BRANCH  30  32
HETATM   32  C15 UNL     1       6.053   0.994   1.396  1.00  0.00     0.098 C 
BRANCH  32  33
HETATM   33  C16 UNL     1       6.362   1.240   2.883  1.00  0.00     0.135 C 
BRANCH  33  34
HETATM   34  C17 UNL     1       5.302   2.047   3.576  1.00  0.00     0.141 C 
HETATM   35  O4  UNL     1       4.712   1.723   4.594  1.00  0.00    -0.650 OA
BRANCH  34  36
HETATM   36  O5  UNL     1       5.101   3.251   3.013  1.00  0.00    -0.776 OA
HETATM   37  H20 UNL     1       4.323   3.607   3.491  1.00  0.00     0.167 HD
ENDBRANCH  34  36
ENDBRANCH  33  34
ENDBRANCH  32  33
BRANCH  32  38
HETATM   38  C18 UNL     1       7.359   0.774   0.589  1.00  0.00     0.014 C 
HETATM   39  C19 UNL     1       8.168  -0.460   0.997  1.00  0.00     0.033 C 
HETATM   40  C20 UNL     1       9.494  -0.515   0.240  1.00  0.00     0.169 C 
HETATM   41  O6  UNL     1       9.514   0.306  -0.925  1.00  0.00    -0.381 OA
HETATM   42  C21 UNL     1       8.335   0.268  -1.738  1.00  0.00     0.054 C 
HETATM   43  C22 UNL     1       8.589   1.253  -2.891  1.00  0.00     0.045 C 
HETATM   44  C23 UNL     1       8.143  -1.135  -2.334  1.00  0.00     0.045 C 
HETATM   45  C24 UNL     1       7.096   0.723  -0.929  1.00  0.00     0.044 C 
ENDBRANCH  32  38
ENDBRANCH  30  32
ENDBRANCH  27  28
ENDBRANCH  26  27
ENDBRANCH  13  26
TORSDOF 9
