REMARK  13 active torsions:
REMARK  status: ('A' for Active; 'I' for Inactive)
REMARK    1  A    between atoms: O1_2  and  C2_3 
REMARK    2  A    between atoms: C12_14  and  C13_15 
REMARK    3  A    between atoms: C13_15  and  C15_17 
REMARK    4  A    between atoms: C15_17  and  C16_18 
REMARK    5  A    between atoms: C17_19  and  C18_20 
REMARK    6  A    between atoms: C18_20  and  O3_23 
REMARK    7  A    between atoms: C28_31  and  O4_32 
REMARK    8  A    between atoms: O4_32  and  C29_33 
REMARK    9  A    between atoms: C30_35  and  C31_36 
REMARK   10  A    between atoms: C31_36  and  O6_37 
REMARK   11  A    between atoms: C32_38  and  O7_39 
REMARK   12  A    between atoms: C33_40  and  O8_41 
REMARK   13  A    between atoms: C34_42  and  O9_43 
ROOT
HETATM    1  C2  UNL     1      -0.871  -0.851   1.748  1.00  0.00     0.270 C 
HETATM    2  O2  UNL     1      -1.973  -1.529   1.096  1.00  0.00    -0.344 OA
HETATM    3  C3  UNL     1      -1.944  -1.189  -0.314  1.00  0.00     0.095 C 
HETATM    4  C4  UNL     1      -1.032  -2.248  -0.914  1.00  0.00     0.008 C 
HETATM    5  C5  UNL     1       0.302  -2.163  -0.848  1.00  0.00    -0.021 C 
HETATM    6  C6  UNL     1       0.978  -1.058  -0.078  1.00  0.00     0.030 C 
HETATM    7  C7  UNL     1      -0.065  -0.082   0.641  1.00  0.00     0.024 C 
HETATM    8  C8  UNL     1       0.664   1.144   1.282  1.00  0.00     0.016 C 
HETATM    9  C9  UNL     1       1.818   1.782   0.486  1.00  0.00     0.011 C 
HETATM   10  C10 UNL     1       2.822   0.721   0.022  1.00  0.00    -0.032 C 
HETATM   11  C11 UNL     1       3.441   0.069   1.293  1.00  0.00     0.016 C 
HETATM   12  C12 UNL     1       3.951   1.199  -0.936  1.00  0.00    -0.002 C 
HETATM   13  C21 UNL     1       4.387  -0.112  -1.645  1.00  0.00     0.006 C 
HETATM   14  C22 UNL     1       3.249  -1.141  -1.420  1.00  0.00     0.011 C 
HETATM   15  C23 UNL     1       2.059  -0.300  -0.910  1.00  0.00    -0.029 C 
HETATM   16  C24 UNL     1       1.417   0.336  -2.189  1.00  0.00     0.016 C 
HETATM   17  C25 UNL     1      -1.283   0.212  -0.290  1.00  0.00     0.039 C 
HETATM   18  C26 UNL     1      -2.233   1.312   0.255  1.00  0.00     0.011 C 
HETATM   19  C27 UNL     1      -3.688   0.895   0.419  1.00  0.00     0.033 C 
HETATM   20  C28 UNL     1      -4.158   0.128  -0.800  1.00  0.00     0.136 C 
HETATM   21  C35 UNL     1      -3.388  -1.230  -0.959  1.00  0.00     0.014 C 
HETATM   22  C36 UNL     1      -3.336  -1.478  -2.495  1.00  0.00     0.021 C 
HETATM   23  C37 UNL     1      -4.196  -2.399  -0.334  1.00  0.00     0.021 C 
ENDROOT
BRANCH  20  24
HETATM   24  O4  UNL     1      -5.566  -0.140  -0.759  1.00  0.00    -0.352 OA
BRANCH  24  25
HETATM   25  C29 UNL     1      -6.422   0.949  -1.079  1.00  0.00     0.292 C 
HETATM   26  O5  UNL     1      -6.607   1.834   0.028  1.00  0.00    -0.348 OA
HETATM   27  C30 UNL     1      -7.502   1.389   1.060  1.00  0.00     0.179 C 
HETATM   28  C32 UNL     1      -7.896  -0.095   0.970  1.00  0.00     0.180 C 
HETATM   29  C33 UNL     1      -8.466  -0.409  -0.421  1.00  0.00     0.183 C 
HETATM   30  C34 UNL     1      -7.784   0.397  -1.541  1.00  0.00     0.204 C 
BRANCH  27  31
HETATM   31  C31 UNL     1      -6.878   1.718   2.426  1.00  0.00     0.198 C 
BRANCH  31  32
HETATM   32  O6  UNL     1      -7.802   1.555   3.496  1.00  0.00    -0.398 OA
HETATM   33  H48 UNL     1      -8.247   0.690   3.354  1.00  0.00     0.209 HD
ENDBRANCH  31  32
ENDBRANCH  27  31
BRANCH  28  34
HETATM   34  O7  UNL     1      -8.857  -0.435   1.980  1.00  0.00    -0.390 OA
HETATM   35  H50 UNL     1      -9.727  -0.407   1.522  1.00  0.00     0.210 HD
ENDBRANCH  28  34
BRANCH  29  36
HETATM   36  O8  UNL     1      -9.888  -0.152  -0.402  1.00  0.00    -0.390 OA
HETATM   37  H52 UNL     1     -10.066   0.405  -1.191  1.00  0.00     0.210 HD
ENDBRANCH  29  36
BRANCH  30  38
HETATM   38  O9  UNL     1      -8.665   1.463  -1.957  1.00  0.00    -0.388 OA
HETATM   39  H54 UNL     1      -8.454   2.243  -1.406  1.00  0.00     0.210 HD
ENDBRANCH  30  38
ENDBRANCH  24  25
ENDBRANCH  20  24
BRANCH   1  40
HETATM   40  O1  UNL     1      -0.038  -1.731   2.493  1.00  0.00    -0.365 OA
HETATM   41  C1  UNL     1      -0.757  -2.412   3.510  1.00  0.00     0.204 C 
ENDBRANCH   1  40
BRANCH  12  42
HETATM   42  C13 UNL     1       5.067   2.184  -0.484  1.00  0.00    -0.010 C 
HETATM   43  C14 UNL     1       5.858   2.655  -1.722  1.00  0.00     0.010 C 
BRANCH  42  44
HETATM   44  C15 UNL     1       6.064   1.822   0.641  1.00  0.00     0.031 C 
BRANCH  44  45
HETATM   45  C16 UNL     1       6.962   0.637   0.426  1.00  0.00    -0.027 C 
HETATM   46  C17 UNL     1       8.279   0.727   0.168  1.00  0.00     0.006 C 
BRANCH  46  47
HETATM   47  C18 UNL     1       9.254  -0.409  -0.041  1.00  0.00     0.068 C 
HETATM   48  C19 UNL     1       8.630  -1.806  -0.127  1.00  0.00     0.050 C 
HETATM   49  C20 UNL     1      10.323  -0.384   1.053  1.00  0.00     0.050 C 
BRANCH  47  50
HETATM   50  O3  UNL     1       9.907  -0.153  -1.287  1.00  0.00    -0.387 OA
HETATM   51  H30 UNL     1       9.208  -0.073  -1.960  1.00  0.00     0.211 HD
ENDBRANCH  47  50
ENDBRANCH  46  47
ENDBRANCH  44  45
ENDBRANCH  42  44
ENDBRANCH  12  42
TORSDOF 13
