REMARK  9 active torsions:
REMARK  status: ('A' for Active; 'I' for Inactive)
REMARK    1  A    between atoms: O1_2  and  C2_3 
REMARK    2  A    between atoms: C2_3  and  C3_4 
REMARK    3  A    between atoms: C3_4  and  C4_5 
REMARK    4  A    between atoms: C4_5  and  O2_6 
REMARK    5  A    between atoms: O2_6  and  C5_7 
REMARK    6  A    between atoms: C15_18  and  O4_19 
REMARK    7  A    between atoms: C21_25  and  O5_27 
REMARK    8  A    between atoms: C23_28  and  O6_29 
REMARK    9  A    between atoms: C29_37  and  O8_38 
ROOT
HETATM    1  C5  UNL     1       5.127  -1.849   0.571  1.00  0.00     0.122 C 
HETATM    2  C6  UNL     1       4.736  -1.618   2.046  1.00  0.00     0.033 C 
HETATM    3  C7  UNL     1       3.297  -1.119   2.212  1.00  0.00     0.014 C 
HETATM    4  C8  UNL     1       3.002   0.214   1.422  1.00  0.00    -0.010 C 
HETATM    5  C9  UNL     1       3.659   1.351   2.258  1.00  0.00     0.018 C 
HETATM    6  C10 UNL     1       3.803   0.237   0.075  1.00  0.00     0.073 C 
HETATM    7  C11 UNL     1       4.177  -1.165  -0.421  1.00  0.00     0.045 C 
HETATM    8  C12 UNL     1       3.244   1.108  -1.044  1.00  0.00     0.161 C 
HETATM    9  O3  UNL     1       3.893   1.276  -2.082  1.00  0.00    -0.292 OA
HETATM   10  C13 UNL     1       1.913   1.764  -0.925  1.00  0.00    -0.005 C 
HETATM   11  C14 UNL     1       1.089   1.413   0.082  1.00  0.00    -0.013 C 
HETATM   12  C15 UNL     1      -0.352   1.819  -0.044  1.00  0.00     0.095 C 
HETATM   13  C16 UNL     1      -0.648   3.069  -0.870  1.00  0.00     0.026 C 
HETATM   14  C17 UNL     1      -0.032   2.928  -2.253  1.00  0.00     0.013 C 
HETATM   15  C18 UNL     1       1.488   2.648  -2.101  1.00  0.00     0.043 C 
HETATM   16  C19 UNL     1      -2.184   3.211  -0.723  1.00  0.00     0.016 C 
HETATM   17  C20 UNL     1      -2.574   2.348   0.543  1.00  0.00     0.034 C 
HETATM   18  C21 UNL     1      -3.933   2.687   1.239  1.00  0.00     0.087 C 
HETATM   19  C22 UNL     1      -4.105   4.192   1.534  1.00  0.00     0.049 C 
HETATM   20  C23 UNL     1      -5.145   2.190   0.325  1.00  0.00     0.181 C 
HETATM   21  C24 UNL     1      -5.597   0.688   0.283  1.00  0.00     0.158 C 
HETATM   22  O7  UNL     1      -6.470   0.578  -0.916  1.00  0.00    -0.373 OA
HETATM   23  C25 UNL     1      -5.670   0.015  -2.011  1.00  0.00     0.185 C 
HETATM   24  C26 UNL     1      -4.279  -0.227  -1.425  1.00  0.00     0.028 C 
HETATM   25  C27 UNL     1      -3.520  -1.301  -2.186  1.00  0.00     0.053 C 
HETATM   26  C28 UNL     1      -4.233  -2.654  -2.166  1.00  0.00     0.309 C 
HETATM   27  N1  UNL     1      -5.703  -2.532  -2.065  1.00  0.00     0.128 N 
HETATM   28  C29 UNL     1      -6.261  -1.309  -2.618  1.00  0.00     0.384 C 
HETATM   29  C30 UNL     1      -3.647  -3.532  -1.023  1.00  0.00     0.233 C 
HETATM   30  O9  UNL     1      -4.292  -3.934  -0.054  1.00  0.00    -0.277 OA
HETATM   31  N2  UNL     1      -2.286  -3.835  -1.240  1.00  0.00    -0.243 NA
HETATM   32  C31 UNL     1      -1.712  -4.990  -0.616  1.00  0.00     0.120 A 
HETATM   33  C32 UNL     1      -1.274  -3.610  -0.227  1.00  0.00     0.090 A 
HETATM   34  C33 UNL     1       0.107  -3.175  -0.644  1.00  0.00     0.115 C 
HETATM   35  C34 UNL     1       0.478  -1.950   0.096  1.00  0.00    -0.104 C 
HETATM   36  C35 UNL     1       0.892  -0.935   0.603  1.00  0.00    -0.090 C 
HETATM   37  C36 UNL     1       1.406   0.386   1.184  1.00  0.00     0.062 C 
HETATM   38  C37 UNL     1       0.507   0.685   2.497  1.00  0.00     0.012 C 
HETATM   39  C38 UNL     1       0.872   1.920   3.364  1.00  0.00     0.007 C 
HETATM   40  C39 UNL     1      -0.219   2.986   3.457  1.00  0.00     0.001 C 
HETATM   41  C40 UNL     1      -0.670   3.330   2.041  1.00  0.00     0.013 C 
HETATM   42  C41 UNL     1      -1.188   2.087   1.254  1.00  0.00     0.002 C 
HETATM   43  C42 UNL     1      -1.004   0.822   2.116  1.00  0.00     0.020 C 
HETATM   44  C43 UNL     1      -4.674  -0.485   0.028  1.00  0.00     0.020 C 
HETATM   45  C44 UNL     1      -3.626  -0.857   1.038  1.00  0.00     0.013 C 
HETATM   46  H42 UNL     1      -6.165  -3.370  -2.405  1.00  0.00     0.320 HD
ENDROOT
BRANCH   1  47
HETATM   47  O2  UNL     1       6.437  -1.296   0.364  1.00  0.00    -0.386 OA
BRANCH  47  48
HETATM   48  C4  UNL     1       7.505  -2.149   0.767  1.00  0.00     0.170 C 
BRANCH  48  49
HETATM   49  C3  UNL     1       7.912  -3.142  -0.324  1.00  0.00     0.052 C 
BRANCH  49  50
HETATM   50  C2  UNL     1       8.244  -2.445  -1.644  1.00  0.00     0.169 C 
BRANCH  50  51
HETATM   51  O1  UNL     1       7.048  -2.264  -2.398  1.00  0.00    -0.396 OA
HETATM   52  C1  UNL     1       7.150  -1.168  -3.306  1.00  0.00     0.201 C 
ENDBRANCH  50  51
ENDBRANCH  49  50
ENDBRANCH  48  49
ENDBRANCH  47  48
ENDBRANCH   1  47
BRANCH  12  53
HETATM   53  O4  UNL     1      -0.961   0.721  -0.780  1.00  0.00    -0.384 OA
HETATM   54  H21 UNL     1      -0.293   0.313  -1.355  1.00  0.00     0.211 HD
ENDBRANCH  12  53
BRANCH  18  55
HETATM   55  O5  UNL     1      -4.008   2.035   2.511  1.00  0.00    -0.387 OA
HETATM   56  H33 UNL     1      -4.903   2.212   2.857  1.00  0.00     0.210 HD
ENDBRANCH  18  55
BRANCH  20  57
HETATM   57  O6  UNL     1      -6.349   2.899   0.734  1.00  0.00    -0.390 OA
HETATM   58  H35 UNL     1      -7.066   2.544   0.166  1.00  0.00     0.210 HD
ENDBRANCH  20  57
BRANCH  28  59
HETATM   59  O8  UNL     1      -6.034  -1.327  -4.015  1.00  0.00    -0.366 OA
HETATM   60  H44 UNL     1      -6.623  -2.005  -4.371  1.00  0.00     0.212 HD
ENDBRANCH  28  59
TORSDOF 9
