REMARK  20 active torsions:
REMARK  status: ('A' for Active; 'I' for Inactive)
REMARK    1  A    between atoms: C2_2  and  C3_3 
REMARK    2  A    between atoms: C2_2  and  C28_35 
REMARK    3  A    between atoms: C4_4  and  C5_5 
REMARK    4  A    between atoms: C6_6  and  C7_7 
REMARK    5  A    between atoms: C6_6  and  C9_11 
REMARK    6  A    between atoms: C7_7  and  O1_8 
REMARK    7  A    between atoms: O1_8  and  C8_9 
REMARK    8  A    between atoms: C8_9  and  O2_10 
REMARK    9  A    between atoms: C13_15  and  O3_16 
REMARK   10  A    between atoms: C14_17  and  C15_18 
REMARK   11  A    between atoms: C15_18  and  C16_19 
REMARK   12  A    between atoms: C16_19  and  C17_20 
REMARK   13  A    between atoms: C17_20  and  O4_21 
REMARK   14  A    between atoms: C19_23  and  C21_25 
REMARK   15  A    between atoms: C24_29  and  O6_30 
REMARK   16  A    between atoms: C24_29  and  C25_31 
REMARK   17  A    between atoms: C25_31  and  C26_32 
REMARK   18  A    between atoms: C26_32  and  N1_33 
REMARK   19  A    between atoms: C28_35  and  C29_36 
REMARK   20  A    between atoms: C29_36  and  C30_37 
ROOT
HETATM    1  C9  UNL     1       0.055  -0.058  -1.500  1.00  0.00     0.046 C 
HETATM    2  C10 UNL     1       0.418  -0.154  -0.018  1.00  0.00     0.013 C 
HETATM    3  C11 UNL     1      -0.737   0.550   0.713  1.00  0.00     0.017 C 
HETATM    4  C12 UNL     1      -2.003   0.451  -0.218  1.00  0.00     0.025 C 
HETATM    5  C13 UNL     1      -1.459  -0.404  -1.421  1.00  0.00     0.138 C 
HETATM    6  C14 UNL     1      -2.302   1.957  -0.721  1.00  0.00     0.029 C 
HETATM    7  C18 UNL     1      -2.795   2.835   0.444  1.00  0.00    -0.066 C 
HETATM    8  C19 UNL     1      -2.216   3.993   0.847  1.00  0.00    -0.021 C 
HETATM    9  C20 UNL     1      -2.663   4.809   2.033  1.00  0.00     0.052 C 
HETATM   10  C22 UNL     1      -4.004   2.250   1.145  1.00  0.00     0.038 C 
HETATM   11  C23 UNL     1      -3.727   0.834   1.650  1.00  0.00     0.043 C 
HETATM   12  C24 UNL     1      -3.291  -0.127   0.516  1.00  0.00     0.070 C 
ENDROOT
BRANCH   5  13
HETATM   13  O3  UNL     1      -1.589  -1.806  -1.178  1.00  0.00    -0.394 OA
HETATM   14  H17 UNL     1      -1.093  -2.274  -1.872  1.00  0.00     0.210 HD
ENDBRANCH   5  13
BRANCH   6  15
HETATM   15  C15 UNL     1      -3.253   2.082  -1.949  1.00  0.00     0.012 C 
BRANCH  15  16
HETATM   16  C16 UNL     1      -2.587   2.776  -3.149  1.00  0.00     0.027 C 
BRANCH  16  17
HETATM   17  C17 UNL     1      -3.315   2.489  -4.459  1.00  0.00     0.164 C 
BRANCH  17  18
HETATM   18  O4  UNL     1      -4.620   3.044  -4.458  1.00  0.00    -0.401 OA
HETATM   19  H25 UNL     1      -5.161   2.522  -3.839  1.00  0.00     0.209 HD
ENDBRANCH  17  18
ENDBRANCH  16  17
ENDBRANCH  15  16
ENDBRANCH   6  15
BRANCH  12  20
HETATM   20  O6  UNL     1      -4.378  -0.109  -0.448  1.00  0.00    -0.389 OA
HETATM   21  H34 UNL     1      -5.175  -0.453  -0.009  1.00  0.00     0.210 HD
ENDBRANCH  12  20
BRANCH  12  22
HETATM   22  C25 UNL     1      -3.313  -1.598   1.039  1.00  0.00     0.068 C 
BRANCH  22  23
HETATM   23  C26 UNL     1      -2.243  -2.125   1.993  1.00  0.00     0.272 C 
BRANCH  23  24
HETATM   24  N1  UNL     1      -2.337  -1.538   3.333  1.00  0.00     0.079 N 
HETATM   25  C27 UNL     1      -1.290  -2.063   4.203  1.00  0.00     0.306 C 
HETATM   26  H39 UNL     1      -3.245  -1.767   3.735  1.00  0.00     0.315 HD
ENDBRANCH  23  24
ENDBRANCH  22  23
ENDBRANCH  12  22
BRANCH   1  27
HETATM   27  C6  UNL     1       0.837  -0.824  -2.575  1.00  0.00    -0.050 C 
HETATM   28  C5  UNL     1       1.873  -1.683  -2.460  1.00  0.00     0.005 C 
BRANCH  28  29
HETATM   29  C4  UNL     1       2.572  -2.160  -1.288  1.00  0.00     0.001 C 
HETATM   30  C3  UNL     1       3.538  -3.093  -1.346  1.00  0.00     0.006 C 
BRANCH  30  31
HETATM   31  C2  UNL     1       4.290  -3.631  -0.217  1.00  0.00    -0.067 C 
HETATM   32  C1  UNL     1       5.220  -4.578  -0.433  1.00  0.00     0.019 C 
BRANCH  31  33
HETATM   33  C28 UNL     1       3.995  -3.166   1.196  1.00  0.00     0.041 C 
BRANCH  33  34
HETATM   34  C29 UNL     1       4.638  -1.811   1.530  1.00  0.00     0.032 C 
BRANCH  34  35
HETATM   35  C30 UNL     1       4.223  -1.337   2.899  1.00  0.00    -0.024 C 
HETATM   36  C31 UNL     1       4.985  -1.174   3.999  1.00  0.00    -0.091 C 
HETATM   37  C32 UNL     1       6.459  -1.454   4.091  1.00  0.00     0.042 C 
HETATM   38  C33 UNL     1       4.375  -0.679   5.284  1.00  0.00     0.042 C 
ENDBRANCH  34  35
ENDBRANCH  33  34
ENDBRANCH  31  33
ENDBRANCH  30  31
ENDBRANCH  28  29
BRANCH  27  39
HETATM   39  C7  UNL     1       0.361  -0.520  -3.999  1.00  0.00     0.205 C 
BRANCH  39  40
HETATM   40  O1  UNL     1       0.352   0.886  -4.213  1.00  0.00    -0.363 OA
BRANCH  40  41
HETATM   41  C8  UNL     1       1.405   1.335  -5.044  1.00  0.00     0.334 C 
BRANCH  41  42
HETATM   42  O2  UNL     1       2.662   1.081  -4.460  1.00  0.00    -0.377 OA
HETATM   43  H10 UNL     1       2.650   1.586  -3.630  1.00  0.00     0.212 HD
ENDBRANCH  41  42
ENDBRANCH  40  41
ENDBRANCH  39  40
ENDBRANCH  27  39
ENDBRANCH   1  27
BRANCH   8  44
HETATM   44  C21 UNL     1      -1.025   4.579   0.160  1.00  0.00     0.265 C 
HETATM   45  O5  UNL     1      -0.897   4.659  -1.052  1.00  0.00    -0.302 OA
ENDBRANCH   8  44
TORSDOF 20
