REMARK  13 active torsions:
REMARK  status: ('A' for Active; 'I' for Inactive)
REMARK    1  A    between atoms: O1_2  and  C2_3 
REMARK    2  A    between atoms: C2_3  and  C3_4 
REMARK    3  A    between atoms: C3_4  and  C4_5 
REMARK    4  A    between atoms: C4_5  and  O2_6 
REMARK    5  A    between atoms: O2_6  and  C5_7 
REMARK    6  A    between atoms: C18_21  and  C19_22 
REMARK    7  A    between atoms: C25_28  and  C26_29 
REMARK    8  A    between atoms: C26_29  and  O4_31 
REMARK    9  A    between atoms: C26_29  and  C28_32 
REMARK   10  A    between atoms: C28_32  and  O5_33 
REMARK   11  A    between atoms: C28_32  and  C29_34 
REMARK   12  A    between atoms: C34_41  and  O7_42 
REMARK   13  A    between atoms: C39_47  and  O8_48 
ROOT
HETATM    1  C5  UNL     1       6.445  -0.760   0.154  1.00  0.00     0.122 C 
HETATM    2  C6  UNL     1       5.840   0.346   1.029  1.00  0.00     0.033 C 
HETATM    3  C7  UNL     1       5.064   1.390   0.228  1.00  0.00     0.013 C 
HETATM    4  C8  UNL     1       3.983   0.824  -0.763  1.00  0.00    -0.026 C 
HETATM    5  C9  UNL     1       4.295   1.455  -2.147  1.00  0.00     0.016 C 
HETATM    6  C10 UNL     1       4.095  -0.722  -0.870  1.00  0.00     0.071 C 
HETATM    7  C11 UNL     1       5.561  -1.152  -1.041  1.00  0.00     0.045 C 
HETATM    8  C12 UNL     1       3.499  -1.465   0.323  1.00  0.00     0.154 C 
HETATM    9  O3  UNL     1       3.864  -2.592   0.655  1.00  0.00    -0.293 OA
HETATM   10  C13 UNL     1       2.408  -0.840   1.095  1.00  0.00     0.057 C 
HETATM   11  C14 UNL     1       1.944   0.377   0.785  1.00  0.00    -0.037 C 
HETATM   12  C15 UNL     1       2.545   1.272  -0.298  1.00  0.00     0.026 C 
HETATM   13  C16 UNL     1       1.478   1.486  -1.405  1.00  0.00     0.011 C 
HETATM   14  C17 UNL     1       0.093   1.940  -0.856  1.00  0.00     0.014 C 
HETATM   15  C18 UNL     1      -0.470   0.976   0.239  1.00  0.00     0.005 C 
HETATM   16  C25 UNL     1      -1.605   1.602   1.134  1.00  0.00     0.034 C 
HETATM   17  C37 UNL     1      -1.471   0.851   2.493  1.00  0.00     0.012 C 
HETATM   18  C38 UNL     1      -0.009   0.383   2.616  1.00  0.00     0.044 C 
HETATM   19  C39 UNL     1       0.672   0.942   1.365  1.00  0.00     0.090 C 
ENDROOT
BRANCH  16  20
HETATM   20  C26 UNL     1      -3.079   1.990   0.749  1.00  0.00     0.087 C 
HETATM   21  C27 UNL     1      -3.115   2.885  -0.498  1.00  0.00     0.049 C 
BRANCH  20  22
HETATM   22  O4  UNL     1      -3.507   2.841   1.852  1.00  0.00    -0.387 OA
HETATM   23  H42 UNL     1      -2.975   3.657   1.824  1.00  0.00     0.210 HD
ENDBRANCH  20  22
BRANCH  20  24
HETATM   24  C28 UNL     1      -4.125   0.826   0.692  1.00  0.00     0.181 C 
BRANCH  24  25
HETATM   25  O5  UNL     1      -4.086   0.146  -0.562  1.00  0.00    -0.390 OA
HETATM   26  H44 UNL     1      -4.623   0.697  -1.165  1.00  0.00     0.210 HD
ENDBRANCH  24  25
BRANCH  24  27
HETATM   27  C29 UNL     1      -5.600   1.245   0.932  1.00  0.00     0.158 C 
HETATM   28  O6  UNL     1      -6.095   1.921  -0.279  1.00  0.00    -0.373 OA
HETATM   29  C30 UNL     1      -7.469   1.531  -0.402  1.00  0.00     0.185 C 
HETATM   30  C31 UNL     1      -7.430   0.059  -0.065  1.00  0.00     0.027 C 
HETATM   31  C34 UNL     1      -8.095   1.727  -1.788  1.00  0.00     0.383 C 
HETATM   32  C32 UNL     1      -8.844  -0.497  -0.051  1.00  0.00     0.038 C 
HETATM   33  C35 UNL     1      -6.622   0.097   1.218  1.00  0.00     0.020 C 
HETATM   34  C33 UNL     1      -9.518  -0.214  -1.409  1.00  0.00     0.273 C 
HETATM   35  N1  UNL     1      -9.455   1.202  -1.783  1.00  0.00     0.114 N 
HETATM   36  H52 UNL     1      -9.855   1.355  -2.707  1.00  0.00     0.319 HD
HETATM   37  C36 UNL     1      -6.068  -1.259   1.628  1.00  0.00     0.013 C 
BRANCH  31  38
HETATM   38  O7  UNL     1      -8.145   3.104  -2.111  1.00  0.00    -0.366 OA
HETATM   39  H54 UNL     1      -7.260   3.453  -1.894  1.00  0.00     0.212 HD
ENDBRANCH  31  38
ENDBRANCH  24  27
ENDBRANCH  20  24
ENDBRANCH  16  20
BRANCH  15  40
HETATM   40  C19 UNL     1      -0.740  -0.465  -0.439  1.00  0.00    -0.002 C 
HETATM   41  C20 UNL     1      -1.405  -0.403  -1.847  1.00  0.00     0.005 C 
HETATM   42  C21 UNL     1      -2.040  -1.716  -2.320  1.00  0.00     0.000 C 
HETATM   43  C22 UNL     1      -1.271  -2.921  -1.808  1.00  0.00     0.000 C 
HETATM   44  C23 UNL     1      -1.245  -2.959  -0.284  1.00  0.00     0.000 C 
HETATM   45  C24 UNL     1      -1.399  -1.583   0.383  1.00  0.00     0.005 C 
ENDBRANCH  15  40
BRANCH  19  46
HETATM   46  O8  UNL     1       1.024   2.289   1.769  1.00  0.00    -0.384 OA
HETATM   47  H63 UNL     1       1.763   2.218   2.396  1.00  0.00     0.211 HD
ENDBRANCH  19  46
BRANCH   1  48
HETATM   48  O2  UNL     1       7.701  -0.321  -0.379  1.00  0.00    -0.386 OA
BRANCH  48  49
HETATM   49  C4  UNL     1       8.807  -0.537   0.507  1.00  0.00     0.170 C 
BRANCH  49  50
HETATM   50  C3  UNL     1       9.390  -1.931   0.286  1.00  0.00     0.052 C 
BRANCH  50  51
HETATM   51  C2  UNL     1      10.559  -2.215   1.221  1.00  0.00     0.169 C 
BRANCH  51  52
HETATM   52  O1  UNL     1      10.194  -2.091   2.595  1.00  0.00    -0.396 OA
HETATM   53  C1  UNL     1       9.489  -3.225   3.090  1.00  0.00     0.201 C 
ENDBRANCH  51  52
ENDBRANCH  50  51
ENDBRANCH  49  50
ENDBRANCH  48  49
ENDBRANCH   1  48
TORSDOF 13
