REMARK  6 active torsions:
REMARK  status: ('A' for Active; 'I' for Inactive)
REMARK    1  A    between atoms: C2_2  and  O2_4 
REMARK    2  A    between atoms: O2_4  and  C3_5 
REMARK    3  A    between atoms: C19_23  and  C20_24 
REMARK    4  A    between atoms: C26_32  and  O7_33 
REMARK    5  A    between atoms: C27_34  and  C28_35 
REMARK    6  A    between atoms: C31_40  and  O10_41 
ROOT
HETATM    1  C3  UNL     1       5.468  -1.448  -0.700  1.00  0.00     0.201 C 
HETATM    2  C4  UNL     1       6.963  -1.427  -0.341  1.00  0.00     0.070 C 
HETATM    3  C5  UNL     1       7.222  -0.941   1.089  1.00  0.00     0.123 C 
HETATM    4  C6  UNL     1       8.647  -0.424   1.245  1.00  0.00     0.040 C 
HETATM    5  O3  UNL     1       6.329   0.119   1.414  1.00  0.00    -0.351 OA
HETATM    6  C7  UNL     1       4.959  -0.298   1.520  1.00  0.00     0.325 C 
HETATM    7  O4  UNL     1       4.161   0.882   1.385  1.00  0.00    -0.347 OA
HETATM    8  C8  UNL     1       2.868   0.691   0.812  1.00  0.00     0.158 C 
HETATM    9  C9  UNL     1       1.906   1.673   1.482  1.00  0.00     0.069 C 
HETATM   10  C10 UNL     1       0.485   1.506   0.991  1.00  0.00    -0.065 C 
HETATM   11  C11 UNL     1      -0.210   2.562   0.530  1.00  0.00    -0.022 C 
HETATM   12  C12 UNL     1      -1.630   2.504   0.052  1.00  0.00     0.035 C 
HETATM   13  C13 UNL     1      -2.357   1.209   0.467  1.00  0.00     0.030 C 
HETATM   14  C14 UNL     1      -1.434  -0.010   0.219  1.00  0.00     0.012 C 
HETATM   15  C15 UNL     1      -2.168  -1.356   0.380  1.00  0.00     0.007 C 
HETATM   16  C16 UNL     1      -3.545  -1.236   1.019  1.00  0.00     0.013 C 
HETATM   17  C17 UNL     1      -4.521  -0.200   0.377  1.00  0.00    -0.005 C 
HETATM   18  C18 UNL     1      -5.522   0.161   1.504  1.00  0.00     0.019 C 
HETATM   19  C19 UNL     1      -5.243  -0.814  -0.873  1.00  0.00     0.028 C 
HETATM   20  C24 UNL     1      -4.330  -0.468  -2.054  1.00  0.00     0.013 C 
HETATM   21  C25 UNL     1      -3.713   0.883  -1.730  1.00  0.00     0.040 C 
HETATM   22  C26 UNL     1      -3.753   1.048  -0.191  1.00  0.00     0.070 C 
HETATM   23  C27 UNL     1      -0.091   0.091   1.031  1.00  0.00     0.043 C 
HETATM   24  C29 UNL     1       0.936  -0.906   0.432  1.00  0.00     0.056 C 
HETATM   25  C30 UNL     1       2.366  -0.746   0.961  1.00  0.00     0.156 C 
HETATM   26  O9  UNL     1       3.211  -1.603   0.186  1.00  0.00    -0.341 OA
HETATM   27  C31 UNL     1       4.587  -1.507   0.568  1.00  0.00     0.241 C 
ENDROOT
BRANCH  19  28
HETATM   28  C20 UNL     1      -6.667  -0.379  -1.122  1.00  0.00    -0.045 A 
HETATM   29  C21 UNL     1      -7.138   0.782  -1.579  1.00  0.00     0.087 A 
HETATM   30  C22 UNL     1      -8.594   0.664  -1.635  1.00  0.00     0.283 A 
HETATM   31  O5  UNL     1      -9.347   1.546  -2.007  1.00  0.00    -0.260 OA
HETATM   32  O6  UNL     1      -8.959  -0.578  -1.220  1.00  0.00    -0.314 OA
HETATM   33  C23 UNL     1      -7.791  -1.313  -0.863  1.00  0.00     0.213 A 
ENDBRANCH  19  28
BRANCH  22  34
HETATM   34  O7  UNL     1      -4.517   2.229   0.091  1.00  0.00    -0.389 OA
HETATM   35  H35 UNL     1      -4.187   2.963  -0.453  1.00  0.00     0.210 HD
ENDBRANCH  22  34
BRANCH  23  36
HETATM   36  C28 UNL     1      -0.357  -0.217   2.513  1.00  0.00     0.245 C 
HETATM   37  O8  UNL     1       0.277  -1.036   3.174  1.00  0.00    -0.306 OA
ENDBRANCH  23  36
BRANCH  27  38
HETATM   38  O10 UNL     1       4.881  -2.751   1.227  1.00  0.00    -0.360 OA
HETATM   39  H40 UNL     1       4.212  -2.839   1.926  1.00  0.00     0.213 HD
ENDBRANCH  27  38
BRANCH   1  40
HETATM   40  O2  UNL     1       5.124  -0.264  -1.460  1.00  0.00    -0.310 OA
BRANCH  40  41
HETATM   41  C2  UNL     1       5.416  -0.299  -2.786  1.00  0.00     0.255 C 
HETATM   42  C1  UNL     1       4.981   0.977  -3.439  1.00  0.00     0.126 C 
HETATM   43  O1  UNL     1       5.968  -1.217  -3.372  1.00  0.00    -0.266 OA
ENDBRANCH  40  41
ENDBRANCH   1  40
TORSDOF 6
