REMARK  9 active torsions:
REMARK  status: ('A' for Active; 'I' for Inactive)
REMARK    1  A    between atoms: C2_2  and  O1_3 
REMARK    2  A    between atoms: O1_3  and  C3_4 
REMARK    3  A    between atoms: C14_15  and  O2_16 
REMARK    4  A    between atoms: O2_16  and  C15_17 
REMARK    5  A    between atoms: C21_24  and  O4_25 
REMARK    6  A    between atoms: O4_25  and  C22_26 
REMARK    7  A    between atoms: C24_29  and  O6_30 
REMARK    8  A    between atoms: C25_31  and  O7_32 
REMARK    9  A    between atoms: C26_33  and  O8_34 
ROOT
HETATM    1  C3  UNL     1       7.414   0.200   0.221  1.00  0.00     0.260 C 
HETATM    2  C4  UNL     1       7.048   1.043   1.473  1.00  0.00     0.065 C 
HETATM    3  C5  UNL     1       5.768   0.597   2.229  1.00  0.00    -0.007 C 
HETATM    4  C6  UNL     1       5.213   1.793   2.994  1.00  0.00     0.010 C 
HETATM    5  C7  UNL     1       4.832  -0.104   1.231  1.00  0.00     0.027 C 
HETATM    6  C8  UNL     1       5.086   0.433  -0.186  1.00  0.00     0.130 C 
HETATM    7  C9  UNL     1       3.866  -0.024  -0.988  1.00  0.00     0.042 C 
HETATM    8  C10 UNL     1       2.717   0.283   0.000  1.00  0.00    -0.029 C 
HETATM    9  C11 UNL     1       2.549   1.841   0.054  1.00  0.00     0.016 C 
HETATM   10  C12 UNL     1       1.351  -0.366  -0.332  1.00  0.00     0.006 C 
HETATM   11  C13 UNL     1       0.708   0.231  -1.590  1.00  0.00     0.039 C 
HETATM   12  C14 UNL     1      -0.664  -0.384  -1.883  1.00  0.00     0.138 C 
HETATM   13  C17 UNL     1      -1.667   0.081  -0.792  1.00  0.00     0.035 C 
HETATM   14  C18 UNL     1      -3.165  -0.391  -0.963  1.00  0.00    -0.015 C 
HETATM   15  C19 UNL     1      -3.281  -1.931  -0.992  1.00  0.00     0.018 C 
HETATM   16  C20 UNL     1      -3.769   0.127  -2.294  1.00  0.00     0.018 C 
HETATM   17  C21 UNL     1      -4.031   0.223   0.197  1.00  0.00     0.133 C 
HETATM   18  C27 UNL     1      -3.457  -0.089   1.579  1.00  0.00     0.034 C 
HETATM   19  C28 UNL     1      -2.023   0.406   1.700  1.00  0.00     0.013 C 
HETATM   20  C29 UNL     1      -1.147  -0.217   0.632  1.00  0.00    -0.025 A 
HETATM   21  C30 UNL     1      -0.543  -1.555   0.956  1.00  0.00     0.021 A 
HETATM   22  C31 UNL     1       0.386  -0.348   0.884  1.00  0.00    -0.027 A 
HETATM   23  C32 UNL     1       0.931   0.144   2.249  1.00  0.00     0.011 C 
HETATM   24  C33 UNL     1       2.455   0.260   2.471  1.00  0.00     0.011 C 
HETATM   25  C34 UNL     1       3.282  -0.328   1.338  1.00  0.00    -0.030 C 
HETATM   26  C35 UNL     1       3.122  -1.886   1.443  1.00  0.00     0.016 C 
HETATM   27  O9  UNL     1       6.312  -0.090  -0.656  1.00  0.00    -0.356 OA
ENDROOT
BRANCH  17  28
HETATM   28  O4  UNL     1      -5.368  -0.285   0.085  1.00  0.00    -0.353 OA
BRANCH  28  29
HETATM   29  C22 UNL     1      -6.385   0.569   0.624  1.00  0.00     0.291 C 
HETATM   30  O5  UNL     1      -6.480   0.464   2.044  1.00  0.00    -0.356 OA
HETATM   31  C23 UNL     1      -7.192  -0.698   2.476  1.00  0.00     0.205 C 
HETATM   32  C24 UNL     1      -8.665  -0.645   2.048  1.00  0.00     0.173 C 
HETATM   33  C25 UNL     1      -8.868   0.326   0.883  1.00  0.00     0.182 C 
HETATM   34  C26 UNL     1      -7.709   0.200  -0.092  1.00  0.00     0.204 C 
BRANCH  32  35
HETATM   35  O6  UNL     1      -9.505  -0.240   3.137  1.00  0.00    -0.391 OA
HETATM   36  H39 UNL     1     -10.403  -0.165   2.753  1.00  0.00     0.210 HD
ENDBRANCH  32  35
BRANCH  33  37
HETATM   37  O7  UNL     1     -10.113   0.030   0.230  1.00  0.00    -0.390 OA
HETATM   38  H41 UNL     1     -10.098   0.564  -0.590  1.00  0.00     0.210 HD
ENDBRANCH  33  37
BRANCH  34  39
HETATM   39  O8  UNL     1      -7.953   1.048  -1.229  1.00  0.00    -0.388 OA
HETATM   40  H43 UNL     1      -7.194   0.921  -1.830  1.00  0.00     0.210 HD
ENDBRANCH  34  39
ENDBRANCH  28  29
ENDBRANCH  17  28
BRANCH  12  41
HETATM   41  O2  UNL     1      -1.061   0.104  -3.183  1.00  0.00    -0.316 OA
BRANCH  41  42
HETATM   42  C15 UNL     1      -0.657  -0.648  -4.244  1.00  0.00     0.255 C 
HETATM   43  C16 UNL     1      -1.118  -0.026  -5.527  1.00  0.00     0.126 C 
HETATM   44  O3  UNL     1      -0.001  -1.679  -4.180  1.00  0.00    -0.266 OA
ENDBRANCH  41  42
ENDBRANCH  12  41
BRANCH   1  45
HETATM   45  O1  UNL     1       8.415   0.950  -0.482  1.00  0.00    -0.362 OA
BRANCH  45  46
HETATM   46  C2  UNL     1       9.188   0.183  -1.399  1.00  0.00     0.166 C 
HETATM   47  C1  UNL     1       8.442  -0.140  -2.677  1.00  0.00     0.033 C 
ENDBRANCH  45  46
ENDBRANCH   1  45
TORSDOF 9
