REMARK  6 active torsions:
REMARK  status: ('A' for Active; 'I' for Inactive)
REMARK    1  A    between atoms: O1_2  and  C2_3 
REMARK    2  A    between atoms: C9_12  and  C10_13 
REMARK    3  A    between atoms: C13_16  and  O4_17 
REMARK    4  A    between atoms: O4_17  and  C14_18 
REMARK    5  A    between atoms: C14_18  and  C15_19 
REMARK       I    between atoms: C15_19  and  N1_21 
REMARK    6  A    between atoms: N1_21  and  C16_22 
ROOT
HETATM    1  C10 UNL     1       2.761   0.139  -0.030  1.00  0.00    -0.020 A 
HETATM    2  C11 UNL     1       2.342   0.858  -1.159  1.00  0.00     0.015 A 
HETATM    3  C12 UNL     1       0.980   1.069  -1.412  1.00  0.00     0.037 A 
HETATM    4  C13 UNL     1       0.018   0.562  -0.540  1.00  0.00     0.069 A 
HETATM    5  C23 UNL     1       0.430  -0.156   0.584  1.00  0.00     0.037 A 
HETATM    6  C24 UNL     1       1.788  -0.368   0.839  1.00  0.00     0.015 A 
ENDROOT
BRANCH   4   7
HETATM    7  O4  UNL     1      -1.336   0.692  -0.670  1.00  0.00    -0.342 OA
BRANCH   7   8
HETATM    8  C14 UNL     1      -1.809   1.403  -1.813  1.00  0.00     0.278 C 
BRANCH   8   9
HETATM    9  C15 UNL     1      -3.337   1.443  -1.826  1.00  0.00     0.242 C 
HETATM   10  O5  UNL     1      -3.963   2.247  -2.511  1.00  0.00    -0.271 OA
HETATM   11  N1  UNL     1      -3.936   0.480  -1.040  1.00  0.00    -0.354 N 
HETATM   12  H11 UNL     1      -3.322   0.017  -0.375  1.00  0.00     0.162 HD
BRANCH  11  13
HETATM   13  C16 UNL     1      -5.376   0.435  -0.830  1.00  0.00     0.089 C 
HETATM   14  C17 UNL     1      -5.825   1.512   0.166  1.00  0.00     0.051 C 
HETATM   15  C18 UNL     1      -6.993   1.048   1.026  1.00  0.00     0.171 C 
HETATM   16  O6  UNL     1      -7.885   0.246   0.261  1.00  0.00    -0.381 OA
HETATM   17  C19 UNL     1      -7.337  -1.015  -0.158  1.00  0.00     0.055 C 
HETATM   18  C20 UNL     1      -8.037  -1.358  -1.479  1.00  0.00     0.045 C 
HETATM   19  C21 UNL     1      -7.699  -2.078   0.886  1.00  0.00     0.045 C 
HETATM   20  C22 UNL     1      -5.808  -0.952  -0.356  1.00  0.00     0.062 C 
ENDBRANCH  11  13
ENDBRANCH   8   9
ENDBRANCH   7   8
ENDBRANCH   4   7
BRANCH   1  21
HETATM   21  C9  UNL     1       4.196  -0.078   0.243  1.00  0.00     0.051 A 
HETATM   22  C8  UNL     1       4.742  -1.460   0.386  1.00  0.00     0.299 A 
HETATM   23  O2  UNL     1       6.102  -1.571   0.651  1.00  0.00    -0.271 OA
HETATM   24  O3  UNL     1       4.035  -2.457   0.277  1.00  0.00    -0.259 OA
HETATM   25  C7  UNL     1       6.944  -0.447   0.792  1.00  0.00     0.123 A 
HETATM   26  C2  UNL     1       8.302  -0.666   1.059  1.00  0.00     0.102 A 
HETATM   27  C6  UNL     1       6.414   0.834   0.664  1.00  0.00     0.002 A 
HETATM   28  C3  UNL     1       9.137   0.444   1.200  1.00  0.00     0.040 A 
HETATM   29  C4  UNL     1       8.617   1.738   1.076  1.00  0.00     0.004 A 
HETATM   30  C5  UNL     1       7.260   1.934   0.809  1.00  0.00     0.014 A 
HETATM   31  C25 UNL     1       4.995   0.992   0.386  1.00  0.00     0.032 A 
BRANCH  26  32
HETATM   32  O1  UNL     1       8.697  -1.972   1.161  1.00  0.00    -0.353 OA
HETATM   33  C1  UNL     1      10.070  -2.221   1.430  1.00  0.00     0.210 C 
ENDBRANCH  26  32
ENDBRANCH   1  21
TORSDOF 6
