REMARK  12 active torsions:
REMARK  status: ('A' for Active; 'I' for Inactive)
REMARK    1  A    between atoms: O1_2  and  C2_3 
REMARK    2  A    between atoms: C2_3  and  C5_6 
REMARK    3  A    between atoms: C6_7  and  C7_8 
REMARK    4  A    between atoms: C7_8  and  C8_9 
REMARK    5  A    between atoms: C8_9  and  C10_11 
REMARK    6  A    between atoms: C28_31  and  O4_32 
REMARK    7  A    between atoms: O4_32  and  C29_33 
REMARK    8  A    between atoms: C30_35  and  C31_36 
REMARK    9  A    between atoms: C31_36  and  O6_37 
REMARK   10  A    between atoms: C32_38  and  O7_39 
REMARK   11  A    between atoms: C33_40  and  O8_41 
REMARK   12  A    between atoms: C34_42  and  O9_43 
ROOT
HETATM    1  C10 UNL     1       3.538   1.087  -0.477  1.00  0.00    -0.002 C 
HETATM    2  C11 UNL     1       3.969   1.809   0.837  1.00  0.00     0.006 C 
HETATM    3  C12 UNL     1       2.695   2.063   1.675  1.00  0.00     0.011 C 
HETATM    4  C13 UNL     1       1.587   1.279   0.949  1.00  0.00    -0.028 C 
HETATM    5  C14 UNL     1       1.707  -0.195   1.453  1.00  0.00     0.016 C 
HETATM    6  C15 UNL     1       0.140   1.812   1.171  1.00  0.00     0.035 C 
HETATM    7  C16 UNL     1      -0.305   1.735   2.618  1.00  0.00    -0.021 C 
HETATM    8  C17 UNL     1      -1.477   1.181   2.959  1.00  0.00     0.009 C 
HETATM    9  C18 UNL     1      -2.400   0.536   1.925  1.00  0.00     0.102 C 
HETATM   10  O2  UNL     1      -3.007   1.637   1.226  1.00  0.00    -0.304 OA
HETATM   11  C19 UNL     1      -2.144   2.071   0.246  1.00  0.00     0.270 C 
HETATM   12  O3  UNL     1      -2.346   3.060  -0.440  1.00  0.00    -0.264 OA
HETATM   13  C20 UNL     1      -0.910   1.157   0.194  1.00  0.00     0.062 C 
HETATM   14  C21 UNL     1      -0.388   1.033  -1.264  1.00  0.00     0.022 C 
HETATM   15  C22 UNL     1       1.090   0.630  -1.437  1.00  0.00     0.011 C 
HETATM   16  C23 UNL     1       2.020   1.478  -0.553  1.00  0.00    -0.032 C 
HETATM   17  C24 UNL     1       1.918   2.959  -1.052  1.00  0.00     0.016 C 
HETATM   18  C25 UNL     1      -1.563  -0.114   0.802  1.00  0.00     0.045 C 
HETATM   19  C26 UNL     1      -2.410  -0.910  -0.209  1.00  0.00     0.012 C 
HETATM   20  C27 UNL     1      -3.362  -1.883   0.465  1.00  0.00     0.033 C 
HETATM   21  C28 UNL     1      -4.286  -1.178   1.461  1.00  0.00     0.136 C 
HETATM   22  C35 UNL     1      -3.472  -0.421   2.562  1.00  0.00     0.015 C 
HETATM   23  C36 UNL     1      -2.793  -1.474   3.477  1.00  0.00     0.021 C 
HETATM   24  C37 UNL     1      -4.478   0.371   3.438  1.00  0.00     0.021 C 
ENDROOT
BRANCH  21  25
HETATM   25  O4  UNL     1      -5.134  -0.239   0.797  1.00  0.00    -0.352 OA
BRANCH  25  26
HETATM   26  C29 UNL     1      -6.249  -0.805   0.106  1.00  0.00     0.292 C 
HETATM   27  O5  UNL     1      -5.903  -1.117  -1.240  1.00  0.00    -0.348 OA
HETATM   28  C30 UNL     1      -6.950  -1.853  -1.916  1.00  0.00     0.179 C 
HETATM   29  C32 UNL     1      -8.373  -1.466  -1.465  1.00  0.00     0.180 C 
HETATM   30  C33 UNL     1      -8.416  -0.014  -0.976  1.00  0.00     0.183 C 
HETATM   31  C34 UNL     1      -7.350   0.274   0.099  1.00  0.00     0.204 C 
BRANCH  28  32
HETATM   32  C31 UNL     1      -6.752  -1.590  -3.413  1.00  0.00     0.198 C 
BRANCH  32  33
HETATM   33  O6  UNL     1      -5.420  -1.936  -3.788  1.00  0.00    -0.398 OA
HETATM   34  H46 UNL     1      -4.847  -1.598  -3.073  1.00  0.00     0.209 HD
ENDBRANCH  32  33
ENDBRANCH  28  32
BRANCH  29  35
HETATM   35  O7  UNL     1      -8.777  -2.320  -0.380  1.00  0.00    -0.390 OA
HETATM   36  H48 UNL     1      -9.611  -1.920  -0.045  1.00  0.00     0.210 HD
ENDBRANCH  29  35
BRANCH  30  37
HETATM   37  O8  UNL     1      -9.729   0.268  -0.462  1.00  0.00    -0.390 OA
HETATM   38  H50 UNL     1      -9.591   0.487   0.486  1.00  0.00     0.210 HD
ENDBRANCH  30  37
BRANCH  31  39
HETATM   39  O9  UNL     1      -7.978   0.398   1.395  1.00  0.00    -0.388 OA
HETATM   40  H52 UNL     1      -7.241   0.572   2.019  1.00  0.00     0.210 HD
ENDBRANCH  31  39
ENDBRANCH  25  26
ENDBRANCH  21  25
BRANCH   1  41
HETATM   41  C8  UNL     1       4.446   1.374  -1.713  1.00  0.00    -0.010 C 
HETATM   42  C9  UNL     1       4.254   0.313  -2.810  1.00  0.00     0.010 C 
BRANCH  41  43
HETATM   43  C7  UNL     1       5.960   1.525  -1.412  1.00  0.00     0.031 C 
BRANCH  43  44
HETATM   44  C6  UNL     1       6.642   0.336  -0.795  1.00  0.00    -0.027 C 
HETATM   45  C5  UNL     1       7.597  -0.384  -1.413  1.00  0.00     0.006 C 
BRANCH  45  46
HETATM   46  C2  UNL     1       8.385  -1.524  -0.791  1.00  0.00     0.070 C 
HETATM   47  C3  UNL     1       9.776  -1.650  -1.428  1.00  0.00     0.050 C 
HETATM   48  C4  UNL     1       7.618  -2.833  -1.028  1.00  0.00     0.050 C 
BRANCH  46  49
HETATM   49  O1  UNL     1       8.468  -1.375   0.639  1.00  0.00    -0.382 OA
HETATM   50  C1  UNL     1       9.361  -0.377   1.115  1.00  0.00     0.202 C 
ENDBRANCH  46  49
ENDBRANCH  45  46
ENDBRANCH  43  44
ENDBRANCH  41  43
ENDBRANCH   1  41
TORSDOF 12
