REMARK  4 active torsions:
REMARK  status: ('A' for Active; 'I' for Inactive)
REMARK    1  A    between atoms: C2_2  and  C3_3 
REMARK    2  A    between atoms: C2_2  and  C9_9 
REMARK    3  A    between atoms: C3_3  and  C4_4 
REMARK    4  A    between atoms: C4_4  and  C5_5 
ROOT
HETATM    1  C9  UNL     1       2.564   1.115   1.296  1.00  0.00     0.018 C 
HETATM    2  C10 UNL     1       2.317   2.645   1.267  1.00  0.00     0.010 C 
HETATM    3  C11 UNL     1       0.863   2.847   0.785  1.00  0.00     0.011 C 
HETATM    4  C12 UNL     1       0.151   1.506   1.082  1.00  0.00    -0.032 C 
HETATM    5  C13 UNL     1      -0.117   1.486   2.624  1.00  0.00     0.016 C 
HETATM    6  C14 UNL     1       1.285   0.532   0.665  1.00  0.00     0.002 C 
HETATM    7  C15 UNL     1       0.945  -0.919   0.969  1.00  0.00     0.006 C 
HETATM    8  C16 UNL     1      -0.354  -1.321   0.250  1.00  0.00     0.006 C 
HETATM    9  C17 UNL     1      -1.540  -0.359   0.542  1.00  0.00     0.003 C 
HETATM   10  C18 UNL     1      -2.952  -0.871   0.024  1.00  0.00    -0.035 C 
HETATM   11  C19 UNL     1      -2.960  -1.153  -1.495  1.00  0.00     0.016 C 
HETATM   12  C20 UNL     1      -3.263  -2.239   0.730  1.00  0.00     0.017 C 
HETATM   13  C21 UNL     1      -4.730  -2.505   1.050  1.00  0.00     0.080 C 
HETATM   14  C22 UNL     1      -5.664  -1.771   0.122  1.00  0.00     0.135 C 
HETATM   15  O1  UNL     1      -6.537  -2.379  -0.498  1.00  0.00    -0.297 OA
HETATM   16  C23 UNL     1      -5.526  -0.245   0.070  1.00  0.00     0.017 C 
HETATM   17  C24 UNL     1      -6.516   0.319   1.112  1.00  0.00     0.023 C 
HETATM   18  C25 UNL     1      -5.980   0.258  -1.314  1.00  0.00     0.023 C 
HETATM   19  C26 UNL     1      -4.058   0.162   0.458  1.00  0.00     0.009 C 
HETATM   20  C27 UNL     1      -3.704   1.610   0.068  1.00  0.00     0.007 C 
HETATM   21  C28 UNL     1      -2.362   2.051   0.658  1.00  0.00     0.011 C 
HETATM   22  C29 UNL     1      -1.169   1.154   0.241  1.00  0.00    -0.032 C 
HETATM   23  C30 UNL     1      -0.925   1.399  -1.277  1.00  0.00     0.016 C 
ENDROOT
BRANCH   1  24
HETATM   24  C2  UNL     1       3.878   0.657   0.663  1.00  0.00    -0.084 C 
HETATM   25  C1  UNL     1       4.765  -0.017   1.420  1.00  0.00     0.014 C 
BRANCH  24  26
HETATM   26  C3  UNL     1       4.118   1.006  -0.803  1.00  0.00     0.037 C 
BRANCH  26  27
HETATM   27  C4  UNL     1       5.425   0.547  -1.483  1.00  0.00     0.031 C 
BRANCH  27  28
HETATM   28  C5  UNL     1       5.468  -0.934  -1.766  1.00  0.00    -0.024 C 
HETATM   29  C6  UNL     1       6.531  -1.756  -1.674  1.00  0.00    -0.091 C 
HETATM   30  C7  UNL     1       6.393  -3.225  -1.984  1.00  0.00     0.042 C 
HETATM   31  C8  UNL     1       7.922  -1.338  -1.283  1.00  0.00     0.042 C 
ENDBRANCH  27  28
ENDBRANCH  26  27
ENDBRANCH  24  26
ENDBRANCH   1  24
TORSDOF 4
