REMARK  10 active torsions:
REMARK  status: ('A' for Active; 'I' for Inactive)
REMARK    1  A    between atoms: C2_2  and  O1_3 
REMARK    2  A    between atoms: O1_3  and  C3_4 
REMARK    3  A    between atoms: C3_4  and  C4_6 
REMARK    4  A    between atoms: C5_7  and  C6_8 
REMARK    5  A    between atoms: C12_16  and  C13_17 
REMARK    6  A    between atoms: C23_28  and  O5_29 
REMARK    7  A    between atoms: C27_34  and  C28_35 
REMARK    8  A    between atoms: C28_35  and  O7_36 
REMARK    9  A    between atoms: C38_47  and  C39_48 
REMARK   10  A    between atoms: C39_48  and  O8_49 
ROOT
HETATM    1  C4  UNL     1      -2.235  -3.957   0.261  1.00  0.00     0.165 C 
HETATM    2  C5  UNL     1      -2.972  -3.219  -0.597  1.00  0.00     0.053 C 
HETATM    3  C7  UNL     1      -2.758  -1.768  -0.530  1.00  0.00    -0.002 C 
HETATM    4  C8  UNL     1      -3.760  -0.860  -0.352  1.00  0.00    -0.066 C 
HETATM    5  C9  UNL     1      -5.243  -1.216  -0.433  1.00  0.00     0.042 C 
HETATM    6  C10 UNL     1      -6.188  -0.039  -0.193  1.00  0.00     0.083 C 
HETATM    7  C11 UNL     1      -5.738   1.121  -1.055  1.00  0.00     0.136 C 
HETATM    8  O4  UNL     1      -6.513   1.662  -1.843  1.00  0.00    -0.297 OA
HETATM    9  C12 UNL     1      -4.284   1.562  -0.896  1.00  0.00     0.092 C 
HETATM   10  C21 UNL     1      -3.547   0.599   0.050  1.00  0.00     0.052 C 
HETATM   11  C22 UNL     1      -1.320  -1.418  -0.362  1.00  0.00     0.044 A 
HETATM   12  C23 UNL     1      -0.624  -0.418  -1.052  1.00  0.00     0.091 A 
HETATM   13  C25 UNL     1       0.704  -0.193  -0.733  1.00  0.00     0.013 A 
HETATM   14  C26 UNL     1       1.358  -0.984   0.203  1.00  0.00     0.089 A 
HETATM   15  O6  UNL     1       2.669  -0.626   0.392  1.00  0.00    -0.341 OA
HETATM   16  C27 UNL     1       2.950   0.317  -0.679  1.00  0.00     0.168 C 
HETATM   17  C37 UNL     1       1.618   0.869  -1.217  1.00  0.00     0.080 C 
HETATM   18  C38 UNL     1       0.735  -2.033   0.863  1.00  0.00     0.034 A 
HETATM   19  C40 UNL     1      -0.609  -2.261   0.532  1.00  0.00     0.101 A 
HETATM   20  O9  UNL     1      -1.232  -3.386   1.059  1.00  0.00    -0.302 OA
ENDROOT
BRANCH   2  21
HETATM   21  C6  UNL     1      -3.766  -3.871  -1.670  1.00  0.00     0.273 C 
HETATM   22  O3  UNL     1      -3.478  -4.963  -2.149  1.00  0.00    -0.301 OA
ENDBRANCH   2  21
BRANCH   1  23
HETATM   23  C3  UNL     1      -2.473  -5.411   0.426  1.00  0.00     0.318 C 
HETATM   24  O2  UNL     1      -3.577  -5.904   0.604  1.00  0.00    -0.257 OA
BRANCH  23  25
HETATM   25  O1  UNL     1      -1.283  -6.058   0.387  1.00  0.00    -0.316 OA
BRANCH  25  26
HETATM   26  C2  UNL     1      -1.354  -7.486   0.489  1.00  0.00     0.175 C 
HETATM   27  C1  UNL     1      -1.571  -8.089  -0.886  1.00  0.00     0.034 C 
ENDBRANCH  25  26
ENDBRANCH  23  25
ENDBRANCH   1  23
BRANCH  12  28
HETATM   28  O5  UNL     1      -1.224   0.378  -1.988  1.00  0.00    -0.354 OA
HETATM   29  C24 UNL     1      -1.201  -0.256  -3.267  1.00  0.00     0.210 C 
ENDBRANCH  12  28
BRANCH   9  30
HETATM   30  C13 UNL     1      -4.145   2.997  -0.415  1.00  0.00    -0.046 A 
HETATM   31  C14 UNL     1      -3.206   3.841  -1.025  1.00  0.00     0.010 A 
HETATM   32  C15 UNL     1      -3.019   5.163  -0.605  1.00  0.00     0.031 A 
HETATM   33  C16 UNL     1      -3.801   5.618   0.461  1.00  0.00     0.042 A 
HETATM   34  N1  UNL     1      -3.840   6.849   1.075  1.00  0.00    -0.365 N 
HETATM   35  C19 UNL     1      -4.737   4.812   1.104  1.00  0.00    -0.008 A 
HETATM   36  C17 UNL     1      -4.763   6.847   2.087  1.00  0.00     0.089 A 
HETATM   37  H14 UNL     1      -3.272   7.641   0.806  1.00  0.00     0.165 HD
HETATM   38  C18 UNL     1      -5.337   5.597   2.128  1.00  0.00     0.030 A 
HETATM   39  C20 UNL     1      -4.908   3.484   0.663  1.00  0.00     0.021 A 
ENDBRANCH   9  30
BRANCH  18  40
HETATM   40  C39 UNL     1       1.483  -2.907   1.825  1.00  0.00     0.208 C 
BRANCH  40  41
HETATM   41  O8  UNL     1       2.031  -4.049   1.174  1.00  0.00    -0.396 OA
HETATM   42  H44 UNL     1       2.013  -3.886   0.217  1.00  0.00     0.209 HD
ENDBRANCH  40  41
ENDBRANCH  18  40
BRANCH  16  43
HETATM   43  C28 UNL     1       3.942   1.415  -0.200  1.00  0.00     0.089 C 
HETATM   44  C29 UNL     1       3.341   2.240   0.975  1.00  0.00     0.041 C 
HETATM   45  C30 UNL     1       4.334   2.573   2.092  1.00  0.00     0.004 C 
HETATM   46  C31 UNL     1       5.700   2.977   1.559  1.00  0.00     0.007 C 
HETATM   47  C32 UNL     1       6.315   1.904   0.648  1.00  0.00     0.021 C 
HETATM   48  C33 UNL     1       7.538   1.225   1.299  1.00  0.00     0.274 C 
HETATM   49  C36 UNL     1       5.312   0.815   0.212  1.00  0.00     0.030 C 
HETATM   50  N2  UNL     1       7.970  -0.008   0.630  1.00  0.00     0.083 N 
HETATM   51  C34 UNL     1       7.519  -0.069  -0.760  1.00  0.00     0.270 C 
HETATM   52  H34 UNL     1       7.588  -0.811   1.131  1.00  0.00     0.315 HD
HETATM   53  C35 UNL     1       5.988  -0.057  -0.871  1.00  0.00     0.038 C 
BRANCH  43  54
HETATM   54  O7  UNL     1       4.151   2.299  -1.317  1.00  0.00    -0.387 OA
HETATM   55  H24 UNL     1       4.548   3.125  -0.988  1.00  0.00     0.210 HD
ENDBRANCH  43  54
ENDBRANCH  16  43
TORSDOF 10
