REMARK  13 active torsions:
REMARK  status: ('A' for Active; 'I' for Inactive)
REMARK    1  A    between atoms: O1_2  and  C2_3 
REMARK    2  A    between atoms: C2_3  and  C3_5 
REMARK    3  A    between atoms: C3_5  and  C4_6 
REMARK    4  A    between atoms: C3_5  and  N3_13 
REMARK    5  A    between atoms: C4_6  and  C5_7 
REMARK       I    between atoms: N3_13  and  C8_14 
REMARK    6  A    between atoms: C8_14  and  C9_16 
REMARK    7  A    between atoms: C9_16  and  C10_17 
REMARK    8  A    between atoms: C10_17  and  C11_18 
REMARK    9  A    between atoms: C11_18  and  O5_20 
REMARK   10  A    between atoms: O5_20  and  C12_21 
REMARK   11  A    between atoms: C12_21  and  C13_22 
REMARK   12  A    between atoms: C13_22  and  C14_24 
REMARK   13  A    between atoms: C14_24  and  O7_25 
ROOT
HETATM    1  C13 UNL     1      -0.248   1.881  -0.973  1.00  0.00     0.185 C 
HETATM    2  O6  UNL     1       0.104   2.529  -1.969  1.00  0.00    -0.292 OA
ENDROOT
BRANCH   1   3
HETATM    3  C12 UNL     1       0.478   2.050   0.354  1.00  0.00     0.260 C 
BRANCH   3   4
HETATM    4  O5  UNL     1       1.821   2.506   0.171  1.00  0.00    -0.314 OA
BRANCH   4   5
HETATM    5  C11 UNL     1       2.709   1.524  -0.147  1.00  0.00     0.259 C 
HETATM    6  O4  UNL     1       2.425   0.338  -0.234  1.00  0.00    -0.265 OA
BRANCH   5   7
HETATM    7  C10 UNL     1       4.083   2.112  -0.348  1.00  0.00     0.120 C 
BRANCH   7   8
HETATM    8  C9  UNL     1       5.150   1.206   0.253  1.00  0.00     0.112 C 
BRANCH   8   9
HETATM    9  C8  UNL     1       5.697   0.202  -0.742  1.00  0.00     0.218 C 
HETATM   10  N3  UNL     1       6.644  -0.632  -0.182  1.00  0.00    -0.347 N 
HETATM   11  H10 UNL     1       7.083  -0.314   0.676  1.00  0.00     0.163 HD
HETATM   12  O3  UNL     1       5.362   0.143  -1.918  1.00  0.00    -0.274 OA
BRANCH  10  13
HETATM   13  C3  UNL     1       7.454  -1.518  -1.028  1.00  0.00     0.190 C 
BRANCH  13  14
HETATM   14  C2  UNL     1       8.699  -0.825  -1.613  1.00  0.00     0.281 C 
HETATM   15  O2  UNL     1       9.587  -1.420  -2.216  1.00  0.00    -0.263 OA
BRANCH  14  16
HETATM   16  O1  UNL     1       8.710   0.514  -1.357  1.00  0.00    -0.325 OA
HETATM   17  C1  UNL     1       9.826   1.218  -1.904  1.00  0.00     0.213 C 
ENDBRANCH  14  16
ENDBRANCH  13  14
BRANCH  13  18
HETATM   18  C4  UNL     1       7.876  -2.787  -0.266  1.00  0.00     0.093 C 
BRANCH  18  19
HETATM   19  C5  UNL     1       8.755  -2.507   0.910  1.00  0.00     0.028 A 
HETATM   20  C6  UNL     1       8.479  -2.303   2.244  1.00  0.00     0.114 A 
HETATM   21  N1  UNL     1       9.625  -2.030   2.941  1.00  0.00    -0.360 N 
HETATM   22  C7  UNL     1      10.596  -2.105   2.062  1.00  0.00     0.180 A 
ATOM     23  H1  UNL     1       9.707  -1.814   3.934  1.00  0.00     0.166 HD
HETATM   24  N2  UNL     1      10.123  -2.407   0.817  1.00  0.00    -0.354 N 
HETATM   25  H9  UNL     1      10.681  -2.511  -0.023  1.00  0.00     0.166 HD
ENDBRANCH  18  19
ENDBRANCH  13  18
ENDBRANCH  10  13
ENDBRANCH   8   9
ENDBRANCH   7   8
ENDBRANCH   5   7
ENDBRANCH   4   5
ENDBRANCH   3   4
ENDBRANCH   1   3
BRANCH   1  26
HETATM   26  C14 UNL     1      -1.411   0.873  -1.111  1.00  0.00     0.128 C 
HETATM   27  C15 UNL     1      -0.959  -0.599  -0.979  1.00  0.00     0.047 C 
HETATM   28  C16 UNL     1      -2.206  -1.397  -0.530  1.00  0.00     0.009 C 
HETATM   29  C17 UNL     1      -3.352  -0.388  -0.588  1.00  0.00     0.002 C 
HETATM   30  C18 UNL     1      -4.644  -0.658   0.200  1.00  0.00     0.003 C 
HETATM   31  C31 UNL     1      -2.657   0.956  -0.185  1.00  0.00     0.005 C 
HETATM   32  C19 UNL     1      -5.269  -2.041  -0.065  1.00  0.00     0.010 C 
HETATM   33  C28 UNL     1      -5.635   0.512  -0.095  1.00  0.00     0.072 C 
HETATM   34  C20 UNL     1      -6.614  -1.985  -0.784  1.00  0.00     0.035 C 
HETATM   35  C21 UNL     1      -7.602  -1.017  -0.170  1.00  0.00    -0.067 C 
HETATM   36  C22 UNL     1      -8.921  -1.237  -0.321  1.00  0.00     0.053 C 
HETATM   37  C26 UNL     1      -7.047   0.247   0.509  1.00  0.00    -0.009 C 
HETATM   38  C23 UNL     1      -9.932  -0.256   0.138  1.00  0.00     0.149 C 
HETATM   39  O8  UNL     1     -11.116  -0.584   0.154  1.00  0.00    -0.293 OA
HETATM   40  C24 UNL     1      -9.470   1.110   0.594  1.00  0.00     0.084 C 
HETATM   41  C25 UNL     1      -8.025   1.409   0.190  1.00  0.00     0.022 C 
HETATM   42  C27 UNL     1      -6.984   0.017   2.038  1.00  0.00     0.021 C 
HETATM   43  C29 UNL     1      -4.941   1.831   0.271  1.00  0.00     0.133 C 
HETATM   44  O9  UNL     1      -5.373   2.625   1.103  1.00  0.00    -0.297 OA
HETATM   45  C30 UNL     1      -3.635   2.107  -0.469  1.00  0.00     0.091 C 
HETATM   46  C32 UNL     1      -2.285   0.992   1.322  1.00  0.00     0.019 C 
BRANCH  26  47
HETATM   47  O7  UNL     1      -1.887   1.031  -2.473  1.00  0.00    -0.381 OA
HETATM   48  H17 UNL     1      -1.145   1.421  -2.985  1.00  0.00     0.211 HD
ENDBRANCH  26  47
ENDBRANCH   1  26
TORSDOF 13
