REMARK  10 active torsions:
REMARK  status: ('A' for Active; 'I' for Inactive)
REMARK    1  A    between atoms: C12_14  and  C13_15 
REMARK    2  A    between atoms: C13_15  and  C15_17 
REMARK    3  A    between atoms: C15_17  and  C16_18 
REMARK    4  A    between atoms: C16_18  and  C17_19 
REMARK    5  A    between atoms: C18_20  and  C20_22 
REMARK    6  A    between atoms: C20_22  and  O3_23 
REMARK    7  A    between atoms: C26_29  and  C27_30 
REMARK    8  A    between atoms: C27_30  and  C28_31 
REMARK    9  A    between atoms: C28_31  and  C29_32 
REMARK   10  A    between atoms: C29_32  and  O5_34 
ROOT
HETATM    1  C1  UNL     1      -6.084  -1.758  -1.382  1.00  0.00     0.025 C 
HETATM    2  C2  UNL     1      -5.392  -1.682  -0.239  1.00  0.00     0.015 C 
HETATM    3  C3  UNL     1      -5.482  -2.762   0.775  1.00  0.00     0.289 C 
HETATM    4  O1  UNL     1      -6.316  -3.646   0.823  1.00  0.00    -0.260 OA
HETATM    5  O2  UNL     1      -4.475  -2.563   1.673  1.00  0.00    -0.311 OA
HETATM    6  C4  UNL     1      -3.587  -1.536   1.190  1.00  0.00     0.142 C 
HETATM    7  C5  UNL     1      -2.404  -2.203   0.500  1.00  0.00     0.039 C 
HETATM    8  C6  UNL     1      -1.417  -1.246  -0.186  1.00  0.00     0.006 C 
HETATM    9  C7  UNL     1      -2.099  -0.060  -0.929  1.00  0.00    -0.027 A 
HETATM   10  C8  UNL     1      -1.107   0.976  -1.515  1.00  0.00     0.011 C 
HETATM   11  C9  UNL     1       0.133   1.306  -0.666  1.00  0.00     0.011 C 
HETATM   12  C10 UNL     1       0.802   0.033  -0.134  1.00  0.00    -0.032 C 
HETATM   13  C11 UNL     1       1.338  -0.783  -1.347  1.00  0.00     0.016 C 
HETATM   14  C12 UNL     1       1.952   0.249   0.900  1.00  0.00    -0.002 C 
HETATM   15  C21 UNL     1       1.949  -1.068   1.718  1.00  0.00     0.006 C 
HETATM   16  C22 UNL     1       0.615  -1.787   1.414  1.00  0.00     0.011 C 
HETATM   17  C23 UNL     1      -0.273  -0.723   0.740  1.00  0.00    -0.032 C 
HETATM   18  C24 UNL     1      -0.887   0.139   1.889  1.00  0.00     0.016 C 
HETATM   19  C25 UNL     1      -3.153  -0.401  -1.959  1.00  0.00     0.022 A 
HETATM   20  C26 UNL     1      -3.625   0.229  -0.672  1.00  0.00    -0.021 A 
HETATM   21  C31 UNL     1      -4.431  -0.661   0.282  1.00  0.00     0.063 C 
ENDROOT
BRANCH  14  22
HETATM   22  C13 UNL     1       3.347   0.759   0.409  1.00  0.00    -0.014 C 
HETATM   23  C14 UNL     1       3.992   1.571   1.550  1.00  0.00     0.010 C 
BRANCH  22  24
HETATM   24  C15 UNL     1       4.328  -0.345  -0.058  1.00  0.00     0.008 C 
BRANCH  24  25
HETATM   25  C16 UNL     1       5.368   0.107  -1.095  1.00  0.00     0.028 C 
BRANCH  25  26
HETATM   26  C17 UNL     1       6.542   0.862  -0.537  1.00  0.00    -0.022 C 
HETATM   27  C18 UNL     1       7.712   0.339  -0.112  1.00  0.00    -0.064 C 
HETATM   28  C19 UNL     1       8.017  -1.132  -0.048  1.00  0.00     0.045 C 
BRANCH  27  29
HETATM   29  C20 UNL     1       8.827   1.227   0.378  1.00  0.00     0.197 C 
BRANCH  29  30
HETATM   30  O3  UNL     1       9.924   1.125  -0.517  1.00  0.00    -0.397 OA
HETATM   31  H29 UNL     1       9.565   1.276  -1.409  1.00  0.00     0.209 HD
ENDBRANCH  29  30
ENDBRANCH  27  29
ENDBRANCH  25  26
ENDBRANCH  24  25
ENDBRANCH  22  24
ENDBRANCH  14  22
BRANCH  20  32
HETATM   32  C27 UNL     1      -4.099   1.693  -0.663  1.00  0.00     0.021 C 
BRANCH  32  33
HETATM   33  C28 UNL     1      -5.414   1.953  -1.402  1.00  0.00     0.112 C 
BRANCH  33  34
HETATM   34  C29 UNL     1      -6.669   1.637  -0.627  1.00  0.00     0.258 C 
HETATM   35  O4  UNL     1      -7.641   1.069  -1.116  1.00  0.00    -0.265 OA
BRANCH  34  36
HETATM   36  O5  UNL     1      -6.607   2.101   0.648  1.00  0.00    -0.326 OA
HETATM   37  C30 UNL     1      -7.751   1.778   1.438  1.00  0.00     0.213 C 
ENDBRANCH  34  36
ENDBRANCH  33  34
ENDBRANCH  32  33
ENDBRANCH  20  32
TORSDOF 10
