REMARK  13 active torsions:
REMARK  status: ('A' for Active; 'I' for Inactive)
REMARK    1  A    between atoms: C3_3  and  O1_4 
REMARK    2  A    between atoms: N1_14  and  O2_16 
REMARK    3  A    between atoms: O2_16  and  C13_17 
REMARK    4  A    between atoms: C13_17  and  C14_18 
REMARK       I    between atoms: C14_18  and  N2_20 
REMARK    5  A    between atoms: N2_20  and  C15_21 
REMARK    6  A    between atoms: C15_21  and  C16_22 
REMARK    7  A    between atoms: C15_21  and  C21_32 
REMARK       I    between atoms: C16_22  and  N3_24 
REMARK    8  A    between atoms: N3_24  and  C17_25 
REMARK    9  A    between atoms: C17_25  and  C18_26 
REMARK   10  A    between atoms: C17_25  and  C19_28 
REMARK   11  A    between atoms: C18_26  and  S1_27 
REMARK   12  A    between atoms: C19_28  and  C20_29 
REMARK   13  A    between atoms: C20_29  and  O6_31 
ROOT
HETATM    1  C1  UNL     1     -10.661   0.156  -1.216  1.00  0.00     0.015 C 
HETATM    2  C2  UNL     1      -9.534   0.555  -1.333  1.00  0.00    -0.078 C 
HETATM    3  C3  UNL     1      -8.160   1.054  -1.494  1.00  0.00     0.128 C 
HETATM    4  C4  UNL     1      -8.029   2.549  -1.102  1.00  0.00     0.052 C 
HETATM    5  C5  UNL     1      -6.604   2.729  -0.537  1.00  0.00     0.010 C 
HETATM    6  C6  UNL     1      -5.934   1.376  -0.761  1.00  0.00     0.002 C 
HETATM    7  C7  UNL     1      -4.618   1.047  -0.040  1.00  0.00    -0.004 C 
HETATM    8  C8  UNL     1      -4.602   1.339   1.473  1.00  0.00     0.010 C 
HETATM    9  C9  UNL     1      -3.806   0.331   2.294  1.00  0.00     0.035 C 
HETATM   10  C10 UNL     1      -2.560  -0.045   1.550  1.00  0.00    -0.069 C 
HETATM   11  C11 UNL     1      -1.346   0.314   2.011  1.00  0.00     0.030 C 
HETATM   12  C12 UNL     1      -0.105   0.004   1.256  1.00  0.00     0.032 C 
HETATM   13  N1  UNL     1       1.038   0.240   1.836  1.00  0.00    -0.271 N 
ATOM     14  H1  UNL     1       1.144   0.663   2.758  1.00  0.00     0.194 HD
HETATM   15  C24 UNL     1      -0.233  -0.586  -0.138  1.00  0.00     0.060 C 
HETATM   16  C25 UNL     1      -1.627  -0.394  -0.726  1.00  0.00     0.020 C 
HETATM   17  C26 UNL     1      -2.777  -0.794   0.239  1.00  0.00    -0.016 C 
HETATM   18  C27 UNL     1      -2.687  -2.309   0.530  1.00  0.00     0.020 C 
HETATM   19  C28 UNL     1      -4.148  -0.390  -0.447  1.00  0.00     0.002 C 
HETATM   20  C29 UNL     1      -5.292  -1.435  -0.347  1.00  0.00     0.007 C 
HETATM   21  C30 UNL     1      -6.570  -1.007  -1.093  1.00  0.00     0.014 C 
HETATM   22  C31 UNL     1      -7.089   0.353  -0.599  1.00  0.00     0.003 C 
HETATM   23  C32 UNL     1      -7.622   0.192   0.849  1.00  0.00     0.020 C 
ENDROOT
BRANCH   3  24
HETATM   24  O1  UNL     1      -7.808   0.933  -2.874  1.00  0.00    -0.377 OA
HETATM   25  H2  UNL     1      -8.525   1.345  -3.388  1.00  0.00     0.211 HD
ENDBRANCH   3  24
BRANCH  13  26
HETATM   26  O2  UNL     1       2.105  -0.168   1.017  1.00  0.00    -0.271 OA
BRANCH  26  27
HETATM   27  C13 UNL     1       3.332   0.070   1.690  1.00  0.00     0.303 C 
BRANCH  27  28
HETATM   28  C14 UNL     1       4.445  -0.731   1.025  1.00  0.00     0.244 C 
HETATM   29  O3  UNL     1       4.344  -1.290  -0.066  1.00  0.00    -0.271 OA
HETATM   30  N2  UNL     1       5.619  -0.778   1.754  1.00  0.00    -0.346 N 
HETATM   31  H16 UNL     1       5.781  -0.059   2.449  1.00  0.00     0.163 HD
BRANCH  30  32
HETATM   32  C15 UNL     1       6.782  -1.547   1.289  1.00  0.00     0.180 C 
BRANCH  32  33
HETATM   33  C16 UNL     1       7.563  -0.654   0.290  1.00  0.00     0.241 C 
HETATM   34  O4  UNL     1       8.658  -0.152   0.535  1.00  0.00    -0.271 OA
HETATM   35  N3  UNL     1       6.904  -0.461  -0.909  1.00  0.00    -0.353 N 
HETATM   36  H18 UNL     1       5.922  -0.745  -0.937  1.00  0.00     0.163 HD
BRANCH  35  37
HETATM   37  C17 UNL     1       7.389   0.469  -1.933  1.00  0.00     0.103 C 
BRANCH  37  38
HETATM   38  C18 UNL     1       7.242   1.942  -1.480  1.00  0.00     0.096 C 
BRANCH  38  39
HETATM   39  S1  UNL     1       5.526   2.440  -1.094  1.00  0.00    -0.180 SA
HETATM   40  H22 UNL     1       5.815   3.698  -0.726  1.00  0.00     0.101 HD
ENDBRANCH  38  39
ENDBRANCH  37  38
BRANCH  37  41
HETATM   41  C19 UNL     1       6.702   0.160  -3.271  1.00  0.00     0.136 C 
BRANCH  41  42
HETATM   42  C20 UNL     1       7.325   0.916  -4.410  1.00  0.00     0.141 C 
HETATM   43  O5  UNL     1       8.414   1.465  -4.422  1.00  0.00    -0.650 OA
BRANCH  42  44
HETATM   44  O6  UNL     1       6.545   0.917  -5.507  1.00  0.00    -0.776 OA
HETATM   45  H25 UNL     1       7.059   1.416  -6.176  1.00  0.00     0.167 HD
ENDBRANCH  42  44
ENDBRANCH  41  42
ENDBRANCH  37  41
ENDBRANCH  35  37
ENDBRANCH  32  33
BRANCH  32  46
HETATM   46  C21 UNL     1       7.653  -2.009   2.482  1.00  0.00     0.009 C 
HETATM   47  C22 UNL     1       6.814  -2.726   3.549  1.00  0.00     0.012 C 
HETATM   48  C23 UNL     1       8.766  -2.957   2.020  1.00  0.00     0.012 C 
ENDBRANCH  32  46
ENDBRANCH  30  32
ENDBRANCH  27  28
ENDBRANCH  26  27
ENDBRANCH  13  26
TORSDOF 13
