REMARK  6 active torsions:
REMARK  status: ('A' for Active; 'I' for Inactive)
REMARK    1  A    between atoms: C4_4  and  C5_5 
REMARK    2  A    between atoms: C5_5  and  C6_6 
REMARK    3  A    between atoms: C6_6  and  C7_7 
REMARK    4  A    between atoms: C7_7  and  C9_9 
REMARK    5  A    between atoms: C12_12  and  C13_13 
REMARK    6  A    between atoms: C13_13  and  O2_15 
ROOT
HETATM    1  C9  UNL     1       2.156  -1.096  -0.432  1.00  0.00    -0.001 C 
HETATM    2  C10 UNL     1       1.937  -2.484   0.219  1.00  0.00     0.007 C 
HETATM    3  C11 UNL     1       0.421  -2.599   0.500  1.00  0.00     0.026 C 
HETATM    4  C12 UNL     1      -0.219  -1.437  -0.298  1.00  0.00     0.076 C 
HETATM    5  C14 UNL     1      -1.598  -0.920   0.082  1.00  0.00    -0.057 C 
HETATM    6  C15 UNL     1      -1.949   0.369  -0.150  1.00  0.00    -0.067 C 
HETATM    7  C16 UNL     1      -0.938   1.342  -0.796  1.00  0.00     0.036 C 
HETATM    8  C17 UNL     1       0.537   0.896  -0.938  1.00  0.00     0.015 C 
HETATM    9  C18 UNL     1       0.859  -0.319  -0.065  1.00  0.00    -0.018 C 
HETATM   10  C19 UNL     1       0.910   0.194   1.408  1.00  0.00     0.017 C 
HETATM   11  C20 UNL     1      -3.335   0.950   0.281  1.00  0.00    -0.015 C 
HETATM   12  C21 UNL     1      -3.043   1.913   1.467  1.00  0.00     0.020 C 
HETATM   13  C22 UNL     1      -3.969   1.784  -0.870  1.00  0.00     0.021 C 
HETATM   14  C23 UNL     1      -4.862   0.954  -1.772  1.00  0.00     0.080 C 
HETATM   15  C24 UNL     1      -6.065   0.465  -1.000  1.00  0.00     0.135 C 
HETATM   16  O3  UNL     1      -7.150   0.325  -1.570  1.00  0.00    -0.297 OA
HETATM   17  C25 UNL     1      -5.886   0.153   0.492  1.00  0.00     0.018 C 
HETATM   18  C26 UNL     1      -6.423   1.348   1.305  1.00  0.00     0.023 C 
HETATM   19  C27 UNL     1      -6.798  -1.048   0.844  1.00  0.00     0.023 C 
HETATM   20  C28 UNL     1      -4.368  -0.151   0.807  1.00  0.00     0.013 C 
HETATM   21  C29 UNL     1      -3.984  -1.573   0.345  1.00  0.00     0.011 C 
HETATM   22  C30 UNL     1      -2.545  -1.915   0.674  1.00  0.00     0.036 C 
ENDROOT
BRANCH   1  23
HETATM   23  C7  UNL     1       3.537  -0.420  -0.188  1.00  0.00    -0.014 C 
HETATM   24  C8  UNL     1       4.534  -0.984  -1.218  1.00  0.00     0.010 C 
BRANCH  23  25
HETATM   25  C6  UNL     1       4.114  -0.584   1.240  1.00  0.00     0.008 C 
BRANCH  25  26
HETATM   26  C5  UNL     1       5.045   0.555   1.691  1.00  0.00     0.028 C 
BRANCH  26  27
HETATM   27  C4  UNL     1       6.432   0.479   1.117  1.00  0.00    -0.025 C 
HETATM   28  C2  UNL     1       7.085   1.400   0.380  1.00  0.00    -0.091 C 
HETATM   29  C1  UNL     1       6.534   2.734  -0.043  1.00  0.00     0.042 C 
HETATM   30  C3  UNL     1       8.488   1.133  -0.104  1.00  0.00     0.042 C 
ENDBRANCH  26  27
ENDBRANCH  25  26
ENDBRANCH  23  25
ENDBRANCH   1  23
BRANCH   4  31
HETATM   31  C13 UNL     1      -0.394  -1.898  -1.778  1.00  0.00     0.153 C 
HETATM   32  O1  UNL     1      -0.260  -1.234  -2.795  1.00  0.00    -0.649 OA
BRANCH  31  33
HETATM   33  O2  UNL     1      -0.817  -3.175  -1.908  1.00  0.00    -0.776 OA
HETATM   34  H21 UNL     1      -0.930  -3.277  -2.876  1.00  0.00     0.167 HD
ENDBRANCH  31  33
ENDBRANCH   4  31
TORSDOF 6
