REMARK  16 active torsions:
REMARK  status: ('A' for Active; 'I' for Inactive)
REMARK    1  A    between atoms: C2_2  and  C3_3 
REMARK    2  A    between atoms: C2_2  and  C4_5 
REMARK    3  A    between atoms: C12_13  and  O2_14 
REMARK    4  A    between atoms: O2_14  and  C13_15 
REMARK    5  A    between atoms: C13_15  and  C14_17 
REMARK    6  A    between atoms: C14_17  and  C16_19 
REMARK    7  A    between atoms: C16_19  and  O4_20 
REMARK    8  A    between atoms: C16_19  and  C17_21 
REMARK    9  A    between atoms: C19_23  and  C20_24 
REMARK   10  A    between atoms: C20_24  and  C21_25 
REMARK   11  A    between atoms: C20_24  and  C22_27 
REMARK   12  A    between atoms: C21_25  and  O5_26 
REMARK   13  A    between atoms: C22_27  and  C23_28 
REMARK   14  A    between atoms: C23_28  and  C24_29 
REMARK   15  A    between atoms: C24_29  and  C25_30 
REMARK   16  A    between atoms: C25_30  and  C26_31 
ROOT
HETATM    1  C13 UNL     1      -0.898  -0.653  -3.213  1.00  0.00     0.266 C 
HETATM    2  O3  UNL     1      -1.485  -0.447  -4.267  1.00  0.00    -0.265 OA
ENDROOT
BRANCH   1   3
HETATM    3  O2  UNL     1      -1.391  -0.351  -1.979  1.00  0.00    -0.312 OA
BRANCH   3   4
HETATM    4  C12 UNL     1      -2.673   0.308  -1.960  1.00  0.00     0.170 C 
HETATM    5  C11 UNL     1      -2.451   1.803  -2.172  1.00  0.00     0.036 C 
HETATM    6  C10 UNL     1      -3.699   2.652  -1.940  1.00  0.00     0.007 C 
HETATM    7  C8  UNL     1      -4.704   2.075  -0.917  1.00  0.00    -0.007 C 
HETATM    8  C6  UNL     1      -4.025   1.144   0.139  1.00  0.00    -0.003 C 
HETATM    9  C9  UNL     1      -5.537   3.218  -0.328  1.00  0.00     0.011 C 
HETATM   10  C5  UNL     1      -5.092   0.531   1.104  1.00  0.00     0.030 C 
HETATM   11  C7  UNL     1      -2.988   1.909   0.996  1.00  0.00     0.019 C 
HETATM   12  C28 UNL     1      -3.355  -0.003  -0.634  1.00  0.00     0.129 A 
HETATM   13  C4  UNL     1      -4.505  -0.478   2.120  1.00  0.00     0.094 C 
HETATM   14  C30 UNL     1      -3.513  -1.477   1.519  1.00  0.00     0.167 C 
HETATM   15  C29 UNL     1      -3.113  -1.311   0.102  1.00  0.00     0.230 A 
HETATM   16  O7  UNL     1      -2.984  -2.362   2.185  1.00  0.00    -0.294 OA
HETATM   17  O6  UNL     1      -4.212  -1.165  -0.796  1.00  0.00    -0.358 OA
BRANCH  13  18
HETATM   18  C2  UNL     1      -5.539  -1.243   2.921  1.00  0.00    -0.018 C 
HETATM   19  C1  UNL     1      -6.786  -1.568   2.538  1.00  0.00     0.022 C 
BRANCH  18  20
HETATM   20  C3  UNL     1      -5.124  -1.665   4.297  1.00  0.00     0.265 C 
HETATM   21  O1  UNL     1      -5.917  -2.008   5.166  1.00  0.00    -0.302 OA
ENDBRANCH  18  20
ENDBRANCH  13  18
ENDBRANCH   3   4
ENDBRANCH   1   3
BRANCH   1  22
HETATM   22  C14 UNL     1       0.449  -1.341  -3.124  1.00  0.00     0.114 C 
HETATM   23  C15 UNL     1       0.249  -2.747  -2.558  1.00  0.00     0.023 C 
BRANCH  22  24
HETATM   24  C16 UNL     1       1.433  -0.486  -2.309  1.00  0.00     0.159 C 
BRANCH  24  25
HETATM   25  O4  UNL     1       1.598   0.781  -2.947  1.00  0.00    -0.390 OA
HETATM   26  H24 UNL     1       2.336   1.232  -2.500  1.00  0.00     0.210 HD
ENDBRANCH  24  25
BRANCH  24  27
HETATM   27  C17 UNL     1       2.822  -1.094  -2.147  1.00  0.00    -0.058 C 
HETATM   28  C18 UNL     1       3.573  -1.370  -3.426  1.00  0.00     0.046 C 
HETATM   29  C19 UNL     1       3.325  -1.317  -0.914  1.00  0.00    -0.015 C 
BRANCH  29  30
HETATM   30  C20 UNL     1       4.689  -1.888  -0.563  1.00  0.00     0.032 C 
BRANCH  30  31
HETATM   31  C21 UNL     1       4.643  -2.681   0.759  1.00  0.00     0.172 C 
BRANCH  31  32
HETATM   32  O5  UNL     1       3.909  -3.893   0.604  1.00  0.00    -0.400 OA
HETATM   33  H32 UNL     1       3.059  -3.677   0.186  1.00  0.00     0.209 HD
ENDBRANCH  31  32
ENDBRANCH  30  31
BRANCH  30  34
HETATM   34  C22 UNL     1       5.793  -0.807  -0.551  1.00  0.00     0.010 C 
BRANCH  34  35
HETATM   35  C23 UNL     1       5.838   0.177   0.630  1.00  0.00     0.001 C 
BRANCH  35  36
HETATM   36  C24 UNL     1       4.657   1.148   0.696  1.00  0.00     0.000 C 
BRANCH  36  37
HETATM   37  C25 UNL     1       4.900   2.344   1.625  1.00  0.00    -0.000 C 
BRANCH  37  38
HETATM   38  C26 UNL     1       4.432   2.151   3.070  1.00  0.00    -0.005 C 
HETATM   39  C27 UNL     1       5.174   1.072   3.837  1.00  0.00     0.005 C 
ENDBRANCH  37  38
ENDBRANCH  36  37
ENDBRANCH  35  36
ENDBRANCH  34  35
ENDBRANCH  30  34
ENDBRANCH  29  30
ENDBRANCH  24  27
ENDBRANCH  22  24
ENDBRANCH   1  22
TORSDOF 16
