REMARK  10 active torsions:
REMARK  status: ('A' for Active; 'I' for Inactive)
REMARK    1  A    between atoms: C5_5  and  C6_6 
REMARK    2  A    between atoms: C6_6  and  C8_8 
REMARK    3  A    between atoms: C8_8  and  O1_9 
REMARK    4  A    between atoms: O1_9  and  C9_10 
REMARK    5  A    between atoms: C14_17  and  O4_18 
REMARK    6  A    between atoms: C17_21  and  O5_22 
REMARK    7  A    between atoms: C20_25  and  O6_27 
REMARK    8  A    between atoms: O6_27  and  C22_28 
REMARK    9  A    between atoms: C22_28  and  C23_30 
REMARK   10  A    between atoms: C23_30  and  C24_31 
ROOT
HETATM    1  C1  UNL     1      -0.607   2.007  -3.698  1.00  0.00     0.015 C 
HETATM    2  C2  UNL     1      -1.265   1.669  -2.576  1.00  0.00    -0.082 C 
HETATM    3  C3  UNL     1      -2.391   0.666  -2.652  1.00  0.00     0.034 C 
HETATM    4  C4  UNL     1      -2.612  -0.065  -1.325  1.00  0.00     0.010 C 
HETATM    5  C5  UNL     1      -1.287  -0.374  -0.594  1.00  0.00    -0.001 C 
HETATM    6  C11 UNL     1      -0.511   0.952  -0.308  1.00  0.00     0.033 C 
HETATM    7  C12 UNL     1       1.015   0.945  -0.584  1.00  0.00     0.162 C 
HETATM    8  O3  UNL     1       1.399   2.328  -0.795  1.00  0.00    -0.373 OA
HETATM    9  C13 UNL     1       0.213   3.128  -0.987  1.00  0.00     0.163 C 
HETATM   10  C14 UNL     1       0.059   4.116   0.209  1.00  0.00     0.178 C 
HETATM   11  C15 UNL     1       0.377   3.570   1.592  1.00  0.00    -0.030 C 
HETATM   12  C16 UNL     1      -0.586   3.413   2.520  1.00  0.00     0.019 C 
HETATM   13  C17 UNL     1       1.839   3.294   1.889  1.00  0.00     0.149 C 
HETATM   14  C18 UNL     1       2.190   1.964   2.558  1.00  0.00     0.039 C 
HETATM   15  C19 UNL     1       1.672   0.656   1.948  1.00  0.00     0.044 C 
HETATM   16  C20 UNL     1       1.967   0.274   0.462  1.00  0.00     0.093 C 
HETATM   17  C21 UNL     1       3.449   0.567   0.148  1.00  0.00     0.049 C 
HETATM   18  C26 UNL     1      -0.956   2.150  -1.162  1.00  0.00     0.052 C 
ENDROOT
BRANCH   5  19
HETATM   19  C6  UNL     1      -1.502  -1.227   0.702  1.00  0.00     0.010 C 
HETATM   20  C7  UNL     1      -2.493  -0.610   1.698  1.00  0.00     0.012 C 
BRANCH  19  21
HETATM   21  C8  UNL     1      -1.864  -2.699   0.395  1.00  0.00     0.183 C 
BRANCH  21  22
HETATM   22  O1  UNL     1      -3.213  -2.864  -0.065  1.00  0.00    -0.321 OA
BRANCH  22  23
HETATM   23  C9  UNL     1      -4.117  -3.328   0.838  1.00  0.00     0.254 C 
HETATM   24  C10 UNL     1      -5.461  -3.463   0.193  1.00  0.00     0.126 C 
HETATM   25  O2  UNL     1      -3.889  -3.603   2.008  1.00  0.00    -0.266 OA
ENDBRANCH  22  23
ENDBRANCH  21  22
ENDBRANCH  19  21
ENDBRANCH   5  19
BRANCH  16  26
HETATM   26  O6  UNL     1       1.791  -1.187   0.475  1.00  0.00    -0.308 OA
BRANCH  26  27
HETATM   27  C22 UNL     1       2.091  -1.964  -0.601  1.00  0.00     0.259 C 
HETATM   28  O7  UNL     1       2.337  -1.561  -1.726  1.00  0.00    -0.265 OA
BRANCH  27  29
HETATM   29  C23 UNL     1       2.072  -3.417  -0.177  1.00  0.00     0.111 C 
BRANCH  29  30
HETATM   30  C24 UNL     1       2.539  -4.373  -1.273  1.00  0.00     0.005 C 
HETATM   31  C25 UNL     1       4.042  -4.307  -1.512  1.00  0.00     0.005 C 
ENDBRANCH  29  30
ENDBRANCH  27  29
ENDBRANCH  26  27
ENDBRANCH  16  26
BRANCH  10  32
HETATM   32  O4  UNL     1       0.913   5.254   0.005  1.00  0.00    -0.389 OA
HETATM   33  H21 UNL     1       1.761   4.913  -0.332  1.00  0.00     0.210 HD
ENDBRANCH  10  32
BRANCH  13  34
HETATM   34  O5  UNL     1       2.311   4.338   2.751  1.00  0.00    -0.391 OA
HETATM   35  H25 UNL     1       1.835   5.151   2.498  1.00  0.00     0.210 HD
ENDBRANCH  13  34
TORSDOF 10
