REMARK  6 active torsions:
REMARK  status: ('A' for Active; 'I' for Inactive)
REMARK    1  A    between atoms: C2_2  and  C30_32 
REMARK    2  A    between atoms: C3_3  and  C4_4 
REMARK    3  A    between atoms: C4_4  and  C5_6 
REMARK    4  A    between atoms: C5_6  and  C6_7 
REMARK    5  A    between atoms: C6_7  and  C8_9 
REMARK    6  A    between atoms: C30_32  and  O4_34 
ROOT
HETATM    1  C8  UNL     1       2.104   0.278   0.558  1.00  0.00    -0.001 C 
HETATM    2  C9  UNL     1       1.944  -0.200   2.034  1.00  0.00     0.007 C 
HETATM    3  C10 UNL     1       0.438  -0.258   2.344  1.00  0.00     0.015 C 
HETATM    4  C11 UNL     1      -0.224   0.539   1.202  1.00  0.00    -0.013 C 
HETATM    5  C12 UNL     1      -0.099   2.045   1.601  1.00  0.00     0.021 C 
HETATM    6  C13 UNL     1      -1.701   0.310   0.888  1.00  0.00    -0.070 C 
HETATM    7  C14 UNL     1      -2.524  -0.353   1.716  1.00  0.00    -0.022 C 
HETATM    8  C15 UNL     1      -3.995  -0.490   1.513  1.00  0.00     0.034 C 
HETATM    9  C16 UNL     1      -4.602   0.499   0.484  1.00  0.00     0.013 C 
HETATM   10  C17 UNL     1      -6.124   0.199   0.195  1.00  0.00     0.018 C 
HETATM   11  C18 UNL     1      -6.912   1.524   0.073  1.00  0.00     0.023 C 
HETATM   12  C19 UNL     1      -6.833  -0.617   1.296  1.00  0.00     0.023 C 
HETATM   13  C20 UNL     1      -6.268  -0.606  -1.102  1.00  0.00     0.135 C 
HETATM   14  O2  UNL     1      -7.305  -0.590  -1.768  1.00  0.00    -0.297 OA
HETATM   15  C21 UNL     1      -5.126  -1.516  -1.488  1.00  0.00     0.080 C 
HETATM   16  C22 UNL     1      -3.764  -0.823  -1.517  1.00  0.00     0.017 C 
HETATM   17  C23 UNL     1      -3.700   0.557  -0.806  1.00  0.00    -0.031 C 
HETATM   18  C24 UNL     1      -4.201   1.638  -1.803  1.00  0.00     0.016 C 
HETATM   19  C25 UNL     1      -2.212   0.963  -0.401  1.00  0.00     0.024 C 
HETATM   20  C26 UNL     1      -1.204   0.825  -1.583  1.00  0.00     0.010 C 
HETATM   21  C27 UNL     1       0.286   0.968  -1.222  1.00  0.00     0.011 C 
HETATM   22  C28 UNL     1       0.663   0.091  -0.016  1.00  0.00    -0.029 C 
HETATM   23  C29 UNL     1       0.449  -1.407  -0.397  1.00  0.00     0.016 C 
ENDROOT
BRANCH   1  24
HETATM   24  C6  UNL     1       3.319  -0.405  -0.140  1.00  0.00    -0.007 C 
HETATM   25  C7  UNL     1       3.465   0.019  -1.607  1.00  0.00     0.011 C 
BRANCH  24  26
HETATM   26  C5  UNL     1       4.630  -0.068   0.613  1.00  0.00     0.087 C 
BRANCH  26  27
HETATM   27  C4  UNL     1       5.812  -0.935   0.201  1.00  0.00     0.150 C 
HETATM   28  O1  UNL     1       5.678  -2.044  -0.306  1.00  0.00    -0.293 OA
BRANCH  27  29
HETATM   29  C3  UNL     1       7.161  -0.380   0.516  1.00  0.00     0.063 C 
HETATM   30  C2  UNL     1       8.313  -0.764  -0.064  1.00  0.00     0.015 C 
HETATM   31  C1  UNL     1       8.483  -1.756  -1.174  1.00  0.00     0.055 C 
BRANCH  30  32
HETATM   32  C30 UNL     1       9.525  -0.089   0.456  1.00  0.00     0.171 C 
HETATM   33  O3  UNL     1       9.551   0.892   1.179  1.00  0.00    -0.646 OA
BRANCH  32  34
HETATM   34  O4  UNL     1      10.658  -0.686   0.057  1.00  0.00    -0.773 OA
HETATM   35  H44 UNL     1      11.367  -0.155   0.475  1.00  0.00     0.167 HD
ENDBRANCH  32  34
ENDBRANCH  30  32
ENDBRANCH  27  29
ENDBRANCH  26  27
ENDBRANCH  24  26
ENDBRANCH   1  24
TORSDOF 6
