REMARK  13 active torsions:
REMARK  status: ('A' for Active; 'I' for Inactive)
REMARK    1  A    between atoms: C2_2  and  C3_3 
REMARK    2  A    between atoms: C2_2  and  C14_14 
REMARK    3  A    between atoms: C4_4  and  C5_5 
REMARK    4  A    between atoms: C6_6  and  C8_8 
REMARK    5  A    between atoms: C8_8  and  C9_9 
REMARK    6  A    between atoms: C9_9  and  C10_10 
REMARK    7  A    between atoms: C18_18  and  C19_19 
REMARK    8  A    between atoms: C19_19  and  C20_20 
REMARK    9  A    between atoms: C20_20  and  C21_21 
REMARK   10  A    between atoms: C21_21  and  O1_22 
REMARK   11  A    between atoms: C23_24  and  C25_26 
REMARK   12  A    between atoms: C28_30  and  O3_32 
REMARK   13  A    between atoms: C30_33  and  O4_34 
ROOT
HETATM    1  C14 UNL     1      -0.767  -2.466   0.162  1.00  0.00     0.047 C 
HETATM    2  C15 UNL     1      -1.812  -3.589   0.065  1.00  0.00     0.013 C 
HETATM    3  C16 UNL     1      -3.115  -2.862  -0.214  1.00  0.00     0.017 C 
HETATM    4  C17 UNL     1      -3.055  -1.522   0.596  1.00  0.00     0.024 C 
HETATM    5  C18 UNL     1      -3.540  -0.352  -0.385  1.00  0.00     0.029 C 
HETATM    6  C22 UNL     1      -4.230   0.797   0.371  1.00  0.00    -0.066 C 
HETATM    7  C23 UNL     1      -3.812   2.051   0.659  1.00  0.00    -0.021 C 
HETATM    8  C24 UNL     1      -4.675   3.155   1.215  1.00  0.00     0.052 C 
HETATM    9  C26 UNL     1      -5.572   0.306   0.918  1.00  0.00     0.038 C 
HETATM   10  C27 UNL     1      -5.487  -1.144   1.439  1.00  0.00     0.042 C 
HETATM   11  C28 UNL     1      -4.054  -1.562   1.854  1.00  0.00     0.065 C 
HETATM   12  C29 UNL     1      -4.135  -2.914   2.588  1.00  0.00     0.047 C 
HETATM   13  C30 UNL     1      -1.537  -1.419   1.014  1.00  0.00     0.138 C 
ENDROOT
BRANCH   5  14
HETATM   14  C19 UNL     1      -2.813  -0.065  -1.738  1.00  0.00     0.012 C 
BRANCH  14  15
HETATM   15  C20 UNL     1      -1.526   0.747  -1.826  1.00  0.00     0.027 C 
BRANCH  15  16
HETATM   16  C21 UNL     1      -0.773   0.492  -3.132  1.00  0.00     0.164 C 
BRANCH  16  17
HETATM   17  O1  UNL     1      -1.611   0.721  -4.255  1.00  0.00    -0.401 OA
HETATM   18  H32 UNL     1      -1.833   1.670  -4.268  1.00  0.00     0.209 HD
ENDBRANCH  16  17
ENDBRANCH  15  16
ENDBRANCH  14  15
ENDBRANCH   5  14
BRANCH  11  19
HETATM   19  O3  UNL     1      -3.596  -0.605   2.837  1.00  0.00    -0.389 OA
HETATM   20  H44 UNL     1      -4.246  -0.594   3.565  1.00  0.00     0.210 HD
ENDBRANCH  11  19
BRANCH  13  21
HETATM   21  O4  UNL     1      -1.327  -1.710   2.397  1.00  0.00    -0.394 OA
HETATM   22  H46 UNL     1      -1.914  -1.098   2.888  1.00  0.00     0.210 HD
ENDBRANCH  13  21
BRANCH   1  23
HETATM   23  C2  UNL     1       0.619  -2.906   0.656  1.00  0.00    -0.061 C 
HETATM   24  C1  UNL     1       0.896  -4.174   1.012  1.00  0.00     0.019 C 
BRANCH  23  25
HETATM   25  C3  UNL     1       1.733  -1.957   0.730  1.00  0.00     0.007 C 
HETATM   26  C4  UNL     1       1.777  -0.684   0.308  1.00  0.00     0.001 C 
BRANCH  26  27
HETATM   27  C5  UNL     1       2.975   0.124   0.421  1.00  0.00     0.002 C 
HETATM   28  C6  UNL     1       3.142   1.406   0.035  1.00  0.00    -0.084 C 
HETATM   29  C7  UNL     1       2.091   2.293  -0.571  1.00  0.00     0.043 C 
BRANCH  28  30
HETATM   30  C8  UNL     1       4.501   2.062   0.213  1.00  0.00     0.037 C 
BRANCH  30  31
HETATM   31  C9  UNL     1       5.329   2.017  -1.078  1.00  0.00     0.031 C 
BRANCH  31  32
HETATM   32  C10 UNL     1       6.722   2.546  -0.858  1.00  0.00    -0.024 C 
HETATM   33  C11 UNL     1       7.885   1.871  -0.928  1.00  0.00    -0.091 C 
HETATM   34  C12 UNL     1       9.194   2.570  -0.660  1.00  0.00     0.042 C 
HETATM   35  C13 UNL     1       8.023   0.411  -1.268  1.00  0.00     0.042 C 
ENDBRANCH  31  32
ENDBRANCH  30  31
ENDBRANCH  28  30
ENDBRANCH  26  27
ENDBRANCH  23  25
ENDBRANCH   1  23
BRANCH   7  36
HETATM   36  C25 UNL     1      -2.389   2.462   0.543  1.00  0.00     0.265 C 
HETATM   37  O2  UNL     1      -2.037   3.619   0.344  1.00  0.00    -0.302 OA
ENDBRANCH   7  36
TORSDOF 13
