REMARK  5 active torsions:
REMARK  status: ('A' for Active; 'I' for Inactive)
REMARK    1  A    between atoms: C2_2  and  C3_3 
REMARK    2  A    between atoms: C6_6  and  C7_7 
REMARK    3  A    between atoms: C7_7  and  O1_9 
REMARK    4  A    between atoms: C14_17  and  O4_18 
REMARK    5  A    between atoms: C23_30  and  O6_31 
ROOT
HETATM    1  C3  UNL     1       2.661  -2.064  -1.202  1.00  0.00     0.008 C 
HETATM    2  C4  UNL     1       2.592  -0.687  -0.590  1.00  0.00    -0.023 C 
HETATM    3  C5  UNL     1       2.704   0.451  -1.294  1.00  0.00     0.004 C 
HETATM    4  C6  UNL     1       2.490   1.847  -0.752  1.00  0.00     0.182 C 
HETATM    5  O2  UNL     1       1.691   1.806   0.448  1.00  0.00    -0.308 OA
HETATM    6  C9  UNL     1       0.344   1.684   0.256  1.00  0.00     0.276 C 
HETATM    7  O3  UNL     1      -0.196   1.576  -0.843  1.00  0.00    -0.264 OA
HETATM    8  C10 UNL     1      -0.448   1.864   1.584  1.00  0.00     0.095 C 
HETATM    9  C11 UNL     1       0.338   1.421   2.829  1.00  0.00     0.036 C 
HETATM   10  C12 UNL     1      -0.561   3.385   1.624  1.00  0.00     0.002 C 
HETATM   11  C13 UNL     1      -1.590   4.174   1.938  1.00  0.00     0.053 C 
HETATM   12  C14 UNL     1      -2.855   3.655   2.421  1.00  0.00     0.140 C 
HETATM   13  N1  UNL     1      -3.465   2.546   2.345  1.00  0.00    -0.333 N 
ATOM     14  H1  UNL     1      -4.361   2.470   2.826  1.00  0.00     0.168 HD
HETATM   15  C15 UNL     1      -3.017   1.441   1.668  1.00  0.00     0.097 C 
HETATM   16  C16 UNL     1      -1.749   1.061   1.415  1.00  0.00     0.045 C 
HETATM   17  C17 UNL     1      -1.530  -0.359   0.946  1.00  0.00     0.194 C 
HETATM   18  O5  UNL     1      -0.476  -0.931   1.190  1.00  0.00    -0.287 OA
HETATM   19  C18 UNL     1      -2.593  -1.071   0.217  1.00  0.00     0.046 A 
HETATM   20  C19 UNL     1      -3.889  -0.591   0.367  1.00  0.00     0.032 A 
HETATM   21  C20 UNL     1      -4.977  -1.224  -0.257  1.00  0.00     0.026 A 
HETATM   22  C21 UNL     1      -4.790  -2.378  -1.018  1.00  0.00    -0.027 A 
HETATM   23  C22 UNL     1      -5.965  -3.072  -1.646  1.00  0.00     0.051 C 
HETATM   24  C23 UNL     1      -3.500  -2.905  -1.108  1.00  0.00     0.086 A 
HETATM   25  C24 UNL     1      -2.390  -2.252  -0.524  1.00  0.00     0.059 A 
HETATM   26  C25 UNL     1      -1.090  -2.949  -0.690  1.00  0.00     0.163 C 
HETATM   27  O7  UNL     1      -1.081  -4.158  -0.441  1.00  0.00    -0.292 OA
HETATM   28  C26 UNL     1       0.087  -2.251  -1.339  1.00  0.00     0.084 C 
HETATM   29  C27 UNL     1       1.397  -2.855  -0.811  1.00  0.00     0.016 C 
HETATM   30  C28 UNL     1      -4.161   0.545   1.256  1.00  0.00     0.210 C 
HETATM   31  O8  UNL     1      -5.318   0.758   1.610  1.00  0.00    -0.285 OA
ENDROOT
BRANCH   4  32
HETATM   32  C7  UNL     1       3.846   2.529  -0.443  1.00  0.00     0.147 C 
HETATM   33  C8  UNL     1       3.664   3.883   0.236  1.00  0.00     0.042 C 
BRANCH  32  34
HETATM   34  O1  UNL     1       4.579   2.739  -1.655  1.00  0.00    -0.393 OA
HETATM   35  H14 UNL     1       5.472   3.035  -1.407  1.00  0.00     0.210 HD
ENDBRANCH  32  34
ENDBRANCH   4  32
BRANCH   1  36
HETATM   36  C2  UNL     1       3.918  -2.821  -0.732  1.00  0.00     0.004 C 
HETATM   37  C1  UNL     1       5.219  -2.177  -1.195  1.00  0.00     0.006 C 
ENDBRANCH   1  36
BRANCH  12  38
HETATM   38  O4  UNL     1      -3.484   4.628   3.099  1.00  0.00    -0.346 OA
HETATM   39  H20 UNL     1      -4.334   4.258   3.397  1.00  0.00     0.219 HD
ENDBRANCH  12  38
BRANCH  24  40
HETATM   40  O6  UNL     1      -3.368  -4.103  -1.769  1.00  0.00    -0.359 OA
HETATM   41  H25 UNL     1      -2.571  -4.560  -1.419  1.00  0.00     0.217 HD
ENDBRANCH  24  40
TORSDOF 5
