REMARK  8 active torsions:
REMARK  status: ('A' for Active; 'I' for Inactive)
REMARK    1  A    between atoms: C2_2  and  C4_4 
REMARK    2  A    between atoms: C4_4  and  O1_6 
REMARK    3  A    between atoms: C4_4  and  C6_7 
REMARK    4  A    between atoms: C7_9  and  C8_10 
REMARK    5  A    between atoms: C8_10  and  O3_12 
REMARK    6  A    between atoms: C8_10  and  C10_13 
REMARK    7  A    between atoms: C22_25  and  O4_26 
REMARK    8  A    between atoms: C27_31  and  O5_32 
ROOT
HETATM    1  C10 UNL     1       1.304   0.784   1.292  1.00  0.00     0.034 C 
HETATM    2  C11 UNL     1       0.773   1.706   2.465  1.00  0.00     0.016 C 
HETATM    3  C12 UNL     1      -0.732   1.871   2.194  1.00  0.00     0.026 C 
HETATM    4  C13 UNL     1      -1.718   2.029   3.337  1.00  0.00     0.013 C 
HETATM    5  C14 UNL     1      -3.150   2.099   2.743  1.00  0.00     0.043 C 
HETATM    6  C15 UNL     1      -3.415   1.185   1.550  1.00  0.00    -0.006 C 
HETATM    7  C16 UNL     1      -2.451   0.500   0.903  1.00  0.00    -0.030 C 
HETATM    8  C17 UNL     1      -2.678  -0.550  -0.170  1.00  0.00     0.027 C 
HETATM    9  C18 UNL     1      -1.456  -0.797  -1.115  1.00  0.00     0.011 C 
HETATM   10  C19 UNL     1      -0.062  -0.691  -0.454  1.00  0.00     0.014 C 
HETATM   11  C20 UNL     1       0.068   0.630   0.329  1.00  0.00    -0.002 C 
HETATM   12  C21 UNL     1      -0.053   1.809  -0.669  1.00  0.00     0.019 C 
HETATM   13  C22 UNL     1      -1.052   0.614   1.393  1.00  0.00     0.094 C 
HETATM   14  C23 UNL     1      -4.030  -0.329  -0.938  1.00  0.00    -0.026 C 
HETATM   15  C24 UNL     1      -3.945   0.872  -1.918  1.00  0.00     0.016 C 
HETATM   16  C25 UNL     1      -4.356  -1.619  -1.758  1.00  0.00     0.013 C 
HETATM   17  C26 UNL     1      -5.848  -1.926  -1.810  1.00  0.00     0.032 C 
HETATM   18  C27 UNL     1      -6.411  -2.178  -0.407  1.00  0.00     0.119 C 
HETATM   19  C28 UNL     1      -5.778  -1.294   0.674  1.00  0.00     0.045 C 
HETATM   20  C29 UNL     1      -5.188  -0.018   0.062  1.00  0.00     0.071 C 
HETATM   21  C30 UNL     1      -4.836   0.976   1.162  1.00  0.00     0.161 C 
HETATM   22  O6  UNL     1      -5.724   1.586   1.759  1.00  0.00    -0.292 OA
ENDROOT
BRANCH   1  23
HETATM   23  C8  UNL     1       2.725   1.135   0.756  1.00  0.00     0.087 C 
HETATM   24  C9  UNL     1       2.894   2.551   0.191  1.00  0.00     0.049 C 
BRANCH  23  25
HETATM   25  C7  UNL     1       3.207   0.050  -0.185  1.00  0.00     0.188 A 
HETATM   26  C6  UNL     1       4.448   0.197  -1.040  1.00  0.00     0.188 A 
HETATM   27  O2  UNL     1       3.124   0.328  -1.592  1.00  0.00    -0.369 OA
BRANCH  26  28
HETATM   28  C4  UNL     1       5.228  -1.009  -1.525  1.00  0.00     0.086 C 
HETATM   29  C5  UNL     1       5.888  -0.680  -2.872  1.00  0.00     0.049 C 
BRANCH  28  30
HETATM   30  C2  UNL     1       6.232  -1.490  -0.434  1.00  0.00     0.014 C 
HETATM   31  C1  UNL     1       7.312  -0.457  -0.087  1.00  0.00     0.012 C 
HETATM   32  C3  UNL     1       6.909  -2.822  -0.789  1.00  0.00     0.012 C 
ENDBRANCH  28  30
BRANCH  28  33
HETATM   33  O1  UNL     1       4.309  -2.086  -1.765  1.00  0.00    -0.387 OA
HETATM   34  H11 UNL     1       3.592  -1.720  -2.318  1.00  0.00     0.210 HD
ENDBRANCH  28  33
ENDBRANCH  26  28
ENDBRANCH  23  25
BRANCH  23  35
HETATM   35  O3  UNL     1       3.612   1.101   1.894  1.00  0.00    -0.387 OA
HETATM   36  H17 UNL     1       3.513   0.237   2.329  1.00  0.00     0.210 HD
ENDBRANCH  23  35
ENDBRANCH   1  23
BRANCH  13  37
HETATM   37  O4  UNL     1      -0.876  -0.541   2.242  1.00  0.00    -0.384 OA
HETATM   38  H34 UNL     1      -1.670  -0.637   2.797  1.00  0.00     0.211 HD
ENDBRANCH  13  37
BRANCH  18  39
HETATM   39  O5  UNL     1      -7.823  -1.979  -0.440  1.00  0.00    -0.396 OA
HETATM   40  H43 UNL     1      -7.995  -1.028  -0.557  1.00  0.00     0.210 HD
ENDBRANCH  18  39
TORSDOF 8
