REMARK  5 active torsions:
REMARK  status: ('A' for Active; 'I' for Inactive)
REMARK    1  A    between atoms: C2_2  and  C4_4 
REMARK    2  A    between atoms: C7_7  and  C8_8 
REMARK    3  A    between atoms: C8_8  and  O2_10 
REMARK    4  A    between atoms: C11_13  and  C12_14 
REMARK    5  A    between atoms: C12_14  and  O4_16 
ROOT
HETATM    1  C4  UNL     1       4.115   0.440   0.920  1.00  0.00     0.019 C 
HETATM    2  C5  UNL     1       5.432   0.093   0.167  1.00  0.00     0.011 C 
HETATM    3  C6  UNL     1       5.026  -0.472  -1.211  1.00  0.00     0.021 C 
HETATM    4  C7  UNL     1       3.582  -0.950  -0.999  1.00  0.00     0.050 C 
HETATM    5  C9  UNL     1       2.733  -1.176  -2.267  1.00  0.00     0.022 C 
HETATM    6  C10 UNL     1       1.555  -0.203  -2.459  1.00  0.00     0.023 C 
HETATM    7  C11 UNL     1       0.707   0.213  -1.190  1.00  0.00     0.057 C 
HETATM    8  C13 UNL     1       1.564   0.042   0.114  1.00  0.00     0.011 C 
HETATM    9  C14 UNL     1       0.949   0.743   1.319  1.00  0.00     0.007 C 
HETATM   10  C15 UNL     1      -0.588   0.694   1.287  1.00  0.00     0.006 C 
HETATM   11  C16 UNL     1      -1.157  -0.566   0.574  1.00  0.00     0.003 C 
HETATM   12  C17 UNL     1      -2.717  -0.877   0.873  1.00  0.00    -0.035 C 
HETATM   13  C18 UNL     1      -2.789  -2.400   1.252  1.00  0.00     0.016 C 
HETATM   14  C19 UNL     1      -3.232  -0.124   2.139  1.00  0.00     0.017 C 
HETATM   15  C20 UNL     1      -4.744  -0.152   2.288  1.00  0.00     0.080 C 
HETATM   16  C21 UNL     1      -5.378   0.616   1.156  1.00  0.00     0.135 C 
HETATM   17  O5  UNL     1      -6.433   1.226   1.350  1.00  0.00    -0.297 OA
HETATM   18  C22 UNL     1      -4.681   0.594  -0.220  1.00  0.00     0.017 C 
HETATM   19  C23 UNL     1      -5.818   0.511  -1.272  1.00  0.00     0.023 C 
HETATM   20  C24 UNL     1      -3.976   1.943  -0.409  1.00  0.00     0.023 C 
HETATM   21  C25 UNL     1      -3.742  -0.674  -0.315  1.00  0.00     0.009 C 
HETATM   22  C26 UNL     1      -3.111  -0.925  -1.691  1.00  0.00     0.007 C 
HETATM   23  C27 UNL     1      -1.792  -0.205  -1.891  1.00  0.00     0.011 C 
HETATM   24  C28 UNL     1      -0.659  -0.653  -0.946  1.00  0.00    -0.022 C 
HETATM   25  C29 UNL     1      -0.349  -2.148  -1.274  1.00  0.00     0.017 C 
HETATM   26  C30 UNL     1       3.051   0.256  -0.179  1.00  0.00     0.018 C 
ENDROOT
BRANCH   4  27
HETATM   27  C8  UNL     1       3.714  -2.328  -0.323  1.00  0.00     0.149 C 
HETATM   28  O1  UNL     1       4.254  -3.305  -0.824  1.00  0.00    -0.649 OA
BRANCH  27  29
HETATM   29  O2  UNL     1       3.181  -2.445   0.901  1.00  0.00    -0.776 OA
HETATM   30  H11 UNL     1       3.373  -3.374   1.150  1.00  0.00     0.167 HD
ENDBRANCH  27  29
ENDBRANCH   4  27
BRANCH   1  31
HETATM   31  C2  UNL     1       4.248   1.775   1.635  1.00  0.00    -0.088 C 
HETATM   32  C1  UNL     1       3.886   2.963   1.125  1.00  0.00     0.014 C 
HETATM   33  C3  UNL     1       4.861   1.698   3.010  1.00  0.00     0.043 C 
ENDBRANCH   1  31
BRANCH   7  34
HETATM   34  C12 UNL     1       0.403   1.702  -1.533  1.00  0.00     0.149 C 
HETATM   35  O3  UNL     1      -0.278   2.107  -2.464  1.00  0.00    -0.649 OA
BRANCH  34  36
HETATM   36  O4  UNL     1       1.043   2.619  -0.794  1.00  0.00    -0.776 OA
HETATM   37  H16 UNL     1       0.757   3.471  -1.185  1.00  0.00     0.167 HD
ENDBRANCH  34  36
ENDBRANCH   7  34
TORSDOF 5
