REMARK  10 active torsions:
REMARK  status: ('A' for Active; 'I' for Inactive)
REMARK    1  A    between atoms: C16_18  and  C17_19 
REMARK    2  A    between atoms: C26_30  and  C27_31 
REMARK    3  A    between atoms: C27_31  and  O1_33 
REMARK    4  A    between atoms: C30_35  and  C31_36 
REMARK    5  A    between atoms: C31_36  and  O3_38 
REMARK    6  A    between atoms: C37_44  and  O4_45 
REMARK    7  A    between atoms: C40_48  and  C41_49 
REMARK    8  A    between atoms: C40_48  and  C42_51 
REMARK    9  A    between atoms: C41_49  and  O5_50 
REMARK   10  A    between atoms: C42_51  and  O7_53 
ROOT
HETATM    1  C17 UNL     1      -0.563   1.323   1.112  1.00  0.00     0.013 A 
HETATM    2  C18 UNL     1       0.802   0.917   1.097  1.00  0.00     0.053 A 
HETATM    3  N3  UNL     1       1.477   0.156   0.173  1.00  0.00    -0.357 N 
HETATM    4  C19 UNL     1       2.818   0.044   0.466  1.00  0.00     0.038 A 
HETATM    5  C20 UNL     1       3.001   0.667   1.691  1.00  0.00    -0.020 A 
HETATM    6  C21 UNL     1       4.247   0.733   2.515  1.00  0.00     0.072 C 
HETATM    7  C22 UNL     1       5.554   0.905   1.739  1.00  0.00     0.277 C 
HETATM    8  N4  UNL     1       5.932  -0.112   0.757  1.00  0.00     0.096 N 
HETATM    9  C23 UNL     1       5.981  -1.490   1.276  1.00  0.00     0.277 C 
HETATM   10  C24 UNL     1       5.464  -2.471   0.211  1.00  0.00     0.016 C 
HETATM   11  C25 UNL     1       6.260  -2.261  -1.086  1.00  0.00     0.015 C 
HETATM   12  C26 UNL     1       6.107  -0.800  -1.569  1.00  0.00     0.049 C 
HETATM   13  C29 UNL     1       5.201  -0.030  -0.536  1.00  0.00     0.253 C 
HETATM   14  C30 UNL     1       3.777  -0.695  -0.486  1.00  0.00     0.122 C 
HETATM   15  C33 UNL     1       3.970  -2.175  -0.051  1.00  0.00     0.035 C 
HETATM   16  C34 UNL     1       1.734   1.229   2.079  1.00  0.00    -0.000 A 
HETATM   17  C35 UNL     1       1.308   1.977   3.189  1.00  0.00     0.017 A 
HETATM   18  C36 UNL     1      -0.012   2.418   3.251  1.00  0.00     0.038 A 
HETATM   19  C37 UNL     1      -0.913   2.107   2.232  1.00  0.00     0.075 A 
HETATM   20  H19 UNL     1       1.031  -0.255  -0.635  1.00  0.00     0.166 HD
ENDROOT
BRANCH   1  21
HETATM   21  C16 UNL     1      -1.505   0.901  -0.025  1.00  0.00     0.075 C 
HETATM   22  C9  UNL     1      -2.590   1.841  -0.491  1.00  0.00     0.025 A 
HETATM   23  C8  UNL     1      -3.846   1.658  -1.068  1.00  0.00    -0.020 A 
HETATM   24  N2  UNL     1      -2.357   3.199  -0.459  1.00  0.00    -0.358 N 
HETATM   25  C7  UNL     1      -4.575   0.382  -1.401  1.00  0.00     0.079 C 
HETATM   26  C15 UNL     1      -4.340   2.975  -1.408  1.00  0.00    -0.001 A 
HETATM   27  C6  UNL     1      -5.137  -0.547  -0.274  1.00  0.00     0.248 C 
HETATM   28  N1  UNL     1      -5.654   0.061   0.969  1.00  0.00     0.094 N 
HETATM   29  C40 UNL     1      -4.212  -1.746   0.124  1.00  0.00     0.107 C 
HETATM   30  C4  UNL     1      -4.620   0.590   1.858  1.00  0.00     0.306 C 
HETATM   31  C5  UNL     1      -6.725   1.030   0.766  1.00  0.00     0.310 C 
HETATM   32  C3  UNL     1      -3.448  -0.358   2.090  1.00  0.00    -0.051 C 
HETATM   33  C2  UNL     1      -2.928  -0.478   3.330  1.00  0.00    -0.026 C 
HETATM   34  C39 UNL     1      -2.981  -1.194   0.905  1.00  0.00     0.039 C 
HETATM   35  C1  UNL     1      -1.770  -1.317   3.771  1.00  0.00     0.036 C 
HETATM   36  C38 UNL     1      -1.872  -0.594  -0.002  1.00  0.00     0.026 C 
HETATM   37  C10 UNL     1      -3.388   3.906  -1.012  1.00  0.00     0.043 A 
HETATM   38  C14 UNL     1      -5.514   3.457  -2.029  1.00  0.00     0.014 A 
HETATM   39  C11 UNL     1      -3.542   5.287  -1.189  1.00  0.00     0.030 A 
HETATM   40  C12 UNL     1      -4.716   5.732  -1.800  1.00  0.00     0.002 A 
HETATM   41  C13 UNL     1      -5.691   4.832  -2.216  1.00  0.00     0.001 A 
HETATM   42  H13 UNL     1      -1.533   3.619  -0.052  1.00  0.00     0.166 HD
BRANCH  29  43
HETATM   43  C41 UNL     1      -5.024  -2.768   0.996  1.00  0.00     0.186 C 
BRANCH  43  44
HETATM   44  O5  UNL     1      -4.225  -3.832   1.523  1.00  0.00    -0.399 OA
HETATM   45  H49 UNL     1      -3.841  -4.331   0.776  1.00  0.00     0.209 HD
ENDBRANCH  43  44
ENDBRANCH  29  43
BRANCH  29  46
HETATM   46  C42 UNL     1      -3.877  -2.569  -1.125  1.00  0.00     0.272 C 
HETATM   47  O6  UNL     1      -4.553  -2.587  -2.148  1.00  0.00    -0.264 OA
BRANCH  46  48
HETATM   48  O7  UNL     1      -2.769  -3.344  -0.940  1.00  0.00    -0.326 OA
HETATM   49  C43 UNL     1      -2.386  -4.131  -2.069  1.00  0.00     0.213 C 
ENDBRANCH  46  48
ENDBRANCH  29  46
ENDBRANCH   1  21
BRANCH  19  50
HETATM   50  O4  UNL     1      -2.177   2.614   2.336  1.00  0.00    -0.360 OA
HETATM   51  H43 UNL     1      -2.351   2.865   3.258  1.00  0.00     0.217 HD
ENDBRANCH  19  50
BRANCH  14  52
HETATM   52  C31 UNL     1       3.167  -0.580  -1.916  1.00  0.00     0.275 C 
HETATM   53  O2  UNL     1       3.453   0.282  -2.735  1.00  0.00    -0.264 OA
BRANCH  52  54
HETATM   54  O3  UNL     1       2.164  -1.493  -2.105  1.00  0.00    -0.326 OA
HETATM   55  C32 UNL     1       1.517  -1.405  -3.375  1.00  0.00     0.213 C 
ENDBRANCH  52  54
ENDBRANCH  14  52
BRANCH  12  56
HETATM   56  C27 UNL     1       7.456  -0.085  -1.828  1.00  0.00     0.120 C 
HETATM   57  C28 UNL     1       8.211  -0.673  -3.014  1.00  0.00     0.040 C 
BRANCH  56  58
HETATM   58  O1  UNL     1       8.312  -0.159  -0.694  1.00  0.00    -0.396 OA
HETATM   59  H34 UNL     1       7.761   0.109   0.073  1.00  0.00     0.210 HD
ENDBRANCH  56  58
ENDBRANCH  12  56
TORSDOF 10
