REMARK  9 active torsions:
REMARK  status: ('A' for Active; 'I' for Inactive)
REMARK    1  A    between atoms: N1_2  and  C2_3 
REMARK    2  A    between atoms: C2_3  and  C3_4 
REMARK    3  A    between atoms: C7_8  and  O1_9 
REMARK    4  A    between atoms: C13_15  and  O2_16 
REMARK    5  A    between atoms: C17_20  and  C18_21 
REMARK    6  A    between atoms: C18_21  and  C20_23 
REMARK    7  A    between atoms: C28_31  and  O3_32 
REMARK    8  A    between atoms: C31_35  and  C32_36 
REMARK    9  A    between atoms: C33_38  and  O5_39 
ROOT
HETATM    1  C3  UNL     1       5.517   1.843   0.488  1.00  0.00    -0.022 C 
HETATM    2  C4  UNL     1       4.167   1.890   0.357  1.00  0.00    -0.014 C 
HETATM    3  C5  UNL     1       3.462   1.051  -0.679  1.00  0.00     0.021 C 
HETATM    4  C6  UNL     1       2.034   0.570  -0.425  1.00  0.00     0.051 C 
HETATM    5  C7  UNL     1       1.820  -0.343  -1.653  1.00  0.00     0.098 C 
HETATM    6  C8  UNL     1       3.169  -1.172  -1.738  1.00  0.00    -0.002 C 
HETATM    7  C9  UNL     1       3.589  -1.497  -3.180  1.00  0.00     0.019 C 
HETATM    8  C10 UNL     1       3.068  -2.522  -0.959  1.00  0.00     0.013 C 
HETATM    9  C11 UNL     1       1.766  -3.292  -1.159  1.00  0.00     0.010 C 
HETATM   10  C12 UNL     1       0.578  -2.408  -0.734  1.00  0.00     0.041 C 
HETATM   11  C13 UNL     1       0.503  -1.188  -1.671  1.00  0.00     0.095 C 
HETATM   12  C14 UNL     1      -0.779  -0.364  -1.439  1.00  0.00     0.049 C 
HETATM   13  C15 UNL     1      -1.527  -0.643  -0.113  1.00  0.00     0.025 C 
HETATM   14  C16 UNL     1      -2.759   0.314  -0.118  1.00  0.00     0.012 C 
HETATM   15  C17 UNL     1      -3.671   0.484   1.124  1.00  0.00    -0.010 C 
HETATM   16  C25 UNL     1      -3.968  -0.827   1.875  1.00  0.00     0.005 C 
HETATM   17  C26 UNL     1      -2.729  -1.493   2.455  1.00  0.00     0.010 C 
HETATM   18  C27 UNL     1      -2.006  -2.515   1.567  1.00  0.00     0.050 C 
HETATM   19  C28 UNL     1      -2.584  -3.940   1.750  1.00  0.00     0.125 C 
HETATM   20  C29 UNL     1      -1.910  -4.961   0.838  1.00  0.00     0.033 C 
HETATM   21  C30 UNL     1      -0.599  -4.438   0.271  1.00  0.00     0.023 C 
HETATM   22  C31 UNL     1      -0.793  -3.151  -0.605  1.00  0.00     0.051 C 
HETATM   23  C33 UNL     1      -1.874  -2.165   0.051  1.00  0.00     0.082 C 
HETATM   24  C34 UNL     1       4.212  -0.271  -0.969  1.00  0.00     0.036 C 
HETATM   25  C35 UNL     1       5.581   0.158  -1.385  1.00  0.00    -0.035 C 
HETATM   26  C36 UNL     1       6.237   0.206  -2.539  1.00  0.00     0.088 C 
HETATM   27  C37 UNL     1       7.431   1.018  -2.295  1.00  0.00     0.284 C 
HETATM   28  O6  UNL     1       8.271   1.281  -3.134  1.00  0.00    -0.260 OA
HETATM   29  O7  UNL     1       7.428   1.469  -1.009  1.00  0.00    -0.304 OA
HETATM   30  C38 UNL     1       6.358   0.850  -0.310  1.00  0.00     0.192 C 
ENDROOT
BRANCH  15  31
HETATM   31  C18 UNL     1      -5.002   1.238   0.703  1.00  0.00    -0.011 C 
HETATM   32  C19 UNL     1      -6.098   1.154   1.782  1.00  0.00     0.011 C 
BRANCH  31  33
HETATM   33  C20 UNL     1      -4.735   2.702   0.255  1.00  0.00    -0.010 C 
HETATM   34  C21 UNL     1      -5.901   3.377  -0.480  1.00  0.00     0.005 C 
HETATM   35  C22 UNL     1      -5.573   4.859  -0.370  1.00  0.00     0.000 C 
HETATM   36  C23 UNL     1      -5.062   5.000   1.054  1.00  0.00     0.000 C 
HETATM   37  C24 UNL     1      -4.344   3.686   1.373  1.00  0.00     0.005 C 
ENDBRANCH  31  33
ENDBRANCH  15  31
BRANCH  23  38
HETATM   38  O5  UNL     1      -3.129  -2.373  -0.612  1.00  0.00    -0.388 OA
HETATM   39  H52 UNL     1      -3.691  -2.974  -0.074  1.00  0.00     0.210 HD
ENDBRANCH  23  38
BRANCH  11  40
HETATM   40  O2  UNL     1       0.368  -1.673  -3.027  1.00  0.00    -0.386 OA
HETATM   41  H20 UNL     1       0.828  -1.027  -3.603  1.00  0.00     0.210 HD
ENDBRANCH  11  40
BRANCH  22  42
HETATM   42  C32 UNL     1      -1.275  -3.622  -1.993  1.00  0.00     0.244 C 
HETATM   43  O4  UNL     1      -1.130  -4.766  -2.425  1.00  0.00    -0.306 OA
ENDBRANCH  22  42
BRANCH  19  44
HETATM   44  O3  UNL     1      -3.977  -3.939   1.444  1.00  0.00    -0.395 OA
HETATM   45  H46 UNL     1      -4.332  -4.817   1.679  1.00  0.00     0.210 HD
ENDBRANCH  19  44
BRANCH   5  46
HETATM   46  O1  UNL     1       1.760   0.516  -2.825  1.00  0.00    -0.386 OA
HETATM   47  H11 UNL     1       1.013   1.128  -2.740  1.00  0.00     0.210 HD
ENDBRANCH   5  46
BRANCH   1  48
HETATM   48  C2  UNL     1       6.322   2.738   1.402  1.00  0.00     0.306 C 
BRANCH  48  49
HETATM   49  N1  UNL     1       5.504   3.503   2.347  1.00  0.00     0.083 N 
HETATM   50  C1  UNL     1       6.294   4.540   3.000  1.00  0.00     0.307 C 
HETATM   51  H4  UNL     1       5.155   2.865   3.057  1.00  0.00     0.315 HD
ENDBRANCH  48  49
ENDBRANCH   1  48
TORSDOF 9
