REMARK  6 active torsions:
REMARK  status: ('A' for Active; 'I' for Inactive)
REMARK    1  A    between atoms: C2_2  and  C3_3 
REMARK    2  A    between atoms: C2_2  and  C9_11 
REMARK    3  A    between atoms: C3_3  and  C4_4 
REMARK    4  A    between atoms: C5_5  and  C6_6 
REMARK    5  A    between atoms: C6_6  and  O1_9 
REMARK    6  A    between atoms: O1_9  and  O2_10 
ROOT
HETATM    1  C9  UNL     1       1.440   0.406   1.517  1.00  0.00    -0.001 C 
HETATM    2  C10 UNL     1       0.924   1.322   2.664  1.00  0.00     0.007 C 
HETATM    3  C11 UNL     1      -0.578   1.560   2.425  1.00  0.00     0.024 C 
HETATM    4  C12 UNL     1      -0.933   0.628   1.289  1.00  0.00     0.092 C 
HETATM    5  C13 UNL     1      -1.316  -0.784   1.805  1.00  0.00     0.272 C 
HETATM    6  O3  UNL     1      -0.952  -1.329   2.832  1.00  0.00    -0.264 OA
HETATM    7  O4  UNL     1      -2.161  -1.369   0.880  1.00  0.00    -0.305 OA
HETATM    8  C14 UNL     1      -2.364  -0.449  -0.220  1.00  0.00     0.113 C 
HETATM    9  C15 UNL     1      -1.196  -0.700  -1.227  1.00  0.00     0.043 C 
HETATM   10  C16 UNL     1       0.213  -0.646  -0.571  1.00  0.00     0.014 C 
HETATM   11  C17 UNL     1       0.356   0.552   0.404  1.00  0.00    -0.020 C 
HETATM   12  C18 UNL     1       0.585   1.827  -0.438  1.00  0.00     0.017 C 
HETATM   13  C19 UNL     1      -2.142   0.857   0.469  1.00  0.00     0.137 A 
HETATM   14  O5  UNL     1      -2.411   2.092  -0.163  1.00  0.00    -0.364 OA
HETATM   15  C20 UNL     1      -3.290   1.720   0.921  1.00  0.00     0.162 A 
HETATM   16  C21 UNL     1      -4.687   1.397   0.505  1.00  0.00     0.041 C 
HETATM   17  C22 UNL     1      -4.880  -0.108   0.219  1.00  0.00     0.010 C 
HETATM   18  C23 UNL     1      -6.345  -0.418  -0.199  1.00  0.00     0.056 C 
HETATM   19  C24 UNL     1      -7.368  -0.012   0.867  1.00  0.00     0.018 C 
HETATM   20  C25 UNL     1      -6.488  -1.904  -0.517  1.00  0.00     0.131 C 
HETATM   21  O6  UNL     1      -7.396  -2.601  -0.068  1.00  0.00    -0.298 OA
HETATM   22  C26 UNL     1      -5.499  -2.473  -1.503  1.00  0.00     0.079 C 
HETATM   23  C27 UNL     1      -4.081  -2.158  -1.049  1.00  0.00     0.020 C 
HETATM   24  C28 UNL     1      -3.811  -0.639  -0.817  1.00  0.00    -0.004 C 
HETATM   25  C29 UNL     1      -3.935   0.093  -2.179  1.00  0.00     0.019 C 
ENDROOT
BRANCH   1  26
HETATM   26  C2  UNL     1       2.966   0.547   1.242  1.00  0.00    -0.010 C 
HETATM   27  C1  UNL     1       3.483   1.950   0.890  1.00  0.00     0.010 C 
BRANCH  26  28
HETATM   28  C3  UNL     1       3.454  -0.491   0.206  1.00  0.00     0.031 C 
BRANCH  28  29
HETATM   29  C4  UNL     1       4.952  -0.647   0.187  1.00  0.00    -0.027 C 
HETATM   30  C5  UNL     1       5.717  -0.379  -0.884  1.00  0.00     0.009 C 
BRANCH  30  31
HETATM   31  C6  UNL     1       7.228  -0.503  -0.997  1.00  0.00     0.106 C 
HETATM   32  C7  UNL     1       7.958  -1.027   0.249  1.00  0.00     0.053 C 
HETATM   33  C8  UNL     1       7.796   0.882  -1.344  1.00  0.00     0.053 C 
BRANCH  31  34
HETATM   34  O1  UNL     1       7.526  -1.341  -2.135  1.00  0.00    -0.229 OA
BRANCH  34  35
HETATM   35  O2  UNL     1       7.110  -2.705  -1.812  1.00  0.00    -0.249 OA
HETATM   36  H15 UNL     1       6.244  -2.665  -2.256  1.00  0.00     0.253 HD
ENDBRANCH  34  35
ENDBRANCH  31  34
ENDBRANCH  30  31
ENDBRANCH  28  29
ENDBRANCH  26  28
ENDBRANCH   1  26
TORSDOF 6
