REMARK  6 active torsions:
REMARK  status: ('A' for Active; 'I' for Inactive)
REMARK    1  A    between atoms: C2_2  and  C30_32 
REMARK    2  A    between atoms: C3_3  and  C4_4 
REMARK    3  A    between atoms: C4_4  and  C5_5 
REMARK    4  A    between atoms: C5_5  and  C6_6 
REMARK    5  A    between atoms: C6_6  and  C8_8 
REMARK    6  A    between atoms: C30_32  and  O3_33 
ROOT
HETATM    1  C8  UNL     1       2.086  -1.103   0.497  1.00  0.00    -0.002 C 
HETATM    2  C9  UNL     1       1.897  -1.392   2.011  1.00  0.00     0.007 C 
HETATM    3  C10 UNL     1       0.387  -1.294   2.300  1.00  0.00     0.015 C 
HETATM    4  C11 UNL     1      -0.295  -1.309   0.917  1.00  0.00    -0.005 C 
HETATM    5  C12 UNL     1      -0.414  -2.802   0.481  1.00  0.00     0.021 C 
HETATM    6  C13 UNL     1      -1.700  -0.750   0.746  1.00  0.00    -0.000 C 
HETATM    7  C14 UNL     1      -2.104  -0.202  -0.430  1.00  0.00    -0.060 C 
HETATM    8  C15 UNL     1      -1.121  -0.071  -1.607  1.00  0.00     0.036 C 
HETATM    9  C16 UNL     1       0.337  -0.528  -1.382  1.00  0.00     0.015 C 
HETATM   10  C17 UNL     1       0.738  -0.436   0.094  1.00  0.00    -0.028 C 
HETATM   11  C18 UNL     1       0.736   1.066   0.504  1.00  0.00     0.016 C 
HETATM   12  C19 UNL     1      -3.538   0.353  -0.665  1.00  0.00    -0.014 C 
HETATM   13  C20 UNL     1      -3.444   1.893  -0.584  1.00  0.00     0.020 C 
HETATM   14  C21 UNL     1      -4.059  -0.072  -2.063  1.00  0.00     0.021 C 
HETATM   15  C22 UNL     1      -5.557   0.085  -2.306  1.00  0.00     0.080 C 
HETATM   16  C23 UNL     1      -6.324   0.717  -1.170  1.00  0.00     0.135 C 
HETATM   17  O1  UNL     1      -7.241   1.502  -1.417  1.00  0.00    -0.297 OA
HETATM   18  C24 UNL     1      -6.012   0.255   0.259  1.00  0.00     0.018 C 
HETATM   19  C25 UNL     1      -6.980  -0.906   0.566  1.00  0.00     0.023 C 
HETATM   20  C26 UNL     1      -6.347   1.408   1.230  1.00  0.00     0.023 C 
HETATM   21  C27 UNL     1      -4.533  -0.252   0.377  1.00  0.00     0.020 C 
HETATM   22  C28 UNL     1      -3.972  -0.146   1.795  1.00  0.00     0.090 C 
HETATM   23  C29 UNL     1      -2.650  -0.858   1.896  1.00  0.00     0.157 C 
HETATM   24  O2  UNL     1      -2.361  -1.483   2.913  1.00  0.00    -0.293 OA
ENDROOT
BRANCH   1  25
HETATM   25  C6  UNL     1       3.481  -0.505   0.139  1.00  0.00    -0.014 C 
HETATM   26  C7  UNL     1       3.854   0.815   0.824  1.00  0.00     0.010 C 
BRANCH  25  27
HETATM   27  C5  UNL     1       3.683  -0.424  -1.394  1.00  0.00     0.008 C 
BRANCH  27  28
HETATM   28  C4  UNL     1       5.145  -0.521  -1.864  1.00  0.00     0.028 C 
BRANCH  28  29
HETATM   29  C3  UNL     1       5.931   0.750  -1.697  1.00  0.00    -0.022 C 
HETATM   30  C2  UNL     1       7.128   0.924  -1.094  1.00  0.00    -0.064 C 
HETATM   31  C1  UNL     1       7.918  -0.175  -0.432  1.00  0.00     0.045 C 
BRANCH  30  32
HETATM   32  C30 UNL     1       7.810   2.272  -0.983  1.00  0.00     0.197 C 
BRANCH  32  33
HETATM   33  O3  UNL     1       7.170   3.272  -1.764  1.00  0.00    -0.397 OA
HETATM   34  H46 UNL     1       7.234   2.975  -2.688  1.00  0.00     0.209 HD
ENDBRANCH  32  33
ENDBRANCH  30  32
ENDBRANCH  28  29
ENDBRANCH  27  28
ENDBRANCH  25  27
ENDBRANCH   1  25
TORSDOF 6
