REMARK  9 active torsions:
REMARK  status: ('A' for Active; 'I' for Inactive)
REMARK    1  A    between atoms: C2_2  and  C30_35 
REMARK    2  A    between atoms: C3_3  and  C4_4 
REMARK    3  A    between atoms: C4_4  and  O1_5 
REMARK    4  A    between atoms: C4_4  and  C5_6 
REMARK    5  A    between atoms: C5_6  and  C6_7 
REMARK    6  A    between atoms: C6_7  and  C8_9 
REMARK    7  A    between atoms: C10_11  and  O2_12 
REMARK    8  A    between atoms: C29_33  and  O5_34 
REMARK    9  A    between atoms: C30_35  and  O7_37 
ROOT
HETATM    1  C8  UNL     1       1.979  -1.732  -0.965  1.00  0.00     0.001 C 
HETATM    2  C9  UNL     1       1.284  -3.087  -1.292  1.00  0.00     0.038 C 
HETATM    3  C10 UNL     1      -0.219  -2.883  -1.025  1.00  0.00     0.132 C 
HETATM    4  C11 UNL     1      -0.412  -1.347  -1.104  1.00  0.00     0.017 C 
HETATM    5  C12 UNL     1      -0.427  -0.919  -2.612  1.00  0.00     0.023 C 
HETATM    6  C13 UNL     1      -1.662  -0.716  -0.492  1.00  0.00    -0.029 C 
HETATM    7  C14 UNL     1      -1.666   0.596  -0.129  1.00  0.00     0.002 C 
HETATM    8  C15 UNL     1      -0.346   1.361  -0.176  1.00  0.00     0.157 C 
HETATM    9  O3  UNL     1      -0.303   2.571   0.047  1.00  0.00    -0.293 OA
HETATM   10  C16 UNL     1       0.966   0.639  -0.480  1.00  0.00     0.094 C 
HETATM   11  C17 UNL     1       0.851  -0.875  -0.301  1.00  0.00    -0.019 C 
HETATM   12  C18 UNL     1       0.759  -1.171   1.224  1.00  0.00     0.017 C 
HETATM   13  C19 UNL     1      -2.940   1.323   0.393  1.00  0.00    -0.008 C 
HETATM   14  C20 UNL     1      -2.741   1.448   1.920  1.00  0.00     0.021 C 
HETATM   15  C21 UNL     1      -3.143   2.733  -0.230  1.00  0.00     0.022 C 
HETATM   16  C22 UNL     1      -4.445   3.408   0.180  1.00  0.00     0.080 C 
HETATM   17  C23 UNL     1      -5.650   2.564  -0.142  1.00  0.00     0.135 C 
HETATM   18  O4  UNL     1      -6.651   3.093  -0.630  1.00  0.00    -0.297 OA
HETATM   19  C24 UNL     1      -5.625   1.088   0.278  1.00  0.00     0.018 C 
HETATM   20  C25 UNL     1      -6.068   0.994   1.745  1.00  0.00     0.023 C 
HETATM   21  C26 UNL     1      -6.696   0.350  -0.568  1.00  0.00     0.023 C 
HETATM   22  C27 UNL     1      -4.213   0.486  -0.037  1.00  0.00     0.016 C 
HETATM   23  C28 UNL     1      -4.047  -0.979   0.400  1.00  0.00     0.043 C 
HETATM   24  C29 UNL     1      -2.866  -1.618  -0.330  1.00  0.00     0.149 C 
ENDROOT
BRANCH   1  25
HETATM   25  C6  UNL     1       3.400  -1.886  -0.342  1.00  0.00    -0.011 C 
HETATM   26  C7  UNL     1       3.485  -2.688   0.963  1.00  0.00     0.010 C 
BRANCH  25  27
HETATM   27  C5  UNL     1       4.108  -0.512  -0.221  1.00  0.00     0.040 C 
BRANCH  27  28
HETATM   28  C4  UNL     1       5.632  -0.591  -0.035  1.00  0.00     0.142 C 
BRANCH  28  29
HETATM   29  C3  UNL     1       6.276   0.753  -0.252  1.00  0.00     0.018 C 
HETATM   30  C2  UNL     1       6.490   1.748   0.635  1.00  0.00     0.010 C 
HETATM   31  C1  UNL     1       6.050   1.750   2.072  1.00  0.00     0.055 C 
BRANCH  30  32
HETATM   32  C30 UNL     1       7.187   2.994   0.219  1.00  0.00     0.171 C 
HETATM   33  O6  UNL     1       7.527   3.896   0.965  1.00  0.00    -0.646 OA
BRANCH  32  34
HETATM   34  O7  UNL     1       7.425   3.071  -1.102  1.00  0.00    -0.773 OA
HETATM   35  H44 UNL     1       7.866   3.939  -1.203  1.00  0.00     0.167 HD
ENDBRANCH  32  34
ENDBRANCH  30  32
ENDBRANCH  28  29
BRANCH  28  36
HETATM   36  O1  UNL     1       5.959  -1.087   1.254  1.00  0.00    -0.392 OA
HETATM   37  H6  UNL     1       6.928  -1.057   1.332  1.00  0.00     0.210 HD
ENDBRANCH  28  36
ENDBRANCH  27  28
ENDBRANCH  25  27
ENDBRANCH   1  25
BRANCH   3  38
HETATM   38  O2  UNL     1      -1.026  -3.586  -1.960  1.00  0.00    -0.394 OA
HETATM   39  H17 UNL     1      -0.703  -4.506  -1.991  1.00  0.00     0.210 HD
ENDBRANCH   3  38
BRANCH  24  40
HETATM   40  O5  UNL     1      -3.317  -2.020  -1.618  1.00  0.00    -0.391 OA
HETATM   41  H43 UNL     1      -2.652  -2.654  -1.961  1.00  0.00     0.210 HD
ENDBRANCH  24  40
TORSDOF 9
