REMARK  4 active torsions:
REMARK  status: ('A' for Active; 'I' for Inactive)
REMARK    1  A    between atoms: C14_16  and  C15_17 
REMARK    2  A    between atoms: C15_17  and  C17_19 
REMARK    3  A    between atoms: C17_19  and  C18_20 
REMARK    4  A    between atoms: C18_20  and  C19_21 
ROOT
HETATM    1  C1  UNL     1      -7.143  -0.821  -0.172  1.00  0.00     0.017 C 
HETATM    2  C2  UNL     1      -6.115   0.017   0.066  1.00  0.00    -0.060 C 
HETATM    3  C3  UNL     1      -6.383   1.476   0.378  1.00  0.00     0.212 C 
HETATM    4  O1  UNL     1      -5.702   2.324  -0.544  1.00  0.00    -0.317 OA
HETATM    5  C4  UNL     1      -6.025   2.073  -1.841  1.00  0.00     0.259 C 
HETATM    6  O2  UNL     1      -7.160   1.932  -2.273  1.00  0.00    -0.265 OA
HETATM    7  C5  UNL     1      -4.766   1.879  -2.639  1.00  0.00     0.112 C 
HETATM    8  C6  UNL     1      -4.106   0.532  -2.314  1.00  0.00     0.020 C 
HETATM    9  C7  UNL     1      -3.665   0.356  -0.841  1.00  0.00    -0.024 A 
HETATM   10  C8  UNL     1      -2.899   1.503  -0.218  1.00  0.00     0.022 A 
HETATM   11  C9  UNL     1      -2.145   0.215  -0.469  1.00  0.00    -0.027 A 
HETATM   12  C10 UNL     1      -1.130   0.220  -1.621  1.00  0.00     0.011 C 
HETATM   13  C11 UNL     1       0.371   0.169  -1.284  1.00  0.00     0.011 C 
HETATM   14  C12 UNL     1       0.692  -0.056   0.197  1.00  0.00    -0.032 C 
HETATM   15  C13 UNL     1       0.600   1.319   0.911  1.00  0.00     0.016 C 
HETATM   16  C14 UNL     1       2.072  -0.726   0.502  1.00  0.00    -0.002 C 
HETATM   17  C23 UNL     1       1.842  -1.454   1.855  1.00  0.00     0.006 C 
HETATM   18  C24 UNL     1       0.326  -1.460   2.113  1.00  0.00     0.011 C 
HETATM   19  C25 UNL     1      -0.311  -1.134   0.749  1.00  0.00    -0.032 C 
HETATM   20  C26 UNL     1      -0.346  -2.468  -0.063  1.00  0.00     0.016 C 
HETATM   21  C27 UNL     1      -1.735  -0.526   0.834  1.00  0.00     0.004 C 
HETATM   22  C28 UNL     1      -2.808  -1.517   1.302  1.00  0.00     0.007 C 
HETATM   23  C29 UNL     1      -4.170  -0.837   1.394  1.00  0.00     0.010 C 
HETATM   24  C30 UNL     1      -4.674  -0.486  -0.013  1.00  0.00     0.025 C 
ENDROOT
BRANCH  16  25
HETATM   25  C15 UNL     1       3.430   0.034   0.423  1.00  0.00    -0.014 C 
HETATM   26  C16 UNL     1       3.684   1.114   1.483  1.00  0.00     0.010 C 
BRANCH  25  27
HETATM   27  C17 UNL     1       3.683   0.588  -0.999  1.00  0.00     0.008 C 
BRANCH  27  28
HETATM   28  C18 UNL     1       5.131   1.018  -1.284  1.00  0.00     0.028 C 
BRANCH  28  29
HETATM   29  C19 UNL     1       6.087  -0.144  -1.300  1.00  0.00    -0.025 C 
HETATM   30  C20 UNL     1       7.166  -0.353  -0.520  1.00  0.00    -0.091 C 
HETATM   31  C21 UNL     1       8.004  -1.595  -0.694  1.00  0.00     0.042 C 
HETATM   32  C22 UNL     1       7.653   0.565   0.566  1.00  0.00     0.042 C 
ENDBRANCH  28  29
ENDBRANCH  27  28
ENDBRANCH  25  27
ENDBRANCH  16  25
TORSDOF 4
