REMARK  9 active torsions:
REMARK  status: ('A' for Active; 'I' for Inactive)
REMARK    1  A    between atoms: C13_13  and  S1_14 
REMARK    2  A    between atoms: C25_30  and  O5_31 
REMARK    3  A    between atoms: C31_37  and  C32_38 
REMARK    4  A    between atoms: C32_38  and  O6_39 
REMARK    5  A    between atoms: C40_47  and  C41_48 
REMARK    6  A    between atoms: C40_47  and  N1_56 
REMARK    7  A    between atoms: C41_48  and  C42_49 
REMARK    8  A    between atoms: C42_49  and  C43_50 
REMARK    9  A    between atoms: C43_50  and  O7_51 
REMARK       I    between atoms: C48_58  and  N2_59 
REMARK       I    between atoms: C48_58  and  N3_60 
ROOT
HETATM    1  C1  UNL     1      -0.208   6.442   0.432  1.00  0.00     0.010 C 
HETATM    2  C2  UNL     1       0.798   5.307   0.341  1.00  0.00    -0.010 C 
HETATM    3  C3  UNL     1       1.461   5.068   1.724  1.00  0.00     0.009 C 
HETATM    4  C4  UNL     1       2.097   3.684   1.917  1.00  0.00     0.039 C 
HETATM    5  C5  UNL     1       2.431   3.006   0.618  1.00  0.00    -0.049 C 
HETATM    6  C6  UNL     1       3.461   2.068   0.547  1.00  0.00     0.044 C 
HETATM    7  C7  UNL     1       3.695   1.405  -0.654  1.00  0.00     0.073 C 
HETATM    8  C8  UNL     1       3.098   1.867  -1.831  1.00  0.00     0.037 C 
HETATM    9  C9  UNL     1       2.011   2.736  -1.755  1.00  0.00     0.011 C 
HETATM   10  C10 UNL     1       1.612   3.224  -0.510  1.00  0.00    -0.047 C 
HETATM   11  C11 UNL     1       0.298   3.989  -0.331  1.00  0.00     0.024 C 
HETATM   12  C12 UNL     1      -0.683   3.113   0.514  1.00  0.00     0.033 C 
HETATM   13  C13 UNL     1      -2.144   2.792   0.117  1.00  0.00     0.140 C 
HETATM   14  C14 UNL     1      -2.622   1.595  -0.782  1.00  0.00     0.050 C 
HETATM   15  C15 UNL     1      -3.784   0.864  -0.099  1.00  0.00    -0.013 C 
HETATM   16  C16 UNL     1      -4.616   0.106  -0.843  1.00  0.00    -0.050 C 
HETATM   17  C17 UNL     1      -4.219  -0.111  -2.279  1.00  0.00     0.043 C 
HETATM   18  C18 UNL     1      -2.791  -0.657  -2.188  1.00  0.00     0.013 C 
HETATM   19  C19 UNL     1      -2.688  -2.010  -1.340  1.00  0.00     0.039 C 
HETATM   20  C20 UNL     1      -4.021  -2.716  -0.952  1.00  0.00     0.130 C 
HETATM   21  O4  UNL     1      -4.600  -1.966   0.120  1.00  0.00    -0.371 OA
HETATM   22  C21 UNL     1      -5.521  -0.951  -0.300  1.00  0.00     0.185 C 
HETATM   23  C22 UNL     1      -6.511  -0.693   0.827  1.00  0.00    -0.006 A 
HETATM   24  C23 UNL     1      -6.826   0.600   1.277  1.00  0.00     0.014 A 
HETATM   25  C24 UNL     1      -7.791   0.792   2.272  1.00  0.00     0.037 A 
HETATM   26  C25 UNL     1      -8.461  -0.304   2.808  1.00  0.00     0.067 A 
HETATM   27  C26 UNL     1      -8.189  -1.596   2.373  1.00  0.00     0.057 A 
HETATM   28  C27 UNL     1      -7.217  -1.791   1.392  1.00  0.00     0.029 A 
HETATM   29  C28 UNL     1      -6.898  -3.128   0.955  1.00  0.00    -0.066 C 
HETATM   30  C29 UNL     1      -6.301  -4.052   0.463  1.00  0.00    -0.101 C 
HETATM   31  C30 UNL     1      -5.305  -4.869  -0.277  1.00  0.00     0.103 C 
HETATM   32  C31 UNL     1      -3.900  -4.178  -0.430  1.00  0.00     0.049 C 
HETATM   33  C33 UNL     1      -1.824   0.539  -1.682  1.00  0.00     0.102 A 
HETATM   34  C34 UNL     1      -0.440  -0.036  -1.462  1.00  0.00     0.081 A 
HETATM   35  C35 UNL     1       0.269  -0.425  -2.618  1.00  0.00     0.006 C 
HETATM   36  C36 UNL     1       1.581  -0.886  -2.553  1.00  0.00     0.010 C 
HETATM   37  C37 UNL     1       2.271  -0.917  -1.332  1.00  0.00    -0.003 C 
HETATM   38  C38 UNL     1       1.503  -0.694  -0.165  1.00  0.00     0.010 C 
HETATM   39  C39 UNL     1       0.161  -0.267  -0.230  1.00  0.00     0.006 C 
HETATM   40  C40 UNL     1       3.842  -0.904  -1.344  1.00  0.00     0.170 C 
HETATM   41  O8  UNL     1       4.368   0.201  -0.544  1.00  0.00    -0.316 OA
HETATM   42 NA1  UNL     1       0.000   0.000   0.000  1.00  0.00    -0.223 Na
ENDROOT
BRANCH  40  43
HETATM   43  C41 UNL     1       4.360  -2.270  -0.761  1.00  0.00     0.070 C 
BRANCH  43  44
HETATM   44  C42 UNL     1       4.425  -2.502   0.759  1.00  0.00     0.043 C 
BRANCH  44  45
HETATM   45  C43 UNL     1       5.695  -2.017   1.488  1.00  0.00     0.058 C 
HETATM   46  C44 UNL     1       7.023  -2.436   0.861  1.00  0.00     0.038 C 
HETATM   47  C45 UNL     1       8.040  -2.259   1.986  1.00  0.00     0.003 C 
HETATM   48  C46 UNL     1       7.264  -2.453   3.291  1.00  0.00     0.003 C 
HETATM   49  C47 UNL     1       5.799  -2.632   2.892  1.00  0.00     0.038 C 
BRANCH  45  50
HETATM   50  O7  UNL     1       5.709  -0.593   1.632  1.00  0.00    -0.390 OA
HETATM   51  H44 UNL     1       4.779  -0.284   1.628  1.00  0.00     0.210 HD
ENDBRANCH  45  50
ENDBRANCH  44  45
ENDBRANCH  43  44
ENDBRANCH  40  43
BRANCH  40  52
HETATM   52  N1  UNL     1       4.332  -0.952  -2.755  1.00  0.00    -0.336 N 
HETATM   53  C48 UNL     1       5.496  -0.539  -3.068  1.00  0.00     0.124 C 
HETATM   54  N2  UNL     1       6.450   0.042  -2.313  1.00  0.00    -0.279 NA
HETATM   55  N3  UNL     1       5.914  -0.630  -4.350  1.00  0.00    -0.279 NA
HETATM   56  H53 UNL     1       6.231   0.095  -1.320  1.00  0.00     0.126 HD
HETATM   57  H54 UNL     1       7.381  -0.322  -2.471  1.00  0.00     0.126 HD
HETATM   58  H55 UNL     1       5.125  -0.845  -4.953  1.00  0.00     0.126 HD
HETATM   59  H56 UNL     1       6.370   0.221  -4.650  1.00  0.00     0.126 HD
ATOM     60  H1  UNL     1       3.722  -1.323  -3.483  1.00  0.00     0.165 HD
ENDBRANCH  40  52
BRANCH  13  61
HETATM   61  S1  UNL     1      -3.106   4.293  -0.290  1.00  0.00     0.106 S 
HETATM   62  O1  UNL     1      -2.924   5.150   0.878  1.00  0.00    -0.595 OA
HETATM   63  O2  UNL     1      -4.489   3.840  -0.452  1.00  0.00    -0.595 OA
HETATM   64  O3  UNL     1      -2.490   4.771  -1.530  1.00  0.00    -0.595 OA
ENDBRANCH  13  61
BRANCH  32  65
HETATM   65  C32 UNL     1      -3.129  -4.258   0.898  1.00  0.00     0.172 C 
BRANCH  65  66
HETATM   66  O6  UNL     1      -2.825  -5.624   1.199  1.00  0.00    -0.400 OA
HETATM   67  H34 UNL     1      -2.061  -5.880   0.643  1.00  0.00     0.209 HD
ENDBRANCH  65  66
ENDBRANCH  32  65
BRANCH  26  68
HETATM   68  O5  UNL     1      -9.413  -0.139   3.776  1.00  0.00    -0.361 OA
HETATM   69  H27 UNL     1      -9.336   0.773   4.111  1.00  0.00     0.217 HD
ENDBRANCH  26  68
TORSDOF 9
