REMARK  9 active torsions:
REMARK  status: ('A' for Active; 'I' for Inactive)
REMARK    1  A    between atoms: C4_4  and  C5_5 
REMARK    2  A    between atoms: C5_5  and  C6_6 
REMARK    3  A    between atoms: C6_6  and  C7_7 
REMARK    4  A    between atoms: C7_7  and  C9_9 
REMARK    5  A    between atoms: C16_16  and  O1_17 
REMARK    6  A    between atoms: C22_23  and  O2_24 
REMARK    7  A    between atoms: C24_26  and  O3_27 
REMARK    8  A    between atoms: C25_28  and  C27_30 
REMARK    9  A    between atoms: C27_30  and  O5_32 
ROOT
HETATM    1  C9  UNL     1       2.513   0.377   0.901  1.00  0.00    -0.002 C 
HETATM    2  C10 UNL     1       2.334   0.518   2.434  1.00  0.00     0.007 C 
HETATM    3  C11 UNL     1       0.853   0.223   2.736  1.00  0.00     0.015 C 
HETATM    4  C12 UNL     1       0.278  -0.404   1.443  1.00  0.00    -0.005 C 
HETATM    5  C13 UNL     1       0.625  -1.920   1.477  1.00  0.00     0.021 C 
HETATM    6  C14 UNL     1      -1.222  -0.356   1.151  1.00  0.00     0.003 C 
HETATM    7  C15 UNL     1      -1.697  -0.358  -0.126  1.00  0.00    -0.030 C 
HETATM    8  C16 UNL     1      -0.700  -0.370  -1.304  1.00  0.00     0.149 C 
HETATM    9  C17 UNL     1       0.807  -0.185  -0.996  1.00  0.00     0.047 C 
HETATM   10  C18 UNL     1       1.053   0.457   0.366  1.00  0.00    -0.026 C 
HETATM   11  C19 UNL     1       0.568   1.934   0.310  1.00  0.00     0.016 C 
HETATM   12  C20 UNL     1      -3.229  -0.177  -0.458  1.00  0.00     0.014 C 
HETATM   13  C21 UNL     1      -3.363   1.353  -0.715  1.00  0.00     0.023 C 
HETATM   14  C22 UNL     1      -3.704  -1.022  -1.715  1.00  0.00     0.133 C 
HETATM   15  C23 UNL     1      -5.087  -1.692  -1.598  1.00  0.00     0.065 C 
HETATM   16  C24 UNL     1      -6.097  -0.800  -0.882  1.00  0.00     0.139 C 
HETATM   17  C25 UNL     1      -5.669  -0.596   0.593  1.00  0.00     0.072 C 
HETATM   18  C26 UNL     1      -6.247  -1.791   1.416  1.00  0.00     0.030 C 
HETATM   19  C28 UNL     1      -4.090  -0.645   0.767  1.00  0.00     0.029 C 
HETATM   20  C29 UNL     1      -3.618  -0.042   2.086  1.00  0.00     0.090 C 
HETATM   21  C30 UNL     1      -2.151  -0.272   2.322  1.00  0.00     0.157 C 
HETATM   22  O6  UNL     1      -1.731  -0.309   3.482  1.00  0.00    -0.293 OA
ENDROOT
BRANCH   1  23
HETATM   23  C7  UNL     1       3.690   1.227   0.336  1.00  0.00    -0.014 C 
HETATM   24  C8  UNL     1       3.580   2.748   0.484  1.00  0.00     0.010 C 
BRANCH  23  25
HETATM   25  C6  UNL     1       4.017   0.847  -1.127  1.00  0.00     0.008 C 
BRANCH  25  26
HETATM   26  C5  UNL     1       5.403   1.292  -1.627  1.00  0.00     0.028 C 
BRANCH  26  27
HETATM   27  C4  UNL     1       6.546   0.672  -0.868  1.00  0.00    -0.025 C 
HETATM   28  C2  UNL     1       7.191  -0.478  -1.149  1.00  0.00    -0.091 C 
HETATM   29  C1  UNL     1       6.845  -1.400  -2.286  1.00  0.00     0.042 C 
HETATM   30  C3  UNL     1       8.348  -0.937  -0.305  1.00  0.00     0.042 C 
ENDBRANCH  26  27
ENDBRANCH  25  26
ENDBRANCH  23  25
ENDBRANCH   1  23
BRANCH   8  31
HETATM   31  O1  UNL     1      -0.841  -1.602  -2.015  1.00  0.00    -0.391 OA
HETATM   32  H25 UNL     1      -0.101  -1.678  -2.640  1.00  0.00     0.210 HD
ENDBRANCH   8  31
BRANCH  14  33
HETATM   33  O2  UNL     1      -3.757  -0.203  -2.897  1.00  0.00    -0.394 OA
HETATM   34  H35 UNL     1      -2.831  -0.049  -3.176  1.00  0.00     0.210 HD
ENDBRANCH  14  33
BRANCH  17  35
HETATM   35  C27 UNL     1      -6.394   0.640   1.142  1.00  0.00     0.151 C 
HETATM   36  O4  UNL     1      -7.514   0.654   1.636  1.00  0.00    -0.649 OA
BRANCH  35  37
HETATM   37  O5  UNL     1      -5.720   1.794   1.039  1.00  0.00    -0.776 OA
HETATM   38  H43 UNL     1      -6.372   2.470   1.325  1.00  0.00     0.167 HD
ENDBRANCH  35  37
ENDBRANCH  17  35
BRANCH  16  39
HETATM   39  O3  UNL     1      -6.251   0.426  -1.599  1.00  0.00    -0.394 OA
HETATM   40  H39 UNL     1      -5.655   0.399  -2.379  1.00  0.00     0.210 HD
ENDBRANCH  16  39
TORSDOF 9
