REMARK  5 active torsions:
REMARK  status: ('A' for Active; 'I' for Inactive)
REMARK    1  A    between atoms: C3_3  and  C4_4 
REMARK    2  A    between atoms: C4_4  and  O2_6 
REMARK    3  A    between atoms: O2_6  and  C5_7 
REMARK    4  A    between atoms: C5_7  and  C6_8 
REMARK    5  A    between atoms: C12_14  and  C13_15 
ROOT
HETATM    1  C1  UNL     1       1.473   3.060   2.426  1.00  0.00     0.069 C 
HETATM    2  C2  UNL     1       0.476   2.520   1.433  1.00  0.00     0.018 C 
HETATM    3  C3  UNL     1       0.451   1.247   0.981  1.00  0.00     0.052 C 
HETATM    4  C12 UNL     1      -0.585   0.757  -0.023  1.00  0.00     0.104 C 
HETATM    5  C22 UNL     1      -1.398   1.915  -0.605  1.00  0.00     0.024 C 
HETATM    6  C23 UNL     1      -1.308   3.167  -0.108  1.00  0.00     0.020 C 
HETATM    7  C24 UNL     1      -2.079   4.332  -0.677  1.00  0.00     0.058 C 
HETATM    8  C25 UNL     1      -2.492   4.096  -2.125  1.00  0.00     0.014 C 
HETATM    9  C26 UNL     1      -3.171   2.747  -2.284  1.00  0.00     0.084 C 
HETATM   10  C27 UNL     1      -2.303   1.628  -1.754  1.00  0.00     0.158 C 
HETATM   11  O5  UNL     1      -2.383   0.492  -2.217  1.00  0.00    -0.293 OA
HETATM   12  N1  UNL     1      -0.448   3.434   0.944  1.00  0.00    -0.362 N 
HETATM   13  H22 UNL     1      -0.329   4.405   1.223  1.00  0.00     0.165 HD
ENDROOT
BRANCH   4  14
HETATM   14  C13 UNL     1      -1.475  -0.298   0.618  1.00  0.00     0.029 A 
HETATM   15  C14 UNL     1      -2.570  -0.059   1.356  1.00  0.00     0.154 A 
HETATM   16  O3  UNL     1      -3.406  -0.992   1.919  1.00  0.00    -0.321 OA
HETATM   17  C15 UNL     1      -3.121  -2.314   1.701  1.00  0.00     0.089 A 
HETATM   18  C16 UNL     1      -3.992  -3.254   2.253  1.00  0.00     0.040 A 
HETATM   19  C20 UNL     1      -2.015  -2.735   0.967  1.00  0.00     0.050 A 
HETATM   20  C17 UNL     1      -3.749  -4.617   2.066  1.00  0.00     0.026 A 
HETATM   21  C18 UNL     1      -2.635  -5.031   1.333  1.00  0.00     0.035 A 
HETATM   22 CL1  UNL     1      -2.343  -6.712   1.108  1.00  0.00    -0.084 Cl
HETATM   23  C19 UNL     1      -1.762  -4.097   0.781  1.00  0.00     0.042 A 
HETATM   24  C21 UNL     1      -1.115  -1.721   0.392  1.00  0.00     0.194 A 
HETATM   25  O4  UNL     1      -0.112  -2.052  -0.229  1.00  0.00    -0.287 OA
ENDBRANCH   4  14
BRANCH   3  26
HETATM   26  C4  UNL     1       1.449   0.258   1.425  1.00  0.00     0.292 C 
HETATM   27  O1  UNL     1       1.514  -0.191   2.558  1.00  0.00    -0.259 OA
BRANCH  26  28
HETATM   28  O2  UNL     1       2.255  -0.033   0.381  1.00  0.00    -0.313 OA
BRANCH  28  29
HETATM   29  C5  UNL     1       3.195  -1.073   0.653  1.00  0.00     0.217 C 
BRANCH  29  30
HETATM   30  C6  UNL     1       3.942  -1.366  -0.622  1.00  0.00    -0.034 A 
HETATM   31  C7  UNL     1       3.275  -1.960  -1.704  1.00  0.00     0.009 A 
HETATM   32  C8  UNL     1       3.952  -2.228  -2.894  1.00  0.00     0.001 A 
HETATM   33  C9  UNL     1       5.301  -1.903  -3.016  1.00  0.00     0.000 A 
HETATM   34  C10 UNL     1       5.974  -1.308  -1.950  1.00  0.00     0.001 A 
HETATM   35  C11 UNL     1       5.297  -1.037  -0.759  1.00  0.00     0.009 A 
ENDBRANCH  29  30
ENDBRANCH  28  29
ENDBRANCH  26  28
ENDBRANCH   3  26
TORSDOF 5
