REMARK  13 active torsions:
REMARK  status: ('A' for Active; 'I' for Inactive)
REMARK    1  A    between atoms: C3_3  and  O1_4 
REMARK    2  A    between atoms: N1_14  and  O2_16 
REMARK    3  A    between atoms: O2_16  and  C13_17 
REMARK    4  A    between atoms: C13_17  and  C14_18 
REMARK       I    between atoms: C14_18  and  N2_20 
REMARK    5  A    between atoms: N2_20  and  C15_21 
REMARK    6  A    between atoms: C15_21  and  C16_22 
REMARK    7  A    between atoms: C15_21  and  C21_32 
REMARK       I    between atoms: C16_22  and  N3_24 
REMARK    8  A    between atoms: N3_24  and  C17_25 
REMARK    9  A    between atoms: C17_25  and  C18_26 
REMARK   10  A    between atoms: C17_25  and  C19_28 
REMARK   11  A    between atoms: C18_26  and  S1_27 
REMARK   12  A    between atoms: C19_28  and  C20_29 
REMARK   13  A    between atoms: C20_29  and  O6_31 
ROOT
HETATM    1  C1  UNL     1      -7.448   4.663   3.096  1.00  0.00     0.015 C 
HETATM    2  C2  UNL     1      -7.265   3.623   2.526  1.00  0.00    -0.078 C 
HETATM    3  C3  UNL     1      -7.025   2.312   1.898  1.00  0.00     0.128 C 
HETATM    4  C4  UNL     1      -8.308   1.671   1.372  1.00  0.00     0.052 C 
HETATM    5  C5  UNL     1      -7.826   0.580   0.415  1.00  0.00     0.010 C 
HETATM    6  C6  UNL     1      -6.414   0.988  -0.052  1.00  0.00     0.002 C 
HETATM    7  C7  UNL     1      -5.350  -0.125   0.039  1.00  0.00    -0.004 C 
HETATM    8  C8  UNL     1      -5.129  -0.818   1.391  1.00  0.00     0.010 C 
HETATM    9  C9  UNL     1      -4.108  -1.951   1.268  1.00  0.00     0.035 C 
HETATM   10  C10 UNL     1      -2.813  -1.547   0.592  1.00  0.00    -0.069 C 
HETATM   11  C11 UNL     1      -1.636  -1.973   1.088  1.00  0.00     0.030 C 
HETATM   12  C12 UNL     1      -0.343  -1.708   0.397  1.00  0.00     0.032 C 
HETATM   13  N1  UNL     1       0.756  -2.116   0.965  1.00  0.00    -0.271 N 
ATOM     14  H1  UNL     1       0.801  -2.610   1.856  1.00  0.00     0.194 HD
HETATM   15  C24 UNL     1      -0.401  -1.046  -0.971  1.00  0.00     0.060 C 
HETATM   16  C25 UNL     1      -1.553  -0.056  -1.022  1.00  0.00     0.020 C 
HETATM   17  C26 UNL     1      -2.932  -0.687  -0.669  1.00  0.00    -0.016 C 
HETATM   18  C27 UNL     1      -3.355  -1.603  -1.845  1.00  0.00     0.020 C 
HETATM   19  C28 UNL     1      -4.013   0.451  -0.476  1.00  0.00     0.002 C 
HETATM   20  C29 UNL     1      -3.545   1.588   0.457  1.00  0.00     0.007 C 
HETATM   21  C30 UNL     1      -4.603   2.571   0.988  1.00  0.00     0.014 C 
HETATM   22  C31 UNL     1      -6.091   2.339   0.645  1.00  0.00     0.003 C 
HETATM   23  C32 UNL     1      -6.519   3.475  -0.337  1.00  0.00     0.020 C 
ENDROOT
BRANCH   3  24
HETATM   24  O1  UNL     1      -6.525   1.435   2.907  1.00  0.00    -0.377 OA
HETATM   25  H2  UNL     1      -5.868   1.920   3.424  1.00  0.00     0.211 HD
ENDBRANCH   3  24
BRANCH  13  26
HETATM   26  O2  UNL     1       1.867  -1.782   0.182  1.00  0.00    -0.271 OA
BRANCH  26  27
HETATM   27  C13 UNL     1       2.988  -2.561   0.571  1.00  0.00     0.303 C 
BRANCH  27  28
HETATM   28  C14 UNL     1       4.133  -2.201  -0.366  1.00  0.00     0.244 C 
HETATM   29  O3  UNL     1       3.972  -1.756  -1.502  1.00  0.00    -0.271 OA
HETATM   30  N2  UNL     1       5.397  -2.419   0.143  1.00  0.00    -0.346 N 
HETATM   31  H16 UNL     1       5.524  -2.649   1.121  1.00  0.00     0.163 HD
BRANCH  30  32
HETATM   32  C15 UNL     1       6.610  -2.137  -0.646  1.00  0.00     0.180 C 
BRANCH  32  33
HETATM   33  C16 UNL     1       7.125  -0.731  -0.231  1.00  0.00     0.241 C 
HETATM   34  O4  UNL     1       8.293  -0.505   0.088  1.00  0.00    -0.271 OA
HETATM   35  N3  UNL     1       6.162   0.266  -0.316  1.00  0.00    -0.353 N 
HETATM   36  H18 UNL     1       5.236  -0.004  -0.642  1.00  0.00     0.163 HD
BRANCH  35  37
HETATM   37  C17 UNL     1       6.432   1.654   0.052  1.00  0.00     0.103 C 
BRANCH  37  38
HETATM   38  C18 UNL     1       5.977   1.969   1.501  1.00  0.00     0.096 C 
BRANCH  38  39
HETATM   39  S1  UNL     1       6.716   0.934   2.804  1.00  0.00    -0.180 SA
HETATM   40  H22 UNL     1       6.468   1.772   3.825  1.00  0.00     0.101 HD
ENDBRANCH  38  39
ENDBRANCH  37  38
BRANCH  37  41
HETATM   41  C19 UNL     1       5.698   2.615  -0.904  1.00  0.00     0.136 C 
BRANCH  41  42
HETATM   42  C20 UNL     1       6.321   2.681  -2.274  1.00  0.00     0.141 C 
HETATM   43  O5  UNL     1       7.183   1.966  -2.754  1.00  0.00    -0.650 OA
BRANCH  42  44
HETATM   44  O6  UNL     1       5.785   3.685  -3.003  1.00  0.00    -0.776 OA
HETATM   45  H25 UNL     1       6.218   3.604  -3.879  1.00  0.00     0.167 HD
ENDBRANCH  42  44
ENDBRANCH  41  42
ENDBRANCH  37  41
ENDBRANCH  35  37
ENDBRANCH  32  33
BRANCH  32  46
HETATM   46  C21 UNL     1       7.679  -3.242  -0.459  1.00  0.00     0.009 C 
HETATM   47  C22 UNL     1       8.763  -3.154  -1.541  1.00  0.00     0.012 C 
HETATM   48  C23 UNL     1       7.074  -4.653  -0.497  1.00  0.00     0.012 C 
ENDBRANCH  32  46
ENDBRANCH  30  32
ENDBRANCH  27  28
ENDBRANCH  26  27
ENDBRANCH  13  26
TORSDOF 13
