REMARK  18 active torsions:
REMARK  status: ('A' for Active; 'I' for Inactive)
REMARK    1  A    between atoms: C2_2  and  C4_4 
REMARK    2  A    between atoms: C4_4  and  N1_5 
REMARK    3  A    between atoms: C4_4  and  C30_38 
REMARK       I    between atoms: N1_5  and  C5_6 
REMARK    4  A    between atoms: C5_6  and  C6_8 
REMARK    5  A    between atoms: C6_8  and  C7_9 
REMARK    6  A    between atoms: C7_9  and  C8_10 
REMARK    7  A    between atoms: C8_10  and  O3_12 
REMARK    8  A    between atoms: O3_12  and  C9_13 
REMARK    9  A    between atoms: C9_13  and  C10_14 
REMARK   10  A    between atoms: C10_14  and  C11_16 
REMARK   11  A    between atoms: C11_16  and  O5_17 
REMARK   12  A    between atoms: C26_33  and  O7_34 
REMARK       I    between atoms: C30_38  and  N2_40 
REMARK   13  A    between atoms: N2_40  and  C31_41 
REMARK   14  A    between atoms: C31_41  and  C32_42 
REMARK   15  A    between atoms: C32_42  and  C33_43 
REMARK   16  A    between atoms: C32_42  and  C35_47 
REMARK   17  A    between atoms: C33_43  and  C34_44 
REMARK   18  A    between atoms: C34_44  and  O10_46 
ROOT
HETATM    1  C8  UNL     1       0.302  -0.486   0.267  1.00  0.00     0.259 C 
HETATM    2  O2  UNL     1      -0.421  -1.337  -0.238  1.00  0.00    -0.265 OA
ENDROOT
BRANCH   1   3
HETATM    3  C7  UNL     1       1.625  -0.799   0.928  1.00  0.00     0.120 C 
BRANCH   3   4
HETATM    4  C6  UNL     1       2.390   0.438   1.387  1.00  0.00     0.112 C 
BRANCH   4   5
HETATM    5  C5  UNL     1       3.751   0.106   1.957  1.00  0.00     0.218 C 
HETATM    6  N1  UNL     1       4.418   1.232   2.399  1.00  0.00    -0.347 N 
HETATM    7  H9  UNL     1       4.157   2.093   1.933  1.00  0.00     0.163 HD
HETATM    8  O1  UNL     1       4.209  -1.028   2.022  1.00  0.00    -0.274 OA
BRANCH   6   9
HETATM    9  C4  UNL     1       5.825   1.153   2.796  1.00  0.00     0.179 C 
BRANCH   9  10
HETATM   10  C2  UNL     1       6.142   2.216   3.873  1.00  0.00     0.009 C 
HETATM   11  C1  UNL     1       7.502   1.988   4.535  1.00  0.00     0.012 C 
HETATM   12  C3  UNL     1       6.049   3.659   3.363  1.00  0.00     0.012 C 
ENDBRANCH   9  10
BRANCH   9  13
HETATM   13  C30 UNL     1       6.676   1.308   1.513  1.00  0.00     0.240 C 
HETATM   14  O8  UNL     1       6.264   1.911   0.522  1.00  0.00    -0.271 OA
HETATM   15  N2  UNL     1       7.936   0.758   1.586  1.00  0.00    -0.359 N 
HETATM   16  H43 UNL     1       8.187   0.202   2.397  1.00  0.00     0.162 HD
BRANCH  15  17
HETATM   17  C31 UNL     1       8.882   0.816   0.486  1.00  0.00     0.132 C 
BRANCH  17  18
HETATM   18  C32 UNL     1       9.059  -0.543  -0.223  1.00  0.00     0.046 C 
BRANCH  18  19
HETATM   19  C33 UNL     1       7.796  -0.953  -0.996  1.00  0.00     0.120 C 
BRANCH  19  20
HETATM   20  C34 UNL     1       7.867  -2.394  -1.421  1.00  0.00     0.140 C 
HETATM   21  O9  UNL     1       8.313  -3.326  -0.771  1.00  0.00    -0.650 OA
BRANCH  20  22
HETATM   22  O10 UNL     1       7.329  -2.605  -2.635  1.00  0.00    -0.776 OA
HETATM   23  H49 UNL     1       7.430  -3.569  -2.778  1.00  0.00     0.167 HD
ENDBRANCH  20  22
ENDBRANCH  19  20
ENDBRANCH  18  19
BRANCH  18  24
HETATM   24  C35 UNL     1      10.283  -0.513  -1.133  1.00  0.00    -0.052 A 
HETATM   25  C36 UNL     1      11.305  -1.458  -0.954  1.00  0.00     0.007 A 
HETATM   26  C37 UNL     1      12.431  -1.452  -1.778  1.00  0.00     0.001 A 
HETATM   27  C38 UNL     1      12.551  -0.504  -2.792  1.00  0.00     0.000 A 
HETATM   28  C39 UNL     1      11.541   0.435  -2.986  1.00  0.00     0.001 A 
HETATM   29  C40 UNL     1      10.413   0.431  -2.165  1.00  0.00     0.007 A 
ENDBRANCH  18  24
ENDBRANCH  17  18
ENDBRANCH  15  17
ENDBRANCH   9  13
ENDBRANCH   6   9
ENDBRANCH   4   5
ENDBRANCH   3   4
ENDBRANCH   1   3
BRANCH   1  30
HETATM   30  O3  UNL     1       0.014   0.841   0.293  1.00  0.00    -0.314 OA
BRANCH  30  31
HETATM   31  C9  UNL     1      -1.238   1.201  -0.292  1.00  0.00     0.260 C 
BRANCH  31  32
HETATM   32  C10 UNL     1      -2.423   0.969   0.640  1.00  0.00     0.185 C 
HETATM   33  O4  UNL     1      -2.276   0.540   1.791  1.00  0.00    -0.292 OA
BRANCH  32  34
HETATM   34  C11 UNL     1      -3.835   1.346   0.152  1.00  0.00     0.128 C 
HETATM   35  C12 UNL     1      -3.929   2.199  -1.139  1.00  0.00     0.047 C 
HETATM   36  C13 UNL     1      -5.207   1.744  -1.872  1.00  0.00     0.009 C 
HETATM   37  C14 UNL     1      -5.922   0.857  -0.861  1.00  0.00     0.002 C 
HETATM   38  C15 UNL     1      -7.030  -0.082  -1.359  1.00  0.00    -0.002 C 
HETATM   39  C28 UNL     1      -4.769   0.128  -0.133  1.00  0.00     0.001 C 
HETATM   40  C16 UNL     1      -8.091   0.705  -2.157  1.00  0.00     0.010 C 
HETATM   41  C25 UNL     1      -7.651  -0.805  -0.109  1.00  0.00     0.031 C 
HETATM   42  C17 UNL     1      -9.334  -0.122  -2.485  1.00  0.00     0.035 C 
HETATM   43  C18 UNL     1      -9.858  -0.739  -1.215  1.00  0.00    -0.068 C 
HETATM   44  C19 UNL     1     -11.036  -0.340  -0.704  1.00  0.00     0.053 C 
HETATM   45  C23 UNL     1      -8.888  -1.696  -0.508  1.00  0.00    -0.014 C 
HETATM   46  C20 UNL     1     -11.444  -0.716   0.668  1.00  0.00     0.149 C 
HETATM   47  O6  UNL     1     -12.554  -0.395   1.080  1.00  0.00    -0.293 OA
HETATM   48  C21 UNL     1     -10.416  -1.387   1.544  1.00  0.00     0.084 C 
HETATM   49  C22 UNL     1      -9.590  -2.355   0.714  1.00  0.00     0.022 C 
HETATM   50  C24 UNL     1      -8.524  -2.869  -1.456  1.00  0.00     0.020 C 
HETATM   51  C26 UNL     1      -6.567  -1.498   0.765  1.00  0.00     0.124 C 
HETATM   52  C27 UNL     1      -5.374  -0.578   1.103  1.00  0.00     0.045 C 
HETATM   53  C29 UNL     1      -4.020  -0.894  -1.029  1.00  0.00     0.019 C 
BRANCH  34  54
HETATM   54  O5  UNL     1      -4.385   2.154   1.211  1.00  0.00    -0.381 OA
HETATM   55  H16 UNL     1      -4.148   1.709   2.052  1.00  0.00     0.211 HD
ENDBRANCH  34  54
BRANCH  51  56
HETATM   56  O7  UNL     1      -6.090  -2.678   0.138  1.00  0.00    -0.395 OA
HETATM   57  H37 UNL     1      -5.623  -3.209   0.809  1.00  0.00     0.210 HD
ENDBRANCH  51  56
ENDBRANCH  32  34
ENDBRANCH  31  32
ENDBRANCH  30  31
ENDBRANCH   1  30
TORSDOF 18
