REMARK  6 active torsions:
REMARK  status: ('A' for Active; 'I' for Inactive)
REMARK    1  A    between atoms: C15_17  and  C16_18 
REMARK    2  A    between atoms: C22_26  and  O5_27 
REMARK    3  A    between atoms: C23_28  and  C24_29 
REMARK    4  A    between atoms: C27_34  and  O8_35 
REMARK    5  A    between atoms: C28_36  and  O9_37 
REMARK    6  A    between atoms: C29_38  and  O10_39 
ROOT
HETATM    1  C1  UNL     1       6.489   1.045  -2.822  1.00  0.00     0.042 C 
HETATM    2  C2  UNL     1       6.761   0.649  -1.372  1.00  0.00     0.152 C 
HETATM    3  O1  UNL     1       5.612   1.060  -0.606  1.00  0.00    -0.348 OA
HETATM    4  C3  UNL     1       5.454   0.277   0.574  1.00  0.00     0.325 C 
HETATM    5  O2  UNL     1       4.530   0.888   1.489  1.00  0.00    -0.347 OA
HETATM    6  C4  UNL     1       3.208   0.887   0.946  1.00  0.00     0.158 C 
HETATM    7  C5  UNL     1       2.269   1.589   1.924  1.00  0.00     0.069 C 
HETATM    8  C6  UNL     1       0.843   1.545   1.425  1.00  0.00    -0.065 C 
HETATM    9  C7  UNL     1       0.135   2.680   1.289  1.00  0.00    -0.022 C 
HETATM   10  C8  UNL     1      -1.294   2.736   0.831  1.00  0.00     0.035 C 
HETATM   11  C9  UNL     1      -1.992   1.365   0.913  1.00  0.00     0.030 C 
HETATM   12  C10 UNL     1      -1.079   0.282   0.288  1.00  0.00     0.012 C 
HETATM   13  C11 UNL     1      -1.809  -1.057   0.067  1.00  0.00     0.007 C 
HETATM   14  C12 UNL     1      -3.160  -1.142   0.777  1.00  0.00     0.013 C 
HETATM   15  C13 UNL     1      -4.153  -0.014   0.403  1.00  0.00    -0.005 C 
HETATM   16  C14 UNL     1      -5.280  -0.032   1.463  1.00  0.00     0.019 C 
HETATM   17  C15 UNL     1      -4.724  -0.222  -1.053  1.00  0.00     0.028 C 
HETATM   18  C20 UNL     1      -4.814   1.193  -1.624  1.00  0.00     0.013 C 
HETATM   19  C21 UNL     1      -3.512   1.816  -1.138  1.00  0.00     0.040 C 
HETATM   20  C22 UNL     1      -3.427   1.385   0.336  1.00  0.00     0.070 C 
HETATM   21  C23 UNL     1       0.283   0.163   1.064  1.00  0.00     0.043 C 
HETATM   22  C25 UNL     1       1.314  -0.596   0.184  1.00  0.00     0.056 C 
HETATM   23  C26 UNL     1       2.746  -0.560   0.739  1.00  0.00     0.156 C 
HETATM   24  O7  UNL     1       3.605  -1.237  -0.186  1.00  0.00    -0.341 OA
HETATM   25  C27 UNL     1       4.997  -1.176   0.200  1.00  0.00     0.242 C 
HETATM   26  C28 UNL     1       5.801  -1.676  -1.040  1.00  0.00     0.216 C 
HETATM   27  C29 UNL     1       7.078  -0.865  -1.258  1.00  0.00     0.181 C 
ENDROOT
BRANCH  17  28
HETATM   28  C16 UNL     1      -5.964  -1.053  -1.204  1.00  0.00    -0.045 A 
HETATM   29  C17 UNL     1      -6.041  -2.378  -1.092  1.00  0.00     0.087 A 
HETATM   30  C18 UNL     1      -7.444  -2.751  -1.265  1.00  0.00     0.283 A 
HETATM   31  O3  UNL     1      -7.873  -3.883  -1.158  1.00  0.00    -0.260 OA
HETATM   32  O4  UNL     1      -8.166  -1.636  -1.542  1.00  0.00    -0.314 OA
HETATM   33  C19 UNL     1      -7.302  -0.495  -1.508  1.00  0.00     0.213 A 
ENDBRANCH  17  28
BRANCH  20  34
HETATM   34  O5  UNL     1      -4.177   2.375   1.055  1.00  0.00    -0.389 OA
HETATM   35  H29 UNL     1      -4.039   2.233   2.009  1.00  0.00     0.210 HD
ENDBRANCH  20  34
BRANCH  21  36
HETATM   36  C24 UNL     1       0.067  -0.631   2.368  1.00  0.00     0.245 C 
HETATM   37  O6  UNL     1      -0.529  -0.219   3.360  1.00  0.00    -0.306 OA
ENDBRANCH  21  36
BRANCH  25  38
HETATM   38  O8  UNL     1       5.195  -2.094   1.286  1.00  0.00    -0.359 OA
HETATM   39  H34 UNL     1       5.130  -1.576   2.105  1.00  0.00     0.213 HD
ENDBRANCH  25  38
BRANCH  26  40
HETATM   40  O9  UNL     1       6.143  -3.074  -0.921  1.00  0.00    -0.387 OA
HETATM   41  H36 UNL     1       5.822  -3.333  -0.026  1.00  0.00     0.210 HD
ENDBRANCH  26  40
BRANCH  27  42
HETATM   42  O10 UNL     1       7.948  -1.063  -0.135  1.00  0.00    -0.390 OA
HETATM   43  H38 UNL     1       8.397  -1.925  -0.276  1.00  0.00     0.210 HD
ENDBRANCH  27  42
TORSDOF 6
