REMARK  9 active torsions:
REMARK  status: ('A' for Active; 'I' for Inactive)
REMARK    1  A    between atoms: C2_2  and  C30_35 
REMARK    2  A    between atoms: C3_3  and  C4_4 
REMARK    3  A    between atoms: C4_4  and  O1_5 
REMARK    4  A    between atoms: C4_4  and  C5_6 
REMARK    5  A    between atoms: C5_6  and  C6_7 
REMARK    6  A    between atoms: C6_7  and  C8_9 
REMARK    7  A    between atoms: C10_11  and  O2_12 
REMARK    8  A    between atoms: C29_33  and  O5_34 
REMARK    9  A    between atoms: C30_35  and  O7_37 
ROOT
HETATM    1  C8  UNL     1       1.942  -1.854  -0.777  1.00  0.00     0.001 C 
HETATM    2  C9  UNL     1       1.251  -3.240  -0.913  1.00  0.00     0.038 C 
HETATM    3  C10 UNL     1      -0.245  -3.019  -0.612  1.00  0.00     0.132 C 
HETATM    4  C11 UNL     1      -0.462  -1.496  -0.838  1.00  0.00     0.017 C 
HETATM    5  C12 UNL     1      -0.564  -1.250  -2.382  1.00  0.00     0.023 C 
HETATM    6  C13 UNL     1      -1.683  -0.771  -0.261  1.00  0.00    -0.029 C 
HETATM    7  C14 UNL     1      -1.667   0.579  -0.080  1.00  0.00     0.002 C 
HETATM    8  C15 UNL     1      -0.339   1.311  -0.227  1.00  0.00     0.157 C 
HETATM    9  O3  UNL     1      -0.270   2.535  -0.117  1.00  0.00    -0.293 OA
HETATM   10  C16 UNL     1       0.947   0.546  -0.513  1.00  0.00     0.094 C 
HETATM   11  C17 UNL     1       0.838  -0.936  -0.159  1.00  0.00    -0.019 C 
HETATM   12  C18 UNL     1       0.816  -1.059   1.391  1.00  0.00     0.017 C 
HETATM   13  C19 UNL     1      -2.939   1.390   0.310  1.00  0.00    -0.008 C 
HETATM   14  C20 UNL     1      -2.810   1.643   1.828  1.00  0.00     0.021 C 
HETATM   15  C21 UNL     1      -3.059   2.749  -0.439  1.00  0.00     0.022 C 
HETATM   16  C22 UNL     1      -4.368   3.487  -0.197  1.00  0.00     0.080 C 
HETATM   17  C23 UNL     1      -5.556   2.638  -0.558  1.00  0.00     0.135 C 
HETATM   18  O4  UNL     1      -6.470   3.114  -1.235  1.00  0.00    -0.297 OA
HETATM   19  C24 UNL     1      -5.619   1.225   0.035  1.00  0.00     0.018 C 
HETATM   20  C25 UNL     1      -6.151   1.325   1.471  1.00  0.00     0.023 C 
HETATM   21  C26 UNL     1      -6.668   0.424  -0.781  1.00  0.00     0.023 C 
HETATM   22  C27 UNL     1      -4.212   0.550  -0.119  1.00  0.00     0.016 C 
HETATM   23  C28 UNL     1      -4.139  -0.852   0.491  1.00  0.00     0.043 C 
HETATM   24  C29 UNL     1      -2.912  -1.612  -0.013  1.00  0.00     0.149 C 
ENDROOT
BRANCH   1  25
HETATM   25  C6  UNL     1       3.393  -1.929  -0.210  1.00  0.00    -0.011 C 
HETATM   26  C7  UNL     1       3.547  -2.573   1.174  1.00  0.00     0.010 C 
BRANCH  25  27
HETATM   27  C5  UNL     1       4.097  -0.550  -0.283  1.00  0.00     0.040 C 
BRANCH  27  28
HETATM   28  C4  UNL     1       5.631  -0.610  -0.196  1.00  0.00     0.142 C 
BRANCH  28  29
HETATM   29  C3  UNL     1       6.246   0.715  -0.561  1.00  0.00     0.018 C 
HETATM   30  C2  UNL     1       6.581   1.750   0.240  1.00  0.00     0.010 C 
HETATM   31  C1  UNL     1       6.334   1.821   1.720  1.00  0.00     0.055 C 
BRANCH  30  32
HETATM   32  C30 UNL     1       7.231   2.961  -0.328  1.00  0.00     0.171 C 
HETATM   33  O6  UNL     1       7.753   3.852   0.319  1.00  0.00    -0.646 OA
BRANCH  32  34
HETATM   34  O7  UNL     1       7.193   3.019  -1.670  1.00  0.00    -0.773 OA
HETATM   35  H44 UNL     1       7.639   3.867  -1.872  1.00  0.00     0.167 HD
ENDBRANCH  32  34
ENDBRANCH  30  32
ENDBRANCH  28  29
BRANCH  28  36
HETATM   36  O1  UNL     1       6.048  -1.008   1.100  1.00  0.00    -0.392 OA
HETATM   37  H6  UNL     1       7.020  -0.997   1.102  1.00  0.00     0.210 HD
ENDBRANCH  28  36
ENDBRANCH  27  28
ENDBRANCH  25  27
ENDBRANCH   1  25
BRANCH   3  38
HETATM   38  O2  UNL     1      -1.050  -3.834  -1.455  1.00  0.00    -0.394 OA
HETATM   39  H17 UNL     1      -0.768  -4.755  -1.315  1.00  0.00     0.210 HD
ENDBRANCH   3  38
BRANCH  24  40
HETATM   40  O5  UNL     1      -2.608  -2.580   0.986  1.00  0.00    -0.391 OA
HETATM   41  H43 UNL     1      -3.209  -3.329   0.835  1.00  0.00     0.210 HD
ENDBRANCH  24  40
TORSDOF 9
