REMARK  12 active torsions:
REMARK  status: ('A' for Active; 'I' for Inactive)
REMARK    1  A    between atoms: C19_21  and  O3_22 
REMARK    2  A    between atoms: C19_21  and  C20_23 
REMARK    3  A    between atoms: C20_23  and  C21_25 
REMARK    4  A    between atoms: C21_25  and  O5_26 
REMARK    5  A    between atoms: O5_26  and  C22_27 
REMARK    6  A    between atoms: C22_27  and  C23_29 
REMARK    7  A    between atoms: C23_29  and  C24_30 
REMARK    8  A    between atoms: C24_30  and  C25_31 
REMARK       I    between atoms: C25_31  and  N1_33 
REMARK    9  A    between atoms: N1_33  and  C26_34 
REMARK   10  A    between atoms: C26_34  and  C27_35 
REMARK   11  A    between atoms: C27_35  and  C28_36 
REMARK   12  A    between atoms: C31_39  and  O8_40 
ROOT
HETATM    1  C1  UNL     1      -6.952   0.702  -1.957  1.00  0.00     0.021 C 
HETATM    2  C2  UNL     1      -7.213  -0.414  -0.912  1.00  0.00    -0.009 C 
HETATM    3  C3  UNL     1      -7.877  -1.632  -1.630  1.00  0.00     0.022 C 
HETATM    4  C4  UNL     1      -9.306  -1.372  -2.086  1.00  0.00     0.084 C 
HETATM    5  C5  UNL     1     -10.151  -0.933  -0.919  1.00  0.00     0.149 C 
HETATM    6  O1  UNL     1     -11.354  -1.166  -0.851  1.00  0.00    -0.293 OA
HETATM    7  C6  UNL     1      -9.510  -0.104   0.128  1.00  0.00     0.053 C 
HETATM    8  C7  UNL     1      -8.194   0.178   0.109  1.00  0.00    -0.067 C 
HETATM    9  C8  UNL     1      -7.661   1.181   1.104  1.00  0.00     0.035 C 
HETATM   10  C9  UNL     1      -6.137   1.203   1.230  1.00  0.00     0.010 C 
HETATM   11  C10 UNL     1      -5.567  -0.212   1.154  1.00  0.00     0.003 C 
HETATM   12  C11 UNL     1      -5.898  -0.938  -0.193  1.00  0.00     0.072 C 
HETATM   13  C12 UNL     1      -4.702  -1.110  -1.161  1.00  0.00     0.133 C 
HETATM   14  O2  UNL     1      -4.858  -1.265  -2.374  1.00  0.00    -0.297 OA
HETATM   15  C13 UNL     1      -3.306  -1.261  -0.587  1.00  0.00     0.091 C 
HETATM   16  C14 UNL     1      -3.036  -0.202   0.480  1.00  0.00     0.005 C 
HETATM   17  C15 UNL     1      -3.039   1.200  -0.168  1.00  0.00     0.019 C 
HETATM   18  C16 UNL     1      -4.102  -0.388   1.578  1.00  0.00     0.002 C 
HETATM   19  C17 UNL     1      -3.557   0.409   2.766  1.00  0.00     0.009 C 
HETATM   20  C18 UNL     1      -2.022   0.336   2.630  1.00  0.00     0.047 C 
HETATM   21  C19 UNL     1      -1.740  -0.426   1.322  1.00  0.00     0.128 C 
ENDROOT
BRANCH  21  22
HETATM   22  O3  UNL     1      -1.643  -1.820   1.678  1.00  0.00    -0.381 OA
HETATM   23  H25 UNL     1      -1.123  -2.256   0.970  1.00  0.00     0.211 HD
ENDBRANCH  21  22
BRANCH  21  24
HETATM   24  C20 UNL     1      -0.427  -0.100   0.587  1.00  0.00     0.185 C 
HETATM   25  O4  UNL     1       0.024  -0.928  -0.218  1.00  0.00    -0.292 OA
BRANCH  24  26
HETATM   26  C21 UNL     1       0.277   1.227   0.856  1.00  0.00     0.260 C 
BRANCH  26  27
HETATM   27  O5  UNL     1       1.509   1.343   0.138  1.00  0.00    -0.314 OA
BRANCH  27  28
HETATM   28  C22 UNL     1       2.537   0.633   0.686  1.00  0.00     0.259 C 
HETATM   29  O6  UNL     1       2.470   0.018   1.742  1.00  0.00    -0.265 OA
BRANCH  28  30
HETATM   30  C23 UNL     1       3.764   0.742  -0.179  1.00  0.00     0.120 C 
BRANCH  30  31
HETATM   31  C24 UNL     1       4.886  -0.126   0.376  1.00  0.00     0.112 C 
BRANCH  31  32
HETATM   32  C25 UNL     1       6.169   0.027  -0.407  1.00  0.00     0.218 C 
HETATM   33  O7  UNL     1       6.289   0.761  -1.381  1.00  0.00    -0.274 OA
HETATM   34  N1  UNL     1       7.191  -0.747   0.097  1.00  0.00    -0.361 N 
HETATM   35  H32 UNL     1       7.037  -1.277   0.946  1.00  0.00     0.162 HD
BRANCH  34  36
HETATM   36  C26 UNL     1       8.528  -0.729  -0.467  1.00  0.00     0.127 C 
BRANCH  36  37
HETATM   37  C27 UNL     1       9.321   0.508  -0.038  1.00  0.00     0.058 C 
BRANCH  37  38
HETATM   38  C28 UNL     1      10.779   0.395  -0.409  1.00  0.00    -0.057 A 
HETATM   39  C29 UNL     1      11.716  -0.066   0.528  1.00  0.00     0.010 A 
HETATM   40  C30 UNL     1      13.062  -0.194   0.179  1.00  0.00     0.037 A 
HETATM   41  C31 UNL     1      13.469   0.136  -1.109  1.00  0.00     0.065 A 
HETATM   42  C32 UNL     1      12.554   0.590  -2.052  1.00  0.00     0.037 A 
HETATM   43  C33 UNL     1      11.209   0.719  -1.704  1.00  0.00     0.010 A 
BRANCH  41  44
HETATM   44  O8  UNL     1      14.773   0.025  -1.492  1.00  0.00    -0.361 OA
HETATM   45  H39 UNL     1      15.297  -0.266  -0.727  1.00  0.00     0.217 HD
ENDBRANCH  41  44
ENDBRANCH  37  38
ENDBRANCH  36  37
ENDBRANCH  34  36
ENDBRANCH  31  32
ENDBRANCH  30  31
ENDBRANCH  28  30
ENDBRANCH  27  28
ENDBRANCH  26  27
ENDBRANCH  24  26
ENDBRANCH  21  24
TORSDOF 12
