REMARK  11 active torsions:
REMARK  status: ('A' for Active; 'I' for Inactive)
REMARK    1  A    between atoms: C2_2  and  C4_4 
REMARK    2  A    between atoms: C4_4  and  C6_6 
REMARK    3  A    between atoms: C7_7  and  C8_8 
REMARK    4  A    between atoms: C8_8  and  C10_10 
REMARK    5  A    between atoms: C24_24  and  O1_25 
REMARK    6  A    between atoms: O1_25  and  C25_26 
REMARK    7  A    between atoms: C26_28  and  C27_29 
REMARK    8  A    between atoms: C27_29  and  O3_30 
REMARK    9  A    between atoms: C28_31  and  O4_32 
REMARK   10  A    between atoms: C29_33  and  O5_34 
REMARK   11  A    between atoms: C30_35  and  O6_36 
ROOT
HETATM    1  C10 UNL     1       3.557  -1.850   1.492  1.00  0.00     0.002 C 
HETATM    2  C11 UNL     1       3.653  -0.765   2.586  1.00  0.00     0.006 C 
HETATM    3  C12 UNL     1       2.323  -0.020   2.540  1.00  0.00     0.009 C 
HETATM    4  C13 UNL     1       2.048   0.059   1.036  1.00  0.00     0.041 C 
HETATM    5  C14 UNL     1       2.361  -1.394   0.562  1.00  0.00    -0.029 C 
HETATM    6  C15 UNL     1       2.643  -1.415  -0.947  1.00  0.00     0.016 C 
HETATM    7  C16 UNL     1       1.156  -2.349   0.852  1.00  0.00     0.037 C 
HETATM    8  C17 UNL     1      -0.193  -1.772   0.572  1.00  0.00    -0.019 C 
HETATM    9  C18 UNL     1      -0.427  -0.451   0.475  1.00  0.00    -0.030 C 
HETATM   10  C19 UNL     1       0.659   0.611   0.626  1.00  0.00     0.142 C 
HETATM   11  C20 UNL     1       0.704   1.441  -0.652  1.00  0.00     0.018 C 
HETATM   12  C21 UNL     1      -0.461   2.037  -0.967  1.00  0.00     0.014 C 
HETATM   13  C22 UNL     1      -1.568   1.725   0.017  1.00  0.00     0.127 C 
HETATM   14  C23 UNL     1      -2.865   2.498  -0.268  1.00  0.00     0.078 C 
HETATM   15  C24 UNL     1      -4.091   1.970   0.510  1.00  0.00     0.128 C 
HETATM   16  C31 UNL     1      -3.698   1.073   1.683  1.00  0.00     0.033 C 
HETATM   17  C32 UNL     1      -2.823  -0.120   1.278  1.00  0.00     0.020 C 
HETATM   18  C33 UNL     1      -1.802   0.177   0.145  1.00  0.00     0.021 C 
HETATM   19  C34 UNL     1      -2.286  -0.434  -1.196  1.00  0.00     0.024 C 
HETATM   20  O7  UNL     1      -1.053   2.223   1.287  1.00  0.00    -0.223 OA
HETATM   21  O8  UNL     1       0.197   1.502   1.680  1.00  0.00    -0.219 OA
ENDROOT
BRANCH  15  22
HETATM   22  O1  UNL     1      -4.894   1.230  -0.421  1.00  0.00    -0.353 OA
BRANCH  22  23
HETATM   23  C25 UNL     1      -6.311   1.405  -0.242  1.00  0.00     0.292 C 
HETATM   24  O2  UNL     1      -6.727   0.836   0.992  1.00  0.00    -0.348 OA
HETATM   25  C26 UNL     1      -8.074   0.340   1.056  1.00  0.00     0.179 C 
HETATM   26  C28 UNL     1      -9.032   0.973   0.025  1.00  0.00     0.180 C 
HETATM   27  C29 UNL     1      -8.484   0.904  -1.408  1.00  0.00     0.183 C 
HETATM   28  C30 UNL     1      -6.967   0.716  -1.449  1.00  0.00     0.204 C 
BRANCH  25  29
HETATM   29  C27 UNL     1      -8.056  -1.194   1.014  1.00  0.00     0.198 C 
BRANCH  29  30
HETATM   30  O3  UNL     1      -9.355  -1.739   1.176  1.00  0.00    -0.398 OA
HETATM   31  H39 UNL     1      -9.307  -2.690   0.987  1.00  0.00     0.209 HD
ENDBRANCH  29  30
ENDBRANCH  25  29
BRANCH  26  32
HETATM   32  O4  UNL     1      -9.180   2.362   0.380  1.00  0.00    -0.390 OA
HETATM   33  H41 UNL     1      -9.911   2.724  -0.158  1.00  0.00     0.210 HD
ENDBRANCH  26  32
BRANCH  27  34
HETATM   34  O5  UNL     1      -9.106  -0.159  -2.145  1.00  0.00    -0.390 OA
HETATM   35  H43 UNL     1      -8.673  -0.157  -3.020  1.00  0.00     0.210 HD
ENDBRANCH  27  34
BRANCH  28  36
HETATM   36  O6  UNL     1      -6.482   1.218  -2.702  1.00  0.00    -0.388 OA
HETATM   37  H45 UNL     1      -5.505   1.159  -2.649  1.00  0.00     0.210 HD
ENDBRANCH  28  36
ENDBRANCH  22  23
ENDBRANCH  15  22
BRANCH   1  38
HETATM   38  C8  UNL     1       4.916  -2.272   0.865  1.00  0.00     0.008 C 
HETATM   39  C9  UNL     1       5.831  -2.893   1.937  1.00  0.00     0.014 C 
BRANCH  38  40
HETATM   40  C7  UNL     1       5.703  -1.185   0.162  1.00  0.00    -0.026 C 
HETATM   41  C6  UNL     1       6.173  -1.307  -1.094  1.00  0.00    -0.026 C 
BRANCH  41  42
HETATM   42  C4  UNL     1       7.025  -0.329  -1.891  1.00  0.00     0.007 C 
HETATM   43  C5  UNL     1       8.190  -1.116  -2.512  1.00  0.00     0.014 C 
BRANCH  42  44
HETATM   44  C2  UNL     1       7.492   0.955  -1.140  1.00  0.00    -0.015 C 
HETATM   45  C1  UNL     1       7.946   2.045  -2.118  1.00  0.00     0.010 C 
HETATM   46  C3  UNL     1       8.608   0.703  -0.119  1.00  0.00     0.010 C 
ENDBRANCH  42  44
ENDBRANCH  41  42
ENDBRANCH  38  40
ENDBRANCH   1  38
TORSDOF 11
