REMARK  5 active torsions:
REMARK  status: ('A' for Active; 'I' for Inactive)
REMARK    1  A    between atoms: C4_4  and  C5_5 
REMARK    2  A    between atoms: N1_23  and  C22_24 
REMARK    3  A    between atoms: C22_24  and  C23_25 
REMARK    4  A    between atoms: C23_25  and  O2_26 
REMARK    5  A    between atoms: C26_29  and  O3_31 
ROOT
HETATM    1  C5  UNL     1       3.228   0.479  -0.529  1.00  0.00     0.146 C 
HETATM    2  C6  UNL     1       3.616   0.135   0.897  1.00  0.00     0.043 C 
HETATM    3  C7  UNL     1       3.274  -1.346   0.996  1.00  0.00     0.019 C 
HETATM    4  C8  UNL     1       4.465  -2.176   0.497  1.00  0.00     0.013 C 
HETATM    5  C9  UNL     1       2.007  -1.446   0.125  1.00  0.00     0.069 C 
HETATM    6  C10 UNL     1       1.803  -2.771  -0.655  1.00  0.00     0.040 C 
HETATM    7  C11 UNL     1       0.308  -3.099  -0.535  1.00  0.00     0.012 C 
HETATM    8  C12 UNL     1      -0.070  -2.586   0.862  1.00  0.00    -0.037 C 
HETATM    9  C13 UNL     1       0.555  -3.535   1.927  1.00  0.00     0.015 C 
HETATM   10  C14 UNL     1      -1.593  -2.530   1.179  1.00  0.00     0.021 C 
HETATM   11  C15 UNL     1      -2.572  -1.447   0.673  1.00  0.00     0.052 C 
HETATM   12  C16 UNL     1      -2.312   0.042   0.659  1.00  0.00    -0.038 C 
HETATM   13  C17 UNL     1      -1.430   0.936   1.139  1.00  0.00     0.015 C 
HETATM   14  C18 UNL     1      -0.202   0.898   1.991  1.00  0.00     0.045 C 
HETATM   15  C19 UNL     1       0.487  -0.457   2.149  1.00  0.00     0.013 C 
HETATM   16  C20 UNL     1       0.619  -1.208   0.815  1.00  0.00     0.029 C 
HETATM   17  C21 UNL     1      -1.738   2.214   0.431  1.00  0.00     0.250 C 
HETATM   18  O1  UNL     1      -1.228   3.293   0.671  1.00  0.00    -0.268 OA
HETATM   19  N1  UNL     1      -2.687   1.938  -0.534  1.00  0.00    -0.338 N 
HETATM   20  C24 UNL     1      -3.267   0.656  -0.321  1.00  0.00     0.120 C 
HETATM   21  C25 UNL     1      -3.203  -0.344  -1.455  1.00  0.00     0.068 C 
HETATM   22  C26 UNL     1      -3.240  -1.706  -0.730  1.00  0.00     0.064 C 
HETATM   23  C27 UNL     1      -4.681  -2.211  -0.570  1.00  0.00     0.046 C 
HETATM   24  O4  UNL     1       2.150  -0.402  -0.877  1.00  0.00    -0.370 OA
ENDROOT
BRANCH   1  25
HETATM   25  C4  UNL     1       2.753   1.890  -0.694  1.00  0.00     0.007 C 
HETATM   26  C2  UNL     1       3.471   2.959  -1.091  1.00  0.00    -0.089 C 
HETATM   27  C1  UNL     1       4.939   2.934  -1.414  1.00  0.00     0.042 C 
HETATM   28  C3  UNL     1       2.819   4.309  -1.233  1.00  0.00     0.042 C 
ENDBRANCH   1  25
BRANCH  22  29
HETATM   29  O3  UNL     1      -2.553  -2.678  -1.504  1.00  0.00    -0.389 OA
HETATM   30  H41 UNL     1      -2.913  -2.666  -2.408  1.00  0.00     0.210 HD
ENDBRANCH  22  29
BRANCH  19  31
HETATM   31  C22 UNL     1      -3.354   2.978  -1.292  1.00  0.00     0.152 C 
BRANCH  31  32
HETATM   32  C23 UNL     1      -4.418   3.726  -0.489  1.00  0.00     0.184 C 
BRANCH  32  33
HETATM   33  O2  UNL     1      -5.036   4.727  -1.290  1.00  0.00    -0.399 OA
HETATM   34  H34 UNL     1      -4.372   5.424  -1.436  1.00  0.00     0.209 HD
ENDBRANCH  32  33
ENDBRANCH  31  32
ENDBRANCH  19  31
TORSDOF 5
