REMARK  13 active torsions:
REMARK  status: ('A' for Active; 'I' for Inactive)
REMARK    1  A    between atoms: C5_5  and  C6_6 
REMARK    2  A    between atoms: C6_6  and  C8_8 
REMARK    3  A    between atoms: C8_8  and  O1_9 
REMARK    4  A    between atoms: C13_15  and  O3_17 
REMARK    5  A    between atoms: C15_18  and  O4_19 
REMARK    6  A    between atoms: C18_22  and  O5_24 
REMARK    7  A    between atoms: O5_24  and  C20_25 
REMARK    8  A    between atoms: C20_25  and  C21_27 
REMARK    9  A    between atoms: C21_27  and  C22_28 
REMARK   10  A    between atoms: C21_27  and  O7_30 
REMARK   11  A    between atoms: O7_30  and  C24_31 
REMARK   12  A    between atoms: C24_31  and  C25_33 
REMARK   13  A    between atoms: C25_33  and  C26_34 
ROOT
HETATM    1  C1  UNL     1      -4.961   1.017  -0.326  1.00  0.00     0.015 C 
HETATM    2  C2  UNL     1      -3.752   0.741   0.192  1.00  0.00    -0.082 C 
HETATM    3  C3  UNL     1      -3.339   1.233   1.550  1.00  0.00     0.034 C 
HETATM    4  C4  UNL     1      -2.046   2.058   1.506  1.00  0.00     0.010 C 
HETATM    5  C5  UNL     1      -1.096   1.765   0.312  1.00  0.00    -0.001 C 
HETATM    6  C9  UNL     1      -1.245   0.296  -0.166  1.00  0.00     0.033 C 
HETATM    7  C10 UNL     1      -0.891  -0.788   0.908  1.00  0.00     0.162 C 
HETATM    8  O2  UNL     1      -2.049  -1.640   0.959  1.00  0.00    -0.376 OA
HETATM    9  C11 UNL     1      -2.667  -1.524  -0.327  1.00  0.00     0.133 C 
HETATM   10  C12 UNL     1      -3.883  -2.409  -0.402  1.00  0.00     0.072 C 
HETATM   11  C13 UNL     1      -3.515  -3.904  -0.130  1.00  0.00     0.082 C 
HETATM   12  C14 UNL     1      -4.649  -4.757  -0.732  1.00  0.00     0.049 C 
HETATM   13  C15 UNL     1      -2.130  -4.407  -0.697  1.00  0.00     0.152 C 
HETATM   14  C16 UNL     1      -0.848  -4.068   0.125  1.00  0.00     0.038 C 
HETATM   15  C17 UNL     1       0.105  -2.921  -0.320  1.00  0.00     0.043 C 
HETATM   16  C18 UNL     1       0.357  -1.715   0.666  1.00  0.00     0.093 C 
HETATM   17  C19 UNL     1       0.841  -2.308   2.013  1.00  0.00     0.049 C 
HETATM   18  C28 UNL     1      -2.704  -0.031  -0.583  1.00  0.00     0.050 C 
ENDROOT
BRANCH  16  19
HETATM   19  O5  UNL     1       1.465  -0.994   0.040  1.00  0.00    -0.306 OA
BRANCH  19  20
HETATM   20  C20 UNL     1       2.098   0.035   0.667  1.00  0.00     0.289 C 
HETATM   21  O6  UNL     1       1.749   0.537   1.728  1.00  0.00    -0.262 OA
BRANCH  20  22
HETATM   22  C21 UNL     1       3.344   0.453  -0.127  1.00  0.00     0.231 C 
BRANCH  22  23
HETATM   23  C22 UNL     1       4.300  -0.734  -0.330  1.00  0.00     0.038 C 
HETATM   24  C23 UNL     1       4.835  -1.317   0.974  1.00  0.00     0.008 C 
ENDBRANCH  22  23
BRANCH  22  25
HETATM   25  O7  UNL     1       4.090   1.488   0.532  1.00  0.00    -0.306 OA
BRANCH  25  26
HETATM   26  C24 UNL     1       3.556   2.736   0.475  1.00  0.00     0.259 C 
HETATM   27  O8  UNL     1       2.531   3.045  -0.120  1.00  0.00    -0.265 OA
BRANCH  26  28
HETATM   28  C25 UNL     1       4.417   3.710   1.237  1.00  0.00     0.111 C 
BRANCH  28  29
HETATM   29  C26 UNL     1       5.784   3.909   0.591  1.00  0.00     0.005 C 
HETATM   30  C27 UNL     1       5.697   4.616  -0.753  1.00  0.00     0.005 C 
ENDBRANCH  28  29
ENDBRANCH  26  28
ENDBRANCH  25  26
ENDBRANCH  22  25
ENDBRANCH  20  22
ENDBRANCH  19  20
ENDBRANCH  16  19
BRANCH   5  31
HETATM   31  C6  UNL     1      -1.278   2.813  -0.845  1.00  0.00     0.010 C 
HETATM   32  C7  UNL     1      -0.848   4.224  -0.400  1.00  0.00     0.012 C 
BRANCH  31  33
HETATM   33  C8  UNL     1      -0.523   2.457  -2.141  1.00  0.00     0.168 C 
BRANCH  33  34
HETATM   34  O1  UNL     1       0.814   2.035  -1.908  1.00  0.00    -0.400 OA
HETATM   35  H14 UNL     1       1.247   2.687  -1.315  1.00  0.00     0.209 HD
ENDBRANCH  33  34
ENDBRANCH  31  33
ENDBRANCH   5  31
BRANCH  13  36
HETATM   36  O4  UNL     1      -1.963  -4.074  -2.074  1.00  0.00    -0.393 OA
HETATM   37  H25 UNL     1      -2.413  -4.759  -2.598  1.00  0.00     0.210 HD
ENDBRANCH  13  36
BRANCH  11  38
HETATM   38  O3  UNL     1      -3.541  -4.195   1.276  1.00  0.00    -0.388 OA
HETATM   39  H23 UNL     1      -4.074  -3.518   1.731  1.00  0.00     0.210 HD
ENDBRANCH  11  38
TORSDOF 13
