REMARK  8 active torsions:
REMARK  status: ('A' for Active; 'I' for Inactive)
REMARK    1  A    between atoms: C11_11  and  O1_12 
REMARK    2  A    between atoms: O1_12  and  C12_13 
REMARK    3  A    between atoms: C14_16  and  O3_17 
REMARK    4  A    between atoms: C15_18  and  O4_19 
REMARK    5  A    between atoms: C16_20  and  O5_21 
REMARK    6  A    between atoms: C19_24  and  C20_25 
REMARK    7  A    between atoms: C21_27  and  O7_28 
REMARK    8  A    between atoms: C24_31  and  C25_32 
ROOT
HETATM    1  C1  UNL     1      -4.858  -0.363  -2.184  1.00  0.00     0.019 C 
HETATM    2  C2  UNL     1      -3.882  -0.130  -1.001  1.00  0.00    -0.005 C 
HETATM    3  C3  UNL     1      -3.026   1.101  -1.368  1.00  0.00     0.013 C 
HETATM    4  C4  UNL     1      -1.849   1.362  -0.437  1.00  0.00     0.007 C 
HETATM    5  C5  UNL     1      -0.949   0.133  -0.174  1.00  0.00     0.012 C 
HETATM    6  C6  UNL     1      -1.451  -1.130  -0.937  1.00  0.00     0.027 C 
HETATM    7  C7  UNL     1      -0.585  -2.361  -0.583  1.00  0.00     0.012 C 
HETATM    8  C8  UNL     1       0.901  -2.121  -0.839  1.00  0.00     0.036 C 
HETATM    9  C9  UNL     1       1.364  -0.874  -0.124  1.00  0.00    -0.065 C 
HETATM   10  C10 UNL     1       2.371  -0.949   0.767  1.00  0.00     0.009 C 
HETATM   11  C11 UNL     1       2.805   0.169   1.664  1.00  0.00     0.148 C 
HETATM   12  C17 UNL     1       1.649   1.153   1.842  1.00  0.00     0.037 C 
HETATM   13  C18 UNL     1       1.091   1.593   0.488  1.00  0.00     0.024 C 
HETATM   14  C19 UNL     1       0.579   0.413  -0.403  1.00  0.00     0.040 C 
HETATM   15  C21 UNL     1      -2.971  -1.397  -0.728  1.00  0.00     0.070 C 
HETATM   16  C22 UNL     1      -3.337  -1.873   0.691  1.00  0.00     0.040 C 
HETATM   17  C23 UNL     1      -4.750  -1.356   0.910  1.00  0.00     0.013 C 
HETATM   18  C24 UNL     1      -4.674   0.067   0.343  1.00  0.00     0.028 C 
ENDROOT
BRANCH  11  19
HETATM   19  O1  UNL     1       3.892   0.866   1.059  1.00  0.00    -0.349 OA
BRANCH  19  20
HETATM   20  C12 UNL     1       5.184   0.373   1.432  1.00  0.00     0.291 C 
HETATM   21  O2  UNL     1       5.392  -0.983   1.025  1.00  0.00    -0.356 OA
HETATM   22  C13 UNL     1       5.881  -1.079  -0.317  1.00  0.00     0.205 C 
HETATM   23  C14 UNL     1       7.332  -0.584  -0.363  1.00  0.00     0.173 C 
HETATM   24  C15 UNL     1       7.545   0.609   0.590  1.00  0.00     0.182 C 
HETATM   25  C16 UNL     1       6.229   1.346   0.835  1.00  0.00     0.204 C 
BRANCH  23  26
HETATM   26  O3  UNL     1       8.204  -1.661   0.021  1.00  0.00    -0.391 OA
HETATM   27  H20 UNL     1       7.924  -1.968   0.902  1.00  0.00     0.210 HD
ENDBRANCH  23  26
BRANCH  24  28
HETATM   28  O4  UNL     1       8.498   1.525   0.029  1.00  0.00    -0.390 OA
HETATM   29  H22 UNL     1       8.486   2.302   0.622  1.00  0.00     0.210 HD
ENDBRANCH  24  28
BRANCH  25  30
HETATM   30  O5  UNL     1       6.456   2.468   1.707  1.00  0.00    -0.388 OA
HETATM   31  H24 UNL     1       5.619   2.969   1.726  1.00  0.00     0.210 HD
ENDBRANCH  25  30
ENDBRANCH  19  20
ENDBRANCH  11  19
BRANCH  14  32
HETATM   32  C20 UNL     1       0.812   0.875  -1.863  1.00  0.00     0.245 C 
HETATM   33  O6  UNL     1       1.016   0.147  -2.831  1.00  0.00    -0.306 OA
ENDBRANCH  14  32
BRANCH  15  34
HETATM   34  O7  UNL     1      -3.358  -2.443  -1.630  1.00  0.00    -0.389 OA
HETATM   35  H30 UNL     1      -2.975  -3.285  -1.332  1.00  0.00     0.210 HD
ENDBRANCH  15  34
BRANCH  18  36
HETATM   36  C25 UNL     1      -5.992   0.795   0.301  1.00  0.00    -0.045 A 
HETATM   37  C26 UNL     1      -7.216   0.313   0.524  1.00  0.00     0.087 A 
HETATM   38  C27 UNL     1      -8.148   1.434   0.449  1.00  0.00     0.283 A 
HETATM   39  O8  UNL     1      -9.350   1.350   0.620  1.00  0.00    -0.260 OA
HETATM   40  O9  UNL     1      -7.456   2.573   0.182  1.00  0.00    -0.314 OA
HETATM   41  C28 UNL     1      -6.071   2.256   0.051  1.00  0.00     0.213 A 
ENDBRANCH  18  36
TORSDOF 8
