REMARK  11 active torsions:
REMARK  status: ('A' for Active; 'I' for Inactive)
REMARK    1  A    between atoms: C19_20  and  O2_21 
REMARK    2  A    between atoms: C19_20  and  C20_22 
REMARK    3  A    between atoms: C20_22  and  C21_24 
REMARK    4  A    between atoms: C21_24  and  O4_25 
REMARK    5  A    between atoms: O4_25  and  C22_26 
REMARK    6  A    between atoms: C22_26  and  C23_28 
REMARK    7  A    between atoms: C23_28  and  C24_29 
REMARK    8  A    between atoms: C24_29  and  C25_30 
REMARK       I    between atoms: C25_30  and  N1_32 
REMARK    9  A    between atoms: N1_32  and  C26_33 
REMARK   10  A    between atoms: C26_33  and  C27_34 
REMARK   11  A    between atoms: C27_34  and  C28_35 
ROOT
HETATM    1  C20 UNL     1       0.434   0.483   2.529  1.00  0.00     0.185 C 
HETATM    2  O3  UNL     1       0.409  -0.577   3.161  1.00  0.00    -0.292 OA
ENDROOT
BRANCH   1   3
HETATM    3  C19 UNL     1      -0.535   0.811   1.375  1.00  0.00     0.128 C 
HETATM    4  C14 UNL     1      -1.849  -0.030   1.207  1.00  0.00    -0.002 C 
HETATM    5  C13 UNL     1      -3.048   0.348   2.104  1.00  0.00     0.013 C 
HETATM    6  C15 UNL     1      -1.596  -1.554   1.364  1.00  0.00     0.019 C 
HETATM    7  C16 UNL     1      -2.178   0.340  -0.263  1.00  0.00     0.002 C 
HETATM    8  C12 UNL     1      -4.312   0.761   1.327  1.00  0.00     0.007 C 
HETATM    9  C11 UNL     1      -4.652  -0.183   0.137  1.00  0.00     0.002 C 
HETATM   10  C2  UNL     1      -6.088   0.055  -0.539  1.00  0.00    -0.016 C 
HETATM   11  C10 UNL     1      -3.421  -0.364  -0.826  1.00  0.00    -0.004 C 
HETATM   12  C1  UNL     1      -6.942  -1.212  -0.259  1.00  0.00     0.020 C 
HETATM   13  C3  UNL     1      -6.826   1.282   0.070  1.00  0.00     0.022 C 
HETATM   14  C7  UNL     1      -6.050   0.239  -2.059  1.00  0.00    -0.068 C 
HETATM   15  C4  UNL     1      -8.157   1.622  -0.590  1.00  0.00     0.084 C 
HETATM   16  C5  UNL     1      -8.016   1.734  -2.083  1.00  0.00     0.149 C 
HETATM   17  O1  UNL     1      -8.811   2.374  -2.767  1.00  0.00    -0.293 OA
HETATM   18  C6  UNL     1      -6.911   1.010  -2.748  1.00  0.00     0.053 C 
HETATM   19  C8  UNL     1      -4.959  -0.473  -2.803  1.00  0.00     0.035 C 
HETATM   20  C9  UNL     1      -3.642   0.058  -2.282  1.00  0.00     0.010 C 
HETATM   21  C17 UNL     1      -0.852   0.146  -0.994  1.00  0.00     0.009 C 
HETATM   22  C18 UNL     1       0.208   0.588   0.025  1.00  0.00     0.047 C 
BRANCH   3  23
HETATM   23  O2  UNL     1      -0.843   2.215   1.436  1.00  0.00    -0.381 OA
HETATM   24  H27 UNL     1      -1.406   2.383   2.211  1.00  0.00     0.211 HD
ENDBRANCH   3  23
ENDBRANCH   1   3
BRANCH   1  25
HETATM   25  C21 UNL     1       1.497   1.552   2.825  1.00  0.00     0.260 C 
BRANCH  25  26
HETATM   26  O4  UNL     1       2.635   1.031   3.507  1.00  0.00    -0.314 OA
BRANCH  26  27
HETATM   27  C22 UNL     1       3.481   0.318   2.706  1.00  0.00     0.259 C 
HETATM   28  O5  UNL     1       3.323   0.144   1.503  1.00  0.00    -0.265 OA
BRANCH  27  29
HETATM   29  C23 UNL     1       4.654  -0.184   3.507  1.00  0.00     0.120 C 
BRANCH  29  30
HETATM   30  C24 UNL     1       5.933  -0.141   2.672  1.00  0.00     0.112 C 
BRANCH  30  31
HETATM   31  C25 UNL     1       6.292  -1.485   2.071  1.00  0.00     0.218 C 
HETATM   32  O6  UNL     1       5.836  -2.547   2.474  1.00  0.00    -0.274 OA
HETATM   33  N1  UNL     1       7.255  -1.392   1.083  1.00  0.00    -0.361 N 
HETATM   34  H34 UNL     1       7.419  -0.478   0.683  1.00  0.00     0.162 HD
BRANCH  33  35
HETATM   35  C26 UNL     1       7.588  -2.539   0.252  1.00  0.00     0.127 C 
BRANCH  35  36
HETATM   36  C27 UNL     1       7.448  -2.245  -1.249  1.00  0.00     0.060 C 
BRANCH  36  37
HETATM   37  C28 UNL     1       6.126  -1.638  -1.605  1.00  0.00    -0.029 A 
HETATM   38  C29 UNL     1       4.887  -2.217  -1.408  1.00  0.00     0.096 A 
HETATM   39  N2  UNL     1       3.929  -1.308  -1.758  1.00  0.00    -0.365 N 
HETATM   40  C30 UNL     1       4.511  -0.155  -2.226  1.00  0.00     0.042 A 
HETATM   41  H40 UNL     1       2.933  -1.447  -1.655  1.00  0.00     0.165 HD
HETATM   42  C31 UNL     1       3.920   1.026  -2.692  1.00  0.00     0.030 A 
HETATM   43  C35 UNL     1       5.894  -0.334  -2.157  1.00  0.00    -0.002 A 
HETATM   44  C32 UNL     1       4.768   2.057  -3.104  1.00  0.00     0.002 A 
HETATM   45  C33 UNL     1       6.153   1.907  -3.054  1.00  0.00     0.001 A 
HETATM   46  C34 UNL     1       6.729   0.722  -2.580  1.00  0.00     0.014 A 
ENDBRANCH  36  37
ENDBRANCH  35  36
ENDBRANCH  33  35
ENDBRANCH  30  31
ENDBRANCH  29  30
ENDBRANCH  27  29
ENDBRANCH  26  27
ENDBRANCH  25  26
ENDBRANCH   1  25
TORSDOF 11
