REMARK  9 active torsions:
REMARK  status: ('A' for Active; 'I' for Inactive)
REMARK    1  A    between atoms: C2_2  and  C29_32 
REMARK    2  A    between atoms: C3_3  and  C4_4 
REMARK    3  A    between atoms: C4_4  and  C5_5 
REMARK    4  A    between atoms: C5_5  and  C6_6 
REMARK    5  A    between atoms: C6_6  and  C8_8 
REMARK    6  A    between atoms: C19_19  and  O1_20 
REMARK    7  A    between atoms: C23_24  and  O2_25 
REMARK    8  A    between atoms: C25_27  and  O3_28 
REMARK    9  A    between atoms: C29_32  and  O4_33 
ROOT
HETATM    1  C8  UNL     1       2.249   0.345   0.035  1.00  0.00    -0.002 C 
HETATM    2  C9  UNL     1       2.191   0.575   1.567  1.00  0.00     0.007 C 
HETATM    3  C10 UNL     1       0.694   0.704   1.945  1.00  0.00     0.015 C 
HETATM    4  C11 UNL     1      -0.062   0.764   0.595  1.00  0.00    -0.013 C 
HETATM    5  C12 UNL     1      -0.046   2.267   0.159  1.00  0.00     0.021 C 
HETATM    6  C13 UNL     1      -1.525   0.328   0.549  1.00  0.00    -0.068 C 
HETATM    7  C14 UNL     1      -2.346   0.549   1.590  1.00  0.00    -0.022 C 
HETATM    8  C15 UNL     1      -3.822   0.327   1.569  1.00  0.00     0.033 C 
HETATM    9  C16 UNL     1      -4.369  -0.418   0.335  1.00  0.00     0.006 C 
HETATM   10  C17 UNL     1      -3.586  -0.059  -0.959  1.00  0.00     0.030 C 
HETATM   11  C18 UNL     1      -2.038  -0.293  -0.762  1.00  0.00     0.051 C 
HETATM   12  C19 UNL     1      -1.140   0.096  -1.988  1.00  0.00     0.127 C 
HETATM   13  C20 UNL     1       0.393  -0.058  -1.762  1.00  0.00     0.043 C 
HETATM   14  C21 UNL     1       0.813  -0.185  -0.286  1.00  0.00    -0.026 C 
HETATM   15  C22 UNL     1       0.723  -1.685   0.135  1.00  0.00     0.016 C 
HETATM   16  C23 UNL     1      -4.110  -0.888  -2.162  1.00  0.00     0.126 C 
HETATM   17  C24 UNL     1      -5.549  -1.389  -2.060  1.00  0.00     0.064 C 
HETATM   18  C25 UNL     1      -6.409  -0.405  -1.285  1.00  0.00     0.128 C 
HETATM   19  C26 UNL     1      -5.948  -0.298   0.199  1.00  0.00    -0.017 C 
HETATM   20  C27 UNL     1      -6.569  -1.478   0.998  1.00  0.00     0.018 C 
HETATM   21  C28 UNL     1      -6.541   0.995   0.809  1.00  0.00     0.018 C 
ENDROOT
BRANCH   1  22
HETATM   22  C6  UNL     1       3.451  -0.463  -0.532  1.00  0.00    -0.014 C 
HETATM   23  C7  UNL     1       4.029  -1.564   0.369  1.00  0.00     0.010 C 
BRANCH  22  24
HETATM   24  C5  UNL     1       4.571   0.464  -1.077  1.00  0.00     0.008 C 
BRANCH  24  25
HETATM   25  C4  UNL     1       5.213   1.483  -0.126  1.00  0.00     0.028 C 
BRANCH  25  26
HETATM   26  C3  UNL     1       6.007   0.890   1.002  1.00  0.00    -0.022 C 
HETATM   27  C2  UNL     1       7.265   0.415   0.953  1.00  0.00    -0.064 C 
HETATM   28  C1  UNL     1       8.120   0.427  -0.287  1.00  0.00     0.045 C 
BRANCH  27  29
HETATM   29  C29 UNL     1       7.919  -0.153   2.189  1.00  0.00     0.197 C 
BRANCH  29  30
HETATM   30  O4  UNL     1       7.943  -1.573   2.127  1.00  0.00    -0.397 OA
HETATM   31  H48 UNL     1       7.993  -1.828   1.192  1.00  0.00     0.209 HD
ENDBRANCH  29  30
ENDBRANCH  27  29
ENDBRANCH  25  26
ENDBRANCH  24  25
ENDBRANCH  22  24
ENDBRANCH   1  22
BRANCH  12  32
HETATM   32  O1  UNL     1      -1.422  -0.694  -3.148  1.00  0.00    -0.395 OA
HETATM   33  H28 UNL     1      -2.265  -0.355  -3.522  1.00  0.00     0.210 HD
ENDBRANCH  12  32
BRANCH  16  34
HETATM   34  O2  UNL     1      -3.997  -0.063  -3.334  1.00  0.00    -0.395 OA
HETATM   35  H35 UNL     1      -4.721   0.597  -3.247  1.00  0.00     0.210 HD
ENDBRANCH  16  34
BRANCH  18  36
HETATM   36  O3  UNL     1      -6.320   0.852  -1.973  1.00  0.00    -0.395 OA
HETATM   37  H39 UNL     1      -7.065   1.401  -1.668  1.00  0.00     0.210 HD
ENDBRANCH  18  36
TORSDOF 9
