REMARK  0 active torsions:
REMARK  status: ('A' for Active; 'I' for Inactive)
ROOT
HETATM    1  C1  UNL     1      -5.695   1.118  -0.801  1.00  0.00     0.023 C 
HETATM    2  C2  UNL     1      -4.979   0.537   0.429  1.00  0.00     0.017 C 
HETATM    3  C3  UNL     1      -5.469   1.337   1.665  1.00  0.00     0.023 C 
HETATM    4  C4  UNL     1      -5.451  -0.917   0.609  1.00  0.00     0.135 C 
HETATM    5  O1  UNL     1      -6.415  -1.211   1.320  1.00  0.00    -0.297 OA
HETATM    6  C5  UNL     1      -4.783  -1.988  -0.217  1.00  0.00     0.080 C 
HETATM    7  C6  UNL     1      -3.266  -1.860  -0.167  1.00  0.00     0.017 C 
HETATM    8  C7  UNL     1      -2.714  -0.459  -0.574  1.00  0.00    -0.035 C 
HETATM    9  C8  UNL     1      -3.059  -0.257  -2.077  1.00  0.00     0.016 C 
HETATM   10  C9  UNL     1      -3.408   0.585   0.368  1.00  0.00     0.009 C 
HETATM   11  C10 UNL     1      -2.842   1.997   0.131  1.00  0.00     0.007 C 
HETATM   12  C11 UNL     1      -1.357   2.040   0.472  1.00  0.00     0.011 C 
HETATM   13  C12 UNL     1      -0.459   1.082  -0.355  1.00  0.00    -0.032 C 
HETATM   14  C13 UNL     1      -0.427   1.625  -1.813  1.00  0.00     0.016 C 
HETATM   15  C14 UNL     1      -1.104  -0.387  -0.410  1.00  0.00     0.003 C 
HETATM   16  C15 UNL     1      -0.564  -1.259   0.738  1.00  0.00     0.006 C 
HETATM   17  C16 UNL     1       0.958  -1.426   0.721  1.00  0.00     0.006 C 
HETATM   18  C17 UNL     1       1.716  -0.337  -0.045  1.00  0.00    -0.000 C 
HETATM   19  C18 UNL     1       3.243  -0.376   0.233  1.00  0.00     0.009 C 
HETATM   20  C19 UNL     1       4.061  -1.651  -0.072  1.00  0.00     0.067 A 
HETATM   21  C20 UNL     1       5.504  -1.108  -0.320  1.00  0.00     0.140 A 
HETATM   22  C21 UNL     1       5.428   0.420  -0.222  1.00  0.00     0.042 C 
HETATM   23  C22 UNL     1       3.972   0.720  -0.582  1.00  0.00    -0.037 C 
HETATM   24  C23 UNL     1       3.814   0.598  -2.121  1.00  0.00     0.015 C 
HETATM   25  C24 UNL     1       3.479   2.089  -0.103  1.00  0.00     0.010 C 
HETATM   26  C25 UNL     1       1.966   2.233  -0.340  1.00  0.00     0.011 C 
HETATM   27  C26 UNL     1       1.078   1.074   0.254  1.00  0.00    -0.032 C 
HETATM   28  C27 UNL     1       1.098   1.334   1.799  1.00  0.00     0.016 C 
HETATM   29  O2  UNL     1       6.395  -1.607   0.687  1.00  0.00    -0.313 OA
HETATM   30  C28 UNL     1       5.740  -2.485   1.495  1.00  0.00     0.297 A 
HETATM   31  O3  UNL     1       6.240  -3.112   2.414  1.00  0.00    -0.262 OA
HETATM   32  C29 UNL     1       4.344  -2.594   1.046  1.00  0.00     0.175 A 
HETATM   33  C30 UNL     1       3.585  -3.890   1.200  1.00  0.00     0.218 A 
HETATM   34  O4  UNL     1       3.342  -2.760   2.049  1.00  0.00    -0.364 OA
ENDROOT
TORSDOF 0
