REMARK  11 active torsions:
REMARK  status: ('A' for Active; 'I' for Inactive)
REMARK    1  A    between atoms: C4_4  and  C5_5 
REMARK    2  A    between atoms: C15_15  and  C16_16 
REMARK    3  A    between atoms: C16_16  and  C18_18 
REMARK    4  A    between atoms: C19_19  and  C20_20 
REMARK    5  A    between atoms: C20_20  and  O1_21 
REMARK    6  A    between atoms: C20_20  and  C21_22 
REMARK    7  A    between atoms: C20_20  and  C22_24 
REMARK    8  A    between atoms: C21_22  and  O2_23 
REMARK    9  A    between atoms: C22_24  and  O3_27 
REMARK   10  A    between atoms: C26_29  and  O4_30 
REMARK   11  A    between atoms: C28_32  and  O5_33 
ROOT
HETATM    1  C5  UNL     1      -3.300   0.410   0.364  1.00  0.00     0.004 C 
HETATM    2  C6  UNL     1      -2.061  -0.119   0.463  1.00  0.00    -0.075 C 
HETATM    3  C7  UNL     1      -1.684  -1.298   1.332  1.00  0.00     0.034 C 
HETATM    4  C8  UNL     1      -0.784  -2.321   0.630  1.00  0.00     0.005 C 
HETATM    5  C9  UNL     1      -0.539  -2.013  -0.843  1.00  0.00     0.010 C 
HETATM    6  C10 UNL     1      -0.040  -0.565  -1.117  1.00  0.00    -0.032 C 
HETATM    7  C11 UNL     1      -0.212  -0.339  -2.629  1.00  0.00     0.016 C 
HETATM    8  C12 UNL     1      -0.924   0.485  -0.361  1.00  0.00     0.023 C 
HETATM    9  C13 UNL     1       0.037   1.313   0.493  1.00  0.00     0.010 C 
HETATM   10  C14 UNL     1       1.209   0.397   0.766  1.00  0.00     0.007 C 
HETATM   11  C15 UNL     1       1.432  -0.372  -0.556  1.00  0.00     0.002 C 
ENDROOT
BRANCH  11  12
HETATM   12  C16 UNL     1       2.501   0.338  -1.460  1.00  0.00     0.009 C 
HETATM   13  C17 UNL     1       2.915  -0.485  -2.690  1.00  0.00     0.014 C 
BRANCH  12  14
HETATM   14  C18 UNL     1       3.801   0.691  -0.745  1.00  0.00    -0.023 C 
HETATM   15  C19 UNL     1       4.462  -0.087   0.134  1.00  0.00     0.012 C 
BRANCH  15  16
HETATM   16  C20 UNL     1       5.768   0.245   0.858  1.00  0.00     0.126 C 
BRANCH  16  17
HETATM   17  O1  UNL     1       6.126   1.600   0.532  1.00  0.00    -0.381 OA
HETATM   18  H26 UNL     1       6.394   2.037   1.361  1.00  0.00     0.211 HD
ENDBRANCH  16  17
BRANCH  16  19
HETATM   19  C21 UNL     1       5.485   0.165   2.388  1.00  0.00     0.209 C 
BRANCH  19  20
HETATM   20  O2  UNL     1       4.640   1.245   2.818  1.00  0.00    -0.397 OA
HETATM   21  H29 UNL     1       4.185   1.592   2.024  1.00  0.00     0.209 HD
ENDBRANCH  19  20
ENDBRANCH  16  19
BRANCH  16  22
HETATM   22  C22 UNL     1       6.926  -0.728   0.410  1.00  0.00     0.087 C 
HETATM   23  C23 UNL     1       7.163  -0.684  -1.112  1.00  0.00     0.049 C 
HETATM   24  C24 UNL     1       8.264  -0.392   1.090  1.00  0.00     0.049 C 
BRANCH  22  25
HETATM   25  O3  UNL     1       6.614  -2.080   0.785  1.00  0.00    -0.387 OA
HETATM   26  H36 UNL     1       6.042  -2.456   0.092  1.00  0.00     0.210 HD
ENDBRANCH  22  25
ENDBRANCH  16  22
ENDBRANCH  15  16
ENDBRANCH  12  14
ENDBRANCH  11  12
BRANCH   1  27
HETATM   27  C4  UNL     1      -4.487   0.003   1.092  1.00  0.00     0.008 C 
HETATM   28  C3  UNL     1      -5.726   0.526   0.984  1.00  0.00    -0.048 C 
HETATM   29  C2  UNL     1      -6.116   1.612   0.094  1.00  0.00    -0.033 C 
HETATM   30  C25 UNL     1      -6.886  -0.075   1.770  1.00  0.00     0.071 C 
HETATM   31  C1  UNL     1      -5.583   2.842   0.187  1.00  0.00     0.022 C 
HETATM   32  C28 UNL     1      -7.247   1.302  -0.867  1.00  0.00     0.153 C 
HETATM   33  C27 UNL     1      -8.070   0.068  -0.471  1.00  0.00     0.068 C 
HETATM   34  C26 UNL     1      -8.244  -0.024   1.041  1.00  0.00     0.125 C 
BRANCH  32  35
HETATM   35  O5  UNL     1      -6.709   1.080  -2.173  1.00  0.00    -0.391 OA
HETATM   36  H44 UNL     1      -5.874   0.596  -2.046  1.00  0.00     0.210 HD
ENDBRANCH  32  35
BRANCH  34  37
HETATM   37  O4  UNL     1      -8.998   1.098   1.508  1.00  0.00    -0.395 OA
HETATM   38  H40 UNL     1      -9.889   1.037   1.122  1.00  0.00     0.210 HD
ENDBRANCH  34  37
ENDBRANCH   1  27
TORSDOF 11
