REMARK  11 active torsions:
REMARK  status: ('A' for Active; 'I' for Inactive)
REMARK    1  A    between atoms: C2_2  and  O2_4 
REMARK    2  A    between atoms: O2_4  and  C3_5 
REMARK    3  A    between atoms: C3_5  and  C4_6 
REMARK    4  A    between atoms: C5_7  and  C6_8 
REMARK    5  A    between atoms: C5_7  and  C9_13 
REMARK    6  A    between atoms: C6_8  and  O3_9 
REMARK    7  A    between atoms: O3_9  and  C7_10 
REMARK    8  A    between atoms: C9_13  and  C10_14 
REMARK    9  A    between atoms: C9_13  and  O6_29 
REMARK   10  A    between atoms: C10_14  and  C11_15 
REMARK   11  A    between atoms: O6_29  and  C24_30 
ROOT
HETATM    1  C9  UNL     1       0.866   0.163  -1.668  1.00  0.00     0.163 C 
ENDROOT
BRANCH   1   2
HETATM    2  C5  UNL     1       2.310   0.379  -1.210  1.00  0.00    -0.028 C 
HETATM    3  C4  UNL     1       3.091  -0.605  -0.711  1.00  0.00     0.007 C 
BRANCH   3   4
HETATM    4  C3  UNL     1       4.507  -0.533  -0.218  1.00  0.00     0.206 C 
BRANCH   4   5
HETATM    5  O2  UNL     1       4.503  -0.697   1.207  1.00  0.00    -0.318 OA
BRANCH   5   6
HETATM    6  C2  UNL     1       4.612  -1.973   1.661  1.00  0.00     0.255 C 
HETATM    7  C1  UNL     1       4.591  -1.984   3.159  1.00  0.00     0.126 C 
HETATM    8  O1  UNL     1       4.701  -2.975   0.965  1.00  0.00    -0.266 OA
ENDBRANCH   5   6
ENDBRANCH   4   5
ENDBRANCH   3   4
BRANCH   2   9
HETATM    9  C6  UNL     1       2.782   1.803  -1.421  1.00  0.00     0.215 C 
BRANCH   9  10
HETATM   10  O3  UNL     1       2.096   2.637  -0.482  1.00  0.00    -0.317 OA
BRANCH  10  11
HETATM   11  C7  UNL     1       2.402   3.957  -0.595  1.00  0.00     0.255 C 
HETATM   12  C8  UNL     1       1.635   4.749   0.420  1.00  0.00     0.126 C 
HETATM   13  O4  UNL     1       3.192   4.436  -1.395  1.00  0.00    -0.266 OA
ENDBRANCH  10  11
ENDBRANCH   9  10
ENDBRANCH   2   9
ENDBRANCH   1   2
BRANCH   1  14
HETATM   14  C10 UNL     1       0.022  -0.972  -1.024  1.00  0.00     0.047 C 
BRANCH  14  15
HETATM   15  C11 UNL     1      -0.603  -0.799   0.415  1.00  0.00    -0.033 C 
HETATM   16  C12 UNL     1       0.476  -0.195   1.363  1.00  0.00     0.016 C 
HETATM   17  C13 UNL     1      -0.928  -2.228   0.994  1.00  0.00    -0.010 C 
HETATM   18  C14 UNL     1      -1.637  -3.165  -0.002  1.00  0.00     0.011 C 
HETATM   19  C15 UNL     1      -1.635  -2.202   2.368  1.00  0.00     0.006 C 
HETATM   20  C16 UNL     1      -2.493  -0.971   2.665  1.00  0.00     0.017 C 
HETATM   21  C17 UNL     1      -3.062  -0.302   1.409  1.00  0.00     0.021 C 
HETATM   22  C18 UNL     1      -4.132  -1.225   0.783  1.00  0.00     0.024 C 
HETATM   23  C19 UNL     1      -3.808   0.991   1.806  1.00  0.00     0.135 C 
HETATM   24  C23 UNL     1      -1.880   0.158   0.484  1.00  0.00     0.010 C 
HETATM   25  O5  UNL     1      -4.315   1.144   2.918  1.00  0.00    -0.297 OA
HETATM   26  C20 UNL     1      -3.891   2.098   0.767  1.00  0.00     0.079 C 
HETATM   27  C21 UNL     1      -3.719   1.561  -0.648  1.00  0.00     0.008 C 
HETATM   28  C22 UNL     1      -2.428   0.745  -0.833  1.00  0.00     0.007 C 
ENDBRANCH  14  15
ENDBRANCH   1  14
BRANCH   1  29
HETATM   29  O6  UNL     1       1.004  -0.154  -3.079  1.00  0.00    -0.312 OA
BRANCH  29  30
HETATM   30  C24 UNL     1       0.092   0.374  -3.934  1.00  0.00     0.255 C 
HETATM   31  C25 UNL     1       0.398  -0.059  -5.335  1.00  0.00     0.126 C 
HETATM   32  O7  UNL     1      -0.841   1.101  -3.627  1.00  0.00    -0.266 OA
ENDBRANCH  29  30
ENDBRANCH   1  29
TORSDOF 11
