REMARK  2 active torsions:
REMARK  status: ('A' for Active; 'I' for Inactive)
REMARK       I    between atoms: C1_2  and  N1_3 
REMARK    1  A    between atoms: C1_2  and  C14_18 
REMARK    2  A    between atoms: N1_3  and  C2_4 
ROOT
HETATM    1  C2  UNL     1      -0.735  -1.303  -0.937  1.00  0.00     0.135 C 
HETATM    2  C3  UNL     1      -0.676  -2.657  -0.189  1.00  0.00     0.032 C 
HETATM    3  C4  UNL     1      -2.070  -3.269   0.038  1.00  0.00     0.007 C 
HETATM    4  C5  UNL     1      -2.973  -2.347   0.880  1.00  0.00     0.042 C 
HETATM    5  C6  UNL     1      -2.908  -0.943   0.379  1.00  0.00    -0.021 A 
HETATM    6  C7  UNL     1      -1.882  -0.496  -0.429  1.00  0.00     0.040 A 
HETATM    7  N2  UNL     1      -2.132   0.808  -0.755  1.00  0.00    -0.355 N 
HETATM    8  C8  UNL     1      -3.278   1.238  -0.121  1.00  0.00     0.065 A 
HETATM    9  C9  UNL     1      -3.908   2.488  -0.129  1.00  0.00     0.061 A 
HETATM   10 CL1  UNL     1      -3.257   3.807  -1.018  1.00  0.00    -0.082 Cl
HETATM   11  C10 UNL     1      -5.084   2.643   0.607  1.00  0.00     0.026 A 
HETATM   12  C11 UNL     1      -5.616   1.576   1.329  1.00  0.00     0.003 A 
HETATM   13  C12 UNL     1      -4.980   0.328   1.331  1.00  0.00     0.014 A 
HETATM   14  C13 UNL     1      -3.790   0.152   0.597  1.00  0.00     0.001 A 
HETATM   15  H9  UNL     1      -1.562   1.382  -1.365  1.00  0.00     0.166 HD
ENDROOT
BRANCH   1  16
HETATM   16  N1  UNL     1       0.473  -0.542  -0.716  1.00  0.00    -0.347 N 
HETATM   17  C1  UNL     1       1.602  -0.755  -1.476  1.00  0.00     0.252 C 
HETATM   18  O1  UNL     1       1.624  -1.486  -2.459  1.00  0.00    -0.268 OA
HETATM   19  H1  UNL     1       0.511   0.047   0.103  1.00  0.00     0.163 HD
BRANCH  17  20
HETATM   20  C14 UNL     1       2.828  -0.013  -1.065  1.00  0.00     0.034 A 
HETATM   21  C15 UNL     1       3.737   0.349  -2.065  1.00  0.00     0.018 A 
HETATM   22  C16 UNL     1       4.908   1.051  -1.752  1.00  0.00     0.015 A 
HETATM   23  C17 UNL     1       5.173   1.383  -0.410  1.00  0.00    -0.008 A 
HETATM   24  C18 UNL     1       6.234   2.067   0.246  1.00  0.00     0.030 A 
HETATM   25  C20 UNL     1       4.263   0.996   0.574  1.00  0.00     0.043 A 
HETATM   26  C19 UNL     1       5.956   2.078   1.593  1.00  0.00     0.089 A 
HETATM   27  N3  UNL     1       4.767   1.425   1.782  1.00  0.00    -0.365 N 
HETATM   28  H17 UNL     1       4.321   1.278   2.677  1.00  0.00     0.165 HD
HETATM   29  C21 UNL     1       3.084   0.294   0.282  1.00  0.00     0.047 A 
ENDBRANCH  17  20
ENDBRANCH   1  16
TORSDOF 2
