REMARK  10 active torsions:
REMARK  status: ('A' for Active; 'I' for Inactive)
REMARK    1  A    between atoms: N1_2  and  C2_3 
REMARK    2  A    between atoms: C2_3  and  O1_4 
REMARK    3  A    between atoms: O1_4  and  C3_5 
REMARK    4  A    between atoms: C8_10  and  C9_11 
REMARK    5  A    between atoms: C9_11  and  C10_12 
REMARK    6  A    between atoms: C20_24  and  O2_25 
REMARK    7  A    between atoms: C26_32  and  C27_33 
REMARK    8  A    between atoms: C27_33  and  O4_34 
REMARK    9  A    between atoms: C36_44  and  O6_45 
REMARK   10  A    between atoms: C43_53  and  N3_54 
ROOT
HETATM    1  C3  UNL     1       2.379  -0.746   0.620  1.00  0.00     0.139 C 
HETATM    2  C4  UNL     1       0.872  -0.800   1.014  1.00  0.00     0.086 C 
HETATM    3  C5  UNL     1       0.109   0.494   0.947  1.00  0.00    -0.014 C 
HETATM    4  C6  UNL     1      -1.304   0.531   1.078  1.00  0.00    -0.034 C 
HETATM    5  C7  UNL     1      -2.095  -0.723   1.411  1.00  0.00     0.050 C 
HETATM    6  C8  UNL     1      -3.438  -0.781   0.664  1.00  0.00     0.028 C 
HETATM    7  C18 UNL     1      -4.214   0.483   0.978  1.00  0.00    -0.040 A 
HETATM    8  C19 UNL     1      -5.609   0.410   1.142  1.00  0.00     0.044 A 
HETATM    9  C20 UNL     1      -6.328   1.539   1.498  1.00  0.00     0.066 A 
HETATM   10  C21 UNL     1      -5.679   2.746   1.705  1.00  0.00     0.037 A 
HETATM   11  C22 UNL     1      -4.290   2.822   1.538  1.00  0.00     0.015 A 
HETATM   12  C23 UNL     1      -3.522   1.710   1.145  1.00  0.00    -0.016 A 
HETATM   13  C24 UNL     1      -2.034   1.750   0.957  1.00  0.00     0.016 C 
HETATM   14  C25 UNL     1      -1.298   2.912   0.636  1.00  0.00     0.090 C 
HETATM   15  O3  UNL     1      -1.998   4.066   0.379  1.00  0.00    -0.342 OA
HETATM   16  C26 UNL     1      -1.288   5.105  -0.307  1.00  0.00     0.152 C 
HETATM   17  C28 UNL     1       0.015   5.399   0.417  1.00  0.00     0.039 C 
HETATM   18  C29 UNL     1       0.892   4.159   0.347  1.00  0.00     0.047 C 
HETATM   19  C30 UNL     1       0.107   2.896   0.603  1.00  0.00     0.010 C 
HETATM   20  C31 UNL     1       0.795   1.687   0.778  1.00  0.00     0.086 C 
HETATM   21  O5  UNL     1       2.152   1.764   0.737  1.00  0.00    -0.337 OA
HETATM   22  C32 UNL     1       2.920   0.627   1.182  1.00  0.00     0.200 C 
HETATM   23  C33 UNL     1       4.349   0.982   0.769  1.00  0.00    -0.023 C 
HETATM   24  C34 UNL     1       5.421   0.735   1.636  1.00  0.00     0.049 C 
HETATM   25  C35 UNL     1       6.725   0.824   1.152  1.00  0.00     0.102 C 
HETATM   26  C36 UNL     1       6.974   1.376  -0.106  1.00  0.00     0.099 C 
HETATM   27  C37 UNL     1       5.932   1.735  -0.940  1.00  0.00     0.040 C 
HETATM   28  C38 UNL     1       4.625   1.499  -0.516  1.00  0.00     0.013 C 
HETATM   29  O7  UNL     1       7.809   0.305   1.815  1.00  0.00    -0.347 OA
HETATM   30  C39 UNL     1       7.621  -1.054   2.278  1.00  0.00     0.188 C 
HETATM   31  C40 UNL     1       7.212  -2.080   1.194  1.00  0.00     0.120 C 
HETATM   32  C41 UNL     1       5.743  -2.183   1.078  1.00  0.00    -0.102 C 
HETATM   33  C42 UNL     1       4.539  -2.131   1.092  1.00  0.00    -0.068 C 
HETATM   34  C43 UNL     1       3.082  -2.013   1.322  1.00  0.00     0.336 C 
ENDROOT
BRANCH   6  35
HETATM   35  C9  UNL     1      -3.234  -1.003  -0.851  1.00  0.00     0.048 C 
BRANCH  35  36
HETATM   36  C10 UNL     1      -4.442  -1.600  -1.537  1.00  0.00    -0.057 A 
HETATM   37  C11 UNL     1      -4.705  -2.925  -1.473  1.00  0.00     0.020 A 
HETATM   38  C12 UNL     1      -5.860  -3.427  -2.135  1.00  0.00    -0.011 A 
HETATM   39  C13 UNL     1      -6.414  -4.629  -2.256  1.00  0.00     0.006 A 
HETATM   40  C15 UNL     1      -6.760  -2.566  -2.915  1.00  0.00     0.038 A 
HETATM   41  C14 UNL     1      -7.642  -4.556  -3.101  1.00  0.00     0.148 A 
HETATM   42  N2  UNL     1      -7.775  -3.132  -3.498  1.00  0.00    -0.386 N 
ATOM     43  H2  UNL     1      -8.489  -2.702  -4.086  1.00  0.00     0.160 HD
HETATM   44  C16 UNL     1      -6.409  -1.133  -2.959  1.00  0.00     0.030 A 
HETATM   45  C17 UNL     1      -5.319  -0.708  -2.297  1.00  0.00     0.009 A 
ENDBRANCH  35  36
ENDBRANCH   6  35
BRANCH   9  46
HETATM   46  O2  UNL     1      -7.676   1.420   1.657  1.00  0.00    -0.361 OA
HETATM   47  H21 UNL     1      -8.037   2.292   1.880  1.00  0.00     0.217 HD
ENDBRANCH   9  46
BRANCH   1  48
HETATM   48  O1  UNL     1       2.488  -0.658  -0.820  1.00  0.00    -0.345 OA
BRANCH  48  49
HETATM   49  C2  UNL     1       2.253  -1.788  -1.632  1.00  0.00     0.438 C 
BRANCH  49  50
HETATM   50  N1  UNL     1       3.526  -2.348  -2.026  1.00  0.00     0.102 N 
HETATM   51  C1  UNL     1       3.396  -3.206  -3.193  1.00  0.00     0.309 C 
HETATM   52  H4  UNL     1       4.151  -1.572  -2.230  1.00  0.00     0.318 HD
ENDBRANCH  49  50
ENDBRANCH  48  49
ENDBRANCH   1  48
BRANCH  34  53
HETATM   53  N3  UNL     1       2.415  -3.321   1.078  1.00  0.00     0.098 N 
HETATM   54  C44 UNL     1       2.924  -4.400   1.914  1.00  0.00     0.308 C 
HETATM   55  H42 UNL     1       1.416  -3.242   1.233  1.00  0.00     0.317 HD
ENDBRANCH  34  53
BRANCH  16  56
HETATM   56  C27 UNL     1      -2.182   6.352  -0.333  1.00  0.00     0.196 C 
BRANCH  56  57
HETATM   57  O4  UNL     1      -3.356   6.144  -1.122  1.00  0.00    -0.398 OA
HETATM   58  H27 UNL     1      -3.074   5.895  -2.016  1.00  0.00     0.209 HD
ENDBRANCH  56  57
ENDBRANCH  16  56
BRANCH  26  59
HETATM   59  O6  UNL     1       8.252   1.517  -0.569  1.00  0.00    -0.358 OA
HETATM   60  H34 UNL     1       8.820   1.237   0.177  1.00  0.00     0.217 HD
ENDBRANCH  26  59
TORSDOF 10
