REMARK  11 active torsions:
REMARK  status: ('A' for Active; 'I' for Inactive)
REMARK    1  A    between atoms: C2_2  and  O1_4 
REMARK    2  A    between atoms: C2_2  and  C4_5 
REMARK    3  A    between atoms: C5_6  and  C6_7 
REMARK    4  A    between atoms: C6_7  and  C7_8 
REMARK    5  A    between atoms: C7_8  and  C8_9 
REMARK    6  A    between atoms: C7_8  and  C14_21 
REMARK    7  A    between atoms: C8_9  and  O3_11 
REMARK    8  A    between atoms: O3_11  and  C9_12 
REMARK    9  A    between atoms: C10_13  and  O4_14 
REMARK   10  A    between atoms: C11_15  and  O5_16 
REMARK   11  A    between atoms: C13_19  and  O7_20 
ROOT
HETATM    1  C7  UNL     1      -2.969   0.507   0.249  1.00  0.00     0.094 C 
ENDROOT
BRANCH   1   2
HETATM    2  C6  UNL     1      -4.221   1.421   0.170  1.00  0.00     0.042 C 
BRANCH   2   3
HETATM    3  C5  UNL     1      -4.346   2.452   1.257  1.00  0.00    -0.027 C 
HETATM    4  C4  UNL     1      -4.523   3.765   1.022  1.00  0.00     0.006 C 
BRANCH   4   5
HETATM    5  C2  UNL     1      -4.625   4.860   2.062  1.00  0.00     0.068 C 
HETATM    6  C1  UNL     1      -3.753   6.057   1.671  1.00  0.00     0.050 C 
HETATM    7  C3  UNL     1      -6.079   5.299   2.239  1.00  0.00     0.050 C 
BRANCH   5   8
HETATM    8  O1  UNL     1      -4.165   4.373   3.322  1.00  0.00    -0.387 OA
HETATM    9  H7  UNL     1      -3.233   4.120   3.196  1.00  0.00     0.211 HD
ENDBRANCH   5   8
ENDBRANCH   4   5
ENDBRANCH   2   3
ENDBRANCH   1   2
BRANCH   1  10
HETATM   10  C8  UNL     1      -3.195  -0.547  -0.829  1.00  0.00     0.264 C 
HETATM   11  O2  UNL     1      -3.330  -0.315  -2.024  1.00  0.00    -0.265 OA
BRANCH  10  12
HETATM   12  O3  UNL     1      -3.270  -1.786  -0.277  1.00  0.00    -0.308 OA
BRANCH  12  13
HETATM   13  C9  UNL     1      -3.663  -2.880  -1.146  1.00  0.00     0.218 C 
HETATM   14  C10 UNL     1      -4.172  -4.002  -0.233  1.00  0.00     0.183 C 
HETATM   15  C11 UNL     1      -4.381  -5.320  -0.988  1.00  0.00     0.173 C 
HETATM   16  C12 UNL     1      -3.125  -5.662  -1.780  1.00  0.00     0.205 C 
HETATM   17  O6  UNL     1      -2.811  -4.604  -2.674  1.00  0.00    -0.356 OA
HETATM   18  C13 UNL     1      -2.477  -3.397  -1.993  1.00  0.00     0.288 C 
BRANCH  14  19
HETATM   19  O4  UNL     1      -5.420  -3.620   0.366  1.00  0.00    -0.390 OA
HETATM   20  H15 UNL     1      -5.623  -4.333   1.009  1.00  0.00     0.210 HD
ENDBRANCH  14  19
BRANCH  15  21
HETATM   21  O5  UNL     1      -4.693  -6.343  -0.040  1.00  0.00    -0.391 OA
HETATM   22  H17 UNL     1      -4.883  -7.157  -0.546  1.00  0.00     0.210 HD
ENDBRANCH  15  21
BRANCH  18  23
HETATM   23  O7  UNL     1      -2.057  -2.469  -2.983  1.00  0.00    -0.369 OA
HETATM   24  H21 UNL     1      -2.747  -1.782  -3.077  1.00  0.00     0.212 HD
ENDBRANCH  18  23
ENDBRANCH  12  13
ENDBRANCH  10  12
ENDBRANCH   1  10
BRANCH   1  25
HETATM   25  C14 UNL     1      -1.610   1.250   0.084  1.00  0.00     0.009 C 
HETATM   26  C15 UNL     1      -1.279   2.175   1.298  1.00  0.00     0.007 C 
HETATM   27  C16 UNL     1       0.235   2.086   1.563  1.00  0.00     0.015 C 
HETATM   28  C17 UNL     1       0.817   1.478   0.282  1.00  0.00    -0.013 C 
HETATM   29  C18 UNL     1       0.968   2.636  -0.749  1.00  0.00     0.021 C 
HETATM   30  C19 UNL     1       2.187   0.804   0.335  1.00  0.00    -0.068 C 
HETATM   31  C23 UNL     1      -0.294   0.413  -0.048  1.00  0.00    -0.028 C 
HETATM   32  C20 UNL     1       2.494  -0.180  -0.553  1.00  0.00    -0.068 C 
HETATM   33  C35 UNL     1       3.161   1.317   1.363  1.00  0.00     0.036 C 
HETATM   34  C21 UNL     1       1.451  -0.699  -1.552  1.00  0.00     0.036 C 
HETATM   35  C25 UNL     1       3.896  -0.851  -0.597  1.00  0.00    -0.015 C 
HETATM   36  C22 UNL     1       0.018  -0.142  -1.443  1.00  0.00     0.015 C 
HETATM   37  C26 UNL     1       3.729  -2.287  -0.034  1.00  0.00     0.020 C 
HETATM   38  C27 UNL     1       4.401  -0.934  -2.068  1.00  0.00     0.021 C 
HETATM   39  C33 UNL     1       4.956  -0.002   0.199  1.00  0.00     0.013 C 
HETATM   40  C28 UNL     1       5.914  -1.031  -2.249  1.00  0.00     0.080 C 
HETATM   41  C29 UNL     1       6.639  -1.463  -0.995  1.00  0.00     0.135 C 
HETATM   42  O8  UNL     1       7.462  -2.379  -1.038  1.00  0.00    -0.297 OA
HETATM   43  C30 UNL     1       6.382  -0.645   0.282  1.00  0.00     0.018 C 
HETATM   44  C31 UNL     1       6.599  -1.539   1.522  1.00  0.00     0.023 C 
HETATM   45  C32 UNL     1       7.462   0.461   0.327  1.00  0.00     0.023 C 
HETATM   46  C34 UNL     1       4.394   0.435   1.556  1.00  0.00     0.011 C 
HETATM   47  C24 UNL     1      -0.319  -0.770   0.972  1.00  0.00     0.016 C 
ENDBRANCH   1  25
TORSDOF 11
