REMARK  14 active torsions:
REMARK  status: ('A' for Active; 'I' for Inactive)
REMARK    1  A    between atoms: C2_2  and  C3_3 
REMARK    2  A    between atoms: C2_2  and  C35_44 
REMARK    3  A    between atoms: C3_3  and  C4_4 
REMARK    4  A    between atoms: C4_4  and  C5_5 
REMARK    5  A    between atoms: C5_5  and  C6_6 
REMARK    6  A    between atoms: C5_5  and  C7_9 
REMARK    7  A    between atoms: C6_6  and  O2_8 
REMARK    8  A    between atoms: C28_31  and  O4_32 
REMARK    9  A    between atoms: O4_32  and  C29_33 
REMARK   10  A    between atoms: C30_35  and  C31_36 
REMARK   11  A    between atoms: C31_36  and  O6_37 
REMARK   12  A    between atoms: C32_38  and  O7_39 
REMARK   13  A    between atoms: C33_40  and  O8_41 
REMARK   14  A    between atoms: C34_42  and  O9_43 
ROOT
HETATM    1  C7  UNL     1       2.548   1.140   0.955  1.00  0.00     0.009 C 
HETATM    2  C8  UNL     1       1.670   2.344   0.540  1.00  0.00     0.007 C 
HETATM    3  C9  UNL     1       0.221   1.812   0.424  1.00  0.00     0.015 C 
HETATM    4  C10 UNL     1       0.237   0.411   1.068  1.00  0.00    -0.010 C 
HETATM    5  C11 UNL     1       0.079   0.628   2.609  1.00  0.00     0.021 C 
HETATM    6  C12 UNL     1      -0.830  -0.636   0.727  1.00  0.00    -0.039 C 
HETATM    7  C13 UNL     1      -0.523  -1.958   0.860  1.00  0.00    -0.066 C 
HETATM    8  C14 UNL     1       0.902  -2.436   1.176  1.00  0.00     0.036 C 
HETATM    9  C15 UNL     1       1.993  -1.366   1.362  1.00  0.00     0.015 C 
HETATM   10  C16 UNL     1       1.656  -0.084   0.602  1.00  0.00    -0.028 C 
HETATM   11  C17 UNL     1       1.728  -0.385  -0.922  1.00  0.00     0.016 C 
HETATM   12  C18 UNL     1      -1.600  -3.062   0.678  1.00  0.00    -0.015 C 
HETATM   13  C19 UNL     1      -1.520  -3.478  -0.806  1.00  0.00     0.020 C 
HETATM   14  C20 UNL     1      -1.319  -4.299   1.575  1.00  0.00     0.021 C 
HETATM   15  C21 UNL     1      -2.429  -5.336   1.547  1.00  0.00     0.080 C 
HETATM   16  C22 UNL     1      -3.726  -4.719   2.000  1.00  0.00     0.135 C 
HETATM   17  O3  UNL     1      -4.395  -5.262   2.881  1.00  0.00    -0.297 OA
HETATM   18  C23 UNL     1      -4.196  -3.456   1.266  1.00  0.00     0.018 C 
HETATM   19  C24 UNL     1      -4.858  -3.888  -0.050  1.00  0.00     0.023 C 
HETATM   20  C25 UNL     1      -5.301  -2.793   2.128  1.00  0.00     0.023 C 
HETATM   21  C26 UNL     1      -2.984  -2.465   1.124  1.00  0.00     0.016 C 
HETATM   22  C27 UNL     1      -3.302  -1.230   0.279  1.00  0.00     0.043 C 
HETATM   23  C28 UNL     1      -2.233  -0.132   0.399  1.00  0.00     0.155 C 
ENDROOT
BRANCH  23  24
HETATM   24  O4  UNL     1      -2.202   0.556  -0.856  1.00  0.00    -0.349 OA
BRANCH  24  25
HETATM   25  C29 UNL     1      -3.039   1.726  -0.883  1.00  0.00     0.292 C 
HETATM   26  O5  UNL     1      -4.386   1.423  -0.546  1.00  0.00    -0.348 OA
HETATM   27  C30 UNL     1      -5.225   2.583  -0.430  1.00  0.00     0.179 C 
HETATM   28  C32 UNL     1      -4.725   3.819  -1.219  1.00  0.00     0.180 C 
HETATM   29  C33 UNL     1      -4.018   3.423  -2.526  1.00  0.00     0.183 C 
HETATM   30  C34 UNL     1      -3.008   2.275  -2.324  1.00  0.00     0.204 C 
BRANCH  27  31
HETATM   31  C31 UNL     1      -6.641   2.162  -0.848  1.00  0.00     0.198 C 
BRANCH  31  32
HETATM   32  O6  UNL     1      -7.589   3.196  -0.608  1.00  0.00    -0.398 OA
HETATM   33  H45 UNL     1      -7.683   3.281   0.360  1.00  0.00     0.209 HD
ENDBRANCH  31  32
ENDBRANCH  27  31
BRANCH  28  34
HETATM   34  O7  UNL     1      -3.809   4.548  -0.382  1.00  0.00    -0.390 OA
HETATM   35  H47 UNL     1      -3.460   5.300  -0.897  1.00  0.00     0.210 HD
ENDBRANCH  28  34
BRANCH  29  36
HETATM   36  O8  UNL     1      -4.988   3.046  -3.514  1.00  0.00    -0.390 OA
HETATM   37  H49 UNL     1      -5.507   3.836  -3.739  1.00  0.00     0.210 HD
ENDBRANCH  29  36
BRANCH  30  38
HETATM   38  O9  UNL     1      -1.681   2.723  -2.660  1.00  0.00    -0.388 OA
HETATM   39  H51 UNL     1      -1.122   1.922  -2.595  1.00  0.00     0.210 HD
ENDBRANCH  30  38
ENDBRANCH  24  25
ENDBRANCH  23  24
BRANCH   1  40
HETATM   40  C5  UNL     1       4.031   1.144   0.490  1.00  0.00     0.089 C 
BRANCH  40  41
HETATM   41  C4  UNL     1       4.344   1.775  -0.883  1.00  0.00     0.020 C 
BRANCH  41  42
HETATM   42  C3  UNL     1       5.836   1.748  -1.277  1.00  0.00     0.034 C 
BRANCH  42  43
HETATM   43  C2  UNL     1       6.522   0.400  -1.414  1.00  0.00    -0.086 C 
HETATM   44  C1  UNL     1       5.885  -0.709  -1.832  1.00  0.00     0.014 C 
BRANCH  43  45
HETATM   45  C35 UNL     1       8.015   0.335  -1.100  1.00  0.00     0.005 C 
HETATM   46  C36 UNL     1       8.823   1.353  -1.909  1.00  0.00     0.014 C 
HETATM   47  C37 UNL     1       8.287   0.489   0.398  1.00  0.00     0.014 C 
ENDBRANCH  43  45
ENDBRANCH  42  43
ENDBRANCH  41  42
ENDBRANCH  40  41
BRANCH  40  48
HETATM   48  C6  UNL     1       4.849   1.817   1.579  1.00  0.00     0.144 C 
HETATM   49  O1  UNL     1       5.524   1.249   2.421  1.00  0.00    -0.650 OA
BRANCH  48  50
HETATM   50  O2  UNL     1       4.735   3.157   1.595  1.00  0.00    -0.776 OA
HETATM   51  H8  UNL     1       5.287   3.432   2.357  1.00  0.00     0.167 HD
ENDBRANCH  48  50
ENDBRANCH  40  48
ENDBRANCH   1  40
TORSDOF 14
