REMARK  12 active torsions:
REMARK  status: ('A' for Active; 'I' for Inactive)
REMARK    1  A    between atoms: O1_2  and  C2_3 
REMARK    2  A    between atoms: C4_5  and  O2_6 
REMARK    3  A    between atoms: O2_6  and  C5_7 
REMARK    4  A    between atoms: C8_10  and  C9_11 
REMARK    5  A    between atoms: N1_12  and  C10_14 
REMARK    6  A    between atoms: C10_14  and  C11_15 
REMARK    7  A    between atoms: C11_15  and  C12_16 
REMARK    8  A    between atoms: C12_16  and  O3_17 
REMARK    9  A    between atoms: C18_23  and  C19_24 
REMARK   10  A    between atoms: C25_32  and  O6_33 
REMARK   11  A    between atoms: C29_37  and  O7_38 
REMARK   12  A    between atoms: C33_43  and  O9_44 
ROOT
HETATM    1  C5  UNL     1       2.491   0.060  -0.445  1.00  0.00     0.127 C 
HETATM    2  C6  UNL     1       1.681   0.484  -1.665  1.00  0.00     0.033 C 
HETATM    3  C7  UNL     1       0.987  -0.693  -2.327  1.00  0.00     0.021 C 
HETATM    4  C8  UNL     1       0.058  -1.492  -1.358  1.00  0.00     0.026 C 
HETATM    5  C13 UNL     1      -1.134  -0.622  -0.824  1.00  0.00     0.009 C 
HETATM    6  C14 UNL     1      -2.007  -0.026  -1.933  1.00  0.00     0.007 C 
HETATM    7  C15 UNL     1      -2.938   1.016  -1.331  1.00  0.00     0.013 C 
HETATM    8  C16 UNL     1      -3.932   0.435  -0.301  1.00  0.00    -0.005 C 
HETATM    9  C17 UNL     1      -5.029  -0.326  -1.085  1.00  0.00     0.019 C 
HETATM   10  C18 UNL     1      -4.616   1.563   0.585  1.00  0.00     0.028 C 
HETATM   11  C23 UNL     1      -4.137   1.302   2.029  1.00  0.00     0.013 C 
HETATM   12  C24 UNL     1      -2.863   0.484   1.877  1.00  0.00     0.040 C 
HETATM   13  C25 UNL     1      -3.219  -0.493   0.746  1.00  0.00     0.070 C 
HETATM   14  C26 UNL     1      -2.026  -1.355   0.210  1.00  0.00     0.026 C 
HETATM   15  C27 UNL     1      -1.161  -1.928   1.357  1.00  0.00     0.011 C 
HETATM   16  C28 UNL     1       0.078  -2.704   0.905  1.00  0.00     0.039 C 
HETATM   17  C29 UNL     1       0.920  -1.969  -0.150  1.00  0.00     0.073 C 
HETATM   18  C30 UNL     1       1.667  -0.788   0.525  1.00  0.00     0.071 C 
ENDROOT
BRANCH   1  19
HETATM   19  O2  UNL     1       2.866   1.271   0.216  1.00  0.00    -0.356 OA
BRANCH  19  20
HETATM   20  C4  UNL     1       4.258   1.357   0.514  1.00  0.00     0.263 C 
HETATM   21  C3  UNL     1       4.515   2.773   1.014  1.00  0.00     0.095 C 
HETATM   22  C2  UNL     1       5.987   2.954   1.360  1.00  0.00     0.156 C 
HETATM   23  C33 UNL     1       6.425   1.859   2.351  1.00  0.00     0.175 C 
HETATM   24  C31 UNL     1       6.026   0.463   1.827  1.00  0.00     0.151 C 
HETATM   25  O8  UNL     1       4.634   0.398   1.493  1.00  0.00    -0.354 OA
HETATM   26  C32 UNL     1       6.291  -0.630   2.856  1.00  0.00     0.042 C 
BRANCH  22  27
HETATM   27  O1  UNL     1       6.249   4.225   1.984  1.00  0.00    -0.388 OA
HETATM   28  C1  UNL     1       6.071   5.334   1.116  1.00  0.00     0.202 C 
ENDBRANCH  22  27
BRANCH  23  29
HETATM   29  O9  UNL     1       5.822   2.124   3.626  1.00  0.00    -0.390 OA
HETATM   30  H51 UNL     1       5.881   3.095   3.742  1.00  0.00     0.210 HD
ENDBRANCH  23  29
ENDBRANCH  19  20
ENDBRANCH   1  19
BRANCH  17  31
HETATM   31  O7  UNL     1       1.934  -2.867  -0.626  1.00  0.00    -0.389 OA
HETATM   32  H43 UNL     1       2.381  -3.248   0.152  1.00  0.00     0.210 HD
ENDBRANCH  17  31
BRANCH   4  33
HETATM   33  C9  UNL     1      -0.458  -2.669  -2.211  1.00  0.00     0.068 C 
HETATM   34  N1  UNL     1      -1.171  -3.634  -1.730  1.00  0.00    -0.401 N 
ATOM     35  H1  UNL     1      -1.416  -3.697  -0.742  1.00  0.00     0.158 HD
BRANCH  34  36
HETATM   36  C10 UNL     1      -1.601  -4.634  -2.718  1.00  0.00     0.121 C 
BRANCH  36  37
HETATM   37  C11 UNL     1      -3.029  -5.081  -2.389  1.00  0.00     0.045 C 
BRANCH  37  38
HETATM   38  C12 UNL     1      -3.135  -5.799  -1.046  1.00  0.00     0.165 C 
BRANCH  38  39
HETATM   39  O3  UNL     1      -2.861  -4.910   0.030  1.00  0.00    -0.401 OA
HETATM   40  H20 UNL     1      -2.119  -4.346  -0.279  1.00  0.00     0.209 HD
ENDBRANCH  38  39
ENDBRANCH  37  38
ENDBRANCH  36  37
ENDBRANCH  34  36
ENDBRANCH   4  33
BRANCH  13  41
HETATM   41  O6  UNL     1      -4.215  -1.384   1.290  1.00  0.00    -0.389 OA
HETATM   42  H37 UNL     1      -3.775  -2.165   1.672  1.00  0.00     0.210 HD
ENDBRANCH  13  41
BRANCH  10  43
HETATM   43  C19 UNL     1      -4.429   2.999   0.155  1.00  0.00    -0.045 A 
HETATM   44  C20 UNL     1      -5.218   3.681  -0.678  1.00  0.00     0.087 A 
HETATM   45  C21 UNL     1      -4.666   5.031  -0.799  1.00  0.00     0.283 A 
HETATM   46  O4  UNL     1      -5.146   5.925  -1.473  1.00  0.00    -0.260 OA
HETATM   47  O5  UNL     1      -3.534   5.122  -0.044  1.00  0.00    -0.314 OA
HETATM   48  C22 UNL     1      -3.339   3.887   0.648  1.00  0.00     0.213 A 
ENDBRANCH  10  43
TORSDOF 12
