REMARK  11 active torsions:
REMARK  status: ('A' for Active; 'I' for Inactive)
REMARK    1  A    between atoms: C11_11  and  C13_13 
REMARK    2  A    between atoms: C13_13  and  O2_15 
REMARK    3  A    between atoms: O2_15  and  C14_16 
REMARK    4  A    between atoms: C15_18  and  C16_19 
REMARK    5  A    between atoms: C16_19  and  O4_20 
REMARK    6  A    between atoms: C17_21  and  O5_22 
REMARK    7  A    between atoms: C18_23  and  O6_24 
REMARK    8  A    between atoms: C19_25  and  O7_26 
REMARK    9  A    between atoms: C20_27  and  C21_28 
REMARK   10  A    between atoms: C21_28  and  C22_29 
REMARK   11  A    between atoms: C26_35  and  O10_36 
ROOT
HETATM    1  C1  UNL     1       3.402  -2.750   0.155  1.00  0.00     0.015 C 
HETATM    2  C2  UNL     1       2.448  -1.806   0.080  1.00  0.00    -0.084 C 
HETATM    3  C3  UNL     1       1.100  -2.006   0.717  1.00  0.00     0.034 C 
HETATM    4  C4  UNL     1      -0.063  -1.841  -0.274  1.00  0.00     0.011 C 
HETATM    5  C5  UNL     1       0.316  -1.095  -1.577  1.00  0.00     0.012 C 
HETATM    6  C6  UNL     1       1.283   0.101  -1.272  1.00  0.00    -0.032 C 
HETATM    7  C7  UNL     1       0.681   1.107  -0.268  1.00  0.00     0.016 C 
HETATM    8  C8  UNL     1       1.571   0.829  -2.611  1.00  0.00     0.010 C 
HETATM    9  C9  UNL     1       0.342   1.373  -3.335  1.00  0.00     0.002 C 
HETATM   10  C10 UNL     1      -0.979   0.691  -2.989  1.00  0.00     0.020 C 
HETATM   11  C11 UNL     1      -0.871  -0.796  -2.574  1.00  0.00     0.049 C 
HETATM   12  C12 UNL     1      -0.626  -1.604  -3.879  1.00  0.00     0.026 C 
HETATM   13  C20 UNL     1       2.647  -0.525  -0.736  1.00  0.00     0.025 C 
ENDROOT
BRANCH  11  14
HETATM   14  C13 UNL     1      -2.232  -1.268  -2.022  1.00  0.00     0.270 C 
HETATM   15  O1  UNL     1      -2.766  -2.328  -2.323  1.00  0.00    -0.264 OA
BRANCH  14  16
HETATM   16  O2  UNL     1      -2.731  -0.379  -1.126  1.00  0.00    -0.286 OA
BRANCH  16  17
HETATM   17  C14 UNL     1      -4.006  -0.690  -0.546  1.00  0.00     0.301 C 
HETATM   18  O3  UNL     1      -3.839  -1.071   0.829  1.00  0.00    -0.348 OA
HETATM   19  C15 UNL     1      -3.678  -0.003   1.775  1.00  0.00     0.179 C 
HETATM   20  C17 UNL     1      -3.373   1.362   1.133  1.00  0.00     0.180 C 
HETATM   21  C18 UNL     1      -4.437   1.741   0.099  1.00  0.00     0.183 C 
HETATM   22  C19 UNL     1      -4.945   0.525  -0.693  1.00  0.00     0.205 C 
BRANCH  19  23
HETATM   23  C16 UNL     1      -4.909   0.001   2.700  1.00  0.00     0.198 C 
BRANCH  23  24
HETATM   24  O4  UNL     1      -4.856   1.078   3.628  1.00  0.00    -0.398 OA
HETATM   25  H24 UNL     1      -5.589   0.941   4.259  1.00  0.00     0.209 HD
ENDBRANCH  23  24
ENDBRANCH  19  23
BRANCH  20  26
HETATM   26  O5  UNL     1      -3.226   2.442   2.060  1.00  0.00    -0.390 OA
HETATM   27  H26 UNL     1      -3.748   2.212   2.862  1.00  0.00     0.210 HD
ENDBRANCH  20  26
BRANCH  21  28
HETATM   28  O6  UNL     1      -3.893   2.724  -0.806  1.00  0.00    -0.390 OA
HETATM   29  H28 UNL     1      -3.456   3.386  -0.232  1.00  0.00     0.210 HD
ENDBRANCH  21  28
BRANCH  22  30
HETATM   30  O7  UNL     1      -5.163   0.878  -2.064  1.00  0.00    -0.388 OA
HETATM   31  H30 UNL     1      -4.648   1.704  -2.194  1.00  0.00     0.210 HD
ENDBRANCH  22  30
ENDBRANCH  16  17
ENDBRANCH  14  16
ENDBRANCH  11  14
BRANCH  13  32
HETATM   32  C21 UNL     1       3.658   0.462  -0.081  1.00  0.00     0.037 C 
BRANCH  32  33
HETATM   33  C22 UNL     1       3.472   0.751   1.386  1.00  0.00    -0.010 C 
HETATM   34  C23 UNL     1       4.253   0.333   2.396  1.00  0.00     0.044 C 
HETATM   35  C24 UNL     1       3.915   0.669   3.802  1.00  0.00     0.291 C 
HETATM   36  C26 UNL     1       5.488  -0.488   2.434  1.00  0.00     0.181 C 
HETATM   37  O8  UNL     1       2.885   1.187   4.194  1.00  0.00    -0.260 OA
HETATM   38  O9  UNL     1       4.943   0.271   4.601  1.00  0.00    -0.315 OA
HETATM   39  C25 UNL     1       6.050  -0.104   3.786  1.00  0.00     0.215 C 
BRANCH  36  40
HETATM   40  O10 UNL     1       6.399  -0.179   1.394  1.00  0.00    -0.389 OA
HETATM   41  H38 UNL     1       7.128  -0.820   1.443  1.00  0.00     0.210 HD
ENDBRANCH  36  40
ENDBRANCH  32  33
ENDBRANCH  13  32
TORSDOF 11
