REMARK  8 active torsions:
REMARK  status: ('A' for Active; 'I' for Inactive)
REMARK    1  A    between atoms: C2_2  and  C30_34 
REMARK    2  A    between atoms: C3_3  and  C4_4 
REMARK    3  A    between atoms: C4_4  and  O1_5 
REMARK    4  A    between atoms: C4_4  and  C5_6 
REMARK    5  A    between atoms: C5_6  and  C6_7 
REMARK    6  A    between atoms: C6_7  and  C8_9 
REMARK    7  A    between atoms: C10_11  and  O2_12 
REMARK    8  A    between atoms: C30_34  and  O6_36 
ROOT
HETATM    1  C8  UNL     1       2.128   0.545  -0.892  1.00  0.00     0.001 C 
HETATM    2  C9  UNL     1       1.745   1.553  -2.014  1.00  0.00     0.038 C 
HETATM    3  C10 UNL     1       0.209   1.680  -1.994  1.00  0.00     0.131 C 
HETATM    4  C11 UNL     1      -0.203   1.145  -0.597  1.00  0.00     0.014 C 
HETATM    5  C12 UNL     1       0.036   2.276   0.456  1.00  0.00     0.023 C 
HETATM    6  C13 UNL     1      -1.640   0.688  -0.351  1.00  0.00    -0.058 C 
HETATM    7  C14 UNL     1      -1.931  -0.221   0.617  1.00  0.00    -0.000 C 
HETATM    8  C15 UNL     1      -0.779  -0.885   1.363  1.00  0.00     0.157 C 
HETATM    9  O3  UNL     1      -0.993  -1.636   2.314  1.00  0.00    -0.293 OA
HETATM   10  C16 UNL     1       0.666  -0.631   0.942  1.00  0.00     0.094 C 
HETATM   11  C17 UNL     1       0.762  -0.094  -0.486  1.00  0.00    -0.019 C 
HETATM   12  C18 UNL     1       0.389  -1.251  -1.459  1.00  0.00     0.017 C 
HETATM   13  C19 UNL     1      -3.379  -0.623   0.998  1.00  0.00    -0.008 C 
HETATM   14  C20 UNL     1      -3.590  -2.058   0.459  1.00  0.00     0.021 C 
HETATM   15  C21 UNL     1      -3.593  -0.624   2.546  1.00  0.00     0.022 C 
HETATM   16  C22 UNL     1      -5.007  -0.312   3.030  1.00  0.00     0.080 C 
HETATM   17  C23 UNL     1      -6.051  -0.645   1.994  1.00  0.00     0.135 C 
HETATM   18  O4  UNL     1      -6.994  -1.389   2.262  1.00  0.00    -0.297 OA
HETATM   19  C24 UNL     1      -5.918   0.060   0.640  1.00  0.00     0.018 C 
HETATM   20  C25 UNL     1      -6.557  -0.803  -0.463  1.00  0.00     0.023 C 
HETATM   21  C26 UNL     1      -6.743   1.362   0.741  1.00  0.00     0.023 C 
HETATM   22  C27 UNL     1      -4.409   0.409   0.397  1.00  0.00     0.014 C 
HETATM   23  C28 UNL     1      -4.086   0.728  -1.067  1.00  0.00     0.011 C 
HETATM   24  C29 UNL     1      -2.704   1.360  -1.185  1.00  0.00     0.036 C 
ENDROOT
BRANCH   1  25
HETATM   25  C6  UNL     1       3.403  -0.289  -1.219  1.00  0.00    -0.011 C 
HETATM   26  C7  UNL     1       3.358  -1.161  -2.479  1.00  0.00     0.010 C 
BRANCH  25  27
HETATM   27  C5  UNL     1       3.870  -1.115   0.002  1.00  0.00     0.040 C 
BRANCH  27  28
HETATM   28  C4  UNL     1       5.282  -1.714  -0.101  1.00  0.00     0.142 C 
BRANCH  28  29
HETATM   29  C3  UNL     1       6.366  -0.690  -0.297  1.00  0.00     0.018 C 
HETATM   30  C2  UNL     1       7.034   0.032   0.629  1.00  0.00     0.010 C 
HETATM   31  C1  UNL     1       6.779   0.009   2.109  1.00  0.00     0.055 C 
BRANCH  30  32
HETATM   32  C30 UNL     1       8.109   0.975   0.219  1.00  0.00     0.171 C 
HETATM   33  O5  UNL     1       8.824   1.604   0.979  1.00  0.00    -0.646 OA
BRANCH  32  34
HETATM   34  O6  UNL     1       8.246   1.102  -1.112  1.00  0.00    -0.773 OA
HETATM   35  H44 UNL     1       8.981   1.744  -1.201  1.00  0.00     0.167 HD
ENDBRANCH  32  34
ENDBRANCH  30  32
ENDBRANCH  28  29
BRANCH  28  36
HETATM   36  O1  UNL     1       5.532  -2.480   1.073  1.00  0.00    -0.392 OA
HETATM   37  H6  UNL     1       6.439  -2.825   1.001  1.00  0.00     0.210 HD
ENDBRANCH  28  36
ENDBRANCH  27  28
ENDBRANCH  25  27
ENDBRANCH   1  25
BRANCH   3  38
HETATM   38  O2  UNL     1      -0.187   3.024  -2.222  1.00  0.00    -0.394 OA
HETATM   39  H17 UNL     1       0.229   3.318  -3.050  1.00  0.00     0.210 HD
ENDBRANCH   3  38
TORSDOF 8
