REMARK  6 active torsions:
REMARK  status: ('A' for Active; 'I' for Inactive)
REMARK    1  A    between atoms: O1_2  and  C2_3 
REMARK    2  A    between atoms: C17_20  and  C18_21 
REMARK    3  A    between atoms: C22_27  and  O6_28 
REMARK    4  A    between atoms: O6_28  and  C23_29 
REMARK    5  A    between atoms: C26_33  and  O8_34 
REMARK    6  A    between atoms: C31_40  and  O10_41 
ROOT
HETATM    1  C2  UNL     1       6.388   0.590   1.573  1.00  0.00     0.190 C 
HETATM    2  C3  UNL     1       7.913   0.429   1.452  1.00  0.00     0.064 C 
HETATM    3  C4  UNL     1       8.378   0.213   0.013  1.00  0.00     0.174 C 
HETATM    4  O2  UNL     1       7.425  -0.517  -0.748  1.00  0.00    -0.356 OA
HETATM    5  C5  UNL     1       6.188   0.182  -0.927  1.00  0.00     0.325 C 
HETATM    6  O3  UNL     1       5.148  -0.773  -1.130  1.00  0.00    -0.344 OA
HETATM    7  C6  UNL     1       3.941  -0.139  -1.553  1.00  0.00     0.177 C 
HETATM    8  C7  UNL     1       2.839  -1.150  -1.457  1.00  0.00     0.011 C 
HETATM    9  C8  UNL     1       1.542  -0.811  -1.338  1.00  0.00    -0.072 C 
HETATM   10  C9  UNL     1       0.487  -1.872  -1.172  1.00  0.00     0.035 C 
HETATM   11  C10 UNL     1      -0.931  -1.507  -1.625  1.00  0.00     0.012 C 
HETATM   12  C11 UNL     1      -1.342  -0.021  -1.498  1.00  0.00     0.026 C 
HETATM   13  C12 UNL     1      -0.311   0.794  -0.678  1.00  0.00     0.005 C 
HETATM   14  C13 UNL     1      -0.409   0.458   0.831  1.00  0.00     0.007 C 
HETATM   15  C14 UNL     1      -1.747  -0.150   1.257  1.00  0.00     0.013 C 
HETATM   16  C15 UNL     1      -2.970   0.466   0.530  1.00  0.00    -0.003 C 
HETATM   17  C16 UNL     1      -3.082   1.939   0.993  1.00  0.00     0.019 C 
HETATM   18  C17 UNL     1      -4.252  -0.368   0.901  1.00  0.00     0.058 C 
HETATM   19  C22 UNL     1      -4.257  -1.487  -0.167  1.00  0.00     0.143 C 
HETATM   20  C25 UNL     1      -3.850  -0.774  -1.452  1.00  0.00     0.072 C 
HETATM   21  C26 UNL     1      -2.807   0.279  -1.026  1.00  0.00     0.072 C 
HETATM   22  C27 UNL     1       1.134   0.653  -1.279  1.00  0.00    -0.014 C 
HETATM   23  C28 UNL     1       1.153   1.249  -2.713  1.00  0.00     0.020 C 
HETATM   24  C29 UNL     1       2.174   1.414  -0.418  1.00  0.00     0.049 C 
HETATM   25  C30 UNL     1       3.651   1.209  -0.823  1.00  0.00     0.159 C 
HETATM   26  O9  UNL     1       4.411   1.391   0.382  1.00  0.00    -0.341 OA
HETATM   27  C31 UNL     1       5.812   1.154   0.244  1.00  0.00     0.240 C 
ENDROOT
BRANCH  18  28
HETATM   28  C18 UNL     1      -5.558   0.387   1.022  1.00  0.00    -0.043 A 
HETATM   29  C19 UNL     1      -6.215   0.590   2.166  1.00  0.00     0.087 A 
HETATM   30  C20 UNL     1      -7.420   1.349   1.848  1.00  0.00     0.283 A 
HETATM   31  O4  UNL     1      -8.253   1.706   2.661  1.00  0.00    -0.260 OA
HETATM   32  O5  UNL     1      -7.458   1.582   0.510  1.00  0.00    -0.314 OA
HETATM   33  C21 UNL     1      -6.313   0.987  -0.104  1.00  0.00     0.214 A 
ENDBRANCH  18  28
BRANCH  19  34
HETATM   34  O6  UNL     1      -5.524  -2.130  -0.339  1.00  0.00    -0.316 OA
BRANCH  34  35
HETATM   35  C23 UNL     1      -5.860  -3.012   0.645  1.00  0.00     0.255 C 
HETATM   36  C24 UNL     1      -7.217  -3.588   0.381  1.00  0.00     0.126 C 
HETATM   37  O7  UNL     1      -5.154  -3.311   1.598  1.00  0.00    -0.266 OA
ENDBRANCH  34  35
ENDBRANCH  19  34
BRANCH  21  38
HETATM   38  O8  UNL     1      -3.203   1.507  -1.665  1.00  0.00    -0.389 OA
HETATM   39  H35 UNL     1      -3.155   1.382  -2.630  1.00  0.00     0.210 HD
ENDBRANCH  21  38
BRANCH  27  40
HETATM   40  O10 UNL     1       6.413   2.447   0.045  1.00  0.00    -0.360 OA
HETATM   41  H42 UNL     1       6.091   2.775  -0.808  1.00  0.00     0.213 HD
ENDBRANCH  27  40
BRANCH   1  42
HETATM   42  O1  UNL     1       5.870  -0.705   1.935  1.00  0.00    -0.385 OA
HETATM   43  C1  UNL     1       4.621  -0.664   2.610  1.00  0.00     0.202 C 
ENDBRANCH   1  42
TORSDOF 6
