REMARK  5 active torsions:
REMARK  status: ('A' for Active; 'I' for Inactive)
REMARK    1  A    between atoms: C3_3  and  C4_4 
REMARK    2  A    between atoms: C4_4  and  C5_5 
REMARK       I    between atoms: C5_5  and  N1_7 
REMARK    3  A    between atoms: N1_7  and  C6_8 
REMARK    4  A    between atoms: C6_8  and  C7_9 
REMARK    5  A    between atoms: C7_9  and  C8_10 
ROOT
HETATM    1  C1  UNL     1       0.656   2.135   1.694  1.00  0.00     0.050 C 
HETATM    2  C2  UNL     1       0.705   0.800   0.994  1.00  0.00    -0.036 A 
HETATM    3  C3  UNL     1      -0.394   0.112   0.614  1.00  0.00     0.033 A 
HETATM    4  C16 UNL     1      -0.293  -1.176  -0.127  1.00  0.00     0.295 A 
HETATM    5  O2  UNL     1      -1.296  -1.768  -0.521  1.00  0.00    -0.259 OA
HETATM    6  O3  UNL     1       0.969  -1.685  -0.360  1.00  0.00    -0.274 OA
HETATM    7  C17 UNL     1       2.119  -0.989   0.039  1.00  0.00     0.093 A 
HETATM    8  C18 UNL     1       3.340  -1.590  -0.271  1.00  0.00     0.075 A 
HETATM    9  C19 UNL     1       4.526  -0.954   0.076  1.00  0.00     0.079 A 
HETATM   10  C20 UNL     1       4.489   0.266   0.754  1.00  0.00    -0.024 A 
HETATM   11  C21 UNL     1       3.245   0.855   1.050  1.00  0.00     0.024 A 
HETATM   12  C22 UNL     1       2.037   0.235   0.697  1.00  0.00     0.005 A 
HETATM   13  C23 UNL     1       5.757   0.970   1.136  1.00  0.00     0.044 C 
HETATM   14  C24 UNL     1       6.932   0.005   1.105  1.00  0.00     0.042 C 
HETATM   15  C25 UNL     1       6.905  -0.864  -0.161  1.00  0.00     0.061 C 
HETATM   16  C26 UNL     1       8.022  -1.914  -0.064  1.00  0.00     0.046 C 
HETATM   17  C27 UNL     1       7.113  -0.050  -1.448  1.00  0.00     0.046 C 
HETATM   18  O4  UNL     1       5.676  -1.605  -0.270  1.00  0.00    -0.340 OA
ENDROOT
BRANCH   3  19
HETATM   19  C4  UNL     1      -1.819   0.526   0.881  1.00  0.00     0.148 C 
BRANCH  19  20
HETATM   20  C5  UNL     1      -2.358   1.306  -0.306  1.00  0.00     0.222 C 
HETATM   21  O1  UNL     1      -2.362   2.535  -0.333  1.00  0.00    -0.273 OA
HETATM   22  N1  UNL     1      -2.829   0.524  -1.332  1.00  0.00    -0.360 N 
HETATM   23  H6  UNL     1      -2.815  -0.489  -1.223  1.00  0.00     0.162 HD
BRANCH  22  24
HETATM   24  C6  UNL     1      -3.474   1.080  -2.506  1.00  0.00     0.127 C 
BRANCH  24  25
HETATM   25  C7  UNL     1      -4.923   1.515  -2.255  1.00  0.00     0.060 C 
BRANCH  25  26
HETATM   26  C8  UNL     1      -5.813   0.377  -1.852  1.00  0.00    -0.029 A 
HETATM   27  C9  UNL     1      -6.451  -0.508  -2.700  1.00  0.00     0.096 A 
HETATM   28  N2  UNL     1      -7.144  -1.410  -1.940  1.00  0.00    -0.365 N 
HETATM   29  C10 UNL     1      -6.975  -1.136  -0.603  1.00  0.00     0.043 A 
HETATM   30  H12 UNL     1      -7.698  -2.174  -2.303  1.00  0.00     0.165 HD
HETATM   31  C11 UNL     1      -7.483  -1.795   0.523  1.00  0.00     0.032 A 
HETATM   32  C15 UNL     1      -6.155  -0.011  -0.516  1.00  0.00    -0.000 A 
HETATM   33  C12 UNL     1      -7.137  -1.288   1.780  1.00  0.00     0.026 A 
HETATM   34  C13 UNL     1      -6.324  -0.163   1.894  1.00  0.00     0.035 A 
HETATM   35 CL1  UNL     1      -5.910   0.431   3.457  1.00  0.00    -0.084 Cl
HETATM   36  C14 UNL     1      -5.830   0.490   0.762  1.00  0.00     0.038 A 
ENDBRANCH  25  26
ENDBRANCH  24  25
ENDBRANCH  22  24
ENDBRANCH  19  20
ENDBRANCH   3  19
TORSDOF 5
