REMARK  8 active torsions:
REMARK  status: ('A' for Active; 'I' for Inactive)
REMARK    1  A    between atoms: C2_2  and  C3_3 
REMARK    2  A    between atoms: C2_2  and  C11_14 
REMARK    3  A    between atoms: C3_3  and  C4_4 
REMARK    4  A    between atoms: C4_4  and  C5_5 
REMARK       I    between atoms: C5_5  and  N1_7 
REMARK    5  A    between atoms: N1_7  and  C6_8 
REMARK    6  A    between atoms: C6_8  and  C7_9 
REMARK    7  A    between atoms: C16_19  and  O3_20 
REMARK    8  A    between atoms: C20_24  and  O4_25 
ROOT
HETATM    1  C11 UNL     1       0.526  -0.483  -0.969  1.00  0.00    -0.002 C 
HETATM    2  C12 UNL     1       0.221  -1.638  -1.971  1.00  0.00     0.006 C 
HETATM    3  C13 UNL     1      -1.300  -1.819  -2.015  1.00  0.00     0.006 C 
HETATM    4  C14 UNL     1      -1.833  -0.614  -1.258  1.00  0.00     0.001 C 
HETATM    5  C15 UNL     1      -3.292  -0.657  -0.771  1.00  0.00     0.024 C 
HETATM    6  C16 UNL     1      -4.256  -0.847  -1.968  1.00  0.00     0.123 C 
HETATM    7  C17 UNL     1      -5.655  -0.264  -1.733  1.00  0.00     0.037 C 
HETATM    8  C18 UNL     1      -6.025  -0.325  -0.246  1.00  0.00    -0.001 C 
HETATM    9  C19 UNL     1      -7.534  -0.103  -0.012  1.00  0.00     0.037 C 
HETATM   10  C20 UNL     1      -7.978   1.354  -0.008  1.00  0.00     0.118 C 
HETATM   11  C21 UNL     1      -7.126   2.194   0.933  1.00  0.00     0.032 C 
HETATM   12  C22 UNL     1      -5.638   2.073   0.608  1.00  0.00     0.012 C 
HETATM   13  C23 UNL     1      -5.098   0.613   0.602  1.00  0.00    -0.036 C 
HETATM   14  C24 UNL     1      -5.105   0.074   2.056  1.00  0.00     0.016 C 
HETATM   15  C25 UNL     1      -3.630   0.649  -0.004  1.00  0.00     0.001 C 
HETATM   16  C26 UNL     1      -2.539   1.061   1.016  1.00  0.00     0.007 C 
HETATM   17  C27 UNL     1      -1.106   0.991   0.467  1.00  0.00     0.010 C 
HETATM   18  C28 UNL     1      -0.791  -0.392  -0.133  1.00  0.00    -0.036 C 
HETATM   19  C29 UNL     1      -0.829  -1.488   0.960  1.00  0.00     0.016 C 
ENDROOT
BRANCH   1  20
HETATM   20  C2  UNL     1       1.892  -0.696  -0.248  1.00  0.00    -0.013 C 
HETATM   21  C1  UNL     1       2.169   0.370   0.814  1.00  0.00     0.010 C 
BRANCH  20  22
HETATM   22  C3  UNL     1       3.044  -0.738  -1.294  1.00  0.00     0.014 C 
BRANCH  22  23
HETATM   23  C4  UNL     1       4.407  -1.150  -0.728  1.00  0.00     0.103 C 
BRANCH  23  24
HETATM   24  C5  UNL     1       5.288   0.005  -0.286  1.00  0.00     0.217 C 
HETATM   25  O1  UNL     1       5.025   1.186  -0.473  1.00  0.00    -0.274 OA
HETATM   26  N1  UNL     1       6.435  -0.423   0.350  1.00  0.00    -0.359 N 
HETATM   27  H9  UNL     1       6.744  -1.374   0.183  1.00  0.00     0.162 HD
BRANCH  26  28
HETATM   28  C6  UNL     1       7.473   0.520   0.727  1.00  0.00     0.154 C 
BRANCH  28  29
HETATM   29  C7  UNL     1       8.542  -0.164   1.589  1.00  0.00     0.139 C 
HETATM   30  C8  UNL     1       9.664   0.774   2.002  1.00  0.00     0.035 C 
HETATM   31  C9  UNL     1      10.656   0.620   0.876  1.00  0.00     0.029 C 
HETATM   32  C10 UNL     1      10.515  -0.845   0.527  1.00  0.00     0.168 C 
HETATM   33  O2  UNL     1       9.158  -1.214   0.807  1.00  0.00    -0.384 OA
ENDBRANCH  28  29
ENDBRANCH  26  28
ENDBRANCH  23  24
ENDBRANCH  22  23
ENDBRANCH  20  22
ENDBRANCH   1  20
BRANCH   6  34
HETATM   34  O3  UNL     1      -4.369  -2.250  -2.221  1.00  0.00    -0.395 OA
HETATM   35  H27 UNL     1      -4.945  -2.360  -2.997  1.00  0.00     0.210 HD
ENDBRANCH   6  34
BRANCH  10  36
HETATM   36  O4  UNL     1      -7.906   1.881  -1.330  1.00  0.00    -0.396 OA
HETATM   37  H34 UNL     1      -8.323   2.760  -1.305  1.00  0.00     0.210 HD
ENDBRANCH  10  36
TORSDOF 8
