REMARK  9 active torsions:
REMARK  status: ('A' for Active; 'I' for Inactive)
REMARK    1  A    between atoms: O1_2  and  C2_3 
REMARK    2  A    between atoms: C2_3  and  C3_4 
REMARK    3  A    between atoms: C3_4  and  N1_5 
REMARK       I    between atoms: N1_5  and  C4_6 
REMARK    4  A    between atoms: C4_6  and  C5_8 
REMARK    5  A    between atoms: C5_8  and  C7_10 
REMARK    6  A    between atoms: C14_17  and  N2_18 
REMARK       I    between atoms: N2_18  and  C15_19 
REMARK    7  A    between atoms: C15_19  and  C16_21 
REMARK    8  A    between atoms: C16_21  and  O4_22 
REMARK    9  A    between atoms: C21_27  and  O5_28 
ROOT
HETATM    1  C7  UNL     1       1.517  -0.550   0.373  1.00  0.00     0.027 C 
HETATM    2  C8  UNL     1       1.406  -1.718  -0.615  1.00  0.00     0.009 C 
HETATM    3  C9  UNL     1       0.444  -1.408  -1.767  1.00  0.00     0.010 C 
HETATM    4  C10 UNL     1      -0.784  -0.530  -1.386  1.00  0.00    -0.037 C 
HETATM    5  C11 UNL     1      -0.511   0.938  -1.801  1.00  0.00     0.015 C 
HETATM    6  C12 UNL     1      -2.003  -1.044  -2.195  1.00  0.00     0.011 C 
HETATM    7  C13 UNL     1      -3.307  -0.347  -1.830  1.00  0.00     0.026 C 
HETATM    8  C14 UNL     1      -3.603  -0.414  -0.328  1.00  0.00     0.088 C 
HETATM    9  C18 UNL     1      -2.409   0.068   0.541  1.00  0.00     0.012 C 
HETATM   10  C19 UNL     1      -2.752  -0.109   2.030  1.00  0.00     0.012 C 
HETATM   11  C20 UNL     1      -1.090  -0.672   0.133  1.00  0.00     0.028 C 
HETATM   12  C21 UNL     1       0.130  -0.311   1.032  1.00  0.00     0.128 C 
ENDROOT
BRANCH   1  13
HETATM   13  C5  UNL     1       2.672  -0.763   1.394  1.00  0.00     0.080 C 
HETATM   14  C6  UNL     1       2.804   0.394   2.390  1.00  0.00     0.020 C 
BRANCH  13  15
HETATM   15  C4  UNL     1       4.021  -0.970   0.702  1.00  0.00     0.222 C 
HETATM   16  N1  UNL     1       4.472   0.091  -0.049  1.00  0.00    -0.359 N 
HETATM   17  H8  UNL     1       3.917   0.933  -0.120  1.00  0.00     0.162 HD
HETATM   18  O2  UNL     1       4.656  -2.014   0.821  1.00  0.00    -0.273 OA
BRANCH  16  19
HETATM   19  C3  UNL     1       5.712   0.025  -0.799  1.00  0.00     0.148 C 
BRANCH  19  20
HETATM   20  C2  UNL     1       6.961   0.034   0.083  1.00  0.00     0.186 C 
BRANCH  20  21
HETATM   21  O1  UNL     1       8.109   0.252  -0.743  1.00  0.00    -0.394 OA
HETATM   22  C1  UNL     1       9.311   0.186   0.013  1.00  0.00     0.201 C 
ENDBRANCH  20  21
ENDBRANCH  19  20
ENDBRANCH  16  19
ENDBRANCH  13  15
ENDBRANCH   1  13
BRANCH  12  23
HETATM   23  O5  UNL     1       0.045  -1.135   2.198  1.00  0.00    -0.395 OA
HETATM   24  H38 UNL     1      -0.157  -0.567   2.961  1.00  0.00     0.210 HD
ENDBRANCH  12  23
BRANCH   8  25
HETATM   25  N2  UNL     1      -4.801   0.366  -0.046  1.00  0.00    -0.354 N 
HETATM   26  C15 UNL     1      -6.075  -0.118  -0.259  1.00  0.00     0.241 C 
HETATM   27  O3  UNL     1      -6.327  -1.277  -0.572  1.00  0.00    -0.271 OA
HETATM   28  H26 UNL     1      -4.740   1.379   0.025  1.00  0.00     0.162 HD
BRANCH  26  29
HETATM   29  C16 UNL     1      -7.169   0.931  -0.043  1.00  0.00     0.269 C 
BRANCH  29  30
HETATM   30  O4  UNL     1      -6.624   2.247   0.085  1.00  0.00    -0.387 OA
HETATM   31  C17 UNL     1      -7.651   3.212   0.277  1.00  0.00     0.202 C 
ENDBRANCH  29  30
ENDBRANCH  26  29
ENDBRANCH   8  25
TORSDOF 9
