REMARK  18 active torsions:
REMARK  status: ('A' for Active; 'I' for Inactive)
REMARK    1  A    between atoms: C4_4  and  C5_5 
REMARK    2  A    between atoms: C5_5  and  C6_6 
REMARK    3  A    between atoms: C6_6  and  C7_7 
REMARK    4  A    between atoms: C9_9  and  C10_10 
REMARK    5  A    between atoms: C10_10  and  O1_11 
REMARK    6  A    between atoms: C10_10  and  C11_12 
REMARK    7  A    between atoms: C11_12  and  C12_13 
REMARK    8  A    between atoms: C14_15  and  C15_16 
REMARK    9  A    between atoms: C15_16  and  C16_17 
REMARK   10  A    between atoms: C16_17  and  C17_18 
REMARK   11  A    between atoms: C17_18  and  C18_19 
REMARK   12  A    between atoms: C18_19  and  O2_20 
REMARK   13  A    between atoms: C19_21  and  C20_22 
REMARK   14  A    between atoms: C20_22  and  C21_23 
REMARK   15  A    between atoms: C21_23  and  C22_24 
REMARK   16  A    between atoms: C22_24  and  O3_25 
REMARK   17  A    between atoms: C24_27  and  C26_29 
REMARK   18  A    between atoms: C29_33  and  O5_35 
ROOT
HETATM    1  C17 UNL     1      -3.694   0.736  -1.348  1.00  0.00     0.019 C 
HETATM    2  C19 UNL     1      -4.236  -0.499  -0.467  1.00  0.00     0.029 C 
HETATM    3  C23 UNL     1      -5.454  -0.135   0.404  1.00  0.00    -0.066 C 
HETATM    4  C24 UNL     1      -5.653  -0.486   1.704  1.00  0.00    -0.021 C 
HETATM    5  C25 UNL     1      -6.866  -0.097   2.514  1.00  0.00     0.052 C 
HETATM    6  C27 UNL     1      -6.384   0.825  -0.298  1.00  0.00     0.038 C 
HETATM    7  C28 UNL     1      -5.689   2.167  -0.550  1.00  0.00     0.042 C 
HETATM    8  C29 UNL     1      -4.141   2.101  -0.673  1.00  0.00     0.065 C 
HETATM    9  C30 UNL     1      -3.490   2.392   0.691  1.00  0.00     0.047 C 
ENDROOT
BRANCH   1  10
HETATM   10  C16 UNL     1      -2.127   0.656  -1.559  1.00  0.00     0.019 C 
BRANCH  10  11
HETATM   11  C15 UNL     1      -1.242   0.138  -0.413  1.00  0.00     0.028 C 
BRANCH  11  12
HETATM   12  C14 UNL     1       0.218   0.291  -0.750  1.00  0.00    -0.024 C 
HETATM   13  C12 UNL     1       1.154   1.010  -0.098  1.00  0.00    -0.085 C 
HETATM   14  C13 UNL     1       0.891   1.874   1.106  1.00  0.00     0.043 C 
BRANCH  13  15
HETATM   15  C11 UNL     1       2.601   0.995  -0.580  1.00  0.00     0.069 C 
BRANCH  15  16
HETATM   16  C10 UNL     1       3.609   0.464   0.463  1.00  0.00     0.145 C 
BRANCH  16  17
HETATM   17  C9  UNL     1       4.995   0.382  -0.120  1.00  0.00     0.007 C 
HETATM   18  C7  UNL     1       6.016   1.250   0.035  1.00  0.00    -0.085 C 
HETATM   19  C8  UNL     1       5.899   2.540   0.809  1.00  0.00     0.043 C 
BRANCH  18  20
HETATM   20  C6  UNL     1       7.403   1.047  -0.569  1.00  0.00     0.037 C 
BRANCH  20  21
HETATM   21  C5  UNL     1       7.805  -0.343  -1.093  1.00  0.00     0.031 C 
BRANCH  21  22
HETATM   22  C4  UNL     1       8.007  -1.349   0.012  1.00  0.00    -0.024 C 
HETATM   23  C2  UNL     1       9.165  -1.876   0.457  1.00  0.00    -0.091 C 
HETATM   24  C1  UNL     1      10.536  -1.535  -0.056  1.00  0.00     0.042 C 
HETATM   25  C3  UNL     1       9.162  -2.888   1.575  1.00  0.00     0.042 C 
ENDBRANCH  21  22
ENDBRANCH  20  21
ENDBRANCH  18  20
ENDBRANCH  16  17
BRANCH  16  26
HETATM   26  O1  UNL     1       3.282  -0.860   0.891  1.00  0.00    -0.391 OA
HETATM   27  H17 UNL     1       2.584  -1.204   0.307  1.00  0.00     0.210 HD
ENDBRANCH  16  26
ENDBRANCH  15  16
ENDBRANCH  13  15
ENDBRANCH  11  12
ENDBRANCH  10  11
ENDBRANCH   1  10
BRANCH   1  28
HETATM   28  C18 UNL     1      -4.281   0.705  -2.817  1.00  0.00     0.177 C 
BRANCH  28  29
HETATM   29  O2  UNL     1      -3.780   1.759  -3.634  1.00  0.00    -0.400 OA
HETATM   30  H30 UNL     1      -3.946   2.592  -3.142  1.00  0.00     0.209 HD
ENDBRANCH  28  29
ENDBRANCH   1  28
BRANCH   2  31
HETATM   31  C20 UNL     1      -4.463  -1.774  -1.328  1.00  0.00     0.012 C 
BRANCH  31  32
HETATM   32  C21 UNL     1      -4.676  -3.093  -0.581  1.00  0.00     0.027 C 
BRANCH  32  33
HETATM   33  C22 UNL     1      -6.136  -3.432  -0.315  1.00  0.00     0.164 C 
BRANCH  33  34
HETATM   34  O3  UNL     1      -6.183  -4.664   0.391  1.00  0.00    -0.401 OA
HETATM   35  H38 UNL     1      -7.120  -4.872   0.552  1.00  0.00     0.209 HD
ENDBRANCH  33  34
ENDBRANCH  32  33
ENDBRANCH  31  32
ENDBRANCH   2  31
BRANCH   8  36
HETATM   36  O5  UNL     1      -3.786   3.217  -1.518  1.00  0.00    -0.389 OA
HETATM   37  H50 UNL     1      -2.849   3.439  -1.363  1.00  0.00     0.210 HD
ENDBRANCH   8  36
BRANCH   4  38
HETATM   38  C26 UNL     1      -4.663  -1.292   2.494  1.00  0.00     0.265 C 
HETATM   39  O4  UNL     1      -4.789  -1.506   3.695  1.00  0.00    -0.302 OA
ENDBRANCH   4  38
TORSDOF 18
