REMARK  10 active torsions:
REMARK  status: ('A' for Active; 'I' for Inactive)
REMARK    1  A    between atoms: C9_9  and  O1_10 
REMARK    2  A    between atoms: C11_12  and  O2_13 
REMARK    3  A    between atoms: O2_13  and  C12_14 
REMARK    4  A    between atoms: C14_16  and  O3_17 
REMARK    5  A    between atoms: C15_18  and  O4_19 
REMARK    6  A    between atoms: C16_20  and  C17_21 
REMARK    7  A    between atoms: C17_21  and  O5_22 
REMARK    8  A    between atoms: C20_26  and  C21_27 
REMARK    9  A    between atoms: C22_29  and  O8_30 
REMARK   10  A    between atoms: C25_33  and  C26_34 
ROOT
HETATM    1  C1  UNL     1      -5.585  -2.196   0.180  1.00  0.00     0.019 C 
HETATM    2  C2  UNL     1      -4.317  -1.306   0.031  1.00  0.00    -0.005 C 
HETATM    3  C3  UNL     1      -3.708  -1.611  -1.360  1.00  0.00     0.013 C 
HETATM    4  C4  UNL     1      -2.382  -0.902  -1.665  1.00  0.00     0.007 C 
HETATM    5  C5  UNL     1      -1.449  -0.751  -0.442  1.00  0.00     0.011 C 
HETATM    6  C6  UNL     1      -1.817  -1.772   0.664  1.00  0.00     0.026 C 
HETATM    7  C7  UNL     1      -0.755  -1.851   1.781  1.00  0.00     0.011 C 
HETATM    8  C8  UNL     1       0.118  -0.607   1.839  1.00  0.00     0.039 C 
HETATM    9  C9  UNL     1       0.908  -0.382   0.532  1.00  0.00     0.074 C 
HETATM   10  C10 UNL     1       1.382   1.091   0.518  1.00  0.00     0.071 C 
HETATM   11  C11 UNL     1       2.304   1.413  -0.663  1.00  0.00     0.127 C 
HETATM   12  C18 UNL     1       1.867   0.697  -1.946  1.00  0.00     0.033 C 
HETATM   13  C19 UNL     1       0.394   0.272  -1.913  1.00  0.00     0.022 C 
HETATM   14  C20 UNL     1       0.087  -0.744  -0.770  1.00  0.00     0.048 C 
HETATM   15  C22 UNL     1      -3.287  -1.633   1.174  1.00  0.00     0.070 C 
HETATM   16  C23 UNL     1      -3.570  -0.559   2.230  1.00  0.00     0.040 C 
HETATM   17  C24 UNL     1      -3.923   0.704   1.475  1.00  0.00     0.013 C 
HETATM   18  C25 UNL     1      -4.625   0.239   0.177  1.00  0.00     0.028 C 
ENDROOT
BRANCH  11  19
HETATM   19  O2  UNL     1       3.628   1.000  -0.297  1.00  0.00    -0.356 OA
BRANCH  19  20
HETATM   20  C12 UNL     1       4.666   1.716  -0.964  1.00  0.00     0.263 C 
HETATM   21  C13 UNL     1       5.210   2.793  -0.021  1.00  0.00     0.095 C 
HETATM   22  C14 UNL     1       6.721   2.735   0.053  1.00  0.00     0.154 C 
HETATM   23  C15 UNL     1       7.153   1.330   0.490  1.00  0.00     0.178 C 
HETATM   24  C16 UNL     1       6.520   0.244  -0.406  1.00  0.00     0.179 C 
HETATM   25  O6  UNL     1       5.675   0.814  -1.416  1.00  0.00    -0.351 OA
BRANCH  22  26
HETATM   26  O3  UNL     1       7.202   3.696   1.001  1.00  0.00    -0.393 OA
HETATM   27  H22 UNL     1       8.079   3.354   1.286  1.00  0.00     0.210 HD
ENDBRANCH  22  26
BRANCH  23  28
HETATM   28  O4  UNL     1       8.587   1.264   0.461  1.00  0.00    -0.390 OA
HETATM   29  H24 UNL     1       8.867   1.330  -0.469  1.00  0.00     0.210 HD
ENDBRANCH  23  28
BRANCH  24  30
HETATM   30  C17 UNL     1       5.810  -0.842   0.418  1.00  0.00     0.198 C 
BRANCH  30  31
HETATM   31  O5  UNL     1       6.736  -1.664   1.124  1.00  0.00    -0.398 OA
HETATM   32  H28 UNL     1       7.237  -1.110   1.748  1.00  0.00     0.209 HD
ENDBRANCH  30  31
ENDBRANCH  24  30
ENDBRANCH  19  20
ENDBRANCH  11  19
BRANCH   9  33
HETATM   33  O1  UNL     1       2.067  -1.221   0.607  1.00  0.00    -0.389 OA
HETATM   34  H14 UNL     1       2.736  -0.793   1.179  1.00  0.00     0.210 HD
ENDBRANCH   9  33
BRANCH  14  35
HETATM   35  C21 UNL     1       0.536  -2.118  -1.311  1.00  0.00     0.244 C 
HETATM   36  O7  UNL     1      -0.226  -3.013  -1.672  1.00  0.00    -0.306 OA
ENDBRANCH  14  35
BRANCH  15  37
HETATM   37  O8  UNL     1      -3.608  -2.892   1.788  1.00  0.00    -0.389 OA
HETATM   38  H34 UNL     1      -3.008  -3.043   2.538  1.00  0.00     0.210 HD
ENDBRANCH  15  37
BRANCH  18  39
HETATM   39  C26 UNL     1      -6.074   0.639   0.059  1.00  0.00    -0.045 A 
HETATM   40  C27 UNL     1      -6.961   0.899   1.022  1.00  0.00     0.087 A 
HETATM   41  C28 UNL     1      -8.230   1.220   0.370  1.00  0.00     0.283 A 
HETATM   42  O9  UNL     1      -9.259   1.513   0.948  1.00  0.00    -0.260 OA
HETATM   43  O10 UNL     1      -8.077   1.135  -0.978  1.00  0.00    -0.314 OA
HETATM   44  C29 UNL     1      -6.731   0.760  -1.273  1.00  0.00     0.213 A 
ENDBRANCH  18  39
TORSDOF 10
