REMARK  16 active torsions:
REMARK  status: ('A' for Active; 'I' for Inactive)
REMARK    1  A    between atoms: S1_2  and  C2_3 
REMARK    2  A    between atoms: C2_3  and  C3_4 
REMARK    3  A    between atoms: C3_4  and  C4_5 
REMARK    4  A    between atoms: C4_5  and  N1_6 
REMARK    5  A    between atoms: C4_5  and  C33_44 
REMARK       I    between atoms: N1_6  and  C5_7 
REMARK    6  A    between atoms: C5_7  and  C6_9 
REMARK    7  A    between atoms: C6_9  and  N2_11 
REMARK       I    between atoms: N2_11  and  C8_12 
REMARK    8  A    between atoms: C8_12  and  C9_14 
REMARK    9  A    between atoms: C9_14  and  C10_15 
REMARK   10  A    between atoms: C10_15  and  C11_16 
REMARK   11  A    between atoms: C11_16  and  O4_18 
REMARK   12  A    between atoms: O4_18  and  C12_19 
REMARK   13  A    between atoms: C12_19  and  C13_20 
REMARK   14  A    between atoms: C13_20  and  C14_22 
REMARK   15  A    between atoms: C14_22  and  O6_23 
REMARK   16  A    between atoms: C33_44  and  O10_46 
ROOT
HETATM    1  C12 UNL     1       1.856  -0.381   3.443  1.00  0.00     0.260 C 
ENDROOT
BRANCH   1   2
HETATM    2  O4  UNL     1       1.957  -1.779   3.201  1.00  0.00    -0.314 OA
BRANCH   2   3
HETATM    3  C11 UNL     1       2.328  -2.113   1.932  1.00  0.00     0.259 C 
HETATM    4  O3  UNL     1       2.520  -1.305   1.034  1.00  0.00    -0.265 OA
BRANCH   3   5
HETATM    5  C10 UNL     1       2.405  -3.614   1.796  1.00  0.00     0.120 C 
BRANCH   5   6
HETATM    6  C9  UNL     1       2.584  -4.023   0.340  1.00  0.00     0.112 C 
BRANCH   6   7
HETATM    7  C8  UNL     1       3.972  -3.682  -0.167  1.00  0.00     0.218 C 
HETATM    8  N2  UNL     1       4.066  -3.692  -1.543  1.00  0.00    -0.348 N 
HETATM    9  H14 UNL     1       3.191  -3.564  -2.044  1.00  0.00     0.163 HD
HETATM   10  O2  UNL     1       4.924  -3.470   0.577  1.00  0.00    -0.274 OA
BRANCH   8  11
HETATM   11  C6  UNL     1       5.210  -3.064  -2.196  1.00  0.00     0.172 C 
HETATM   12  C7  UNL     1       5.672  -3.888  -3.388  1.00  0.00     0.042 C 
BRANCH  11  13
HETATM   13  C5  UNL     1       4.751  -1.674  -2.675  1.00  0.00     0.240 C 
HETATM   14  N1  UNL     1       5.764  -0.746  -2.806  1.00  0.00    -0.345 N 
HETATM   15  H9  UNL     1       6.702  -1.114  -2.911  1.00  0.00     0.163 HD
HETATM   16  O1  UNL     1       3.579  -1.440  -2.965  1.00  0.00    -0.271 OA
BRANCH  14  17
HETATM   17  C4  UNL     1       5.500   0.553  -3.432  1.00  0.00     0.183 C 
BRANCH  17  18
HETATM   18  C3  UNL     1       6.414   1.634  -2.840  1.00  0.00     0.046 C 
BRANCH  18  19
HETATM   19  C2  UNL     1       6.150   1.948  -1.367  1.00  0.00     0.076 C 
BRANCH  19  20
HETATM   20  S1  UNL     1       4.513   2.670  -1.021  1.00  0.00    -0.173 SA
HETATM   21  C1  UNL     1       4.694   4.272  -1.840  1.00  0.00     0.089 C 
ENDBRANCH  19  20
ENDBRANCH  18  19
ENDBRANCH  17  18
BRANCH  17  22
HETATM   22  C33 UNL     1       5.746   0.484  -4.945  1.00  0.00     0.163 C 
HETATM   23  O9  UNL     1       5.555   1.385  -5.747  1.00  0.00    -0.648 OA
BRANCH  22  24
HETATM   24  O10 UNL     1       6.285  -0.683  -5.368  1.00  0.00    -0.775 OA
HETATM   25  H46 UNL     1       6.349  -0.564  -6.339  1.00  0.00     0.167 HD
ENDBRANCH  22  24
ENDBRANCH  17  22
ENDBRANCH  14  17
ENDBRANCH  11  13
ENDBRANCH   8  11
ENDBRANCH   6   7
ENDBRANCH   5   6
ENDBRANCH   3   5
ENDBRANCH   2   3
ENDBRANCH   1   2
BRANCH   1  26
HETATM   26  C13 UNL     1       0.829   0.433   2.645  1.00  0.00     0.185 C 
HETATM   27  O5  UNL     1       1.078   1.598   2.325  1.00  0.00    -0.292 OA
BRANCH  26  28
HETATM   28  C14 UNL     1      -0.510  -0.238   2.260  1.00  0.00     0.128 C 
HETATM   29  C15 UNL     1      -1.112  -1.083   3.409  1.00  0.00     0.047 C 
HETATM   30  C16 UNL     1      -2.643  -1.044   3.234  1.00  0.00     0.009 C 
HETATM   31  C17 UNL     1      -2.866  -0.256   1.945  1.00  0.00     0.002 C 
HETATM   32  C18 UNL     1      -4.256   0.319   1.644  1.00  0.00     0.003 C 
HETATM   33  C31 UNL     1      -1.686   0.741   1.894  1.00  0.00     0.005 C 
HETATM   34  C19 UNL     1      -5.147   0.657   2.858  1.00  0.00     0.010 C 
HETATM   35  C28 UNL     1      -4.218   1.539   0.691  1.00  0.00     0.072 C 
HETATM   36  C20 UNL     1      -6.332   1.567   2.486  1.00  0.00     0.035 C 
HETATM   37  C21 UNL     1      -6.717   1.401   1.034  1.00  0.00    -0.067 C 
HETATM   38  C22 UNL     1      -7.923   0.910   0.700  1.00  0.00     0.053 C 
HETATM   39  C26 UNL     1      -5.619   1.729   0.000  1.00  0.00    -0.009 C 
HETATM   40  C23 UNL     1      -8.290   0.649  -0.710  1.00  0.00     0.149 C 
HETATM   41  O7  UNL     1      -9.444   0.314  -0.975  1.00  0.00    -0.293 OA
HETATM   42  C24 UNL     1      -7.247   0.837  -1.783  1.00  0.00     0.084 C 
HETATM   43  C25 UNL     1      -5.825   0.797  -1.224  1.00  0.00     0.022 C 
HETATM   44  C27 UNL     1      -5.773   3.206  -0.426  1.00  0.00     0.021 C 
HETATM   45  C29 UNL     1      -2.971   1.544  -0.196  1.00  0.00     0.133 C 
HETATM   46  O8  UNL     1      -3.019   1.801  -1.398  1.00  0.00    -0.297 OA
HETATM   47  C30 UNL     1      -1.612   1.346   0.476  1.00  0.00     0.091 C 
HETATM   48  C32 UNL     1      -1.821   1.869   2.952  1.00  0.00     0.019 C 
BRANCH  28  49
HETATM   49  O6  UNL     1      -0.278  -1.147   1.174  1.00  0.00    -0.381 OA
HETATM   50  H21 UNL     1       0.369  -0.730   0.565  1.00  0.00     0.211 HD
ENDBRANCH  28  49
ENDBRANCH  26  28
ENDBRANCH   1  26
TORSDOF 16
