REMARK  8 active torsions:
REMARK  status: ('A' for Active; 'I' for Inactive)
REMARK    1  A    between atoms: C12_14  and  C13_15 
REMARK    2  A    between atoms: C13_15  and  C15_17 
REMARK    3  A    between atoms: C15_17  and  C16_18 
REMARK    4  A    between atoms: C16_18  and  C17_20 
REMARK    5  A    between atoms: C26_29  and  C27_30 
REMARK    6  A    between atoms: C27_30  and  C28_31 
REMARK    7  A    between atoms: C28_31  and  C29_32 
REMARK    8  A    between atoms: C29_32  and  O5_34 
ROOT
HETATM    1  C1  UNL     1       6.001  -0.512  -2.078  1.00  0.00     0.025 C 
HETATM    2  C2  UNL     1       5.278   0.416  -1.437  1.00  0.00     0.015 C 
HETATM    3  C3  UNL     1       5.854   1.730  -1.090  1.00  0.00     0.289 C 
HETATM    4  O1  UNL     1       7.035   2.005  -1.000  1.00  0.00    -0.260 OA
HETATM    5  O2  UNL     1       4.816   2.586  -0.912  1.00  0.00    -0.311 OA
HETATM    6  C4  UNL     1       3.571   1.935  -1.248  1.00  0.00     0.142 C 
HETATM    7  C5  UNL     1       2.470   2.582  -0.414  1.00  0.00     0.039 C 
HETATM    8  C6  UNL     1       1.506   1.663   0.343  1.00  0.00     0.006 C 
HETATM    9  C7  UNL     1       2.172   0.400   0.924  1.00  0.00    -0.027 A 
HETATM   10  C8  UNL     1       1.210  -0.462   1.756  1.00  0.00     0.011 C 
HETATM   11  C9  UNL     1      -0.148  -0.728   1.078  1.00  0.00     0.011 C 
HETATM   12  C10 UNL     1      -0.809   0.578   0.598  1.00  0.00    -0.032 C 
HETATM   13  C11 UNL     1      -1.166   1.436   1.855  1.00  0.00     0.016 C 
HETATM   14  C12 UNL     1      -2.090   0.461  -0.288  1.00  0.00    -0.002 C 
HETATM   15  C21 UNL     1      -2.088   1.830  -1.044  1.00  0.00     0.006 C 
HETATM   16  C22 UNL     1      -0.675   2.439  -0.915  1.00  0.00     0.011 C 
HETATM   17  C23 UNL     1       0.195   1.280  -0.408  1.00  0.00    -0.032 C 
HETATM   18  C24 UNL     1       0.545   0.423  -1.664  1.00  0.00     0.016 C 
HETATM   19  C25 UNL     1       3.558   0.548   1.512  1.00  0.00     0.022 A 
HETATM   20  C26 UNL     1       3.401  -0.216   0.208  1.00  0.00    -0.021 A 
HETATM   21  C31 UNL     1       3.819   0.434  -1.120  1.00  0.00     0.063 C 
ENDROOT
BRANCH  14  22
HETATM   22  C13 UNL     1      -3.473   0.160   0.362  1.00  0.00    -0.007 C 
HETATM   23  C14 UNL     1      -3.472  -1.157   1.149  1.00  0.00     0.011 C 
BRANCH  22  24
HETATM   24  C15 UNL     1      -4.575   0.091  -0.723  1.00  0.00     0.087 C 
BRANCH  24  25
HETATM   25  C16 UNL     1      -5.988   0.136  -0.157  1.00  0.00     0.149 C 
HETATM   26  O3  UNL     1      -6.248   0.645   0.929  1.00  0.00    -0.293 OA
BRANCH  25  27
HETATM   27  C17 UNL     1      -7.059  -0.421  -1.041  1.00  0.00     0.052 C 
HETATM   28  C18 UNL     1      -8.267  -0.862  -0.639  1.00  0.00    -0.084 C 
HETATM   29  C19 UNL     1      -8.737  -0.921   0.789  1.00  0.00     0.043 C 
HETATM   30  C20 UNL     1      -9.272  -1.355  -1.646  1.00  0.00     0.043 C 
ENDBRANCH  25  27
ENDBRANCH  24  25
ENDBRANCH  22  24
ENDBRANCH  14  22
BRANCH  20  31
HETATM   31  C27 UNL     1       3.529  -1.751   0.179  1.00  0.00     0.021 C 
BRANCH  31  32
HETATM   32  C28 UNL     1       4.227  -2.414   1.364  1.00  0.00     0.112 C 
BRANCH  32  33
HETATM   33  C29 UNL     1       5.671  -2.015   1.523  1.00  0.00     0.258 C 
HETATM   34  O4  UNL     1       6.109  -1.421   2.500  1.00  0.00    -0.265 OA
BRANCH  33  35
HETATM   35  O5  UNL     1       6.415  -2.444   0.467  1.00  0.00    -0.326 OA
HETATM   36  C30 UNL     1       7.798  -2.098   0.561  1.00  0.00     0.213 C 
ENDBRANCH  33  35
ENDBRANCH  32  33
ENDBRANCH  31  32
ENDBRANCH  20  31
TORSDOF 8
