REMARK  11 active torsions:
REMARK  status: ('A' for Active; 'I' for Inactive)
REMARK    1  A    between atoms: C2_2  and  O2_4 
REMARK    2  A    between atoms: O2_4  and  C3_5 
REMARK    3  A    between atoms: C4_6  and  O3_7 
REMARK    4  A    between atoms: O3_7  and  C5_8 
REMARK    5  A    between atoms: C15_18  and  C16_19 
REMARK    6  A    between atoms: C20_23  and  C21_24 
REMARK    7  A    between atoms: C21_24  and  O4_27 
REMARK    8  A    between atoms: C24_29  and  O6_30 
REMARK    9  A    between atoms: C30_36  and  O7_37 
REMARK   10  A    between atoms: C36_44  and  O9_45 
REMARK   11  A    between atoms: C37_46  and  O10_47 
ROOT
HETATM    1  C5  UNL     1       4.306  -0.249   0.714  1.00  0.00     0.133 C 
HETATM    2  C6  UNL     1       3.736  -0.578  -0.672  1.00  0.00     0.034 C 
HETATM    3  C7  UNL     1       2.441   0.145  -1.012  1.00  0.00     0.013 C 
HETATM    4  C8  UNL     1       1.421   0.021   0.103  1.00  0.00    -0.025 A 
HETATM    5  C9  UNL     1       0.477  -1.148   0.007  1.00  0.00     0.021 A 
HETATM    6  C10 UNL     1      -0.081   0.247  -0.216  1.00  0.00    -0.027 A 
HETATM    7  C11 UNL     1      -0.587   0.515  -1.627  1.00  0.00     0.011 C 
HETATM    8  C12 UNL     1      -2.077   0.151  -1.805  1.00  0.00     0.011 C 
HETATM    9  C13 UNL     1      -2.903   0.105  -0.495  1.00  0.00    -0.028 C 
HETATM   10  C14 UNL     1      -2.811  -1.328   0.089  1.00  0.00     0.016 C 
HETATM   11  C15 UNL     1      -4.426   0.480  -0.597  1.00  0.00     0.057 C 
HETATM   12  C24 UNL     1      -4.779   0.940   0.862  1.00  0.00     0.126 C 
HETATM   13  C25 UNL     1      -3.430   1.151   1.605  1.00  0.00     0.042 C 
HETATM   14  C26 UNL     1      -2.374   1.226   0.485  1.00  0.00    -0.029 C 
HETATM   15  C27 UNL     1      -2.505   2.689  -0.099  1.00  0.00     0.016 C 
HETATM   16  C28 UNL     1      -0.849   1.058   0.840  1.00  0.00     0.006 C 
HETATM   17  C29 UNL     1      -0.493   0.634   2.268  1.00  0.00     0.038 C 
HETATM   18  C30 UNL     1       0.993   0.940   2.530  1.00  0.00     0.124 C 
HETATM   19  C31 UNL     1       1.977   0.235   1.548  1.00  0.00     0.034 C 
HETATM   20  C32 UNL     1       3.460   0.765   1.549  1.00  0.00    -0.015 C 
HETATM   21  C33 UNL     1       4.029   0.755   2.993  1.00  0.00     0.018 C 
HETATM   22  C34 UNL     1       3.597   2.219   1.035  1.00  0.00     0.018 C 
ENDROOT
BRANCH   1  23
HETATM   23  O3  UNL     1       5.651   0.218   0.549  1.00  0.00    -0.352 OA
BRANCH  23  24
HETATM   24  C4  UNL     1       6.622  -0.838   0.591  1.00  0.00     0.292 C 
HETATM   25  C3  UNL     1       7.849  -0.384  -0.219  1.00  0.00     0.218 C 
HETATM   26  C37 UNL     1       8.982  -1.400  -0.048  1.00  0.00     0.183 C 
HETATM   27  C36 UNL     1       9.242  -1.690   1.433  1.00  0.00     0.173 C 
HETATM   28  C35 UNL     1       7.944  -2.080   2.126  1.00  0.00     0.205 C 
HETATM   29  O8  UNL     1       6.944  -1.082   1.958  1.00  0.00    -0.356 OA
BRANCH  25  30
HETATM   30  O2  UNL     1       7.474  -0.313  -1.617  1.00  0.00    -0.309 OA
BRANCH  30  31
HETATM   31  C2  UNL     1       8.214   0.522  -2.388  1.00  0.00     0.255 C 
HETATM   32  C1  UNL     1       7.702   0.528  -3.799  1.00  0.00     0.126 C 
HETATM   33  O1  UNL     1       9.187   1.156  -1.995  1.00  0.00    -0.266 OA
ENDBRANCH  30  31
ENDBRANCH  25  30
BRANCH  26  34
HETATM   34  O10 UNL     1      10.226  -0.996  -0.647  1.00  0.00    -0.390 OA
HETATM   35  H60 UNL     1      10.168  -0.047  -0.888  1.00  0.00     0.210 HD
ENDBRANCH  26  34
BRANCH  27  36
HETATM   36  O9  UNL     1      10.196  -2.746   1.555  1.00  0.00    -0.391 OA
HETATM   37  H58 UNL     1      10.891  -2.540   0.894  1.00  0.00     0.210 HD
ENDBRANCH  27  36
ENDBRANCH  23  24
ENDBRANCH   1  23
BRANCH  18  38
HETATM   38  O7  UNL     1       1.175   2.356   2.543  1.00  0.00    -0.395 OA
HETATM   39  H47 UNL     1       0.580   2.725   3.221  1.00  0.00     0.210 HD
ENDBRANCH  18  38
BRANCH  11  40
HETATM   40  C16 UNL     1      -5.468  -0.415  -1.333  1.00  0.00     0.065 C 
HETATM   41  C17 UNL     1      -5.080  -0.591  -2.816  1.00  0.00     0.046 C 
HETATM   42  C18 UNL     1      -5.832  -1.783  -0.744  1.00  0.00     0.041 C 
HETATM   43  C19 UNL     1      -7.344  -1.843  -0.717  1.00  0.00     0.038 C 
HETATM   44  C20 UNL     1      -7.801  -0.589  -1.433  1.00  0.00     0.156 C 
HETATM   45  O5  UNL     1      -6.710   0.341  -1.317  1.00  0.00    -0.372 OA
BRANCH  44  46
HETATM   46  C21 UNL     1      -9.111   0.061  -0.927  1.00  0.00     0.076 C 
HETATM   47  C22 UNL     1     -10.303  -0.883  -1.097  1.00  0.00     0.048 C 
HETATM   48  C23 UNL     1      -9.031   0.573   0.517  1.00  0.00     0.048 C 
BRANCH  46  49
HETATM   49  O4  UNL     1      -9.362   1.207  -1.759  1.00  0.00    -0.388 OA
HETATM   50  H35 UNL     1      -8.613   1.810  -1.596  1.00  0.00     0.210 HD
ENDBRANCH  46  49
ENDBRANCH  44  46
ENDBRANCH  11  40
BRANCH  12  51
HETATM   51  O6  UNL     1      -5.565   0.015   1.596  1.00  0.00    -0.395 OA
HETATM   52  H37 UNL     1      -5.784   0.438   2.446  1.00  0.00     0.210 HD
ENDBRANCH  12  51
TORSDOF 11
