REMARK  8 active torsions:
REMARK  status: ('A' for Active; 'I' for Inactive)
REMARK    1  A    between atoms: C3_3  and  O1_4 
REMARK    2  A    between atoms: N1_14  and  O2_16 
REMARK    3  A    between atoms: O2_16  and  C13_17 
REMARK    4  A    between atoms: C13_17  and  C14_18 
REMARK       I    between atoms: C14_18  and  N2_20 
REMARK    5  A    between atoms: N2_20  and  C15_21 
REMARK    6  A    between atoms: C15_21  and  C16_22 
REMARK    7  A    between atoms: C16_22  and  O4_23 
REMARK    8  A    between atoms: C16_22  and  C17_24 
ROOT
HETATM    1  C1  UNL     1      -8.748   3.223  -0.357  1.00  0.00     0.015 C 
HETATM    2  C2  UNL     1      -8.102   2.216  -0.263  1.00  0.00    -0.078 C 
HETATM    3  C3  UNL     1      -7.311   0.983  -0.117  1.00  0.00     0.128 C 
HETATM    4  C4  UNL     1      -7.926  -0.186  -0.888  1.00  0.00     0.052 C 
HETATM    5  C5  UNL     1      -6.813  -1.227  -0.896  1.00  0.00     0.010 C 
HETATM    6  C6  UNL     1      -5.516  -0.416  -1.049  1.00  0.00     0.002 C 
HETATM    7  C7  UNL     1      -4.261  -1.009  -0.368  1.00  0.00    -0.004 C 
HETATM    8  C8  UNL     1      -4.418  -1.516   1.082  1.00  0.00     0.010 C 
HETATM    9  C9  UNL     1      -3.333  -1.102   2.088  1.00  0.00     0.035 C 
HETATM   10  C10 UNL     1      -1.935  -0.869   1.563  1.00  0.00    -0.069 C 
HETATM   11  C11 UNL     1      -0.919  -0.747   2.437  1.00  0.00     0.030 C 
HETATM   12  C12 UNL     1       0.465  -0.414   2.008  1.00  0.00     0.032 C 
HETATM   13  N1  UNL     1       1.388  -0.359   2.928  1.00  0.00    -0.271 N 
ATOM     14  H1  UNL     1       1.218  -0.511   3.922  1.00  0.00     0.194 HD
HETATM   15  C23 UNL     1       0.728  -0.169   0.531  1.00  0.00     0.060 C 
HETATM   16  C24 UNL     1      -0.539   0.250  -0.211  1.00  0.00     0.020 C 
HETATM   17  C25 UNL     1      -1.753  -0.675   0.068  1.00  0.00    -0.016 C 
HETATM   18  C26 UNL     1      -1.461  -2.060  -0.567  1.00  0.00     0.020 C 
HETATM   19  C27 UNL     1      -3.059  -0.053  -0.541  1.00  0.00     0.002 C 
HETATM   20  C28 UNL     1      -3.376   1.382  -0.034  1.00  0.00     0.007 C 
HETATM   21  C29 UNL     1      -4.841   1.641   0.329  1.00  0.00     0.014 C 
HETATM   22  C30 UNL     1      -5.850   1.063  -0.677  1.00  0.00     0.003 C 
HETATM   23  C31 UNL     1      -5.780   1.910  -1.979  1.00  0.00     0.020 C 
ENDROOT
BRANCH   3  24
HETATM   24  O1  UNL     1      -7.314   0.616   1.266  1.00  0.00    -0.377 OA
HETATM   25  H2  UNL     1      -7.232   1.442   1.776  1.00  0.00     0.211 HD
ENDBRANCH   3  24
BRANCH  13  26
HETATM   26  O2  UNL     1       2.643  -0.064   2.377  1.00  0.00    -0.271 OA
BRANCH  26  27
HETATM   27  C13 UNL     1       3.476   0.475   3.397  1.00  0.00     0.303 C 
BRANCH  27  28
HETATM   28  C14 UNL     1       4.841   0.717   2.776  1.00  0.00     0.243 C 
HETATM   29  O3  UNL     1       5.254   1.838   2.486  1.00  0.00    -0.271 OA
HETATM   30  N2  UNL     1       5.578  -0.432   2.567  1.00  0.00    -0.356 N 
HETATM   31  H16 UNL     1       5.060  -1.305   2.535  1.00  0.00     0.162 HD
BRANCH  30  32
HETATM   32  C15 UNL     1       6.804  -0.392   1.781  1.00  0.00     0.159 C 
BRANCH  32  33
HETATM   33  C16 UNL     1       6.503  -0.510   0.274  1.00  0.00     0.170 C 
BRANCH  33  34
HETATM   34  O4  UNL     1       5.970  -1.819   0.018  1.00  0.00    -0.389 OA
HETATM   35  H20 UNL     1       6.112  -2.013  -0.925  1.00  0.00     0.210 HD
ENDBRANCH  33  34
BRANCH  33  36
HETATM   36  C17 UNL     1       7.714  -0.285  -0.590  1.00  0.00    -0.013 A 
HETATM   37  C18 UNL     1       8.827  -1.129  -0.549  1.00  0.00     0.013 A 
HETATM   38  C19 UNL     1       9.919  -0.875  -1.376  1.00  0.00     0.025 A 
HETATM   39  C20 UNL     1       9.868   0.212  -2.242  1.00  0.00     0.005 A 
HETATM   40  C21 UNL     1      11.031   0.524  -3.135  1.00  0.00     0.068 C 
HETATM   41  N3  UNL     1       8.804   1.047  -2.297  1.00  0.00    -0.369 N 
HETATM   42  C22 UNL     1       7.763   0.787  -1.474  1.00  0.00     0.097 A 
ATOM     43  H3  UNL     1       8.788   1.842  -2.935  1.00  0.00     0.165 HD
ENDBRANCH  33  36
ENDBRANCH  32  33
ENDBRANCH  30  32
ENDBRANCH  27  28
ENDBRANCH  26  27
ENDBRANCH  13  26
TORSDOF 8
