REMARK  9 active torsions:
REMARK  status: ('A' for Active; 'I' for Inactive)
REMARK       I    between atoms: C2_2  and  N1_4 
REMARK    1  A    between atoms: N1_4  and  C3_5 
REMARK    2  A    between atoms: C3_5  and  C4_6 
REMARK    3  A    between atoms: C3_5  and  C33_42 
REMARK    4  A    between atoms: C4_6  and  S1_7 
REMARK    5  A    between atoms: S1_7  and  C5_8 
REMARK    6  A    between atoms: C10_14  and  O3_15 
REMARK    7  A    between atoms: C27_33  and  O5_34 
REMARK    8  A    between atoms: C30_38  and  O7_39 
REMARK    9  A    between atoms: C33_42  and  O9_44 
ROOT
HETATM    1  C5  UNL     1       0.902  -0.521   0.863  1.00  0.00     0.054 C 
HETATM    2  C6  UNL     1       0.774  -1.770   1.377  1.00  0.00     0.028 C 
HETATM    3  C7  UNL     1       1.208  -1.652   2.752  1.00  0.00     0.089 C 
HETATM    4  C8  UNL     1       1.336  -2.693   3.575  1.00  0.00     0.095 C 
HETATM    5  C9  UNL     1       0.980  -4.013   3.035  1.00  0.00     0.208 C 
HETATM    6  O2  UNL     1       1.125  -5.033   3.716  1.00  0.00    -0.285 OA
HETATM    7  C10 UNL     1       0.374  -4.126   1.654  1.00  0.00     0.126 C 
HETATM    8  C11 UNL     1       0.255  -3.044   0.840  1.00  0.00     0.022 C 
HETATM    9  C12 UNL     1      -0.570  -3.019  -0.472  1.00  0.00     0.165 C 
HETATM   10  O4  UNL     1      -1.559  -1.964  -0.313  1.00  0.00    -0.375 OA
HETATM   11  C13 UNL     1      -2.244  -1.666  -1.526  1.00  0.00     0.128 C 
HETATM   12  C14 UNL     1      -2.882  -0.261  -1.542  1.00  0.00     0.033 C 
HETATM   13  C15 UNL     1      -3.228   0.415  -0.213  1.00  0.00     0.010 C 
HETATM   14  C16 UNL     1      -3.583   1.933  -0.336  1.00  0.00     0.004 C 
HETATM   15  C17 UNL     1      -4.664   2.195  -1.381  1.00  0.00     0.014 C 
HETATM   16  C18 UNL     1      -2.375   2.825  -0.606  1.00  0.00    -0.020 C 
HETATM   17  C19 UNL     1      -2.037   3.961   0.048  1.00  0.00    -0.087 C 
HETATM   18  C20 UNL     1      -2.937   4.633   1.046  1.00  0.00     0.043 C 
HETATM   19  C21 UNL     1      -0.653   4.582  -0.154  1.00  0.00     0.037 C 
HETATM   20  C22 UNL     1       0.437   4.179   0.902  1.00  0.00    -0.014 C 
HETATM   21  C23 UNL     1       0.341   5.007   2.181  1.00  0.00     0.010 C 
HETATM   22  C24 UNL     1       0.310   2.679   1.171  1.00  0.00     0.014 C 
HETATM   23  C25 UNL     1       1.240   1.897   2.111  1.00  0.00     0.050 C 
HETATM   24  C26 UNL     1       2.742   2.109   1.952  1.00  0.00     0.016 C 
HETATM   25  C27 UNL     1       0.798   0.402   2.091  1.00  0.00     0.207 C 
HETATM   26  O6  UNL     1       1.481  -0.350   3.125  1.00  0.00    -0.308 OA
HETATM   27  C28 UNL     1      -3.199  -2.827  -1.809  1.00  0.00     0.040 C 
HETATM   28  C29 UNL     1      -4.180  -3.094  -0.672  1.00  0.00     0.015 C 
HETATM   29  C30 UNL     1      -2.304  -4.034  -2.111  1.00  0.00     0.130 C 
HETATM   30  C31 UNL     1      -1.258  -4.321  -1.008  1.00  0.00     0.044 C 
HETATM   31  C32 UNL     1      -0.212  -5.289  -1.580  1.00  0.00     0.015 C 
ENDROOT
BRANCH   1  32
HETATM   32  S1  UNL     1       0.814  -0.102  -0.810  1.00  0.00    -0.125 SA
BRANCH  32  33
HETATM   33  C4  UNL     1       2.324   0.816  -1.196  1.00  0.00     0.115 C 
BRANCH  33  34
HETATM   34  C3  UNL     1       3.614  -0.001  -1.318  1.00  0.00     0.192 C 
BRANCH  34  35
HETATM   35  N1  UNL     1       4.742   0.781  -0.794  1.00  0.00    -0.346 N 
HETATM   36  C2  UNL     1       5.960   0.176  -0.562  1.00  0.00     0.214 C 
HETATM   37  C1  UNL     1       7.013   1.097  -0.011  1.00  0.00     0.117 C 
HETATM   38  O1  UNL     1       6.159  -1.021  -0.768  1.00  0.00    -0.274 OA
HETATM   39  H4  UNL     1       4.762   1.781  -0.972  1.00  0.00     0.163 HD
ENDBRANCH  34  35
BRANCH  34  40
HETATM   40  C33 UNL     1       3.798  -0.341  -2.799  1.00  0.00     0.164 C 
HETATM   41  O8  UNL     1       3.198  -1.203  -3.429  1.00  0.00    -0.648 OA
BRANCH  40  42
HETATM   42  O9  UNL     1       4.647   0.495  -3.459  1.00  0.00    -0.775 OA
HETATM   43  H47 UNL     1       4.689   0.080  -4.351  1.00  0.00     0.167 HD
ENDBRANCH  40  42
ENDBRANCH  34  40
ENDBRANCH  33  34
ENDBRANCH  32  33
ENDBRANCH   1  32
BRANCH  25  44
HETATM   44  O5  UNL     1      -0.605   0.409   2.471  1.00  0.00    -0.360 OA
HETATM   45  H36 UNL     1      -0.633   0.881   3.320  1.00  0.00     0.213 HD
ENDBRANCH  25  44
BRANCH   7  46
HETATM   46  O3  UNL     1      -0.087  -5.386   1.334  1.00  0.00    -0.356 OA
HETATM   47  H9  UNL     1       0.178  -5.962   2.098  1.00  0.00     0.218 HD
ENDBRANCH   7  46
BRANCH  29  48
HETATM   48  O7  UNL     1      -3.101  -5.190  -2.354  1.00  0.00    -0.395 OA
HETATM   49  H42 UNL     1      -2.551  -5.817  -2.860  1.00  0.00     0.210 HD
ENDBRANCH  29  48
TORSDOF 9
