REMARK  12 active torsions:
REMARK  status: ('A' for Active; 'I' for Inactive)
REMARK    1  A    between atoms: C2_2  and  O2_4 
REMARK    2  A    between atoms: O2_4  and  C3_5 
REMARK    3  A    between atoms: C4_6  and  O3_7 
REMARK    4  A    between atoms: O3_7  and  C5_8 
REMARK    5  A    between atoms: C11_14  and  O4_15 
REMARK    6  A    between atoms: C14_18  and  C15_19 
REMARK    7  A    between atoms: C19_23  and  C20_24 
REMARK    8  A    between atoms: C20_24  and  O5_27 
REMARK    9  A    between atoms: C35_42  and  C36_43 
REMARK   10  A    between atoms: C36_43  and  O8_44 
REMARK   11  A    between atoms: C37_45  and  O9_46 
REMARK   12  A    between atoms: C38_47  and  O10_48 
ROOT
HETATM    1  C5  UNL     1       4.069  -0.847  -1.213  1.00  0.00     0.133 C 
HETATM    2  C6  UNL     1       3.144  -2.031  -1.478  1.00  0.00     0.034 C 
HETATM    3  C7  UNL     1       1.659  -1.841  -1.140  1.00  0.00     0.012 C 
HETATM    4  C8  UNL     1       1.230  -0.454  -0.581  1.00  0.00    -0.033 C 
HETATM    5  C9  UNL     1       1.688  -0.377   0.887  1.00  0.00     0.016 C 
HETATM    6  C10 UNL     1      -0.367  -0.276  -0.699  1.00  0.00     0.032 C 
HETATM    7  C11 UNL     1      -1.234  -1.318   0.088  1.00  0.00     0.124 C 
HETATM    8  C12 UNL     1      -2.757  -1.155  -0.107  1.00  0.00     0.038 C 
HETATM    9  C13 UNL     1      -3.203   0.274   0.134  1.00  0.00     0.004 C 
HETATM   10  C14 UNL     1      -4.692   0.617  -0.028  1.00  0.00     0.025 C 
HETATM   11  C23 UNL     1      -4.658   2.161  -0.114  1.00  0.00     0.009 C 
HETATM   12  C24 UNL     1      -3.220   2.573  -0.486  1.00  0.00     0.011 C 
HETATM   13  C25 UNL     1      -2.463   1.262  -0.801  1.00  0.00    -0.032 C 
HETATM   14  C26 UNL     1      -2.739   0.963  -2.310  1.00  0.00     0.016 C 
HETATM   15  C27 UNL     1      -0.896   1.213  -0.462  1.00  0.00    -0.030 C 
HETATM   16  C28 UNL     1      -0.639   1.689   1.003  1.00  0.00     0.016 C 
HETATM   17  C29 UNL     1      -0.105   2.177  -1.384  1.00  0.00     0.011 C 
HETATM   18  C30 UNL     1       1.410   2.049  -1.266  1.00  0.00     0.007 C 
HETATM   19  C31 UNL     1       1.909   0.612  -1.519  1.00  0.00     0.004 C 
HETATM   20  C32 UNL     1       3.479   0.510  -1.692  1.00  0.00    -0.017 C 
HETATM   21  C33 UNL     1       4.251   1.669  -1.005  1.00  0.00     0.018 C 
HETATM   22  C34 UNL     1       3.778   0.635  -3.217  1.00  0.00     0.018 C 
ENDROOT
BRANCH   1  23
HETATM   23  O3  UNL     1       4.406  -0.772   0.181  1.00  0.00    -0.352 OA
BRANCH  23  24
HETATM   24  C4  UNL     1       5.456  -1.661   0.592  1.00  0.00     0.293 C 
HETATM   25  C3  UNL     1       6.672  -0.821   1.039  1.00  0.00     0.218 C 
HETATM   26  C38 UNL     1       7.530  -1.630   2.007  1.00  0.00     0.183 C 
HETATM   27  C37 UNL     1       6.723  -2.176   3.199  1.00  0.00     0.180 C 
HETATM   28  C35 UNL     1       5.224  -2.349   2.917  1.00  0.00     0.179 C 
HETATM   29  O7  UNL     1       4.956  -2.598   1.534  1.00  0.00    -0.348 OA
BRANCH  25  30
HETATM   30  O2  UNL     1       7.437  -0.479  -0.159  1.00  0.00    -0.309 OA
BRANCH  30  31
HETATM   31  C2  UNL     1       8.185   0.647  -0.086  1.00  0.00     0.255 C 
HETATM   32  C1  UNL     1       8.826   0.948  -1.404  1.00  0.00     0.126 C 
HETATM   33  O1  UNL     1       8.336   1.313   0.927  1.00  0.00    -0.266 OA
ENDBRANCH  30  31
ENDBRANCH  25  30
BRANCH  26  34
HETATM   34  O10 UNL     1       8.645  -0.883   2.536  1.00  0.00    -0.390 OA
HETATM   35  H64 UNL     1       8.565   0.044   2.240  1.00  0.00     0.210 HD
ENDBRANCH  26  34
BRANCH  27  36
HETATM   36  O9  UNL     1       7.281  -3.469   3.515  1.00  0.00    -0.390 OA
HETATM   37  H62 UNL     1       7.374  -3.518   4.482  1.00  0.00     0.210 HD
ENDBRANCH  27  36
BRANCH  28  38
HETATM   38  C36 UNL     1       4.353  -1.231   3.510  1.00  0.00     0.198 C 
BRANCH  38  39
HETATM   39  O8  UNL     1       4.874   0.067   3.244  1.00  0.00    -0.398 OA
HETATM   40  H60 UNL     1       4.128   0.691   3.268  1.00  0.00     0.209 HD
ENDBRANCH  38  39
ENDBRANCH  28  38
ENDBRANCH  23  24
ENDBRANCH   1  23
BRANCH   7  41
HETATM   41  O4  UNL     1      -0.925  -2.647  -0.321  1.00  0.00    -0.395 OA
HETATM   42  H16 UNL     1      -1.399  -3.251   0.266  1.00  0.00     0.210 HD
ENDBRANCH   7  41
BRANCH  10  43
HETATM   43  C15 UNL     1      -5.677   0.070   1.047  1.00  0.00     0.062 C 
HETATM   44  C16 UNL     1      -5.159   0.214   2.483  1.00  0.00     0.046 C 
HETATM   45  C17 UNL     1      -6.134  -1.369   0.785  1.00  0.00     0.041 C 
HETATM   46  C18 UNL     1      -7.278  -1.205  -0.187  1.00  0.00     0.038 C 
HETATM   47  C19 UNL     1      -7.908   0.111   0.258  1.00  0.00     0.156 C 
HETATM   48  O6  UNL     1      -6.893   0.849   0.969  1.00  0.00    -0.372 OA
BRANCH  47  49
HETATM   49  C20 UNL     1      -8.520   0.962  -0.886  1.00  0.00     0.076 C 
HETATM   50  C21 UNL     1      -9.716   0.244  -1.527  1.00  0.00     0.048 C 
HETATM   51  C22 UNL     1      -8.951   2.342  -0.367  1.00  0.00     0.048 C 
BRANCH  49  52
HETATM   52  O5  UNL     1      -7.540   1.150  -1.917  1.00  0.00    -0.388 OA
HETATM   53  H35 UNL     1      -7.805   1.925  -2.443  1.00  0.00     0.210 HD
ENDBRANCH  49  52
ENDBRANCH  47  49
ENDBRANCH  10  43
TORSDOF 12
