REMARK  5 active torsions:
REMARK  status: ('A' for Active; 'I' for Inactive)
REMARK    1  A    between atoms: C2_2  and  C4_4 
REMARK    2  A    between atoms: C10_11  and  O2_12 
REMARK    3  A    between atoms: C13_15  and  O3_16 
REMARK    4  A    between atoms: C32_38  and  O5_39 
REMARK    5  A    between atoms: C37_45  and  O7_46 
ROOT
HETATM    1  C4  UNL     1       6.568   0.077  -0.227  1.00  0.00     0.181 C 
HETATM    2  O1  UNL     1       5.554  -0.533   0.605  1.00  0.00    -0.370 OA
HETATM    3  C5  UNL     1       4.781  -1.477  -0.152  1.00  0.00     0.163 C 
HETATM    4  C6  UNL     1       3.896  -2.309   0.787  1.00  0.00     0.036 C 
HETATM    5  C7  UNL     1       2.550  -1.695   1.181  1.00  0.00     0.016 C 
HETATM    6  C8  UNL     1       1.865  -0.811   0.082  1.00  0.00     0.006 C 
HETATM    7  C9  UNL     1       2.137   0.650   0.552  1.00  0.00     0.020 C 
HETATM    8  C10 UNL     1       2.543  -1.050  -1.350  1.00  0.00     0.102 C 
HETATM    9  C11 UNL     1       1.825  -0.295  -2.510  1.00  0.00     0.045 C 
HETATM   10  C12 UNL     1       0.288  -0.503  -2.583  1.00  0.00     0.045 C 
HETATM   11  C13 UNL     1      -0.322  -0.215  -1.218  1.00  0.00     0.102 C 
HETATM   12  C14 UNL     1      -1.899  -0.330  -1.010  1.00  0.00     0.194 C 
HETATM   13  O4  UNL     1      -2.450   0.869  -1.549  1.00  0.00    -0.367 OA
HETATM   14  C15 UNL     1      -3.846   0.943  -1.874  1.00  0.00     0.061 C 
HETATM   15  C16 UNL     1      -3.946   2.282  -2.640  1.00  0.00     0.046 C 
HETATM   16  C17 UNL     1      -4.273  -0.155  -2.849  1.00  0.00     0.046 C 
HETATM   17  C18 UNL     1      -4.702   1.064  -0.600  1.00  0.00     0.060 C 
HETATM   18  C19 UNL     1      -6.214   1.331  -0.737  1.00  0.00     0.023 C 
HETATM   19  C20 UNL     1      -6.488   0.480   0.519  1.00  0.00     0.054 C 
HETATM   20  C21 UNL     1      -6.738   1.132   1.844  1.00  0.00    -0.077 C 
HETATM   21  C22 UNL     1      -7.455   2.272   1.922  1.00  0.00     0.015 C 
HETATM   22  C23 UNL     1      -6.208   0.392   3.067  1.00  0.00     0.074 C 
HETATM   23  C24 UNL     1      -4.729   0.057   2.990  1.00  0.00    -0.022 C 
HETATM   24  C25 UNL     1      -3.930  -0.123   4.128  1.00  0.00     0.043 C 
HETATM   25 CL1  UNL     1      -4.583   0.022   5.723  1.00  0.00    -0.084 Cl
HETATM   26  C26 UNL     1      -2.572  -0.449   4.022  1.00  0.00     0.054 C 
HETATM   27  C27 UNL     1      -2.020  -0.531   2.735  1.00  0.00     0.045 A 
HETATM   28  N1  UNL     1      -0.716  -0.815   2.339  1.00  0.00    -0.357 N 
HETATM   29  C28 UNL     1      -0.674  -0.797   0.990  1.00  0.00     0.032 A 
HETATM   30  C29 UNL     1      -1.907  -0.437   0.491  1.00  0.00     0.010 A 
HETATM   31  C30 UNL     1      -2.795  -0.347   1.575  1.00  0.00     0.011 A 
HETATM   32  C31 UNL     1      -4.182  -0.139   1.699  1.00  0.00    -0.001 C 
HETATM   33  C32 UNL     1      -5.037  -0.131   0.370  1.00  0.00     0.100 C 
HETATM   34  C33 UNL     1       0.325  -1.138  -0.074  1.00  0.00     0.043 C 
HETATM   35  C34 UNL     1       0.043  -2.651  -0.387  1.00  0.00     0.026 C 
HETATM   36  C35 UNL     1       4.027  -0.743  -1.237  1.00  0.00     0.147 A 
HETATM   37  O6  UNL     1       4.757  -0.725  -2.491  1.00  0.00    -0.360 OA
HETATM   38  C36 UNL     1       4.643   0.522  -1.813  1.00  0.00     0.194 A 
HETATM   39  C37 UNL     1       5.878   1.087  -1.186  1.00  0.00     0.183 C 
HETATM   40  H37 UNL     1       0.053  -1.026   2.962  1.00  0.00     0.166 HD
ENDROOT
BRANCH   1  41
HETATM   41  C2  UNL     1       7.645   0.721   0.647  1.00  0.00    -0.062 C 
HETATM   42  C1  UNL     1       7.565   0.829   1.982  1.00  0.00     0.016 C 
HETATM   43  C3  UNL     1       8.841   1.250  -0.106  1.00  0.00     0.045 C 
ENDBRANCH   1  41
BRANCH  39  44
HETATM   44  O7  UNL     1       5.469   2.266  -0.493  1.00  0.00    -0.390 OA
HETATM   45  H44 UNL     1       5.129   1.987   0.374  1.00  0.00     0.210 HD
ENDBRANCH  39  44
BRANCH   8  46
HETATM   46  O2  UNL     1       2.461  -2.454  -1.670  1.00  0.00    -0.386 OA
HETATM   47  H15 UNL     1       2.339  -2.551  -2.636  1.00  0.00     0.210 HD
ENDBRANCH   8  46
BRANCH  11  48
HETATM   48  O3  UNL     1      -0.009   1.187  -0.977  1.00  0.00    -0.386 OA
HETATM   49  H20 UNL     1      -0.644   1.712  -1.524  1.00  0.00     0.210 HD
ENDBRANCH  11  48
BRANCH  33  50
HETATM   50  O5  UNL     1      -5.093  -1.450  -0.235  1.00  0.00    -0.384 OA
HETATM   51  H38 UNL     1      -4.251  -1.868  -0.000  1.00  0.00     0.211 HD
ENDBRANCH  33  50
TORSDOF 5
