REMARK  11 active torsions:
REMARK  status: ('A' for Active; 'I' for Inactive)
REMARK    1  A    between atoms: C3_3  and  O1_4 
REMARK    2  A    between atoms: N1_14  and  O2_16 
REMARK    3  A    between atoms: O2_16  and  C13_17 
REMARK    4  A    between atoms: C13_17  and  C14_18 
REMARK       I    between atoms: C14_18  and  N2_20 
REMARK    5  A    between atoms: N2_20  and  C15_21 
REMARK    6  A    between atoms: C15_21  and  C16_22 
REMARK    7  A    between atoms: C15_21  and  C19_27 
REMARK    8  A    between atoms: C16_22  and  O5_24 
REMARK    9  A    between atoms: O5_24  and  C17_25 
REMARK   10  A    between atoms: C19_27  and  O6_28 
REMARK   11  A    between atoms: C19_27  and  C20_29 
ROOT
HETATM    1  C1  UNL     1      -7.163   3.458   2.737  1.00  0.00     0.015 C 
HETATM    2  C2  UNL     1      -7.036   2.570   1.938  1.00  0.00    -0.078 C 
HETATM    3  C3  UNL     1      -6.892   1.488   0.936  1.00  0.00     0.128 C 
HETATM    4  C4  UNL     1      -5.930   1.939  -0.163  1.00  0.00     0.052 C 
HETATM    5  C5  UNL     1      -4.534   1.596   0.357  1.00  0.00     0.010 C 
HETATM    6  C6  UNL     1      -4.717   0.577   1.503  1.00  0.00     0.002 C 
HETATM    7  C7  UNL     1      -3.763  -0.633   1.452  1.00  0.00    -0.004 C 
HETATM    8  C8  UNL     1      -2.300  -0.219   1.655  1.00  0.00     0.010 C 
HETATM    9  C9  UNL     1      -1.350  -1.344   1.283  1.00  0.00     0.035 C 
HETATM   10  C10 UNL     1      -1.468  -1.534  -0.202  1.00  0.00    -0.069 C 
HETATM   11  C11 UNL     1      -0.424  -1.245  -0.999  1.00  0.00     0.030 C 
HETATM   12  C12 UNL     1      -0.528  -1.306  -2.485  1.00  0.00     0.032 C 
HETATM   13  N1  UNL     1       0.455  -1.166  -3.322  1.00  0.00    -0.271 N 
ATOM     14  H1  UNL     1       0.349  -1.211  -4.336  1.00  0.00     0.194 HD
HETATM   15  C26 UNL     1      -1.893  -1.569  -3.089  1.00  0.00     0.060 C 
HETATM   16  C27 UNL     1      -3.036  -1.302  -2.114  1.00  0.00     0.020 C 
HETATM   17  C28 UNL     1      -2.836  -1.960  -0.723  1.00  0.00    -0.016 C 
HETATM   18  C29 UNL     1      -2.801  -3.504  -0.905  1.00  0.00     0.020 C 
HETATM   19  C30 UNL     1      -4.024  -1.638   0.287  1.00  0.00     0.002 C 
HETATM   20  C31 UNL     1      -5.390  -1.407  -0.391  1.00  0.00     0.007 C 
HETATM   21  C32 UNL     1      -6.487  -1.079   0.618  1.00  0.00     0.014 C 
HETATM   22  C33 UNL     1      -6.223   0.187   1.494  1.00  0.00     0.003 C 
HETATM   23  C34 UNL     1      -6.723  -0.156   2.917  1.00  0.00     0.020 C 
ENDROOT
BRANCH   3  24
HETATM   24  O1  UNL     1      -8.173   1.239   0.376  1.00  0.00    -0.377 OA
HETATM   25  H2  UNL     1      -8.782   1.089   1.119  1.00  0.00     0.211 HD
ENDBRANCH   3  24
BRANCH  13  26
HETATM   26  O2  UNL     1       1.679  -0.946  -2.673  1.00  0.00    -0.271 OA
BRANCH  26  27
HETATM   27  C13 UNL     1       2.709  -0.885  -3.655  1.00  0.00     0.303 C 
BRANCH  27  28
HETATM   28  C14 UNL     1       4.074  -0.630  -3.022  1.00  0.00     0.244 C 
HETATM   29  O3  UNL     1       5.116  -0.653  -3.674  1.00  0.00    -0.271 OA
HETATM   30  N2  UNL     1       4.055  -0.346  -1.679  1.00  0.00    -0.343 N 
HETATM   31  H16 UNL     1       3.153  -0.202  -1.236  1.00  0.00     0.163 HD
BRANCH  30  32
HETATM   32  C15 UNL     1       5.277  -0.008  -0.940  1.00  0.00     0.217 C 
BRANCH  32  33
HETATM   33  C16 UNL     1       5.653   1.439  -1.256  1.00  0.00     0.284 C 
HETATM   34  O4  UNL     1       4.862   2.377  -1.239  1.00  0.00    -0.263 OA
BRANCH  33  35
HETATM   35  O5  UNL     1       6.983   1.539  -1.528  1.00  0.00    -0.320 OA
BRANCH  35  36
HETATM   36  C17 UNL     1       7.460   2.850  -1.861  1.00  0.00     0.174 C 
HETATM   37  C18 UNL     1       7.858   3.593  -0.600  1.00  0.00     0.034 C 
ENDBRANCH  35  36
ENDBRANCH  33  35
ENDBRANCH  32  33
BRANCH  32  38
HETATM   38  C19 UNL     1       5.069  -0.113   0.587  1.00  0.00     0.183 C 
BRANCH  38  39
HETATM   39  O6  UNL     1       4.478  -1.381   0.923  1.00  0.00    -0.388 OA
HETATM   40  H24 UNL     1       4.802  -1.631   1.807  1.00  0.00     0.210 HD
ENDBRANCH  38  39
BRANCH  38  41
HETATM   41  C20 UNL     1       6.341   0.066   1.393  1.00  0.00    -0.027 A 
HETATM   42  C21 UNL     1       7.396  -0.854   1.291  1.00  0.00     0.010 A 
HETATM   43  C22 UNL     1       8.566  -0.676   2.030  1.00  0.00     0.001 A 
HETATM   44  C23 UNL     1       8.694   0.420   2.881  1.00  0.00     0.000 A 
HETATM   45  C24 UNL     1       7.653   1.338   2.994  1.00  0.00     0.001 A 
HETATM   46  C25 UNL     1       6.482   1.164   2.255  1.00  0.00     0.010 A 
ENDBRANCH  38  41
ENDBRANCH  32  38
ENDBRANCH  30  32
ENDBRANCH  27  28
ENDBRANCH  26  27
ENDBRANCH  13  26
TORSDOF 11
