REMARK  4 active torsions:
REMARK  status: ('A' for Active; 'I' for Inactive)
REMARK    1  A    between atoms: C4_4  and  C5_5 
REMARK    2  A    between atoms: C5_5  and  C6_6 
REMARK    3  A    between atoms: C6_6  and  C7_7 
REMARK    4  A    between atoms: C7_7  and  C9_9 
ROOT
HETATM    1  C9  UNL     1       1.987  -1.190   0.328  1.00  0.00    -0.002 C 
HETATM    2  C10 UNL     1       2.172  -1.214  -1.220  1.00  0.00     0.007 C 
HETATM    3  C11 UNL     1       0.783  -1.023  -1.856  1.00  0.00     0.015 C 
HETATM    4  C12 UNL     1      -0.211  -1.223  -0.694  1.00  0.00    -0.013 C 
HETATM    5  C13 UNL     1      -0.409  -2.767  -0.558  1.00  0.00     0.021 C 
HETATM    6  C14 UNL     1      -1.606  -0.625  -0.833  1.00  0.00    -0.070 C 
HETATM    7  C15 UNL     1      -2.210  -0.464  -2.021  1.00  0.00    -0.022 C 
HETATM    8  C16 UNL     1      -3.598   0.056  -2.218  1.00  0.00     0.034 C 
HETATM    9  C17 UNL     1      -4.434   0.364  -0.949  1.00  0.00     0.013 C 
HETATM   10  C18 UNL     1      -4.820   1.878  -0.780  1.00  0.00     0.018 C 
HETATM   11  C19 UNL     1      -5.625   2.368  -2.007  1.00  0.00     0.023 C 
HETATM   12  C20 UNL     1      -3.618   2.808  -0.575  1.00  0.00     0.023 C 
HETATM   13  C21 UNL     1      -5.753   2.036   0.435  1.00  0.00     0.135 C 
HETATM   14  O1  UNL     1      -6.378   3.077   0.648  1.00  0.00    -0.297 OA
HETATM   15  C22 UNL     1      -5.902   0.857   1.367  1.00  0.00     0.080 C 
HETATM   16  C23 UNL     1      -4.530   0.262   1.627  1.00  0.00     0.017 C 
HETATM   17  C24 UNL     1      -3.883  -0.348   0.350  1.00  0.00    -0.031 C 
HETATM   18  C25 UNL     1      -4.306  -1.844   0.274  1.00  0.00     0.016 C 
HETATM   19  C26 UNL     1      -2.316  -0.225   0.454  1.00  0.00     0.024 C 
HETATM   20  C27 UNL     1      -1.704  -0.895   1.711  1.00  0.00     0.010 C 
HETATM   21  C28 UNL     1      -0.162  -0.840   1.816  1.00  0.00     0.011 C 
HETATM   22  C29 UNL     1       0.570  -0.544   0.488  1.00  0.00    -0.029 C 
HETATM   23  C30 UNL     1       0.716   1.003   0.329  1.00  0.00     0.016 C 
ENDROOT
BRANCH   1  24
HETATM   24  C7  UNL     1       3.220  -0.570   1.057  1.00  0.00    -0.014 C 
HETATM   25  C8  UNL     1       3.023  -0.513   2.575  1.00  0.00     0.010 C 
BRANCH  24  26
HETATM   26  C6  UNL     1       4.502  -1.382   0.715  1.00  0.00     0.008 C 
BRANCH  26  27
HETATM   27  C5  UNL     1       5.825  -0.840   1.275  1.00  0.00     0.028 C 
BRANCH  27  28
HETATM   28  C4  UNL     1       6.126   0.567   0.839  1.00  0.00    -0.025 C 
HETATM   29  C2  UNL     1       6.895   0.957  -0.197  1.00  0.00    -0.091 C 
HETATM   30  C1  UNL     1       7.122   2.418  -0.479  1.00  0.00     0.042 C 
HETATM   31  C3  UNL     1       7.576   0.026  -1.162  1.00  0.00     0.042 C 
ENDBRANCH  27  28
ENDBRANCH  26  27
ENDBRANCH  24  26
ENDBRANCH   1  24
TORSDOF 4
