REMARK  14 active torsions:
REMARK  status: ('A' for Active; 'I' for Inactive)
REMARK    1  A    between atoms: C2_2  and  C4_4 
REMARK    2  A    between atoms: C7_7  and  C8_8 
REMARK    3  A    between atoms: C8_8  and  O2_10 
REMARK    4  A    between atoms: C21_23  and  O3_24 
REMARK    5  A    between atoms: O3_24  and  C22_25 
REMARK    6  A    between atoms: C22_25  and  C23_27 
REMARK    7  A    between atoms: C23_27  and  N1_28 
REMARK    8  A    between atoms: N1_28  and  O5_29 
REMARK    9  A    between atoms: N1_28  and  C25_31 
REMARK   10  A    between atoms: C26_33  and  C27_34 
REMARK   11  A    between atoms: C27_34  and  O7_35 
REMARK   12  A    between atoms: C28_36  and  O8_37 
REMARK   13  A    between atoms: C29_38  and  O9_39 
REMARK   14  A    between atoms: C30_40  and  O10_41 
ROOT
HETATM    1  C4  UNL     1      -6.737  -1.769  -1.095  1.00  0.00     0.019 C 
HETATM    2  C5  UNL     1      -8.047  -2.245  -0.433  1.00  0.00     0.011 C 
HETATM    3  C6  UNL     1      -8.097  -1.534   0.916  1.00  0.00     0.021 C 
HETATM    4  C7  UNL     1      -6.631  -1.451   1.404  1.00  0.00     0.050 C 
HETATM    5  C9  UNL     1      -6.397  -0.101   2.109  1.00  0.00     0.022 C 
HETATM    6  C10 UNL     1      -4.948   0.401   2.070  1.00  0.00     0.011 C 
HETATM    7  C11 UNL     1      -4.333   0.495   0.635  1.00  0.00    -0.032 C 
HETATM    8  C12 UNL     1      -5.240   1.461  -0.164  1.00  0.00     0.016 C 
HETATM    9  C13 UNL     1      -4.397  -0.964   0.054  1.00  0.00     0.000 C 
HETATM   10  C14 UNL     1      -3.359  -1.901   0.765  1.00  0.00     0.006 C 
HETATM   11  C15 UNL     1      -2.023  -1.270   1.143  1.00  0.00     0.006 C 
HETATM   12  C16 UNL     1      -1.751  -0.060   0.258  1.00  0.00     0.003 C 
HETATM   13  C17 UNL     1      -0.220   0.323   0.089  1.00  0.00    -0.035 C 
HETATM   14  C18 UNL     1       0.423   0.682   1.447  1.00  0.00     0.016 C 
HETATM   15  C19 UNL     1       0.546  -0.920  -0.487  1.00  0.00     0.012 C 
HETATM   16  C20 UNL     1       1.567  -0.621  -1.591  1.00  0.00     0.034 C 
HETATM   17  C21 UNL     1       2.314   0.701  -1.413  1.00  0.00     0.140 C 
HETATM   18  C31 UNL     1       1.331   1.923  -1.374  1.00  0.00    -0.017 C 
HETATM   19  C32 UNL     1       1.875   3.072  -0.498  1.00  0.00     0.018 C 
HETATM   20  C33 UNL     1       1.263   2.494  -2.823  1.00  0.00     0.018 C 
HETATM   21  C34 UNL     1      -0.131   1.475  -0.969  1.00  0.00     0.004 C 
HETATM   22  C35 UNL     1      -1.086   2.639  -0.647  1.00  0.00     0.007 C 
HETATM   23  C36 UNL     1      -2.542   2.172  -0.495  1.00  0.00     0.011 C 
HETATM   24  C37 UNL     1      -2.773   1.090   0.611  1.00  0.00    -0.032 C 
HETATM   25  C38 UNL     1      -2.494   1.788   1.967  1.00  0.00     0.016 C 
HETATM   26  C39 UNL     1      -5.768  -1.707   0.131  1.00  0.00     0.017 C 
ENDROOT
BRANCH  17  27
HETATM   27  O3  UNL     1       3.103   0.584  -0.213  1.00  0.00    -0.314 OA
BRANCH  27  28
HETATM   28  C22 UNL     1       4.377   1.093  -0.249  1.00  0.00     0.274 C 
HETATM   29  O4  UNL     1       4.875   1.636  -1.225  1.00  0.00    -0.264 OA
BRANCH  28  30
HETATM   30  C23 UNL     1       4.980   0.968   1.157  1.00  0.00     0.234 C 
BRANCH  30  31
HETATM   31  N1  UNL     1       6.452   1.098   1.252  1.00  0.00    -0.156 NA
BRANCH  31  32
HETATM   32  O5  UNL     1       6.831   2.280   0.494  1.00  0.00    -0.305 OA
HETATM   33  C24 UNL     1       7.285   3.283   1.403  1.00  0.00     0.230 C 
ENDBRANCH  31  32
BRANCH  31  34
HETATM   34  C25 UNL     1       7.167  -0.102   0.755  1.00  0.00     0.253 C 
HETATM   35  O6  UNL     1       6.577  -0.628  -0.436  1.00  0.00    -0.356 OA
HETATM   36  C26 UNL     1       7.113  -1.897  -0.861  1.00  0.00     0.178 C 
HETATM   37  C28 UNL     1       8.646  -1.851  -1.051  1.00  0.00     0.180 C 
HETATM   38  C29 UNL     1       9.362  -1.195   0.145  1.00  0.00     0.182 C 
HETATM   39  C30 UNL     1       8.685   0.133   0.517  1.00  0.00     0.195 C 
BRANCH  36  40
HETATM   40  C27 UNL     1       6.635  -3.038   0.057  1.00  0.00     0.198 C 
BRANCH  40  41
HETATM   41  O7  UNL     1       7.065  -4.304  -0.425  1.00  0.00    -0.398 OA
HETATM   42  H42 UNL     1       6.762  -4.973   0.215  1.00  0.00     0.209 HD
ENDBRANCH  40  41
ENDBRANCH  36  40
BRANCH  37  43
HETATM   43  O8  UNL     1       8.954  -1.118  -2.248  1.00  0.00    -0.390 OA
HETATM   44  H44 UNL     1       8.824  -0.168  -2.042  1.00  0.00     0.210 HD
ENDBRANCH  37  43
BRANCH  38  45
HETATM   45  O9  UNL     1       9.381  -2.070   1.275  1.00  0.00    -0.390 OA
HETATM   46  H46 UNL     1       9.937  -2.833   1.030  1.00  0.00     0.210 HD
ENDBRANCH  38  45
BRANCH  39  47
HETATM   47  O10 UNL     1       8.901   1.055  -0.576  1.00  0.00    -0.389 OA
HETATM   48  H48 UNL     1       8.052   1.542  -0.667  1.00  0.00     0.210 HD
ENDBRANCH  39  47
ENDBRANCH  31  34
ENDBRANCH  30  31
ENDBRANCH  28  30
ENDBRANCH  27  28
ENDBRANCH  17  27
BRANCH   1  49
HETATM   49  C2  UNL     1      -6.882  -0.604  -2.067  1.00  0.00    -0.088 C 
HETATM   50  C1  UNL     1      -7.900   0.276  -2.070  1.00  0.00     0.014 C 
HETATM   51  C3  UNL     1      -5.875  -0.550  -3.193  1.00  0.00     0.043 C 
ENDBRANCH   1  49
BRANCH   4  52
HETATM   52  C8  UNL     1      -6.381  -2.569   2.431  1.00  0.00     0.149 C 
HETATM   53  O1  UNL     1      -5.785  -2.470   3.492  1.00  0.00    -0.649 OA
BRANCH  52  54
HETATM   54  O2  UNL     1      -6.852  -3.774   2.055  1.00  0.00    -0.776 OA
HETATM   55  H11 UNL     1      -6.592  -4.365   2.791  1.00  0.00     0.167 HD
ENDBRANCH  52  54
ENDBRANCH   4  52
TORSDOF 14
