REMARK  8 active torsions:
REMARK  status: ('A' for Active; 'I' for Inactive)
REMARK    1  A    between atoms: C2_2  and  N1_3 
REMARK    2  A    between atoms: C2_2  and  C24_33 
REMARK       I    between atoms: N1_3  and  C3_4 
REMARK    3  A    between atoms: C3_4  and  C4_6 
REMARK    4  A    between atoms: C4_6  and  C5_7 
REMARK    5  A    between atoms: C10_12  and  C12_14 
REMARK    6  A    between atoms: C12_14  and  O2_15 
REMARK    7  A    between atoms: C13_16  and  O3_17 
REMARK    8  A    between atoms: C18_23  and  C19_24 
ROOT
HETATM    1  C5  UNL     1      -0.830  -0.309  -0.866  1.00  0.00     0.054 C 
HETATM    2  C6  UNL     1      -1.601   0.749  -0.108  1.00  0.00     0.028 A 
HETATM    3  C7  UNL     1      -2.519   0.467   0.885  1.00  0.00     0.008 A 
HETATM    4  C8  UNL     1      -2.912  -0.907   1.341  1.00  0.00     0.054 C 
HETATM    5  C9  UNL     1      -2.519  -1.904   0.216  1.00  0.00     0.012 C 
HETATM    6  C10 UNL     1      -3.033  -3.383   0.325  1.00  0.00     0.008 C 
HETATM    7  C11 UNL     1      -4.559  -3.387   0.618  1.00  0.00     0.020 C 
HETATM    8  C13 UNL     1      -2.840  -4.056  -1.081  1.00  0.00     0.128 C 
HETATM    9  C14 UNL     1      -1.737  -3.439  -1.956  1.00  0.00     0.033 C 
HETATM   10  C15 UNL     1      -0.570  -2.893  -1.143  1.00  0.00     0.013 C 
HETATM   11  C16 UNL     1      -0.979  -1.746  -0.172  1.00  0.00    -0.030 C 
HETATM   12  C17 UNL     1      -0.035  -1.839   1.052  1.00  0.00     0.016 C 
HETATM   13  S1  UNL     1      -3.171   1.904   1.510  1.00  0.00    -0.074 SA
HETATM   14  C18 UNL     1      -2.241   2.819   0.369  1.00  0.00     0.086 A 
HETATM   15  N3  UNL     1      -1.485   2.086  -0.432  1.00  0.00    -0.352 N 
ATOM     16  H3  UNL     1      -0.900   2.456  -1.182  1.00  0.00     0.166 HD
ENDROOT
BRANCH   1  17
HETATM   17  C4  UNL     1       0.585   0.157  -1.263  1.00  0.00     0.114 C 
BRANCH  17  18
HETATM   18  C3  UNL     1       1.496   0.707  -0.174  1.00  0.00     0.218 C 
HETATM   19  N1  UNL     1       2.760   0.993  -0.651  1.00  0.00    -0.353 N 
HETATM   20  H5  UNL     1       2.941   0.947  -1.645  1.00  0.00     0.163 HD
HETATM   21  O1  UNL     1       1.186   0.865   1.001  1.00  0.00    -0.274 OA
BRANCH  19  22
HETATM   22  C2  UNL     1       3.806   1.524   0.206  1.00  0.00     0.113 C 
HETATM   23  C1  UNL     1       3.625   3.026   0.433  1.00  0.00     0.037 C 
BRANCH  22  24
HETATM   24  C24 UNL     1       5.159   1.146  -0.373  1.00  0.00    -0.036 A 
HETATM   25  C25 UNL     1       5.802  -0.015   0.094  1.00  0.00     0.009 A 
HETATM   26  C26 UNL     1       7.033  -0.412  -0.432  1.00  0.00     0.001 A 
HETATM   27  C27 UNL     1       7.634   0.337  -1.441  1.00  0.00     0.000 A 
HETATM   28  C28 UNL     1       7.005   1.482  -1.925  1.00  0.00     0.001 A 
HETATM   29  C29 UNL     1       5.772   1.882  -1.400  1.00  0.00     0.009 A 
ENDBRANCH  22  24
ENDBRANCH  19  22
ENDBRANCH  17  18
ENDBRANCH   1  17
BRANCH  14  30
HETATM   30  C19 UNL     1      -2.315   4.286   0.297  1.00  0.00     0.013 A 
HETATM   31  C20 UNL     1      -3.181   5.080   1.060  1.00  0.00     0.017 A 
HETATM   32  C21 UNL     1      -3.183   6.468   0.907  1.00  0.00     0.018 A 
HETATM   33  C22 UNL     1      -2.313   7.032  -0.010  1.00  0.00     0.087 A 
HETATM   34  N2  UNL     1      -1.461   6.314  -0.768  1.00  0.00    -0.374 N 
HETATM   35  C23 UNL     1      -1.483   4.966  -0.593  1.00  0.00     0.101 A 
ATOM     36  H2  UNL     1      -0.833   6.758  -1.438  1.00  0.00     0.164 HD
ENDBRANCH  14  30
BRANCH   6  37
HETATM   37  C12 UNL     1      -2.373  -4.223   1.442  1.00  0.00     0.176 C 
BRANCH  37  38
HETATM   38  O2  UNL     1      -2.473  -3.574   2.701  1.00  0.00    -0.400 OA
HETATM   39  H17 UNL     1      -2.007  -4.133   3.347  1.00  0.00     0.209 HD
ENDBRANCH  37  38
ENDBRANCH   6  37
BRANCH   8  40
HETATM   40  O3  UNL     1      -2.583  -5.454  -0.957  1.00  0.00    -0.395 OA
HETATM   41  H19 UNL     1      -3.428  -5.890  -0.744  1.00  0.00     0.210 HD
ENDBRANCH   8  40
TORSDOF 8
