REMARK  8 active torsions:
REMARK  status: ('A' for Active; 'I' for Inactive)
REMARK    1  A    between atoms: O1_2  and  C2_3 
REMARK    2  A    between atoms: C9_12  and  O4_13 
REMARK    3  A    between atoms: C10_14  and  C11_15 
REMARK    4  A    between atoms: C11_15  and  C12_16 
REMARK    5  A    between atoms: C13_17  and  C15_19 
REMARK    6  A    between atoms: C15_19  and  C16_20 
REMARK    7  A    between atoms: C16_20  and  C17_21 
REMARK       I    between atoms: C17_21  and  N1_23 
REMARK    8  A    between atoms: N1_23  and  C18_24 
ROOT
HETATM    1  C12 UNL     1      -1.660  -0.673  -1.740  1.00  0.00    -0.020 C 
HETATM    2  C13 UNL     1      -0.550   0.067  -1.933  1.00  0.00    -0.087 C 
HETATM    3  C14 UNL     1      -0.035   0.323  -3.326  1.00  0.00     0.043 C 
ENDROOT
BRANCH   1   4
HETATM    4  C11 UNL     1      -2.312  -1.048  -0.432  1.00  0.00     0.072 C 
BRANCH   4   5
HETATM    5  C10 UNL     1      -3.687  -0.433  -0.274  1.00  0.00     0.013 A 
HETATM    6  C2  UNL     1      -4.818  -0.976  -0.945  1.00  0.00     0.084 A 
HETATM    7  C3  UNL     1      -6.084  -0.350  -0.922  1.00  0.00    -0.018 A 
HETATM    8  C4  UNL     1      -7.258  -0.898  -1.679  1.00  0.00     0.052 C 
HETATM    9  C5  UNL     1      -6.212   0.787  -0.134  1.00  0.00    -0.006 A 
HETATM   10  C6  UNL     1      -5.127   1.290   0.553  1.00  0.00     0.082 A 
HETATM   11  C8  UNL     1      -7.383   1.650   0.134  1.00  0.00     0.219 A 
HETATM   12  C7  UNL     1      -5.542   2.471   1.286  1.00  0.00     0.297 A 
HETATM   13  C9  UNL     1      -3.867   0.719   0.502  1.00  0.00     0.091 A 
HETATM   14  O2  UNL     1      -4.819   3.148   1.992  1.00  0.00    -0.259 OA
HETATM   15  O3  UNL     1      -6.868   2.656   1.032  1.00  0.00    -0.313 OA
BRANCH   6  16
HETATM   16  O1  UNL     1      -4.651  -2.111  -1.706  1.00  0.00    -0.355 OA
HETATM   17  C1  UNL     1      -4.978  -3.276  -0.944  1.00  0.00     0.210 C 
ENDBRANCH   6  16
BRANCH  13  18
HETATM   18  O4  UNL     1      -2.817   1.252   1.191  1.00  0.00    -0.359 OA
HETATM   19  H9  UNL     1      -3.106   2.071   1.648  1.00  0.00     0.217 HD
ENDBRANCH  13  18
ENDBRANCH   4   5
ENDBRANCH   1   4
BRANCH   2  20
HETATM   20  C15 UNL     1       0.246   0.724  -0.824  1.00  0.00     0.042 C 
BRANCH  20  21
HETATM   21  C16 UNL     1       1.433  -0.132  -0.389  1.00  0.00     0.107 C 
BRANCH  21  22
HETATM   22  C17 UNL     1       2.245   0.539   0.699  1.00  0.00     0.218 C 
HETATM   23  O5  UNL     1       2.014   1.661   1.136  1.00  0.00    -0.274 OA
HETATM   24  N1  UNL     1       3.291  -0.246   1.145  1.00  0.00    -0.356 N 
HETATM   25  H20 UNL     1       3.557  -1.048   0.584  1.00  0.00     0.162 HD
BRANCH  24  26
HETATM   26  C18 UNL     1       4.273   0.254   2.098  1.00  0.00     0.089 C 
HETATM   27  C19 UNL     1       4.970  -0.906   2.816  1.00  0.00     0.051 C 
HETATM   28  C20 UNL     1       6.310  -1.267   2.188  1.00  0.00     0.171 C 
HETATM   29  O6  UNL     1       6.309  -0.993   0.792  1.00  0.00    -0.381 OA
HETATM   30  C21 UNL     1       6.248   0.410   0.475  1.00  0.00     0.055 C 
HETATM   31  C22 UNL     1       5.753   0.491  -0.977  1.00  0.00     0.045 C 
HETATM   32  C23 UNL     1       7.662   1.007   0.525  1.00  0.00     0.045 C 
HETATM   33  C24 UNL     1       5.301   1.172   1.429  1.00  0.00     0.062 C 
ENDBRANCH  24  26
ENDBRANCH  21  22
ENDBRANCH  20  21
ENDBRANCH   2  20
TORSDOF 8
