REMARK  12 active torsions:
REMARK  status: ('A' for Active; 'I' for Inactive)
REMARK    1  A    between atoms: O1_2  and  C2_3 
REMARK    2  A    between atoms: C2_3  and  C3_4 
REMARK    3  A    between atoms: C3_4  and  C4_5 
REMARK    4  A    between atoms: C4_5  and  N1_6 
REMARK    5  A    between atoms: N1_6  and  C5_7 
REMARK    6  A    between atoms: C5_7  and  C6_8 
REMARK    7  A    between atoms: C10_12  and  O2_13 
REMARK    8  A    between atoms: C16_19  and  O3_20 
REMARK    9  A    between atoms: C20_24  and  C21_25 
REMARK   10  A    between atoms: C27_31  and  O4_32 
REMARK   11  A    between atoms: C30_35  and  C31_36 
REMARK   12  A    between atoms: C32_38  and  O6_39 
ROOT
HETATM    1  C6  UNL     1       4.786   0.372  -0.690  1.00  0.00    -0.022 C 
HETATM    2  C7  UNL     1       3.608   1.042  -0.749  1.00  0.00    -0.014 C 
HETATM    3  C8  UNL     1       2.387   0.438  -1.397  1.00  0.00     0.021 C 
HETATM    4  C9  UNL     1       1.018   0.701  -0.769  1.00  0.00     0.051 C 
HETATM    5  C10 UNL     1       0.099  -0.195  -1.635  1.00  0.00     0.098 C 
HETATM    6  C11 UNL     1       0.955  -1.519  -1.841  1.00  0.00    -0.002 C 
HETATM    7  C12 UNL     1       0.878  -2.031  -3.291  1.00  0.00     0.019 C 
HETATM    8  C13 UNL     1       0.505  -2.648  -0.882  1.00  0.00     0.013 C 
HETATM    9  C14 UNL     1      -0.997  -2.857  -0.870  1.00  0.00     0.010 C 
HETATM   10  C15 UNL     1      -1.714  -1.609  -0.316  1.00  0.00     0.041 C 
HETATM   11  C16 UNL     1      -1.401  -0.364  -1.159  1.00  0.00     0.095 C 
HETATM   12  C17 UNL     1      -1.902   0.871  -0.398  1.00  0.00     0.049 C 
HETATM   13  C18 UNL     1      -3.232   0.717   0.398  1.00  0.00     0.025 C 
HETATM   14  C19 UNL     1      -3.857   2.137   0.397  1.00  0.00     0.012 C 
HETATM   15  C20 UNL     1      -5.156   2.368   1.189  1.00  0.00    -0.011 C 
HETATM   16  C24 UNL     1      -6.336   1.791   0.401  1.00  0.00     0.005 C 
HETATM   17  C25 UNL     1      -6.579   0.305   0.622  1.00  0.00     0.010 C 
HETATM   18  C26 UNL     1      -5.364  -0.599   0.930  1.00  0.00     0.050 C 
HETATM   19  C27 UNL     1      -5.894  -2.039   1.067  1.00  0.00     0.125 C 
HETATM   20  C28 UNL     1      -4.839  -2.958   1.673  1.00  0.00     0.033 C 
HETATM   21  C29 UNL     1      -3.408  -2.576   1.283  1.00  0.00     0.023 C 
HETATM   22  C30 UNL     1      -3.273  -1.843  -0.085  1.00  0.00     0.051 C 
HETATM   23  C32 UNL     1      -4.133  -0.486  -0.048  1.00  0.00     0.082 C 
HETATM   24  C33 UNL     1       2.409  -1.101  -1.401  1.00  0.00     0.036 C 
HETATM   25  C34 UNL     1       3.722  -1.500  -1.990  1.00  0.00    -0.035 C 
HETATM   26  C35 UNL     1       4.105  -2.080  -3.122  1.00  0.00     0.088 C 
HETATM   27  C36 UNL     1       5.563  -1.939  -3.178  1.00  0.00     0.284 C 
HETATM   28  O7  UNL     1       6.263  -2.365  -4.079  1.00  0.00    -0.260 OA
HETATM   29  O8  UNL     1       6.000  -1.229  -2.102  1.00  0.00    -0.304 OA
HETATM   30  C37 UNL     1       4.914  -1.054  -1.203  1.00  0.00     0.192 C 
ENDROOT
BRANCH   1  31
HETATM   31  C5  UNL     1       6.032   1.033  -0.155  1.00  0.00     0.306 C 
BRANCH  31  32
HETATM   32  N1  UNL     1       6.253   0.802   1.269  1.00  0.00     0.087 N 
HETATM   33  H10 UNL     1       5.359   0.821   1.756  1.00  0.00     0.316 HD
BRANCH  32  34
HETATM   34  C4  UNL     1       6.994  -0.408   1.610  1.00  0.00     0.272 C 
BRANCH  34  35
HETATM   35  C3  UNL     1       8.450  -0.437   1.143  1.00  0.00     0.056 C 
BRANCH  35  36
HETATM   36  C2  UNL     1       9.265   0.750   1.643  1.00  0.00     0.168 C 
BRANCH  36  37
HETATM   37  O1  UNL     1      10.625   0.559   1.245  1.00  0.00    -0.396 OA
HETATM   38  C1  UNL     1      11.448   1.638   1.665  1.00  0.00     0.201 C 
ENDBRANCH  36  37
ENDBRANCH  35  36
ENDBRANCH  34  35
ENDBRANCH  32  34
ENDBRANCH  31  32
ENDBRANCH   1  31
BRANCH   5  39
HETATM   39  O2  UNL     1       0.026   0.486  -2.919  1.00  0.00    -0.386 OA
HETATM   40  H17 UNL     1      -0.575   1.250  -2.823  1.00  0.00     0.210 HD
ENDBRANCH   5  39
BRANCH  11  41
HETATM   41  O3  UNL     1      -2.222  -0.412  -2.341  1.00  0.00    -0.386 OA
HETATM   42  H26 UNL     1      -1.648  -0.637  -3.103  1.00  0.00     0.210 HD
ENDBRANCH  11  41
BRANCH  22  43
HETATM   43  C31 UNL     1      -3.788  -2.815  -1.176  1.00  0.00     0.244 C 
HETATM   44  O5  UNL     1      -3.779  -2.595  -2.384  1.00  0.00    -0.306 OA
ENDBRANCH  22  43
BRANCH  23  45
HETATM   45  O6  UNL     1      -4.654  -0.181  -1.342  1.00  0.00    -0.388 OA
HETATM   46  H52 UNL     1      -3.934  -0.344  -1.998  1.00  0.00     0.210 HD
ENDBRANCH  23  45
BRANCH  15  47
HETATM   47  C21 UNL     1      -5.329   3.891   1.494  1.00  0.00    -0.019 C 
HETATM   48  C22 UNL     1      -5.560   4.757   0.251  1.00  0.00     0.010 C 
HETATM   49  C23 UNL     1      -6.442   4.143   2.520  1.00  0.00     0.010 C 
ENDBRANCH  15  47
BRANCH  19  50
HETATM   50  O4  UNL     1      -6.314  -2.590  -0.178  1.00  0.00    -0.395 OA
HETATM   51  H46 UNL     1      -6.322  -1.887  -0.859  1.00  0.00     0.210 HD
ENDBRANCH  19  50
TORSDOF 12
