REMARK  9 active torsions:
REMARK  status: ('A' for Active; 'I' for Inactive)
REMARK    1  A    between atoms: N1_1  and  C1_2 
REMARK    2  A    between atoms: N5_13  and  C6_14 
REMARK    3  A    between atoms: C6_14  and  C7_15 
REMARK    4  A    between atoms: C7_15  and  C8_16 
REMARK    5  A    between atoms: C7_15  and  O1_18 
REMARK    6  A    between atoms: O1_18  and  C9_19 
REMARK    7  A    between atoms: C9_19  and  P1_20 
REMARK    8  A    between atoms: P1_20  and  O3_22 
REMARK    9  A    between atoms: P1_20  and  O4_23 
ROOT
HETATM    1  C1  UNL     1      -2.554   1.511   2.613  1.00  0.00     0.109 A 
HETATM    2  N2  UNL     1      -3.678   1.470   1.861  1.00  0.00    -0.341 N 
ATOM      3  H2  UNL     1      -4.461   2.094   2.056  1.00  0.00     0.167 HD
HETATM    4  C2  UNL     1      -3.737   0.581   0.844  1.00  0.00     0.183 A 
HETATM    5  N3  UNL     1      -2.797  -0.298   0.439  1.00  0.00    -0.336 N 
ATOM      6  H3  UNL     1      -2.903  -0.942  -0.345  1.00  0.00     0.168 HD
HETATM    7  C3  UNL     1      -1.702  -0.206   1.213  1.00  0.00     0.140 A 
HETATM    8  C4  UNL     1      -1.495   0.648   2.284  1.00  0.00     0.116 A 
HETATM    9  N4  UNL     1      -0.231   0.473   2.815  1.00  0.00    -0.346 N 
ATOM     10  H4  UNL     1       0.188   0.969   3.601  1.00  0.00     0.167 HD
HETATM   11  C5  UNL     1       0.313  -0.477   2.081  1.00  0.00     0.185 A 
HETATM   12  N5  UNL     1      -0.544  -0.924   1.112  1.00  0.00    -0.325 N 
ENDROOT
BRANCH  12  13
HETATM   13  C6  UNL     1      -0.282  -1.972   0.144  1.00  0.00     0.165 C 
BRANCH  13  14
HETATM   14  C7  UNL     1       0.164  -1.396  -1.204  1.00  0.00     0.169 C 
BRANCH  14  15
HETATM   15  C8  UNL     1       0.064  -2.479  -2.280  1.00  0.00     0.255 C 
HETATM   16  F1  UNL     1       0.745  -3.586  -1.877  1.00  0.00    -0.253 F 
ENDBRANCH  14  15
BRANCH  14  17
HETATM   17  O1  UNL     1       1.510  -0.919  -1.043  1.00  0.00    -0.370 OA
BRANCH  17  18
HETATM   18  C9  UNL     1       1.993  -0.134  -2.140  1.00  0.00     0.292 C 
BRANCH  18  19
HETATM   19  P1  UNL     1       3.188   1.039  -1.499  1.00  0.00     0.260 P 
HETATM   20  O2  UNL     1       4.416   0.536  -0.816  1.00  0.00    -0.652 OA
BRANCH  19  21
HETATM   21  O3  UNL     1       3.563   2.002  -2.728  1.00  0.00    -0.328 OA
HETATM   22  H12 UNL     1       4.328   2.573  -2.531  1.00  0.00     0.220 HD
ENDBRANCH  19  21
BRANCH  19  23
HETATM   23  O4  UNL     1       2.364   2.058  -0.574  1.00  0.00    -0.328 OA
HETATM   24  H13 UNL     1       2.936   2.584   0.015  1.00  0.00     0.220 HD
ENDBRANCH  19  23
ENDBRANCH  18  19
ENDBRANCH  17  18
ENDBRANCH  14  17
ENDBRANCH  13  14
ENDBRANCH  12  13
BRANCH   1  25
HETATM   25  N1  UNL     1      -2.496   2.421   3.660  1.00  0.00    -0.287 NA
HETATM   26  H1  UNL     1      -3.140   3.190   3.534  1.00  0.00     0.125 HD
HETATM   27  H2  UNL     1      -1.549   2.636   3.952  1.00  0.00     0.125 HD
ENDBRANCH   1  25
TORSDOF 9
