REMARK  4 active torsions:
REMARK  status: ('A' for Active; 'I' for Inactive)
REMARK    1  A    between atoms: C2_2  and  C3_3 
REMARK    2  A    between atoms: C2_2  and  C9_9 
REMARK    3  A    between atoms: C3_3  and  C4_4 
REMARK    4  A    between atoms: C4_4  and  C5_5 
ROOT
HETATM    1  C9  UNL     1       2.517   2.048   0.063  1.00  0.00     0.018 C 
HETATM    2  C10 UNL     1       1.935   3.441  -0.348  1.00  0.00     0.010 C 
HETATM    3  C11 UNL     1       0.469   3.223  -0.752  1.00  0.00     0.011 C 
HETATM    4  C12 UNL     1       0.034   1.981   0.037  1.00  0.00    -0.032 C 
HETATM    5  C13 UNL     1      -0.130   2.432   1.532  1.00  0.00     0.016 C 
HETATM    6  C14 UNL     1       1.302   1.097  -0.160  1.00  0.00     0.002 C 
HETATM    7  C15 UNL     1       1.178  -0.163   0.695  1.00  0.00     0.006 C 
HETATM    8  C16 UNL     1      -0.065  -0.966   0.282  1.00  0.00     0.006 C 
HETATM    9  C17 UNL     1      -1.388  -0.153   0.291  1.00  0.00     0.003 C 
HETATM   10  C18 UNL     1      -2.702  -1.026  -0.002  1.00  0.00    -0.035 C 
HETATM   11  C19 UNL     1      -2.404  -2.116  -1.059  1.00  0.00     0.016 C 
HETATM   12  C20 UNL     1      -3.051  -1.735   1.346  1.00  0.00     0.017 C 
HETATM   13  C21 UNL     1      -4.381  -2.459   1.371  1.00  0.00     0.080 C 
HETATM   14  C22 UNL     1      -5.495  -1.505   1.017  1.00  0.00     0.135 C 
HETATM   15  O1  UNL     1      -6.494  -1.423   1.735  1.00  0.00    -0.297 OA
HETATM   16  C23 UNL     1      -5.369  -0.743  -0.304  1.00  0.00     0.017 C 
HETATM   17  C24 UNL     1      -6.480   0.334  -0.367  1.00  0.00     0.023 C 
HETATM   18  C25 UNL     1      -5.696  -1.734  -1.446  1.00  0.00     0.023 C 
HETATM   19  C26 UNL     1      -3.921  -0.114  -0.459  1.00  0.00     0.009 C 
HETATM   20  C27 UNL     1      -3.775   1.268   0.214  1.00  0.00     0.007 C 
HETATM   21  C28 UNL     1      -2.550   2.051  -0.276  1.00  0.00     0.011 C 
HETATM   22  C29 UNL     1      -1.263   1.205  -0.498  1.00  0.00    -0.032 C 
HETATM   23  C30 UNL     1      -1.148   0.935  -2.027  1.00  0.00     0.016 C 
ENDROOT
BRANCH   1  24
HETATM   24  C2  UNL     1       3.841   1.661  -0.618  1.00  0.00    -0.084 C 
HETATM   25  C1  UNL     1       4.653   2.537  -1.243  1.00  0.00     0.014 C 
BRANCH  24  26
HETATM   26  C3  UNL     1       4.308   0.216  -0.542  1.00  0.00     0.037 C 
BRANCH  26  27
HETATM   27  C4  UNL     1       4.801  -0.172   0.856  1.00  0.00     0.031 C 
BRANCH  27  28
HETATM   28  C5  UNL     1       5.088  -1.648   0.949  1.00  0.00    -0.024 C 
HETATM   29  C6  UNL     1       6.283  -2.265   0.875  1.00  0.00    -0.091 C 
HETATM   30  C7  UNL     1       7.599  -1.576   0.642  1.00  0.00     0.042 C 
HETATM   31  C8  UNL     1       6.383  -3.761   1.011  1.00  0.00     0.042 C 
ENDBRANCH  27  28
ENDBRANCH  26  27
ENDBRANCH  24  26
ENDBRANCH   1  24
TORSDOF 4
