REMARK  14 active torsions:
REMARK  status: ('A' for Active; 'I' for Inactive)
REMARK    1  A    between atoms: C2_2  and  C3_3 
REMARK    2  A    between atoms: C2_2  and  C35_44 
REMARK    3  A    between atoms: C3_3  and  C4_4 
REMARK    4  A    between atoms: C4_4  and  C5_5 
REMARK    5  A    between atoms: C5_5  and  C6_6 
REMARK    6  A    between atoms: C5_5  and  C7_9 
REMARK    7  A    between atoms: C6_6  and  O2_8 
REMARK    8  A    between atoms: C28_31  and  O4_32 
REMARK    9  A    between atoms: O4_32  and  C29_33 
REMARK   10  A    between atoms: C30_35  and  C31_36 
REMARK   11  A    between atoms: C31_36  and  O6_37 
REMARK   12  A    between atoms: C32_38  and  O7_39 
REMARK   13  A    between atoms: C33_40  and  O8_41 
REMARK   14  A    between atoms: C34_42  and  O9_43 
ROOT
HETATM    1  C7  UNL     1       2.433   1.132   0.826  1.00  0.00     0.009 C 
HETATM    2  C8  UNL     1       1.731   2.208  -0.039  1.00  0.00     0.007 C 
HETATM    3  C9  UNL     1       0.319   1.672  -0.363  1.00  0.00     0.015 C 
HETATM    4  C10 UNL     1       0.105   0.456   0.561  1.00  0.00    -0.010 C 
HETATM    5  C11 UNL     1      -0.395   1.006   1.933  1.00  0.00     0.021 C 
HETATM    6  C12 UNL     1      -0.890  -0.644   0.168  1.00  0.00    -0.039 C 
HETATM    7  C13 UNL     1      -0.678  -1.920   0.599  1.00  0.00    -0.066 C 
HETATM    8  C14 UNL     1       0.550  -2.282   1.449  1.00  0.00     0.036 C 
HETATM    9  C15 UNL     1       1.636  -1.206   1.653  1.00  0.00     0.015 C 
HETATM   10  C16 UNL     1       1.569  -0.136   0.565  1.00  0.00    -0.028 C 
HETATM   11  C17 UNL     1       1.980  -0.785  -0.793  1.00  0.00     0.016 C 
HETATM   12  C18 UNL     1      -1.616  -3.089   0.198  1.00  0.00    -0.015 C 
HETATM   13  C19 UNL     1      -0.889  -3.819  -0.960  1.00  0.00     0.020 C 
HETATM   14  C20 UNL     1      -1.839  -4.068   1.376  1.00  0.00     0.021 C 
HETATM   15  C21 UNL     1      -2.821  -5.183   1.054  1.00  0.00     0.080 C 
HETATM   16  C22 UNL     1      -4.157  -4.641   0.615  1.00  0.00     0.135 C 
HETATM   17  O3  UNL     1      -5.196  -5.153   1.042  1.00  0.00    -0.297 OA
HETATM   18  C23 UNL     1      -4.172  -3.545  -0.465  1.00  0.00     0.018 C 
HETATM   19  C24 UNL     1      -4.109  -4.230  -1.839  1.00  0.00     0.023 C 
HETATM   20  C25 UNL     1      -5.544  -2.825  -0.376  1.00  0.00     0.023 C 
HETATM   21  C26 UNL     1      -3.029  -2.512  -0.183  1.00  0.00     0.016 C 
HETATM   22  C27 UNL     1      -2.868  -1.424  -1.263  1.00  0.00     0.043 C 
HETATM   23  C28 UNL     1      -2.072  -0.235  -0.701  1.00  0.00     0.155 C 
ENDROOT
BRANCH  23  24
HETATM   24  O4  UNL     1      -2.979   0.535   0.098  1.00  0.00    -0.349 OA
BRANCH  24  25
HETATM   25  C29 UNL     1      -3.564   1.637  -0.615  1.00  0.00     0.292 C 
HETATM   26  O5  UNL     1      -2.816   2.804  -0.273  1.00  0.00    -0.348 OA
HETATM   27  C30 UNL     1      -3.490   4.065  -0.353  1.00  0.00     0.179 C 
HETATM   28  C32 UNL     1      -4.718   4.059  -1.277  1.00  0.00     0.180 C 
HETATM   29  C33 UNL     1      -5.696   2.915  -0.967  1.00  0.00     0.183 C 
HETATM   30  C34 UNL     1      -5.042   1.757  -0.203  1.00  0.00     0.204 C 
BRANCH  27  31
HETATM   31  C31 UNL     1      -3.806   4.563   1.066  1.00  0.00     0.198 C 
BRANCH  31  32
HETATM   32  O6  UNL     1      -4.339   5.879   1.036  1.00  0.00    -0.398 OA
HETATM   33  H45 UNL     1      -4.610   6.094   1.947  1.00  0.00     0.209 HD
ENDBRANCH  31  32
ENDBRANCH  27  31
BRANCH  28  34
HETATM   34  O7  UNL     1      -4.244   3.879  -2.629  1.00  0.00    -0.390 OA
HETATM   35  H47 UNL     1      -4.923   4.259  -3.220  1.00  0.00     0.210 HD
ENDBRANCH  28  34
BRANCH  29  36
HETATM   36  O8  UNL     1      -6.816   3.406  -0.217  1.00  0.00    -0.390 OA
HETATM   37  H49 UNL     1      -7.553   2.787  -0.372  1.00  0.00     0.210 HD
ENDBRANCH  29  36
BRANCH  30  38
HETATM   38  O9  UNL     1      -5.786   0.562  -0.495  1.00  0.00    -0.388 OA
HETATM   39  H51 UNL     1      -6.412   0.420   0.240  1.00  0.00     0.210 HD
ENDBRANCH  30  38
ENDBRANCH  24  25
ENDBRANCH  23  24
BRANCH   1  40
HETATM   40  C5  UNL     1       3.980   1.022   0.686  1.00  0.00     0.089 C 
BRANCH  40  41
HETATM   41  C4  UNL     1       4.595   1.358  -0.692  1.00  0.00     0.020 C 
BRANCH  41  42
HETATM   42  C3  UNL     1       6.134   1.293  -0.768  1.00  0.00     0.034 C 
BRANCH  42  43
HETATM   43  C2  UNL     1       6.825  -0.031  -0.495  1.00  0.00    -0.086 C 
HETATM   44  C1  UNL     1       6.240  -1.232  -0.666  1.00  0.00     0.014 C 
BRANCH  43  45
HETATM   45  C35 UNL     1       8.278   0.035  -0.027  1.00  0.00     0.005 C 
HETATM   46  C36 UNL     1       9.157   0.874  -0.962  1.00  0.00     0.014 C 
HETATM   47  C37 UNL     1       8.383   0.540   1.415  1.00  0.00     0.014 C 
ENDBRANCH  43  45
ENDBRANCH  42  43
ENDBRANCH  41  42
ENDBRANCH  40  41
BRANCH  40  48
HETATM   48  C6  UNL     1       4.600   1.900   1.759  1.00  0.00     0.144 C 
HETATM   49  O1  UNL     1       5.066   1.516   2.819  1.00  0.00    -0.650 OA
BRANCH  48  50
HETATM   50  O2  UNL     1       4.549   3.217   1.474  1.00  0.00    -0.776 OA
HETATM   51  H8  UNL     1       4.951   3.648   2.259  1.00  0.00     0.167 HD
ENDBRANCH  48  50
ENDBRANCH  40  48
ENDBRANCH   1  40
TORSDOF 14
