REMARK  9 active torsions:
REMARK  status: ('A' for Active; 'I' for Inactive)
REMARK    1  A    between atoms: C2_2  and  C3_3 
REMARK    2  A    between atoms: C2_2  and  C9_12 
REMARK    3  A    between atoms: C3_3  and  C4_4 
REMARK    4  A    between atoms: C4_4  and  C5_5 
REMARK    5  A    between atoms: C5_5  and  O1_6 
REMARK    6  A    between atoms: C5_5  and  C6_7 
REMARK    7  A    between atoms: C6_7  and  O2_9 
REMARK    8  A    between atoms: C6_7  and  C8_10 
REMARK    9  A    between atoms: C8_10  and  O3_11 
ROOT
HETATM    1  C9  UNL     1       1.557   1.112   1.394  1.00  0.00    -0.002 C 
HETATM    2  C10 UNL     1       1.183   2.566   1.794  1.00  0.00     0.007 C 
HETATM    3  C11 UNL     1      -0.322   2.745   1.498  1.00  0.00     0.015 C 
HETATM    4  C12 UNL     1      -0.871   1.312   1.328  1.00  0.00    -0.005 C 
HETATM    5  C13 UNL     1      -1.116   0.755   2.766  1.00  0.00     0.021 C 
HETATM    6  C14 UNL     1      -2.188   1.043   0.607  1.00  0.00    -0.000 C 
HETATM    7  C15 UNL     1      -2.402  -0.117  -0.073  1.00  0.00    -0.060 C 
HETATM    8  C16 UNL     1      -1.281  -1.151  -0.228  1.00  0.00     0.036 C 
HETATM    9  C17 UNL     1       0.060  -0.858   0.473  1.00  0.00     0.015 C 
HETATM   10  C18 UNL     1       0.333   0.651   0.539  1.00  0.00    -0.028 C 
HETATM   11  C19 UNL     1       0.464   1.185  -0.918  1.00  0.00     0.016 C 
HETATM   12  C20 UNL     1      -3.751  -0.427  -0.779  1.00  0.00    -0.014 C 
HETATM   13  C21 UNL     1      -3.619   0.135  -2.211  1.00  0.00     0.020 C 
HETATM   14  C22 UNL     1      -4.035  -1.953  -0.857  1.00  0.00     0.021 C 
HETATM   15  C23 UNL     1      -5.430  -2.280  -1.373  1.00  0.00     0.080 C 
HETATM   16  C24 UNL     1      -6.437  -1.681  -0.432  1.00  0.00     0.135 C 
HETATM   17  O4  UNL     1      -7.260  -2.394   0.136  1.00  0.00    -0.297 OA
HETATM   18  C25 UNL     1      -6.374  -0.161  -0.230  1.00  0.00     0.018 C 
HETATM   19  C26 UNL     1      -7.265   0.193   0.990  1.00  0.00     0.023 C 
HETATM   20  C27 UNL     1      -6.997   0.527  -1.450  1.00  0.00     0.023 C 
HETATM   21  C28 UNL     1      -4.887   0.235   0.085  1.00  0.00     0.020 C 
HETATM   22  C29 UNL     1      -4.656   1.747   0.167  1.00  0.00     0.090 C 
HETATM   23  C30 UNL     1      -3.283   2.071   0.708  1.00  0.00     0.157 C 
HETATM   24  O5  UNL     1      -3.076   3.176   1.203  1.00  0.00    -0.293 OA
ENDROOT
BRANCH   1  25
HETATM   25  C2  UNL     1       3.042   0.957   0.932  1.00  0.00    -0.014 C 
HETATM   26  C1  UNL     1       3.477   1.803  -0.267  1.00  0.00     0.010 C 
BRANCH  25  27
HETATM   27  C3  UNL     1       3.413  -0.532   0.736  1.00  0.00     0.007 C 
BRANCH  27  28
HETATM   28  C4  UNL     1       4.925  -0.841   0.654  1.00  0.00     0.035 C 
BRANCH  28  29
HETATM   29  C5  UNL     1       5.483  -0.931  -0.775  1.00  0.00     0.154 C 
BRANCH  29  30
HETATM   30  O1  UNL     1       4.654  -1.818  -1.544  1.00  0.00    -0.392 OA
HETATM   31  H10 UNL     1       5.149  -1.946  -2.381  1.00  0.00     0.210 HD
ENDBRANCH  29  30
BRANCH  29  32
HETATM   32  C6  UNL     1       6.952  -1.427  -0.891  1.00  0.00     0.101 C 
HETATM   33  C7  UNL     1       7.158  -2.850  -0.341  1.00  0.00     0.051 C 
BRANCH  32  34
HETATM   34  O2  UNL     1       7.230  -1.499  -2.310  1.00  0.00    -0.385 OA
HETATM   35  H14 UNL     1       8.185  -1.718  -2.388  1.00  0.00     0.210 HD
ENDBRANCH  32  34
BRANCH  32  36
HETATM   36  C8  UNL     1       7.947  -0.430  -0.267  1.00  0.00     0.204 C 
BRANCH  36  37
HETATM   37  O3  UNL     1       9.290  -0.880  -0.477  1.00  0.00    -0.398 OA
HETATM   38  H17 UNL     1       9.584  -1.326   0.342  1.00  0.00     0.209 HD
ENDBRANCH  36  37
ENDBRANCH  32  36
ENDBRANCH  29  32
ENDBRANCH  28  29
ENDBRANCH  27  28
ENDBRANCH  25  27
ENDBRANCH   1  25
TORSDOF 9
