REMARK  4 active torsions:
REMARK  status: ('A' for Active; 'I' for Inactive)
REMARK    1  A    between atoms: C2_2  and  C3_3 
REMARK    2  A    between atoms: C7_7  and  C8_8 
REMARK    3  A    between atoms: C8_8  and  C9_9 
REMARK    4  A    between atoms: C26_31  and  O5_32 
ROOT
HETATM    1  C3  UNL     1       0.482  -4.152   0.472  1.00  0.00     0.008 C 
HETATM    2  C4  UNL     1      -0.596  -3.262   1.054  1.00  0.00    -0.026 C 
HETATM    3  C5  UNL     1      -1.512  -2.651   0.282  1.00  0.00    -0.028 C 
HETATM    4  C6  UNL     1      -2.616  -1.764   0.786  1.00  0.00     0.059 C 
HETATM    5  C7  UNL     1      -2.822  -0.413   0.044  1.00  0.00     0.135 C 
HETATM    6  O1  UNL     1      -1.798   0.560   0.337  1.00  0.00    -0.315 OA
HETATM    7  C12 UNL     1      -1.856   1.133   1.574  1.00  0.00     0.276 C 
HETATM    8  O2  UNL     1      -2.617   0.759   2.465  1.00  0.00    -0.264 OA
HETATM    9  C13 UNL     1      -1.015   2.446   1.674  1.00  0.00     0.095 C 
HETATM   10  C14 UNL     1      -0.538   2.605   3.137  1.00  0.00     0.036 C 
HETATM   11  C15 UNL     1      -2.088   3.504   1.462  1.00  0.00     0.003 C 
HETATM   12  C16 UNL     1      -2.055   4.717   0.908  1.00  0.00     0.072 C 
HETATM   13  C17 UNL     1      -0.923   5.448   0.339  1.00  0.00     0.245 C 
HETATM   14  O3  UNL     1      -1.059   6.648   0.105  1.00  0.00    -0.268 OA
HETATM   15  N1  UNL     1       0.233   4.833   0.026  1.00  0.00    -0.320 N 
HETATM   16  C18 UNL     1       0.728   3.555   0.108  1.00  0.00     0.098 C 
HETATM   17  C19 UNL     1       0.212   2.496   0.757  1.00  0.00     0.045 C 
HETATM   18  C20 UNL     1       1.004   1.214   0.728  1.00  0.00     0.194 C 
HETATM   19  O4  UNL     1       0.791   0.342   1.560  1.00  0.00    -0.287 OA
HETATM   20  C21 UNL     1       2.121   1.041  -0.216  1.00  0.00     0.046 A 
HETATM   21  C22 UNL     1       2.704   2.172  -0.760  1.00  0.00     0.032 A 
HETATM   22  C23 UNL     1       3.892   2.087  -1.506  1.00  0.00     0.026 A 
HETATM   23  C24 UNL     1       4.514   0.852  -1.732  1.00  0.00    -0.027 A 
HETATM   24  C25 UNL     1       5.794   0.804  -2.516  1.00  0.00     0.051 C 
HETATM   25  C26 UNL     1       3.881  -0.299  -1.253  1.00  0.00     0.086 A 
HETATM   26  C27 UNL     1       2.693  -0.205  -0.506  1.00  0.00     0.059 A 
HETATM   27  C28 UNL     1       1.940  -1.451  -0.291  1.00  0.00     0.163 C 
HETATM   28  O6  UNL     1       1.134  -1.742  -1.170  1.00  0.00    -0.292 OA
HETATM   29  C29 UNL     1       2.234  -2.255   0.961  1.00  0.00     0.084 C 
HETATM   30  C30 UNL     1       1.922  -3.751   0.871  1.00  0.00     0.016 C 
HETATM   31  C31 UNL     1       2.063   3.474  -0.582  1.00  0.00     0.210 C 
HETATM   32  O7  UNL     1       2.597   4.493  -1.014  1.00  0.00    -0.285 OA
HETATM   33  H26 UNL     1       0.869   5.490  -0.433  1.00  0.00     0.169 HD
ENDROOT
BRANCH   5  34
HETATM   34  C8  UNL     1      -2.907  -0.582  -1.487  1.00  0.00     0.037 C 
BRANCH  34  35
HETATM   35  C9  UNL     1      -3.390   0.638  -2.305  1.00  0.00    -0.020 C 
HETATM   36  C10 UNL     1      -4.769   1.133  -1.871  1.00  0.00     0.009 C 
HETATM   37  C11 UNL     1      -2.389   1.793  -2.325  1.00  0.00     0.009 C 
ENDBRANCH  34  35
ENDBRANCH   5  34
BRANCH   1  38
HETATM   38  C2  UNL     1       0.203  -5.645   0.761  1.00  0.00     0.004 C 
HETATM   39  C1  UNL     1       0.109  -6.033   2.232  1.00  0.00     0.006 C 
ENDBRANCH   1  38
BRANCH  25  40
HETATM   40  O5  UNL     1       4.398  -1.542  -1.496  1.00  0.00    -0.359 OA
HETATM   41  H31 UNL     1       4.970  -1.516  -2.282  1.00  0.00     0.217 HD
ENDBRANCH  25  40
TORSDOF 4
