REMARK  8 active torsions:
REMARK  status: ('A' for Active; 'I' for Inactive)
REMARK    1  A    between atoms: O1_2  and  C2_3 
REMARK    2  A    between atoms: C2_3  and  C5_6 
REMARK    3  A    between atoms: C6_7  and  C7_8 
REMARK    4  A    between atoms: C7_8  and  C8_9 
REMARK    5  A    between atoms: C8_9  and  C10_11 
REMARK    6  A    between atoms: C16_17  and  O2_18 
REMARK    7  A    between atoms: C19_21  and  C21_23 
REMARK    8  A    between atoms: C21_23  and  O3_24 
ROOT
HETATM    1  C10 UNL     1       1.745   1.058  -0.546  1.00  0.00    -0.002 C 
HETATM    2  C11 UNL     1       1.001   1.122  -1.867  1.00  0.00     0.006 C 
HETATM    3  C12 UNL     1       0.311  -0.232  -1.952  1.00  0.00     0.011 C 
HETATM    4  C13 UNL     1       0.055  -0.746  -0.485  1.00  0.00    -0.030 C 
HETATM    5  C14 UNL     1       0.715  -2.145  -0.407  1.00  0.00     0.016 C 
HETATM    6  C15 UNL     1      -1.493  -0.895  -0.262  1.00  0.00     0.032 C 
HETATM    7  C16 UNL     1      -1.997  -1.767   0.922  1.00  0.00     0.124 C 
HETATM    8  C17 UNL     1      -3.482  -1.559   1.283  1.00  0.00     0.038 C 
HETATM    9  C18 UNL     1      -4.343  -0.973   0.146  1.00  0.00     0.015 C 
HETATM   10  C19 UNL     1      -5.873  -0.971   0.493  1.00  0.00     0.042 C 
HETATM   11  C20 UNL     1      -6.207  -0.721   1.982  1.00  0.00     0.026 C 
HETATM   12  C22 UNL     1      -6.595   0.117  -0.302  1.00  0.00     0.137 C 
HETATM   13  O4  UNL     1      -7.684  -0.093  -0.851  1.00  0.00    -0.297 OA
HETATM   14  C23 UNL     1      -5.999   1.507  -0.340  1.00  0.00     0.080 C 
HETATM   15  C24 UNL     1      -4.603   1.582   0.260  1.00  0.00     0.018 C 
HETATM   16  C25 UNL     1      -3.777   0.412  -0.212  1.00  0.00    -0.026 A 
HETATM   17  C26 UNL     1      -3.104   0.645  -1.540  1.00  0.00     0.021 A 
HETATM   18  C27 UNL     1      -2.237   0.448  -0.309  1.00  0.00    -0.025 A 
HETATM   19  C28 UNL     1      -1.505   1.637   0.274  1.00  0.00     0.011 C 
HETATM   20  C29 UNL     1      -0.289   1.263   1.111  1.00  0.00     0.011 C 
HETATM   21  C30 UNL     1       0.757   0.336   0.439  1.00  0.00    -0.032 C 
HETATM   22  C31 UNL     1       1.622  -0.259   1.583  1.00  0.00     0.016 C 
ENDROOT
BRANCH   1  23
HETATM   23  C8  UNL     1       2.401   2.386  -0.062  1.00  0.00    -0.010 C 
HETATM   24  C9  UNL     1       1.659   3.665  -0.472  1.00  0.00     0.010 C 
BRANCH  23  25
HETATM   25  C7  UNL     1       3.865   2.520  -0.556  1.00  0.00     0.031 C 
BRANCH  25  26
HETATM   26  C6  UNL     1       4.783   1.479   0.021  1.00  0.00    -0.027 C 
HETATM   27  C5  UNL     1       5.525   0.636  -0.722  1.00  0.00     0.006 C 
BRANCH  27  28
HETATM   28  C2  UNL     1       6.444  -0.459  -0.211  1.00  0.00     0.070 C 
HETATM   29  C3  UNL     1       5.883  -1.804  -0.697  1.00  0.00     0.050 C 
HETATM   30  C4  UNL     1       7.842  -0.210  -0.795  1.00  0.00     0.050 C 
BRANCH  28  31
HETATM   31  O1  UNL     1       6.459  -0.397   1.221  1.00  0.00    -0.382 OA
HETATM   32  C1  UNL     1       7.312  -1.301   1.902  1.00  0.00     0.202 C 
ENDBRANCH  28  31
ENDBRANCH  27  28
ENDBRANCH  25  26
ENDBRANCH  23  25
ENDBRANCH   1  23
BRANCH   7  33
HETATM   33  O2  UNL     1      -1.237  -1.578   2.112  1.00  0.00    -0.395 OA
HETATM   34  H28 UNL     1      -1.527  -2.245   2.758  1.00  0.00     0.210 HD
ENDBRANCH   7  33
BRANCH  10  35
HETATM   35  C21 UNL     1      -6.498  -2.344   0.139  1.00  0.00     0.181 C 
BRANCH  35  36
HETATM   36  O3  UNL     1      -6.240  -2.721  -1.206  1.00  0.00    -0.400 OA
HETATM   37  H37 UNL     1      -7.029  -2.464  -1.727  1.00  0.00     0.209 HD
ENDBRANCH  35  36
ENDBRANCH  10  35
TORSDOF 8
