REMARK  9 active torsions:
REMARK  status: ('A' for Active; 'I' for Inactive)
REMARK    1  A    between atoms: C13_13  and  S1_14 
REMARK    2  A    between atoms: C25_30  and  O5_31 
REMARK    3  A    between atoms: C31_37  and  C32_38 
REMARK    4  A    between atoms: C32_38  and  O6_39 
REMARK    5  A    between atoms: C40_47  and  C41_48 
REMARK    6  A    between atoms: C40_47  and  N1_57 
REMARK    7  A    between atoms: C41_48  and  C42_49 
REMARK    8  A    between atoms: C42_49  and  C43_50 
REMARK    9  A    between atoms: C43_50  and  O7_51 
REMARK       I    between atoms: C49_59  and  N2_60 
REMARK       I    between atoms: C49_59  and  N3_61 
ROOT
HETATM    1  C1  UNL     1       0.439  -5.935  -0.415  1.00  0.00     0.010 C 
HETATM    2  C2  UNL     1       0.511  -4.755  -1.395  1.00  0.00    -0.010 C 
HETATM    3  C3  UNL     1      -0.583  -4.935  -2.502  1.00  0.00     0.009 C 
HETATM    4  C4  UNL     1      -1.597  -3.782  -2.638  1.00  0.00     0.039 C 
HETATM    5  C5  UNL     1      -2.034  -3.272  -1.290  1.00  0.00    -0.049 C 
HETATM    6  C6  UNL     1      -3.261  -2.650  -1.069  1.00  0.00     0.044 C 
HETATM    7  C7  UNL     1      -3.495  -2.073   0.184  1.00  0.00     0.072 C 
HETATM    8  C8  UNL     1      -2.714  -2.412   1.283  1.00  0.00     0.037 C 
HETATM    9  C9  UNL     1      -1.479  -3.001   1.054  1.00  0.00     0.011 C 
HETATM   10  C10 UNL     1      -1.078  -3.254  -0.263  1.00  0.00    -0.047 C 
HETATM   11  C11 UNL     1       0.376  -3.381  -0.717  1.00  0.00     0.024 C 
HETATM   12  C12 UNL     1       1.376  -2.896   0.352  1.00  0.00     0.033 C 
HETATM   13  C13 UNL     1       2.766  -2.353  -0.065  1.00  0.00     0.139 C 
HETATM   14  C14 UNL     1       2.904  -1.303  -1.249  1.00  0.00     0.038 C 
HETATM   15  C15 UNL     1       4.335  -0.714  -1.264  1.00  0.00    -0.014 C 
HETATM   16  C16 UNL     1       4.679   0.472  -1.809  1.00  0.00    -0.050 C 
HETATM   17  C17 UNL     1       3.663   1.208  -2.608  1.00  0.00     0.042 C 
HETATM   18  C18 UNL     1       2.515   1.340  -1.623  1.00  0.00     0.001 C 
HETATM   19  C19 UNL     1       3.023   1.938  -0.267  1.00  0.00     0.038 C 
HETATM   20  C20 UNL     1       4.196   2.961  -0.393  1.00  0.00     0.130 C 
HETATM   21  O4  UNL     1       5.529   2.494  -0.707  1.00  0.00    -0.371 OA
HETATM   22  C21 UNL     1       5.880   1.300  -1.433  1.00  0.00     0.185 C 
HETATM   23  C22 UNL     1       7.007   0.521  -0.736  1.00  0.00    -0.006 A 
HETATM   24  C23 UNL     1       7.855  -0.262  -1.550  1.00  0.00     0.014 A 
HETATM   25  C24 UNL     1       8.829  -1.091  -0.993  1.00  0.00     0.037 A 
HETATM   26  C25 UNL     1       8.967  -1.157   0.387  1.00  0.00     0.067 A 
HETATM   27  C26 UNL     1       8.159  -0.391   1.219  1.00  0.00     0.057 A 
HETATM   28  C27 UNL     1       7.186   0.445   0.667  1.00  0.00     0.029 A 
HETATM   29  C28 UNL     1       6.369   1.209   1.559  1.00  0.00    -0.066 C 
HETATM   30  C29 UNL     1       5.587   1.984   2.038  1.00  0.00    -0.101 C 
HETATM   31  C30 UNL     1       4.543   2.997   2.213  1.00  0.00     0.103 C 
HETATM   32  C31 UNL     1       4.358   3.827   0.911  1.00  0.00     0.049 C 
HETATM   33  C33 UNL     1       1.859  -0.093  -1.499  1.00  0.00     0.030 C 
HETATM   34  C34 UNL     1       0.456   0.059  -0.930  1.00  0.00    -0.057 A 
HETATM   35  C35 UNL     1       0.169   0.324   0.410  1.00  0.00     0.005 A 
HETATM   36  C36 UNL     1      -1.164   0.467   0.856  1.00  0.00     0.010 A 
HETATM   37  C37 UNL     1      -2.253   0.363  -0.032  1.00  0.00    -0.007 A 
HETATM   38  C38 UNL     1      -1.943   0.221  -1.395  1.00  0.00     0.096 A 
HETATM   39  C39 UNL     1      -0.625   0.062  -1.830  1.00  0.00     0.092 A 
HETATM   40  C40 UNL     1      -3.772   0.324   0.387  1.00  0.00     0.168 C 
HETATM   41  O8  UNL     1      -4.380  -1.029   0.252  1.00  0.00    -0.316 OA
HETATM   42 NA1  UNL     1       0.000   0.000   0.000  1.00  0.00    -0.355 Na
ATOM     43 1HA1 UNL     1       0.604   0.341   0.748  1.00  0.00     0.103 HD
ATOM     44 2HA1 UNL     1       0.509  -0.463   0.753  1.00  0.00     0.103 HD
ENDROOT
BRANCH  40  45
HETATM   45  C41 UNL     1      -4.039   0.733   1.876  1.00  0.00     0.070 C 
BRANCH  45  46
HETATM   46  C42 UNL     1      -5.373   0.317   2.537  1.00  0.00     0.043 C 
BRANCH  46  47
HETATM   47  C43 UNL     1      -6.715   1.016   2.205  1.00  0.00     0.058 C 
HETATM   48  C44 UNL     1      -7.331   0.615   0.860  1.00  0.00     0.038 C 
HETATM   49  C45 UNL     1      -8.720   1.228   0.646  1.00  0.00     0.003 C 
HETATM   50  C46 UNL     1      -8.809   2.702   1.030  1.00  0.00     0.000 C 
HETATM   51  C47 UNL     1      -7.460   3.330   1.354  1.00  0.00     0.003 C 
HETATM   52  C48 UNL     1      -6.680   2.543   2.408  1.00  0.00     0.038 C 
BRANCH  47  53
HETATM   53  O7  UNL     1      -7.648   0.520   3.208  1.00  0.00    -0.390 OA
HETATM   54  H44 UNL     1      -7.699  -0.446   3.100  1.00  0.00     0.210 HD
ENDBRANCH  47  53
ENDBRANCH  46  47
ENDBRANCH  45  46
ENDBRANCH  40  45
BRANCH  40  55
HETATM   55  N1  UNL     1      -4.505   1.290  -0.465  1.00  0.00    -0.336 N 
HETATM   56  C49 UNL     1      -4.193   2.509  -0.648  1.00  0.00     0.124 C 
HETATM   57  N2  UNL     1      -4.955   3.260  -1.475  1.00  0.00    -0.279 NA
HETATM   58  N3  UNL     1      -3.193   3.276  -0.162  1.00  0.00    -0.279 NA
HETATM   59  H55 UNL     1      -5.783   2.733  -1.749  1.00  0.00     0.126 HD
HETATM   60  H56 UNL     1      -5.225   4.139  -1.053  1.00  0.00     0.126 HD
HETATM   61  H57 UNL     1      -2.861   3.917  -0.873  1.00  0.00     0.126 HD
HETATM   62  H58 UNL     1      -2.403   2.744   0.180  1.00  0.00     0.126 HD
ATOM     63  H1  UNL     1      -5.335   0.946  -0.948  1.00  0.00     0.165 HD
ENDBRANCH  40  55
BRANCH  13  64
HETATM   64  S1  UNL     1       3.922  -3.797  -0.302  1.00  0.00     0.106 S 
HETATM   65  O1  UNL     1       5.230  -3.301   0.117  1.00  0.00    -0.595 OA
HETATM   66  O2  UNL     1       3.419  -4.838   0.593  1.00  0.00    -0.595 OA
HETATM   67  O3  UNL     1       3.810  -4.119  -1.724  1.00  0.00    -0.595 OA
ENDBRANCH  13  64
BRANCH  32  68
HETATM   68  C32 UNL     1       3.189   4.804   1.083  1.00  0.00     0.172 C 
BRANCH  68  69
HETATM   69  O6  UNL     1       3.511   5.765   2.083  1.00  0.00    -0.400 OA
HETATM   70  H34 UNL     1       2.739   6.349   2.179  1.00  0.00     0.209 HD
ENDBRANCH  68  69
ENDBRANCH  32  68
BRANCH  26  71
HETATM   71  O5  UNL     1       9.900  -2.011   0.899  1.00  0.00    -0.361 OA
HETATM   72  H27 UNL     1       9.618  -2.226   1.808  1.00  0.00     0.217 HD
ENDBRANCH  26  71
TORSDOF 9
