REMARK  5 active torsions:
REMARK  status: ('A' for Active; 'I' for Inactive)
REMARK    1  A    between atoms: C2_2  and  C3_3 
REMARK    2  A    between atoms: C6_6  and  C7_7 
REMARK    3  A    between atoms: C7_7  and  O1_8 
REMARK    4  A    between atoms: C7_7  and  C8_9 
REMARK    5  A    between atoms: C26_32  and  O6_33 
ROOT
HETATM    1  C3  UNL     1      -1.601   2.754   0.054  1.00  0.00     0.008 C 
HETATM    2  C4  UNL     1      -1.884   1.885  -1.150  1.00  0.00    -0.023 C 
HETATM    3  C5  UNL     1      -2.136   0.565  -1.149  1.00  0.00     0.005 C 
HETATM    4  C6  UNL     1      -2.157  -0.380   0.031  1.00  0.00     0.187 C 
HETATM    5  O2  UNL     1      -1.118  -1.337  -0.278  1.00  0.00    -0.308 OA
HETATM    6  C12 UNL     1      -0.623  -2.068   0.763  1.00  0.00     0.276 C 
HETATM    7  O3  UNL     1      -1.031  -1.966   1.917  1.00  0.00    -0.264 OA
HETATM    8  C13 UNL     1       0.510  -3.036   0.269  1.00  0.00     0.095 C 
HETATM    9  C14 UNL     1       0.019  -3.586  -1.104  1.00  0.00     0.036 C 
HETATM   10  C15 UNL     1       0.575  -4.198   1.247  1.00  0.00     0.003 C 
HETATM   11  C16 UNL     1       1.419  -5.238   1.193  1.00  0.00     0.072 C 
HETATM   12  C17 UNL     1       2.463  -5.471   0.175  1.00  0.00     0.245 C 
HETATM   13  O4  UNL     1       2.815  -6.624  -0.057  1.00  0.00    -0.268 OA
HETATM   14  N1  UNL     1       3.091  -4.426  -0.431  1.00  0.00    -0.320 N 
HETATM   15  C18 UNL     1       2.983  -3.058  -0.290  1.00  0.00     0.098 C 
HETATM   16  C19 UNL     1       1.891  -2.381   0.113  1.00  0.00     0.045 C 
HETATM   17  C20 UNL     1       2.050  -0.922   0.411  1.00  0.00     0.194 C 
HETATM   18  O5  UNL     1       1.252  -0.340   1.130  1.00  0.00    -0.287 OA
HETATM   19  C21 UNL     1       3.214  -0.168  -0.104  1.00  0.00     0.046 A 
HETATM   20  C22 UNL     1       4.289  -0.887  -0.619  1.00  0.00     0.032 A 
HETATM   21  C23 UNL     1       5.457  -0.238  -1.052  1.00  0.00     0.026 A 
HETATM   22  C24 UNL     1       5.584   1.149  -0.945  1.00  0.00    -0.027 A 
HETATM   23  C25 UNL     1       6.858   1.827  -1.361  1.00  0.00     0.051 C 
HETATM   24  C26 UNL     1       4.526   1.869  -0.388  1.00  0.00     0.086 A 
HETATM   25  C27 UNL     1       3.326   1.233  -0.009  1.00  0.00     0.059 A 
HETATM   26  C28 UNL     1       2.254   2.136   0.478  1.00  0.00     0.163 C 
HETATM   27  O7  UNL     1       2.567   2.957   1.341  1.00  0.00    -0.292 OA
HETATM   28  C29 UNL     1       0.932   2.185  -0.264  1.00  0.00     0.084 C 
HETATM   29  C30 UNL     1      -0.212   2.534   0.694  1.00  0.00     0.016 C 
HETATM   30  C31 UNL     1       4.238  -2.351  -0.692  1.00  0.00     0.210 C 
HETATM   31  O8  UNL     1       5.200  -2.994  -1.104  1.00  0.00    -0.285 OA
HETATM   32  H24 UNL     1       3.935  -4.736  -0.916  1.00  0.00     0.169 HD
ENDROOT
BRANCH   4  33
HETATM   33  C7  UNL     1      -3.548  -1.084   0.174  1.00  0.00     0.174 C 
BRANCH  33  34
HETATM   34  O1  UNL     1      -3.586  -2.041   1.238  1.00  0.00    -0.389 OA
HETATM   35  H11 UNL     1      -2.866  -1.833   1.869  1.00  0.00     0.210 HD
ENDBRANCH  33  34
BRANCH  33  36
HETATM   36  C8  UNL     1      -4.652  -0.102   0.468  1.00  0.00     0.009 C 
HETATM   37  C9  UNL     1      -5.776   0.140  -0.236  1.00  0.00    -0.089 C 
HETATM   38  C10 UNL     1      -6.748   1.198   0.220  1.00  0.00     0.042 C 
HETATM   39  C11 UNL     1      -6.196  -0.581  -1.489  1.00  0.00     0.042 C 
ENDBRANCH  33  36
ENDBRANCH   4  33
BRANCH   1  40
HETATM   40  C2  UNL     1      -1.896   4.245  -0.238  1.00  0.00     0.004 C 
HETATM   41  C1  UNL     1      -0.913   4.953  -1.160  1.00  0.00     0.006 C 
ENDBRANCH   1  40
BRANCH  24  42
HETATM   42  O6  UNL     1       4.713   3.219  -0.219  1.00  0.00    -0.359 OA
HETATM   43  H29 UNL     1       4.089   3.539   0.473  1.00  0.00     0.217 HD
ENDBRANCH  24  42
TORSDOF 5
