REMARK  7 active torsions:
REMARK  status: ('A' for Active; 'I' for Inactive)
REMARK    1  A    between atoms: C5_5  and  C6_6 
REMARK    2  A    between atoms: C8_8  and  O1_9 
REMARK    3  A    between atoms: C10_11  and  C11_12 
REMARK    4  A    between atoms: C11_12  and  O2_13 
REMARK    5  A    between atoms: C20_24  and  O5_25 
REMARK    6  A    between atoms: C25_30  and  C26_31 
REMARK    7  A    between atoms: C26_31  and  O6_32 
ROOT
HETATM    1  C1  UNL     1       0.948  -3.291  -1.146  1.00  0.00     0.036 C 
HETATM    2  C2  UNL     1       1.362  -2.521   0.068  1.00  0.00    -0.018 C 
HETATM    3  C3  UNL     1       1.067  -1.239   0.380  1.00  0.00     0.015 C 
HETATM    4  C4  UNL     1       1.532  -0.618   1.679  1.00  0.00     0.066 C 
HETATM    5  C5  UNL     1       2.918   0.088   1.677  1.00  0.00     0.102 C 
HETATM    6  C13 UNL     1       2.827   1.475   1.175  1.00  0.00    -0.096 C 
HETATM    7  C14 UNL     1       2.668   2.618   0.835  1.00  0.00    -0.096 C 
HETATM    8  C15 UNL     1       2.310   3.996   0.429  1.00  0.00     0.110 C 
HETATM    9  C16 UNL     1       3.318   4.512  -0.584  1.00  0.00     0.133 C 
HETATM   10  C17 UNL     1       2.895   5.849  -1.116  1.00  0.00     0.265 C 
HETATM   11  O3  UNL     1       3.671   6.794  -1.221  1.00  0.00    -0.265 OA
HETATM   12  O4  UNL     1       1.586   5.924  -1.571  1.00  0.00    -0.278 OA
HETATM   13  C18 UNL     1       0.635   4.974  -1.164  1.00  0.00     0.089 A 
HETATM   14  C19 UNL     1      -0.615   5.019  -1.775  1.00  0.00     0.075 A 
HETATM   15  C20 UNL     1      -1.597   4.113  -1.383  1.00  0.00     0.074 A 
HETATM   16  C21 UNL     1      -1.354   3.178  -0.372  1.00  0.00    -0.022 A 
HETATM   17  C22 UNL     1      -0.103   3.198   0.263  1.00  0.00     0.021 A 
HETATM   18  C23 UNL     1       0.922   4.052  -0.163  1.00  0.00    -0.007 A 
HETATM   19  C24 UNL     1      -2.297   2.040  -0.032  1.00  0.00     0.077 C 
HETATM   20  C25 UNL     1      -1.829   0.736  -0.719  1.00  0.00     0.171 C 
HETATM   21  O8  UNL     1      -0.794   0.141   0.112  1.00  0.00    -0.309 OA
HETATM   22  C36 UNL     1       0.231  -0.449  -0.559  1.00  0.00     0.289 C 
HETATM   23  O9  UNL     1       0.398  -0.419  -1.768  1.00  0.00    -0.260 OA
ENDROOT
BRANCH  20  24
HETATM   24  C26 UNL     1      -2.971  -0.316  -0.973  1.00  0.00     0.089 C 
HETATM   25  C27 UNL     1      -3.969   0.227  -2.018  1.00  0.00     0.041 C 
HETATM   26  C28 UNL     1      -4.995  -0.823  -2.453  1.00  0.00     0.004 C 
HETATM   27  C29 UNL     1      -5.411  -1.768  -1.325  1.00  0.00     0.005 C 
HETATM   28  C30 UNL     1      -5.219  -1.147   0.063  1.00  0.00    -0.001 C 
HETATM   29  C31 UNL     1      -5.806  -2.074   1.138  1.00  0.00     0.083 C 
HETATM   30  C35 UNL     1      -3.728  -0.748   0.327  1.00  0.00     0.027 C 
HETATM   31  C32 UNL     1      -5.135  -1.836   2.466  1.00  0.00     0.127 C 
HETATM   32  O7  UNL     1      -5.771  -1.537   3.475  1.00  0.00    -0.298 OA
HETATM   33  C33 UNL     1      -3.640  -2.043   2.510  1.00  0.00     0.079 C 
HETATM   34  C34 UNL     1      -3.021  -1.867   1.124  1.00  0.00     0.015 C 
BRANCH  24  35
HETATM   35  O6  UNL     1      -2.384  -1.496  -1.552  1.00  0.00    -0.387 OA
HETATM   36  H24 UNL     1      -1.738  -1.220  -2.234  1.00  0.00     0.210 HD
ENDBRANCH  24  35
ENDBRANCH  20  24
BRANCH  15  37
HETATM   37  O5  UNL     1      -2.785   4.175  -2.050  1.00  0.00    -0.360 OA
HETATM   38  H19 UNL     1      -3.504   4.030  -1.415  1.00  0.00     0.217 HD
ENDBRANCH  15  37
BRANCH   5  39
HETATM   39  C6  UNL     1       4.023  -0.742   1.043  1.00  0.00    -0.039 A 
HETATM   40  C7  UNL     1       4.400  -0.588  -0.300  1.00  0.00     0.045 A 
HETATM   41  C8  UNL     1       5.381  -1.407  -0.852  1.00  0.00     0.066 A 
HETATM   42  C9  UNL     1       5.994  -2.402  -0.100  1.00  0.00     0.045 A 
HETATM   43  C10 UNL     1       5.617  -2.592   1.236  1.00  0.00    -0.032 A 
HETATM   44  C12 UNL     1       4.650  -1.746   1.802  1.00  0.00     0.018 A 
BRANCH  41  45
HETATM   45  O1  UNL     1       5.718  -1.196  -2.156  1.00  0.00    -0.361 OA
HETATM   46  H9  UNL     1       6.400  -1.834  -2.419  1.00  0.00     0.217 HD
ENDBRANCH  41  45
BRANCH  43  47
HETATM   47  C11 UNL     1       6.275  -3.654   2.076  1.00  0.00     0.203 C 
BRANCH  47  48
HETATM   48  O2  UNL     1       7.363  -3.113   2.809  1.00  0.00    -0.396 OA
HETATM   49  H13 UNL     1       7.457  -2.174   2.567  1.00  0.00     0.209 HD
ENDBRANCH  47  48
ENDBRANCH  43  47
ENDBRANCH   5  39
TORSDOF 7
