REMARK  15 active torsions:
REMARK  status: ('A' for Active; 'I' for Inactive)
REMARK    1  A    between atoms: C2_2  and  C4_4 
REMARK    2  A    between atoms: C4_4  and  C5_5 
REMARK    3  A    between atoms: C4_4  and  C28_40 
REMARK    4  A    between atoms: C6_6  and  C7_7 
REMARK    5  A    between atoms: C7_7  and  C8_8 
REMARK    6  A    between atoms: C7_7  and  C9_14 
REMARK    7  A    between atoms: C8_8  and  O1_9 
REMARK    8  A    between atoms: O1_9  and  S1_10 
REMARK    9  A    between atoms: S1_10  and  O4_13 
REMARK   10  A    between atoms: C17_22  and  O5_23 
REMARK   11  A    between atoms: C18_24  and  O6_25 
REMARK   12  A    between atoms: O6_25  and  S2_26 
REMARK   13  A    between atoms: S2_26  and  O9_29 
REMARK   14  A    between atoms: C19_30  and  O10_31 
REMARK   15  A    between atoms: C28_40  and  O11_41 
ROOT
HETATM    1  C9  UNL     1      -2.121   1.278  -1.409  1.00  0.00     0.004 C 
HETATM    2  C10 UNL     1      -1.745   2.487  -2.307  1.00  0.00     0.006 C 
HETATM    3  C11 UNL     1      -0.206   2.511  -2.365  1.00  0.00     0.006 C 
HETATM    4  C12 UNL     1       0.220   1.249  -1.615  1.00  0.00    -0.002 C 
HETATM    5  C13 UNL     1       1.664   1.153  -1.103  1.00  0.00    -0.005 C 
HETATM    6  C14 UNL     1       2.673   1.325  -2.254  1.00  0.00     0.006 C 
HETATM    7  C15 UNL     1       3.792   0.293  -2.252  1.00  0.00     0.008 C 
HETATM    8  C16 UNL     1       4.401   0.092  -0.856  1.00  0.00     0.026 C 
HETATM    9  C17 UNL     1       5.625  -0.854  -0.946  1.00  0.00     0.156 C 
HETATM   10  C18 UNL     1       6.080  -1.290   0.445  1.00  0.00     0.202 C 
HETATM   11  C19 UNL     1       5.000  -2.129   1.139  1.00  0.00     0.151 C 
HETATM   12  C20 UNL     1       3.567  -1.789   0.706  1.00  0.00     0.044 C 
HETATM   13  C21 UNL     1       3.331  -0.325   0.232  1.00  0.00    -0.032 C 
HETATM   14  C22 UNL     1       3.500   0.609   1.463  1.00  0.00     0.016 C 
HETATM   15  C23 UNL     1       1.865  -0.198  -0.353  1.00  0.00    -0.001 C 
HETATM   16  C24 UNL     1       0.738  -0.479   0.677  1.00  0.00     0.006 C 
HETATM   17  C25 UNL     1      -0.680  -0.290   0.112  1.00  0.00     0.010 C 
HETATM   18  C26 UNL     1      -0.860   1.099  -0.512  1.00  0.00    -0.036 C 
HETATM   19  C27 UNL     1      -0.745   2.182   0.588  1.00  0.00     0.016 C 
ENDROOT
BRANCH   1  20
HETATM   20  C7  UNL     1      -3.569   1.286  -0.840  1.00  0.00     0.038 C 
BRANCH  20  21
HETATM   21  C6  UNL     1      -3.989  -0.138  -0.492  1.00  0.00    -0.023 C 
HETATM   22  C5  UNL     1      -4.417  -0.614   0.690  1.00  0.00    -0.023 C 
BRANCH  22  23
HETATM   23  C4  UNL     1      -4.841  -2.056   0.909  1.00  0.00     0.035 C 
BRANCH  23  24
HETATM   24  C2  UNL     1      -6.355  -2.137   1.271  1.00  0.00    -0.013 C 
HETATM   25  C1  UNL     1      -7.235  -1.563   0.149  1.00  0.00     0.010 C 
HETATM   26  C3  UNL     1      -6.819  -3.568   1.568  1.00  0.00     0.010 C 
ENDBRANCH  23  24
BRANCH  23  27
HETATM   27  C28 UNL     1      -3.926  -2.683   1.982  1.00  0.00     0.173 C 
BRANCH  27  28
HETATM   28  O11 UNL     1      -3.861  -4.100   1.842  1.00  0.00    -0.400 OA
HETATM   29  H48 UNL     1      -3.466  -4.288   0.974  1.00  0.00     0.209 HD
ENDBRANCH  27  28
ENDBRANCH  23  27
ENDBRANCH  22  23
ENDBRANCH  20  21
BRANCH  20  30
HETATM   30  C8  UNL     1      -3.934   2.314   0.246  1.00  0.00     0.201 C 
BRANCH  30  31
HETATM   31  O1  UNL     1      -3.648   3.637  -0.169  1.00  0.00    -0.263 OA
BRANCH  31  32
HETATM   32  S1  UNL     1      -4.043   4.837   0.847  1.00  0.00     0.240 S 
HETATM   33  O2  UNL     1      -5.461   5.078   0.710  1.00  0.00    -0.579 OA
HETATM   34  O3  UNL     1      -3.420   4.594   2.127  1.00  0.00    -0.579 OA
BRANCH  32  35
HETATM   35  O4  UNL     1      -3.313   6.101   0.168  1.00  0.00    -0.274 OA
HETATM   36  H14 UNL     1      -3.820   6.345  -0.631  1.00  0.00     0.234 HD
ENDBRANCH  32  35
ENDBRANCH  31  32
ENDBRANCH  30  31
ENDBRANCH  20  30
ENDBRANCH   1  20
BRANCH   9  37
HETATM   37  O5  UNL     1       5.322  -2.011  -1.735  1.00  0.00    -0.392 OA
HETATM   38  H28 UNL     1       6.132  -2.552  -1.773  1.00  0.00     0.210 HD
ENDBRANCH   9  37
BRANCH  11  39
HETATM   39  O10 UNL     1       5.119  -1.949   2.556  1.00  0.00    -0.393 OA
HETATM   40  H32 UNL     1       5.902  -2.451   2.845  1.00  0.00     0.210 HD
ENDBRANCH  11  39
BRANCH  10  41
HETATM   41  O6  UNL     1       7.253  -2.103   0.330  1.00  0.00    -0.253 OA
BRANCH  41  42
HETATM   42  S2  UNL     1       8.693  -1.418   0.626  1.00  0.00     0.240 S 
HETATM   43  O7  UNL     1       9.719  -2.418   0.453  1.00  0.00    -0.579 OA
HETATM   44  O8  UNL     1       8.757  -0.146  -0.054  1.00  0.00    -0.579 OA
BRANCH  42  45
HETATM   45  O9  UNL     1       8.632  -1.106   2.204  1.00  0.00    -0.274 OA
HETATM   46  H30 UNL     1       9.522  -0.806   2.481  1.00  0.00     0.234 HD
ENDBRANCH  42  45
ENDBRANCH  41  42
ENDBRANCH  10  41
TORSDOF 15
