REMARK  6 active torsions:
REMARK  status: ('A' for Active; 'I' for Inactive)
REMARK    1  A    between atoms: O1_2  and  C2_3 
REMARK    2  A    between atoms: C7_8  and  C8_9 
REMARK    3  A    between atoms: C8_9  and  C9_10 
REMARK    4  A    between atoms: C9_10  and  O3_12 
REMARK    5  A    between atoms: C10_13  and  C11_14 
REMARK    6  A    between atoms: C10_13  and  C17_20 
ROOT
HETATM    1  C8  UNL     1       0.465  -0.680   0.763  1.00  0.00     0.062 C 
HETATM    2  C10 UNL     1      -0.745  -0.458   0.180  1.00  0.00     0.002 C 
ENDROOT
BRANCH   1   3
HETATM    3  C7  UNL     1       1.488   0.376   0.955  1.00  0.00     0.015 A 
HETATM    4  C2  UNL     1       2.582   0.508   0.078  1.00  0.00     0.079 A 
HETATM    5  C3  UNL     1       3.529   1.513   0.313  1.00  0.00     0.037 A 
HETATM    6  C4  UNL     1       3.390   2.381   1.402  1.00  0.00     0.003 A 
HETATM    7  C5  UNL     1       2.309   2.252   2.267  1.00  0.00     0.001 A 
HETATM    8  C6  UNL     1       1.362   1.252   2.046  1.00  0.00     0.015 A 
BRANCH   4   9
HETATM    9  O1  UNL     1       2.635  -0.382  -0.964  1.00  0.00    -0.355 OA
HETATM   10  C1  UNL     1       3.613  -0.154  -1.973  1.00  0.00     0.210 C 
ENDBRANCH   4   9
ENDBRANCH   1   3
BRANCH   1  11
HETATM   11  C9  UNL     1       0.799  -2.012   1.316  1.00  0.00     0.178 C 
HETATM   12  O2  UNL     1       0.988  -2.267   2.491  1.00  0.00    -0.646 OA
BRANCH  11  13
HETATM   13  O3  UNL     1       0.926  -2.949   0.361  1.00  0.00    -0.773 OA
HETATM   14  H8  UNL     1       1.142  -3.761   0.861  1.00  0.00     0.167 HD
ENDBRANCH  11  13
ENDBRANCH   1  11
BRANCH   2  15
HETATM   15  C11 UNL     1      -1.763  -1.540   0.130  1.00  0.00    -0.024 A 
HETATM   16  C12 UNL     1      -2.501  -1.886   1.277  1.00  0.00     0.012 A 
HETATM   17  C13 UNL     1      -3.464  -2.896   1.216  1.00  0.00     0.001 A 
HETATM   18  C14 UNL     1      -3.692  -3.571   0.014  1.00  0.00     0.000 A 
HETATM   19  C15 UNL     1      -2.959  -3.236  -1.130  1.00  0.00     0.001 A 
HETATM   20  C16 UNL     1      -2.001  -2.221  -1.075  1.00  0.00     0.012 A 
ENDBRANCH   2  15
BRANCH   2  21
HETATM   21  C17 UNL     1      -1.060   0.879  -0.388  1.00  0.00    -0.024 A 
HETATM   22  C18 UNL     1      -1.962   1.730   0.274  1.00  0.00     0.012 A 
HETATM   23  C19 UNL     1      -2.251   2.990  -0.255  1.00  0.00     0.001 A 
HETATM   24  C20 UNL     1      -1.656   3.403  -1.449  1.00  0.00     0.000 A 
HETATM   25  C21 UNL     1      -0.779   2.553  -2.124  1.00  0.00     0.001 A 
HETATM   26  C22 UNL     1      -0.479   1.296  -1.597  1.00  0.00     0.012 A 
ENDBRANCH   2  21
TORSDOF 6
