REMARK  10 active torsions:
REMARK  status: ('A' for Active; 'I' for Inactive)
REMARK    1  A    between atoms: C2_2  and  C3_3 
REMARK    2  A    between atoms: C5_5  and  S1_6 
REMARK    3  A    between atoms: C14_18  and  C15_19 
REMARK    4  A    between atoms: C15_19  and  O4_20 
REMARK    5  A    between atoms: C21_26  and  O5_27 
REMARK    6  A    between atoms: C33_40  and  C34_41 
REMARK    7  A    between atoms: C33_40  and  N1_45 
REMARK    8  A    between atoms: C34_41  and  C35_42 
REMARK    9  A    between atoms: C35_42  and  C36_43 
REMARK   10  A    between atoms: C36_43  and  O7_44 
REMARK       I    between atoms: N1_45  and  C37_47 
REMARK       I    between atoms: C37_47  and  N3_49 
ROOT
HETATM    1  C3  UNL     1       1.989  -4.004   0.532  1.00  0.00     0.019 C 
HETATM    2  C4  UNL     1       1.143  -2.696   0.469  1.00  0.00     0.034 C 
HETATM    3  C5  UNL     1      -0.393  -2.629   0.592  1.00  0.00     0.157 C 
HETATM    4  C6  UNL     1      -0.938  -1.420  -0.266  1.00  0.00     0.121 A 
HETATM    5  C7  UNL     1      -2.430  -1.560  -0.541  1.00  0.00     0.005 C 
HETATM    6  C8  UNL     1      -3.099  -0.518  -1.071  1.00  0.00    -0.048 C 
HETATM    7  C9  UNL     1      -2.293   0.633  -1.597  1.00  0.00     0.044 C 
HETATM    8  C10 UNL     1      -1.470   1.188  -0.426  1.00  0.00     0.019 C 
HETATM    9  C11 UNL     1      -2.367   1.960   0.596  1.00  0.00     0.039 C 
HETATM   10  C12 UNL     1      -3.682   1.261   1.023  1.00  0.00     0.123 C 
HETATM   11  C13 UNL     1      -4.486   2.087   2.053  1.00  0.00     0.039 C 
HETATM   12  C14 UNL     1      -5.263   3.311   1.478  1.00  0.00     0.023 C 
HETATM   13  C16 UNL     1      -6.788   3.051   1.318  1.00  0.00     0.101 C 
HETATM   14  C17 UNL     1      -7.088   2.083   0.256  1.00  0.00    -0.101 C 
HETATM   15  C18 UNL     1      -7.115   1.250  -0.609  1.00  0.00    -0.066 C 
HETATM   16  C19 UNL     1      -6.863   0.259  -1.615  1.00  0.00     0.029 A 
HETATM   17  C20 UNL     1      -7.886  -0.020  -2.531  1.00  0.00     0.057 A 
HETATM   18  C21 UNL     1      -7.687  -0.979  -3.520  1.00  0.00     0.067 A 
HETATM   19  C22 UNL     1      -6.479  -1.655  -3.630  1.00  0.00     0.037 A 
HETATM   20  C23 UNL     1      -5.449  -1.375  -2.729  1.00  0.00     0.014 A 
HETATM   21  C24 UNL     1      -5.614  -0.415  -1.701  1.00  0.00    -0.006 A 
HETATM   22  C25 UNL     1      -4.523  -0.246  -0.647  1.00  0.00     0.185 C 
HETATM   23  O6  UNL     1      -4.506   1.091  -0.133  1.00  0.00    -0.371 OA
HETATM   24  C26 UNL     1      -0.603   0.054   0.264  1.00  0.00     0.115 A 
HETATM   25  C27 UNL     1       0.881   0.428   0.138  1.00  0.00    -0.035 A 
HETATM   26  C28 UNL     1       1.534   0.487  -1.099  1.00  0.00     0.010 A 
HETATM   27  C29 UNL     1       2.923   0.689  -1.173  1.00  0.00     0.012 A 
HETATM   28  C30 UNL     1       3.708   0.855  -0.015  1.00  0.00    -0.003 A 
HETATM   29  C31 UNL     1       3.032   0.865   1.219  1.00  0.00     0.012 A 
HETATM   30  C32 UNL     1       1.648   0.654   1.292  1.00  0.00     0.010 A 
HETATM   31  C33 UNL     1       5.269   0.912  -0.089  1.00  0.00     0.171 C 
HETATM   32  O8  UNL     1       5.912  -0.175   0.678  1.00  0.00    -0.316 OA
HETATM   33  C38 UNL     1       5.303  -1.400   0.602  1.00  0.00     0.072 C 
HETATM   34  C39 UNL     1       4.893  -1.954   1.814  1.00  0.00     0.037 C 
HETATM   35  C40 UNL     1       3.941  -2.969   1.808  1.00  0.00     0.010 C 
HETATM   36  C41 UNL     1       3.431  -3.447   0.589  1.00  0.00    -0.054 C 
HETATM   37  C42 UNL     1       4.054  -3.059  -0.610  1.00  0.00     0.010 C 
HETATM   38  C43 UNL     1       4.993  -2.026  -0.603  1.00  0.00     0.037 C 
HETATM   39 NA1  UNL     1       0.000   0.000   0.000  1.00  0.00    -0.404 Na
ATOM     40  HA1 UNL     1       0.899   0.458  -0.151  1.00  0.00     0.154 HD
ENDROOT
BRANCH  31  41
HETATM   41  C34 UNL     1       5.756   2.198   0.669  1.00  0.00     0.069 C 
BRANCH  41  42
HETATM   42  C35 UNL     1       5.134   3.555   0.287  1.00  0.00     0.031 C 
BRANCH  42  43
HETATM   43  C36 UNL     1       5.447   4.069  -1.111  1.00  0.00     0.164 C 
BRANCH  43  44
HETATM   44  O7  UNL     1       6.855   4.199  -1.281  1.00  0.00    -0.401 OA
HETATM   45  H42 UNL     1       6.996   4.422  -2.213  1.00  0.00     0.209 HD
ENDBRANCH  43  44
ENDBRANCH  42  43
ENDBRANCH  41  42
ENDBRANCH  31  41
BRANCH  31  46
HETATM   46  N1  UNL     1       5.714   1.046  -1.497  1.00  0.00    -0.331 N 
HETATM   47  C37 UNL     1       6.909   0.756  -1.856  1.00  0.00     0.146 C 
HETATM   48  N2  UNL     1       7.255   0.883  -3.154  1.00  0.00    -0.376 N 
HETATM   49  N3  UNL     1       7.941   0.263  -1.134  1.00  0.00    -0.274 NA
HETATM   50  H43 UNL     1       8.215   1.093  -3.365  1.00  0.00     0.158 HD
HETATM   51  H44 UNL     1       6.557   1.369  -3.708  1.00  0.00     0.158 HD
HETATM   52  H45 UNL     1       7.706   0.128  -0.155  1.00  0.00     0.127 HD
HETATM   53  H46 UNL     1       8.810   0.775  -1.222  1.00  0.00     0.127 HD
ATOM     54  H1  UNL     1       5.051   1.378  -2.198  1.00  0.00     0.165 HD
ENDBRANCH  31  46
BRANCH   1  55
HETATM   55  C2  UNL     1       1.689  -5.002   1.660  1.00  0.00     0.005 C 
HETATM   56  C1  UNL     1       0.670  -6.056   1.240  1.00  0.00     0.006 C 
ENDBRANCH   1  55
BRANCH   3  57
HETATM   57  S1  UNL     1      -0.955  -2.565   2.335  1.00  0.00     0.108 S 
HETATM   58  O1  UNL     1       0.110  -1.859   3.052  1.00  0.00    -0.595 OA
HETATM   59  O2  UNL     1      -2.231  -1.846   2.314  1.00  0.00    -0.595 OA
HETATM   60  O3  UNL     1      -1.100  -3.974   2.693  1.00  0.00    -0.595 OA
ENDBRANCH   3  57
BRANCH  12  61
HETATM   61  C15 UNL     1      -5.062   4.538   2.385  1.00  0.00     0.169 C 
BRANCH  61  62
HETATM   62  O4  UNL     1      -5.687   4.381   3.654  1.00  0.00    -0.400 OA
HETATM   63  H23 UNL     1      -5.412   3.533   4.031  1.00  0.00     0.209 HD
ENDBRANCH  61  62
ENDBRANCH  12  61
BRANCH  18  64
HETATM   64  O5  UNL     1      -8.717  -1.243  -4.382  1.00  0.00    -0.361 OA
HETATM   65  H27 UNL     1      -8.465  -1.985  -4.949  1.00  0.00     0.217 HD
ENDBRANCH  18  64
TORSDOF 10
