REMARK  5 active torsions:
REMARK  status: ('A' for Active; 'I' for Inactive)
REMARK    1  A    between atoms: N2_12  and  C9_13 
REMARK    2  A    between atoms: C9_13  and  C10_14 
REMARK    3  A    between atoms: C10_14  and  C11_15 
REMARK    4  A    between atoms: C11_15  and  N3_16 
REMARK    5  A    between atoms: N4_19  and  C14_20 
ROOT
HETATM    1  C9  UNL     1      -2.361  -1.640   0.535  1.00  0.00     0.139 C 
ENDROOT
BRANCH   1   2
HETATM    2  N2  UNL     1      -3.643  -0.948   0.464  1.00  0.00    -0.266 N 
HETATM    3  C1  UNL     1      -4.430  -0.918   1.605  1.00  0.00     0.329 A 
HETATM    4  O1  UNL     1      -4.126  -1.455   2.669  1.00  0.00    -0.246 OA
HETATM    5  N1  UNL     1      -5.614  -0.243   1.518  1.00  0.00    -0.307 N 
HETATM    6  C2  UNL     1      -6.049   0.418   0.374  1.00  0.00     0.052 A 
HETATM    7  H1  UNL     1      -6.174  -0.242   2.361  1.00  0.00     0.170 HD
HETATM    8  C3  UNL     1      -7.277   1.080   0.374  1.00  0.00     0.030 A 
HETATM    9  C7  UNL     1      -5.252   0.421  -0.765  1.00  0.00     0.059 A 
HETATM   10  C4  UNL     1      -7.703   1.745  -0.778  1.00  0.00     0.002 A 
HETATM   11  C5  UNL     1      -6.904   1.749  -1.923  1.00  0.00     0.001 A 
HETATM   12  C6  UNL     1      -5.676   1.088  -1.919  1.00  0.00     0.019 A 
HETATM   13  C8  UNL     1      -3.958  -0.286  -0.722  1.00  0.00     0.264 A 
HETATM   14  O2  UNL     1      -3.225  -0.258  -1.709  1.00  0.00    -0.267 OA
ENDBRANCH   1   2
BRANCH   1  15
HETATM   15  C10 UNL     1      -1.235  -0.699   0.974  1.00  0.00     0.050 C 
BRANCH  15  16
HETATM   16  C11 UNL     1       0.106  -1.441   1.018  1.00  0.00     0.274 C 
BRANCH  16  17
HETATM   17  N3  UNL     1       1.207  -0.601   1.513  1.00  0.00     0.091 N 
HETATM   18  C12 UNL     1       1.473   0.552   0.620  1.00  0.00     0.292 C 
HETATM   19  C13 UNL     1       2.924   1.087   0.671  1.00  0.00     0.153 C 
HETATM   20  N4  UNL     1       3.875   0.036   0.277  1.00  0.00    -0.378 N 
HETATM   21  C20 UNL     1       3.481  -1.348   0.587  1.00  0.00     0.153 C 
HETATM   22  C21 UNL     1       2.440  -1.391   1.731  1.00  0.00     0.292 C 
BRANCH  20  23
HETATM   23  C14 UNL     1       5.134   0.333  -0.220  1.00  0.00     0.030 A 
HETATM   24  C15 UNL     1       5.901  -0.624  -0.905  1.00  0.00     0.029 A 
HETATM   25  C16 UNL     1       7.173  -0.334  -1.416  1.00  0.00     0.002 A 
HETATM   26  C17 UNL     1       7.715   0.935  -1.253  1.00  0.00     0.000 A 
HETATM   27  C18 UNL     1       6.982   1.907  -0.584  1.00  0.00     0.002 A 
HETATM   28  C19 UNL     1       5.711   1.606  -0.078  1.00  0.00     0.029 A 
ENDBRANCH  20  23
ENDBRANCH  16  17
ENDBRANCH  15  16
ENDBRANCH   1  15
TORSDOF 5
