REMARK  10 active torsions:
REMARK  status: ('A' for Active; 'I' for Inactive)
REMARK       I    between atoms: N1_1  and  C1_2 
REMARK       I    between atoms: C1_2  and  N2_3 
REMARK    1  A    between atoms: N3_4  and  C2_6 
REMARK    2  A    between atoms: C2_6  and  C3_7 
REMARK    3  A    between atoms: C3_7  and  C4_8 
REMARK    4  A    between atoms: C4_8  and  C5_9 
REMARK    5  A    between atoms: C5_9  and  O1_10 
REMARK    6  A    between atoms: C18_24  and  S1_25 
REMARK    7  A    between atoms: C27_37  and  C28_38 
REMARK    8  A    between atoms: C28_38  and  O6_39 
REMARK    9  A    between atoms: C34_45  and  O7_46 
REMARK   10  A    between atoms: C45_58  and  NA1_59 
ROOT
HETATM    1  C2  UNL     1      -4.711  -1.381   1.042  1.00  0.00     0.170 C 
HETATM    2  O2  UNL     1      -4.702  -2.157   2.308  1.00  0.00    -0.316 OA
HETATM    3  C10 UNL     1      -3.763  -3.159   2.378  1.00  0.00     0.072 C 
HETATM    4  C11 UNL     1      -3.573  -4.105   1.376  1.00  0.00     0.037 C 
HETATM    5  C12 UNL     1      -2.350  -4.763   1.292  1.00  0.00     0.010 C 
HETATM    6  C13 UNL     1      -1.341  -4.484   2.224  1.00  0.00    -0.058 C 
HETATM    7  C14 UNL     1      -1.650  -3.741   3.373  1.00  0.00     0.010 C 
HETATM    8  C15 UNL     1      -2.873  -3.081   3.450  1.00  0.00     0.037 C 
HETATM    9  C16 UNL     1       0.110  -4.586   1.753  1.00  0.00     0.040 C 
HETATM   10  C17 UNL     1       0.352  -3.254   1.008  1.00  0.00     0.028 C 
HETATM   11  C18 UNL     1       1.690  -2.975   0.310  1.00  0.00     0.139 C 
HETATM   12  C19 UNL     1       1.991  -1.432   0.295  1.00  0.00     0.038 C 
HETATM   13  C20 UNL     1       3.402  -1.049  -0.124  1.00  0.00    -0.014 C 
HETATM   14  C21 UNL     1       3.603  -0.411  -1.294  1.00  0.00    -0.050 C 
HETATM   15  C22 UNL     1       2.493  -0.342  -2.291  1.00  0.00     0.042 C 
HETATM   16  C23 UNL     1       1.368   0.382  -1.597  1.00  0.00     0.001 C 
HETATM   17  C24 UNL     1       1.793   1.878  -1.463  1.00  0.00     0.037 C 
HETATM   18  C25 UNL     1       3.142   2.226  -0.730  1.00  0.00     0.123 C 
HETATM   19  C26 UNL     1       3.102   3.766  -0.505  1.00  0.00     0.039 C 
HETATM   20  C27 UNL     1       4.346   4.465   0.102  1.00  0.00     0.023 C 
HETATM   21  C29 UNL     1       4.766   3.889   1.469  1.00  0.00     0.101 C 
HETATM   22  C30 UNL     1       5.573   2.695   1.261  1.00  0.00    -0.101 C 
HETATM   23  C31 UNL     1       6.142   1.729   0.839  1.00  0.00    -0.066 C 
HETATM   24  C32 UNL     1       6.711   0.629   0.143  1.00  0.00     0.029 A 
HETATM   25  C33 UNL     1       7.919   0.100   0.625  1.00  0.00     0.057 A 
HETATM   26  C34 UNL     1       8.503  -1.000   0.007  1.00  0.00     0.067 A 
HETATM   27  C35 UNL     1       7.901  -1.587  -1.095  1.00  0.00     0.037 A 
HETATM   28  C36 UNL     1       6.708  -1.051  -1.586  1.00  0.00     0.014 A 
HETATM   29  C37 UNL     1       6.083   0.070  -0.982  1.00  0.00    -0.006 A 
HETATM   30  C38 UNL     1       4.746   0.511  -1.598  1.00  0.00     0.185 C 
HETATM   31  O8  UNL     1       4.344   1.905  -1.469  1.00  0.00    -0.371 OA
HETATM   32  C39 UNL     1       0.992  -0.282  -0.214  1.00  0.00     0.030 C 
HETATM   33  C40 UNL     1      -0.508  -0.449   0.028  1.00  0.00    -0.054 A 
HETATM   34  C41 UNL     1      -1.060  -0.078   1.265  1.00  0.00     0.141 A 
HETATM   35  C42 UNL     1      -2.405  -0.331   1.563  1.00  0.00     0.014 A 
HETATM   36  C43 UNL     1      -3.258  -0.968   0.642  1.00  0.00    -0.005 A 
HETATM   37  C44 UNL     1      -2.711  -1.291  -0.613  1.00  0.00     0.007 A 
HETATM   38  C45 UNL     1      -1.365  -1.025  -0.920  1.00  0.00     0.086 A 
ENDROOT
BRANCH   1  39
HETATM   39  N3  UNL     1      -5.377  -2.104  -0.048  1.00  0.00    -0.336 N 
HETATM   40  C1  UNL     1      -6.572  -2.188  -0.439  1.00  0.00     0.124 C 
HETATM   41  N1  UNL     1      -6.825  -2.905  -1.563  1.00  0.00    -0.279 NA
HETATM   42  N2  UNL     1      -7.752  -1.762   0.057  1.00  0.00    -0.279 NA
HETATM   43  H1  UNL     1      -5.972  -3.375  -1.854  1.00  0.00     0.126 HD
HETATM   44  H2  UNL     1      -7.560  -3.584  -1.414  1.00  0.00     0.126 HD
HETATM   45  H3  UNL     1      -7.732  -1.125   0.836  1.00  0.00     0.126 HD
HETATM   46  H4  UNL     1      -8.415  -1.484  -0.654  1.00  0.00     0.126 HD
ATOM     47  H3  UNL     1      -4.733  -2.659  -0.611  1.00  0.00     0.165 HD
ENDBRANCH   1  39
BRANCH   1  48
HETATM   48  C3  UNL     1      -5.476  -0.078   1.447  1.00  0.00     0.070 C 
BRANCH  48  49
HETATM   49  C4  UNL     1      -5.882   0.941   0.359  1.00  0.00     0.043 C 
BRANCH  49  50
HETATM   50  C5  UNL     1      -4.932   2.115   0.058  1.00  0.00     0.058 C 
HETATM   51  C6  UNL     1      -3.931   1.865  -1.088  1.00  0.00     0.038 C 
HETATM   52  C7  UNL     1      -3.931   3.130  -1.962  1.00  0.00     0.003 C 
HETATM   53  C8  UNL     1      -4.699   4.173  -1.168  1.00  0.00     0.003 C 
HETATM   54  C9  UNL     1      -5.732   3.338  -0.431  1.00  0.00     0.038 C 
BRANCH  50  55
HETATM   55  O1  UNL     1      -4.258   2.524   1.246  1.00  0.00    -0.390 OA
HETATM   56  H9  UNL     1      -3.364   2.131   1.232  1.00  0.00     0.210 HD
ENDBRANCH  50  55
ENDBRANCH  49  50
ENDBRANCH  48  49
ENDBRANCH   1  48
BRANCH  38  57
HETATM   57 NA1  UNL     1       0.000   0.000   0.000  1.00  0.00    -0.383 Na
ATOM     58 2HA1 UNL     1       0.913  -0.442  -0.105  1.00  0.00     0.091 HD
ATOM     59 1HA1 UNL     1       0.178   0.879  -0.487  1.00  0.00     0.091 HD
ENDBRANCH  38  57
BRANCH  11  60
HETATM   60  S1  UNL     1       1.778  -3.819  -1.278  1.00  0.00     0.106 S 
HETATM   61  O3  UNL     1       0.763  -3.168  -2.099  1.00  0.00    -0.595 OA
HETATM   62  O4  UNL     1       3.153  -3.627  -1.731  1.00  0.00    -0.595 OA
HETATM   63  O5  UNL     1       1.469  -5.213  -0.955  1.00  0.00    -0.595 OA
ENDBRANCH  11  60
BRANCH  20  64
HETATM   64  C28 UNL     1       4.080   5.977   0.230  1.00  0.00     0.169 C 
BRANCH  64  65
HETATM   65  O6  UNL     1       3.006   6.271   1.112  1.00  0.00    -0.400 OA
HETATM   66  H40 UNL     1       3.240   5.958   1.997  1.00  0.00     0.209 HD
ENDBRANCH  64  65
ENDBRANCH  20  64
BRANCH  26  67
HETATM   67  O7  UNL     1       9.662  -1.491   0.530  1.00  0.00    -0.361 OA
HETATM   68  H44 UNL     1       9.875  -2.314   0.053  1.00  0.00     0.217 HD
ENDBRANCH  26  67
TORSDOF 10
