REMARK  13 active torsions:
REMARK  status: ('A' for Active; 'I' for Inactive)
REMARK    1  A    between atoms: C4_4  and  O1_5 
REMARK    2  A    between atoms: C7_9  and  C8_10 
REMARK    3  A    between atoms: C8_10  and  C10_12 
REMARK    4  A    between atoms: C10_12  and  O3_13 
REMARK    5  A    between atoms: C16_19  and  O4_21 
REMARK    6  A    between atoms: O4_21  and  C18_22 
REMARK    7  A    between atoms: C18_22  and  C19_24 
REMARK    8  A    between atoms: C19_24  and  C20_25 
REMARK    9  A    between atoms: C19_24  and  O6_27 
REMARK   10  A    between atoms: O6_27  and  C22_28 
REMARK   11  A    between atoms: C22_28  and  C23_30 
REMARK   12  A    between atoms: C23_30  and  C24_31 
REMARK   13  A    between atoms: C28_35  and  O8_36 
ROOT
HETATM    1  C1  UNL     1      -4.015  -3.888   0.033  1.00  0.00     0.017 C 
HETATM    2  C2  UNL     1      -2.965  -3.424   0.738  1.00  0.00    -0.056 C 
HETATM    3  C3  UNL     1      -3.203  -2.562   1.977  1.00  0.00     0.105 C 
HETATM    4  C4  UNL     1      -2.527  -1.167   1.991  1.00  0.00     0.173 C 
HETATM    5  O2  UNL     1      -1.123  -1.363   1.954  1.00  0.00    -0.345 OA
HETATM    6  C5  UNL     1      -0.494  -0.412   1.101  1.00  0.00     0.165 C 
HETATM    7  C6  UNL     1      -1.576   0.330   0.282  1.00  0.00     0.036 C 
HETATM    8  C7  UNL     1      -1.437   1.880   0.376  1.00  0.00    -0.001 C 
HETATM    9  C11 UNL     1      -2.138   2.406   1.636  1.00  0.00     0.010 C 
HETATM   10  C12 UNL     1      -3.623   2.068   1.737  1.00  0.00     0.034 C 
HETATM   11  C13 UNL     1      -4.003   0.764   1.085  1.00  0.00    -0.079 C 
HETATM   12  C14 UNL     1      -5.277   0.539   0.715  1.00  0.00     0.015 C 
HETATM   13  C15 UNL     1      -2.910  -0.246   0.809  1.00  0.00     0.083 C 
HETATM   14  C16 UNL     1       0.676  -1.104   0.316  1.00  0.00     0.093 C 
HETATM   15  C17 UNL     1       1.609  -1.745   1.376  1.00  0.00     0.049 C 
HETATM   16  C26 UNL     1       0.294  -2.162  -0.772  1.00  0.00     0.044 C 
HETATM   17  C27 UNL     1      -1.088  -2.826  -0.829  1.00  0.00     0.039 C 
HETATM   18  C28 UNL     1      -1.507  -3.684   0.372  1.00  0.00     0.146 C 
ENDROOT
BRANCH  14  19
HETATM   19  O4  UNL     1       1.395   0.006  -0.335  1.00  0.00    -0.306 OA
BRANCH  19  20
HETATM   20  C18 UNL     1       2.560  -0.224  -1.007  1.00  0.00     0.289 C 
HETATM   21  O5  UNL     1       3.068  -1.321  -1.197  1.00  0.00    -0.262 OA
BRANCH  20  22
HETATM   22  C19 UNL     1       3.167   1.085  -1.519  1.00  0.00     0.231 C 
BRANCH  22  23
HETATM   23  C20 UNL     1       2.776   1.320  -2.980  1.00  0.00     0.038 C 
HETATM   24  C21 UNL     1       1.323   1.729  -3.156  1.00  0.00     0.008 C 
ENDBRANCH  22  23
BRANCH  22  25
HETATM   25  O6  UNL     1       4.606   0.965  -1.509  1.00  0.00    -0.306 OA
BRANCH  25  26
HETATM   26  C22 UNL     1       5.164   0.984  -0.269  1.00  0.00     0.259 C 
HETATM   27  O7  UNL     1       4.556   1.230   0.765  1.00  0.00    -0.265 OA
BRANCH  26  28
HETATM   28  C23 UNL     1       6.627   0.629  -0.346  1.00  0.00     0.111 C 
BRANCH  28  29
HETATM   29  C24 UNL     1       6.866  -0.844  -0.023  1.00  0.00     0.005 C 
HETATM   30  C25 UNL     1       6.762  -1.144   1.466  1.00  0.00     0.005 C 
ENDBRANCH  28  29
ENDBRANCH  26  28
ENDBRANCH  25  26
ENDBRANCH  22  25
ENDBRANCH  20  22
ENDBRANCH  19  20
ENDBRANCH  14  19
BRANCH   4  31
HETATM   31  O1  UNL     1      -2.805  -0.584   3.258  1.00  0.00    -0.364 OA
HETATM   32  H5  UNL     1      -2.114   0.081   3.391  1.00  0.00     0.213 HD
ENDBRANCH   4  31
BRANCH   8  33
HETATM   33  C8  UNL     1      -1.761   2.607  -0.971  1.00  0.00     0.010 C 
HETATM   34  C9  UNL     1      -3.137   2.340  -1.588  1.00  0.00     0.012 C 
BRANCH  33  35
HETATM   35  C10 UNL     1      -1.476   4.119  -0.920  1.00  0.00     0.168 C 
BRANCH  35  36
HETATM   36  O3  UNL     1      -2.507   4.823  -0.249  1.00  0.00    -0.400 OA
HETATM   37  H15 UNL     1      -2.285   5.769  -0.294  1.00  0.00     0.209 HD
ENDBRANCH  35  36
ENDBRANCH  33  35
ENDBRANCH   8  33
BRANCH  18  38
HETATM   38  O8  UNL     1      -1.311  -5.061   0.053  1.00  0.00    -0.391 OA
HETATM   39  H44 UNL     1      -1.996  -5.339  -0.571  1.00  0.00     0.210 HD
ENDBRANCH  18  38
TORSDOF 13
