REMARK  21 active torsions:
REMARK  status: ('A' for Active; 'I' for Inactive)
REMARK    1  A    between atoms: C2_2  and  C18_25 
REMARK    2  A    between atoms: C3_3  and  C4_4 
REMARK    3  A    between atoms: C4_4  and  O2_6 
REMARK    4  A    between atoms: O2_6  and  C5_7 
REMARK    5  A    between atoms: C5_7  and  C6_8 
REMARK    6  A    between atoms: C6_8  and  C7_9 
REMARK    7  A    between atoms: C7_9  and  C8_10 
REMARK    8  A    between atoms: C8_10  and  C9_11 
REMARK    9  A    between atoms: C9_11  and  C10_12 
REMARK   10  A    between atoms: C10_12  and  C11_13 
REMARK   11  A    between atoms: C11_13  and  C12_14 
REMARK       I    between atoms: C12_14  and  N1_16 
REMARK   12  A    between atoms: N1_16  and  C13_17 
REMARK   13  A    between atoms: C17_23  and  O4_24 
REMARK   14  A    between atoms: C18_25  and  C19_26 
REMARK   15  A    between atoms: C21_29  and  C22_30 
REMARK   16  A    between atoms: C22_30  and  C23_31 
REMARK   17  A    between atoms: C24_32  and  C25_33 
REMARK   18  A    between atoms: C25_33  and  C27_35 
REMARK   19  A    between atoms: C27_35  and  O6_37 
REMARK   20  A    between atoms: C29_38  and  O7_39 
REMARK   21  A    between atoms: C30_40  and  O8_41 
ROOT
HETATM    1  C1  UNL     1      -1.941   1.568  -1.252  1.00  0.00     0.043 C 
HETATM    2  C2  UNL     1      -1.757   0.934   0.101  1.00  0.00    -0.075 C 
HETATM    3  C3  UNL     1      -0.591   0.916   0.783  1.00  0.00     0.084 C 
ENDROOT
BRANCH   3   4
HETATM    4  C4  UNL     1       0.709   1.427   0.285  1.00  0.00     0.283 C 
HETATM    5  O1  UNL     1       0.952   1.797  -0.850  1.00  0.00    -0.260 OA
BRANCH   4   6
HETATM    6  O2  UNL     1       1.587   1.384   1.321  1.00  0.00    -0.318 OA
BRANCH   6   7
HETATM    7  C5  UNL     1       2.932   1.763   0.992  1.00  0.00     0.179 C 
BRANCH   7   8
HETATM    8  C6  UNL     1       3.087   3.282   1.033  1.00  0.00     0.027 C 
BRANCH   8   9
HETATM    9  C7  UNL     1       4.504   3.749   0.694  1.00  0.00     0.002 C 
BRANCH   9  10
HETATM   10  C8  UNL     1       4.861   3.529  -0.779  1.00  0.00     0.000 C 
BRANCH  10  11
HETATM   11  C9  UNL     1       6.236   4.081  -1.164  1.00  0.00     0.000 C 
BRANCH  11  12
HETATM   12  C10 UNL     1       7.428   3.480  -0.411  1.00  0.00     0.009 C 
BRANCH  12  13
HETATM   13  C11 UNL     1       7.524   1.959  -0.530  1.00  0.00     0.103 C 
BRANCH  13  14
HETATM   14  C12 UNL     1       8.789   1.405   0.101  1.00  0.00     0.218 C 
HETATM   15  O3  UNL     1       9.689   2.099   0.554  1.00  0.00    -0.274 OA
HETATM   16  N1  UNL     1       8.827   0.027   0.091  1.00  0.00    -0.349 N 
HETATM   17  H19 UNL     1       7.941  -0.454  -0.020  1.00  0.00     0.163 HD
BRANCH  16  18
HETATM   18  C13 UNL     1       9.879  -0.705   0.798  1.00  0.00     0.159 C 
HETATM   19  C14 UNL     1      11.222  -0.646   0.073  1.00  0.00     0.035 C 
HETATM   20  C15 UNL     1      11.289  -1.716  -1.007  1.00  0.00     0.022 C 
HETATM   21  C16 UNL     1      11.121  -3.091  -0.374  1.00  0.00     0.121 C 
HETATM   22  N2  UNL     1       9.900  -3.211   0.427  1.00  0.00    -0.373 N 
HETATM   23  C17 UNL     1       9.406  -2.142   0.930  1.00  0.00     0.134 C 
ATOM     24  H2  UNL     1       9.458  -4.117   0.579  1.00  0.00     0.161 HD
BRANCH  23  25
HETATM   25  O4  UNL     1       8.265  -2.284   1.622  1.00  0.00    -0.348 OA
HETATM   26  H27 UNL     1       8.070  -3.238   1.639  1.00  0.00     0.219 HD
ENDBRANCH  23  25
ENDBRANCH  16  18
ENDBRANCH  13  14
ENDBRANCH  12  13
ENDBRANCH  11  12
ENDBRANCH  10  11
ENDBRANCH   9  10
ENDBRANCH   8   9
ENDBRANCH   7   8
ENDBRANCH   6   7
ENDBRANCH   4   6
ENDBRANCH   3   4
BRANCH   2  27
HETATM   27  C18 UNL     1      -2.997   0.290   0.701  1.00  0.00     0.068 C 
BRANCH  27  28
HETATM   28  C19 UNL     1      -3.315  -1.090   0.090  1.00  0.00     0.156 C 
HETATM   29  O5  UNL     1      -3.792  -0.875  -1.256  1.00  0.00    -0.382 OA
HETATM   30  C20 UNL     1      -4.412  -2.039  -1.796  1.00  0.00     0.175 C 
HETATM   31  C21 UNL     1      -5.779  -2.253  -1.131  1.00  0.00     0.044 C 
HETATM   32  C29 UNL     1      -5.759  -1.722   0.318  1.00  0.00     0.155 C 
HETATM   33  C30 UNL     1      -4.363  -1.839   0.942  1.00  0.00     0.176 C 
BRANCH  31  34
HETATM   34  C22 UNL     1      -6.878  -1.553  -1.964  1.00  0.00     0.036 C 
BRANCH  34  35
HETATM   35  C23 UNL     1      -8.264  -1.777  -1.423  1.00  0.00    -0.030 C 
HETATM   36  C24 UNL     1      -9.033  -0.793  -0.929  1.00  0.00    -0.024 C 
BRANCH  36  37
HETATM   37  C25 UNL     1     -10.410  -0.923  -0.299  1.00  0.00     0.032 C 
HETATM   38  C26 UNL     1     -11.110  -2.252  -0.610  1.00  0.00     0.017 C 
BRANCH  37  39
HETATM   39  C27 UNL     1     -10.307  -0.658   1.227  1.00  0.00     0.121 C 
HETATM   40  C28 UNL     1     -11.641  -0.740   1.961  1.00  0.00     0.040 C 
BRANCH  39  41
HETATM   41  O6  UNL     1      -9.765   0.649   1.469  1.00  0.00    -0.395 OA
HETATM   42  H46 UNL     1     -10.380   1.298   1.083  1.00  0.00     0.210 HD
ENDBRANCH  39  41
ENDBRANCH  37  39
ENDBRANCH  36  37
ENDBRANCH  34  35
ENDBRANCH  31  34
BRANCH  32  43
HETATM   43  O7  UNL     1      -6.659  -2.507   1.119  1.00  0.00    -0.392 OA
HETATM   44  H48 UNL     1      -7.126  -1.885   1.708  1.00  0.00     0.210 HD
ENDBRANCH  32  43
BRANCH  33  45
HETATM   45  O8  UNL     1      -4.022  -3.239   1.011  1.00  0.00    -0.390 OA
HETATM   46  H50 UNL     1      -4.835  -3.678   1.330  1.00  0.00     0.210 HD
ENDBRANCH  33  45
ENDBRANCH  27  28
ENDBRANCH   2  27
TORSDOF 21
