REMARK  18 active torsions:
REMARK  status: ('A' for Active; 'I' for Inactive)
REMARK    1  A    between atoms: C2_2  and  C3_3 
REMARK    2  A    between atoms: C2_2  and  C29_35 
REMARK    3  A    between atoms: C4_4  and  C5_5 
REMARK    4  A    between atoms: C6_6  and  C7_7 
REMARK    5  A    between atoms: C6_6  and  C8_9 
REMARK    6  A    between atoms: C7_7  and  O1_8 
REMARK    7  A    between atoms: C12_13  and  O2_14 
REMARK    8  A    between atoms: C13_15  and  C14_16 
REMARK    9  A    between atoms: C14_16  and  C15_17 
REMARK   10  A    between atoms: C15_17  and  C16_18 
REMARK   11  A    between atoms: C16_18  and  O3_19 
REMARK   12  A    between atoms: C18_21  and  C19_22 
REMARK   13  A    between atoms: C25_29  and  O5_30 
REMARK   14  A    between atoms: C25_29  and  C26_31 
REMARK   15  A    between atoms: C26_31  and  C27_32 
REMARK   16  A    between atoms: C27_32  and  N1_33 
REMARK   17  A    between atoms: C29_35  and  C30_36 
REMARK   18  A    between atoms: C30_36  and  C31_37 
ROOT
HETATM    1  C8  UNL     1       0.316  -0.403  -2.340  1.00  0.00     0.046 C 
HETATM    2  C9  UNL     1      -0.083  -1.880  -2.305  1.00  0.00     0.013 C 
HETATM    3  C10 UNL     1      -1.133  -1.965  -1.184  1.00  0.00     0.017 C 
HETATM    4  C11 UNL     1      -1.674  -0.503  -0.925  1.00  0.00     0.025 C 
HETATM    5  C12 UNL     1      -1.050   0.292  -2.126  1.00  0.00     0.138 C 
HETATM    6  C13 UNL     1      -0.994  -0.036   0.467  1.00  0.00     0.029 C 
HETATM    7  C17 UNL     1      -1.634  -0.623   1.737  1.00  0.00    -0.061 C 
HETATM    8  C18 UNL     1      -0.941  -1.065   2.819  1.00  0.00    -0.017 C 
HETATM    9  C20 UNL     1      -1.599  -1.563   4.086  1.00  0.00     0.042 C 
HETATM   10  C21 UNL     1      -3.067  -1.176   4.198  1.00  0.00     0.005 C 
HETATM   11  C22 UNL     1      -3.775  -1.470   2.891  1.00  0.00     0.009 C 
HETATM   12  C23 UNL     1      -3.159  -0.661   1.731  1.00  0.00     0.018 C 
HETATM   13  C24 UNL     1      -3.724  -1.219   0.418  1.00  0.00     0.047 C 
HETATM   14  C25 UNL     1      -3.254  -0.456  -0.835  1.00  0.00     0.071 C 
ENDROOT
BRANCH   5  15
HETATM   15  O2  UNL     1      -1.874   0.167  -3.278  1.00  0.00    -0.394 OA
HETATM   16  H15 UNL     1      -1.370   0.485  -4.058  1.00  0.00     0.210 HD
ENDBRANCH   5  15
BRANCH   6  17
HETATM   17  C14 UNL     1      -0.575   1.452   0.676  1.00  0.00     0.012 C 
BRANCH  17  18
HETATM   18  C15 UNL     1      -1.647   2.531   0.759  1.00  0.00     0.027 C 
BRANCH  18  19
HETATM   19  C16 UNL     1      -1.052   3.877   1.173  1.00  0.00     0.164 C 
BRANCH  19  20
HETATM   20  O3  UNL     1      -2.079   4.852   1.291  1.00  0.00    -0.401 OA
HETATM   21  H23 UNL     1      -2.638   4.797   0.497  1.00  0.00     0.209 HD
ENDBRANCH  19  20
ENDBRANCH  18  19
ENDBRANCH  17  18
ENDBRANCH   6  17
BRANCH  14  22
HETATM   22  O5  UNL     1      -3.625   0.924  -0.615  1.00  0.00    -0.389 OA
HETATM   23  H34 UNL     1      -3.519   1.381  -1.470  1.00  0.00     0.210 HD
ENDBRANCH  14  22
BRANCH  14  24
HETATM   24  C26 UNL     1      -4.165  -0.859  -2.047  1.00  0.00     0.068 C 
BRANCH  24  25
HETATM   25  C27 UNL     1      -4.049  -2.213  -2.749  1.00  0.00     0.272 C 
BRANCH  25  26
HETATM   26  N1  UNL     1      -4.352  -3.389  -1.930  1.00  0.00     0.079 N 
HETATM   27  C28 UNL     1      -5.773  -3.506  -1.623  1.00  0.00     0.306 C 
HETATM   28  H39 UNL     1      -4.067  -4.222  -2.446  1.00  0.00     0.315 HD
ENDBRANCH  25  26
ENDBRANCH  24  25
ENDBRANCH  14  24
BRANCH   1  29
HETATM   29  C6  UNL     1       1.196   0.064  -3.498  1.00  0.00    -0.050 C 
HETATM   30  C5  UNL     1       2.341   0.768  -3.343  1.00  0.00     0.005 C 
BRANCH  30  31
HETATM   31  C4  UNL     1       2.911   1.266  -2.107  1.00  0.00     0.001 C 
HETATM   32  C3  UNL     1       4.091   1.905  -2.044  1.00  0.00     0.006 C 
BRANCH  32  33
HETATM   33  C2  UNL     1       4.716   2.443  -0.838  1.00  0.00    -0.067 C 
HETATM   34  C1  UNL     1       5.874   3.120  -0.942  1.00  0.00     0.019 C 
BRANCH  33  35
HETATM   35  C29 UNL     1       4.052   2.282   0.520  1.00  0.00     0.041 C 
BRANCH  35  36
HETATM   36  C30 UNL     1       4.154   0.868   1.119  1.00  0.00     0.032 C 
BRANCH  36  37
HETATM   37  C31 UNL     1       5.527   0.557   1.655  1.00  0.00    -0.024 C 
HETATM   38  C32 UNL     1       5.871   0.198   2.908  1.00  0.00    -0.091 C 
HETATM   39  C33 UNL     1       4.922   0.019   4.062  1.00  0.00     0.042 C 
HETATM   40  C34 UNL     1       7.312  -0.074   3.256  1.00  0.00     0.042 C 
ENDBRANCH  36  37
ENDBRANCH  35  36
ENDBRANCH  33  35
ENDBRANCH  32  33
ENDBRANCH  30  31
BRANCH  29  41
HETATM   41  C7  UNL     1       0.774  -0.293  -4.900  1.00  0.00     0.198 C 
BRANCH  41  42
HETATM   42  O1  UNL     1      -0.238   0.629  -5.288  1.00  0.00    -0.397 OA
HETATM   43  H8  UNL     1       0.226   1.448  -5.542  1.00  0.00     0.209 HD
ENDBRANCH  41  42
ENDBRANCH  29  41
ENDBRANCH   1  29
BRANCH   8  44
HETATM   44  C19 UNL     1       0.555  -1.070   2.906  1.00  0.00     0.265 C 
HETATM   45  O4  UNL     1       1.166  -1.513   3.873  1.00  0.00    -0.302 OA
ENDBRANCH   8  44
TORSDOF 18
