REMARK  12 active torsions:
REMARK  status: ('A' for Active; 'I' for Inactive)
REMARK    1  A    between atoms: C3_3  and  O1_4 
REMARK    2  A    between atoms: N1_14  and  O2_16 
REMARK    3  A    between atoms: O2_16  and  C13_17 
REMARK    4  A    between atoms: C13_17  and  C14_18 
REMARK       I    between atoms: C14_18  and  N2_20 
REMARK    5  A    between atoms: N2_20  and  C15_21 
REMARK    6  A    between atoms: C15_21  and  C16_22 
REMARK    7  A    between atoms: C15_21  and  C27_38 
REMARK       I    between atoms: C16_22  and  N3_24 
REMARK    8  A    between atoms: N3_24  and  C17_25 
REMARK    9  A    between atoms: C17_25  and  C18_26 
REMARK   10  A    between atoms: C17_25  and  C20_30 
REMARK   11  A    between atoms: C18_26  and  C19_27 
REMARK   12  A    between atoms: C19_27  and  O6_29 
ROOT
HETATM    1  C1  UNL     1     -10.832   3.383   3.878  1.00  0.00     0.015 C 
HETATM    2  C2  UNL     1     -10.144   2.460   3.532  1.00  0.00    -0.078 C 
HETATM    3  C3  UNL     1      -9.304   1.321   3.125  1.00  0.00     0.128 C 
HETATM    4  C4  UNL     1     -10.099   0.012   3.085  1.00  0.00     0.052 C 
HETATM    5  C5  UNL     1      -9.159  -0.919   2.328  1.00  0.00     0.010 C 
HETATM    6  C6  UNL     1      -8.652  -0.053   1.171  1.00  0.00     0.002 C 
HETATM    7  C7  UNL     1      -7.358  -0.528   0.467  1.00  0.00    -0.004 C 
HETATM    8  C8  UNL     1      -6.245  -1.093   1.365  1.00  0.00     0.010 C 
HETATM    9  C9  UNL     1      -5.049  -1.585   0.548  1.00  0.00     0.035 C 
HETATM   10  C10 UNL     1      -4.542  -0.586  -0.469  1.00  0.00    -0.069 C 
HETATM   11  C11 UNL     1      -3.219  -0.382  -0.602  1.00  0.00     0.030 C 
HETATM   12  C12 UNL     1      -2.660   0.484  -1.682  1.00  0.00     0.032 C 
HETATM   13  N1  UNL     1      -1.410   0.800  -1.842  1.00  0.00    -0.271 N 
ATOM     14  H1  UNL     1      -1.065   1.400  -2.592  1.00  0.00     0.194 HD
HETATM   15  C30 UNL     1      -3.627   0.991  -2.732  1.00  0.00     0.060 C 
HETATM   16  C31 UNL     1      -4.975   1.310  -2.109  1.00  0.00     0.020 C 
HETATM   17  C32 UNL     1      -5.593   0.108  -1.335  1.00  0.00    -0.016 C 
HETATM   18  C33 UNL     1      -6.103  -0.915  -2.385  1.00  0.00     0.020 C 
HETATM   19  C34 UNL     1      -6.802   0.596  -0.444  1.00  0.00     0.002 C 
HETATM   20  C35 UNL     1      -6.491   1.874   0.380  1.00  0.00     0.007 C 
HETATM   21  C36 UNL     1      -7.271   2.045   1.688  1.00  0.00     0.014 C 
HETATM   22  C37 UNL     1      -8.679   1.427   1.684  1.00  0.00     0.003 C 
HETATM   23  C38 UNL     1      -9.582   2.254   0.727  1.00  0.00     0.020 C 
ENDROOT
BRANCH   3  24
HETATM   24  O1  UNL     1      -8.279   1.153   4.112  1.00  0.00    -0.377 OA
HETATM   25  H2  UNL     1      -8.705   1.241   4.981  1.00  0.00     0.211 HD
ENDBRANCH   3  24
BRANCH  13  26
HETATM   26  O2  UNL     1      -0.589   0.219  -0.862  1.00  0.00    -0.271 OA
BRANCH  26  27
HETATM   27  C13 UNL     1       0.757   0.595  -1.109  1.00  0.00     0.303 C 
BRANCH  27  28
HETATM   28  C14 UNL     1       1.728  -0.513  -0.699  1.00  0.00     0.244 C 
HETATM   29  O3  UNL     1       1.461  -1.399   0.109  1.00  0.00    -0.271 OA
HETATM   30  N2  UNL     1       2.949  -0.433  -1.348  1.00  0.00    -0.346 N 
HETATM   31  H16 UNL     1       3.219   0.487  -1.682  1.00  0.00     0.163 HD
BRANCH  30  32
HETATM   32  C15 UNL     1       4.061  -1.309  -0.990  1.00  0.00     0.180 C 
BRANCH  32  33
HETATM   33  C16 UNL     1       5.053  -0.504  -0.120  1.00  0.00     0.241 C 
HETATM   34  O4  UNL     1       5.038   0.725  -0.076  1.00  0.00    -0.271 OA
HETATM   35  N3  UNL     1       5.971  -1.278   0.561  1.00  0.00    -0.354 N 
HETATM   36  H18 UNL     1       5.957  -2.282   0.424  1.00  0.00     0.162 HD
BRANCH  35  37
HETATM   37  C17 UNL     1       7.016  -0.717   1.434  1.00  0.00     0.098 C 
BRANCH  37  38
HETATM   38  C18 UNL     1       7.006  -1.515   2.749  1.00  0.00     0.135 C 
BRANCH  38  39
HETATM   39  C19 UNL     1       7.484  -0.720   3.933  1.00  0.00     0.141 C 
HETATM   40  O5  UNL     1       7.736   0.470   3.985  1.00  0.00    -0.650 OA
BRANCH  39  41
HETATM   41  O6  UNL     1       7.614  -1.495   5.030  1.00  0.00    -0.776 OA
HETATM   42  H22 UNL     1       7.894  -0.871   5.732  1.00  0.00     0.167 HD
ENDBRANCH  39  41
ENDBRANCH  38  39
ENDBRANCH  37  38
BRANCH  37  43
HETATM   43  C20 UNL     1       8.380  -0.754   0.678  1.00  0.00     0.014 C 
HETATM   44  C21 UNL     1       9.598  -0.411   1.536  1.00  0.00     0.033 C 
HETATM   45  C22 UNL     1      10.897  -0.501   0.737  1.00  0.00     0.169 C 
HETATM   46  O7  UNL     1      10.705  -0.441  -0.673  1.00  0.00    -0.381 OA
HETATM   47  C23 UNL     1       9.749   0.527  -1.116  1.00  0.00     0.054 C 
HETATM   48  C24 UNL     1      10.187   1.953  -0.742  1.00  0.00     0.045 C 
HETATM   49  C25 UNL     1       9.727   0.421  -2.648  1.00  0.00     0.045 C 
HETATM   50  C26 UNL     1       8.354   0.183  -0.553  1.00  0.00     0.044 C 
ENDBRANCH  37  43
ENDBRANCH  35  37
ENDBRANCH  32  33
BRANCH  32  51
HETATM   51  C27 UNL     1       4.758  -1.909  -2.233  1.00  0.00     0.009 C 
HETATM   52  C28 UNL     1       5.209  -0.851  -3.245  1.00  0.00     0.012 C 
HETATM   53  C29 UNL     1       3.850  -2.931  -2.926  1.00  0.00     0.012 C 
ENDBRANCH  32  51
ENDBRANCH  30  32
ENDBRANCH  27  28
ENDBRANCH  26  27
ENDBRANCH  13  26
TORSDOF 12
