REMARK  12 active torsions:
REMARK  status: ('A' for Active; 'I' for Inactive)
REMARK    1  A    between atoms: C19_21  and  O3_22 
REMARK    2  A    between atoms: C19_21  and  C20_23 
REMARK    3  A    between atoms: C20_23  and  C21_25 
REMARK    4  A    between atoms: C21_25  and  O5_26 
REMARK    5  A    between atoms: O5_26  and  C22_27 
REMARK    6  A    between atoms: C22_27  and  C23_29 
REMARK    7  A    between atoms: C23_29  and  C24_30 
REMARK    8  A    between atoms: C24_30  and  C25_31 
REMARK       I    between atoms: C25_31  and  N1_33 
REMARK    9  A    between atoms: N1_33  and  C26_34 
REMARK   10  A    between atoms: C26_34  and  C27_35 
REMARK   11  A    between atoms: C30_38  and  C31_39 
REMARK   12  A    between atoms: C31_39  and  O9_41 
ROOT
HETATM    1  C1  UNL     1      -6.496   1.709  -1.910  1.00  0.00     0.021 C 
HETATM    2  C2  UNL     1      -6.743   0.795  -0.690  1.00  0.00    -0.009 C 
HETATM    3  C3  UNL     1      -7.741  -0.339  -1.075  1.00  0.00     0.022 C 
HETATM    4  C4  UNL     1      -9.185   0.122  -1.215  1.00  0.00     0.084 C 
HETATM    5  C5  UNL     1      -9.642   0.820   0.038  1.00  0.00     0.149 C 
HETATM    6  O1  UNL     1     -10.807   0.792   0.424  1.00  0.00    -0.293 OA
HETATM    7  C6  UNL     1      -8.653   1.638   0.775  1.00  0.00     0.053 C 
HETATM    8  C7  UNL     1      -7.353   1.666   0.426  1.00  0.00    -0.067 C 
HETATM    9  C8  UNL     1      -6.418   2.616   1.138  1.00  0.00     0.035 C 
HETATM   10  C9  UNL     1      -5.156   1.918   1.631  1.00  0.00     0.010 C 
HETATM   11  C10 UNL     1      -4.445   1.174   0.492  1.00  0.00     0.003 C 
HETATM   12  C11 UNL     1      -5.419   0.141  -0.150  1.00  0.00     0.072 C 
HETATM   13  C12 UNL     1      -4.655  -0.750  -1.151  1.00  0.00     0.133 C 
HETATM   14  O2  UNL     1      -5.053  -0.987  -2.289  1.00  0.00    -0.297 OA
HETATM   15  C13 UNL     1      -3.381  -1.411  -0.638  1.00  0.00     0.091 C 
HETATM   16  C14 UNL     1      -2.430  -0.339  -0.091  1.00  0.00     0.005 C 
HETATM   17  C15 UNL     1      -1.963   0.575  -1.261  1.00  0.00     0.019 C 
HETATM   18  C16 UNL     1      -3.198   0.440   1.010  1.00  0.00     0.002 C 
HETATM   19  C17 UNL     1      -2.111   1.268   1.688  1.00  0.00     0.009 C 
HETATM   20  C18 UNL     1      -0.842   0.399   1.592  1.00  0.00     0.047 C 
HETATM   21  C19 UNL     1      -1.213  -0.846   0.748  1.00  0.00     0.128 C 
ENDROOT
BRANCH  21  22
HETATM   22  O3  UNL     1      -1.620  -1.874   1.665  1.00  0.00    -0.381 OA
HETATM   23  H25 UNL     1      -1.841  -2.669   1.143  1.00  0.00     0.211 HD
ENDBRANCH  21  22
BRANCH  21  24
HETATM   24  C20 UNL     1      -0.031  -1.435  -0.042  1.00  0.00     0.185 C 
HETATM   25  O4  UNL     1      -0.195  -1.928  -1.164  1.00  0.00    -0.292 OA
BRANCH  24  26
HETATM   26  C21 UNL     1       1.314  -1.551   0.682  1.00  0.00     0.260 C 
BRANCH  26  27
HETATM   27  O5  UNL     1       2.411  -1.722  -0.215  1.00  0.00    -0.314 OA
BRANCH  27  28
HETATM   28  C22 UNL     1       2.726  -0.587  -0.898  1.00  0.00     0.259 C 
HETATM   29  O6  UNL     1       2.097   0.463  -0.818  1.00  0.00    -0.265 OA
BRANCH  28  30
HETATM   30  C23 UNL     1       3.891  -0.786  -1.836  1.00  0.00     0.120 C 
BRANCH  30  31
HETATM   31  C24 UNL     1       4.899  -1.844  -1.404  1.00  0.00     0.112 C 
BRANCH  31  32
HETATM   32  C25 UNL     1       5.585  -1.494  -0.097  1.00  0.00     0.218 C 
HETATM   33  O7  UNL     1       5.177  -0.626   0.665  1.00  0.00    -0.274 OA
HETATM   34  N1  UNL     1       6.686  -2.281   0.160  1.00  0.00    -0.357 N 
HETATM   35  H32 UNL     1       7.079  -2.824  -0.595  1.00  0.00     0.162 HD
BRANCH  34  36
HETATM   36  C26 UNL     1       7.520  -2.060   1.321  1.00  0.00     0.161 C 
BRANCH  36  37
HETATM   37  C27 UNL     1       8.668  -1.133   1.004  1.00  0.00    -0.040 A 
HETATM   38  C28 UNL     1       9.925  -1.641   0.645  1.00  0.00     0.010 A 
HETATM   39  C29 UNL     1      10.983  -0.774   0.350  1.00  0.00     0.019 A 
HETATM   40  C30 UNL     1      10.791   0.613   0.402  1.00  0.00     0.037 A 
HETATM   41  C32 UNL     1       9.533   1.124   0.740  1.00  0.00     0.019 A 
HETATM   42  C33 UNL     1       8.478   0.257   1.039  1.00  0.00     0.010 A 
BRANCH  40  43
HETATM   43  C31 UNL     1      11.882   1.573   0.104  1.00  0.00     0.176 C 
HETATM   44  O8  UNL     1      11.777   2.785   0.055  1.00  0.00    -0.646 OA
BRANCH  43  45
HETATM   45  O9  UNL     1      13.061   0.965  -0.111  1.00  0.00    -0.773 OA
HETATM   46  H37 UNL     1      13.677   1.710  -0.280  1.00  0.00     0.167 HD
ENDBRANCH  43  45
ENDBRANCH  40  43
ENDBRANCH  36  37
ENDBRANCH  34  36
ENDBRANCH  31  32
ENDBRANCH  30  31
ENDBRANCH  28  30
ENDBRANCH  27  28
ENDBRANCH  26  27
ENDBRANCH  24  26
ENDBRANCH  21  24
TORSDOF 12
