REMARK  9 active torsions:
REMARK  status: ('A' for Active; 'I' for Inactive)
REMARK    1  A    between atoms: C4_4  and  C5_5 
REMARK    2  A    between atoms: C7_7  and  O1_9 
REMARK    3  A    between atoms: C20_21  and  O2_22 
REMARK    4  A    between atoms: O2_22  and  C21_23 
REMARK    5  A    between atoms: C22_25  and  C23_26 
REMARK    6  A    between atoms: C23_26  and  O4_27 
REMARK    7  A    between atoms: C24_28  and  O5_29 
REMARK    8  A    between atoms: C25_30  and  O6_31 
REMARK    9  A    between atoms: C26_32  and  O7_33 
ROOT
HETATM    1  C5  UNL     1       5.577   0.053  -1.428  1.00  0.00     0.147 C 
HETATM    2  C6  UNL     1       6.227  -0.390  -0.119  1.00  0.00     0.074 C 
HETATM    3  C7  UNL     1       5.218  -1.086   0.828  1.00  0.00     0.064 C 
HETATM    4  C8  UNL     1       5.341  -2.612   0.728  1.00  0.00     0.046 C 
HETATM    5  C9  UNL     1       3.766  -0.635   0.504  1.00  0.00     0.058 C 
HETATM    6  C10 UNL     1       3.794   0.803   0.007  1.00  0.00     0.131 C 
HETATM    7  C11 UNL     1       2.321   1.111  -0.210  1.00  0.00     0.042 C 
HETATM    8  C12 UNL     1       1.579   0.480   1.014  1.00  0.00    -0.029 C 
HETATM    9  C13 UNL     1       1.433   1.682   1.992  1.00  0.00     0.016 C 
HETATM   10  C14 UNL     1       0.141  -0.086   0.637  1.00  0.00     0.014 C 
HETATM   11  C15 UNL     1       0.139  -0.763  -0.768  1.00  0.00     0.034 C 
HETATM   12  C16 UNL     1      -0.915  -1.780  -1.053  1.00  0.00    -0.022 C 
HETATM   13  C17 UNL     1      -1.840  -2.195  -0.174  1.00  0.00    -0.059 C 
HETATM   14  C18 UNL     1      -1.853  -1.657   1.241  1.00  0.00     0.057 C 
HETATM   15  C19 UNL     1      -3.080  -0.774   1.335  1.00  0.00     0.024 C 
HETATM   16  C20 UNL     1      -4.218  -0.979   0.649  1.00  0.00     0.116 C 
HETATM   17  C27 UNL     1      -4.326  -2.180  -0.270  1.00  0.00     0.194 C 
HETATM   18  O8  UNL     1      -5.410  -2.475  -0.775  1.00  0.00    -0.289 OA
HETATM   19  C28 UNL     1      -3.066  -3.048  -0.530  1.00  0.00     0.044 C 
HETATM   20  C29 UNL     1      -3.157  -4.316   0.336  1.00  0.00     0.028 C 
HETATM   21  C30 UNL     1      -3.104  -3.488  -2.010  1.00  0.00     0.028 C 
HETATM   22  C31 UNL     1      -0.485  -1.025   1.720  1.00  0.00     0.032 C 
HETATM   23  C32 UNL     1      -0.739  -0.338   3.083  1.00  0.00     0.025 C 
HETATM   24  C33 UNL     1       0.506  -2.157   2.036  1.00  0.00     0.137 C 
HETATM   25  O9  UNL     1       0.168  -3.133   2.712  1.00  0.00    -0.297 OA
HETATM   26  C34 UNL     1       1.923  -2.077   1.497  1.00  0.00     0.089 C 
HETATM   27  C35 UNL     1       2.573  -0.670   1.540  1.00  0.00    -0.021 C 
HETATM   28  C36 UNL     1       3.046  -0.432   2.989  1.00  0.00     0.017 C 
HETATM   29  O10 UNL     1       4.481   0.947  -1.232  1.00  0.00    -0.376 OA
ENDROOT
BRANCH  16  30
HETATM   30  O2  UNL     1      -5.262  -0.097   0.872  1.00  0.00    -0.314 OA
BRANCH  30  31
HETATM   31  C21 UNL     1      -6.191   0.191  -0.182  1.00  0.00     0.298 C 
HETATM   32  O3  UNL     1      -7.191   1.094   0.340  1.00  0.00    -0.348 OA
HETATM   33  C22 UNL     1      -6.934   2.484   0.175  1.00  0.00     0.179 C 
HETATM   34  C24 UNL     1      -6.770   2.876  -1.311  1.00  0.00     0.180 C 
HETATM   35  C25 UNL     1      -6.461   1.667  -2.215  1.00  0.00     0.183 C 
HETATM   36  C26 UNL     1      -5.530   0.693  -1.504  1.00  0.00     0.205 C 
BRANCH  33  37
HETATM   37  C23 UNL     1      -5.784   2.970   1.070  1.00  0.00     0.198 C 
BRANCH  37  38
HETATM   38  O4  UNL     1      -5.773   4.396   1.133  1.00  0.00    -0.398 OA
HETATM   39  H32 UNL     1      -6.408   4.654   1.824  1.00  0.00     0.209 HD
ENDBRANCH  37  38
ENDBRANCH  33  37
BRANCH  34  40
HETATM   40  O5  UNL     1      -7.987   3.464  -1.819  1.00  0.00    -0.390 OA
HETATM   41  H34 UNL     1      -8.111   4.307  -1.347  1.00  0.00     0.210 HD
ENDBRANCH  34  40
BRANCH  35  42
HETATM   42  O6  UNL     1      -7.661   1.005  -2.627  1.00  0.00    -0.390 OA
HETATM   43  H36 UNL     1      -8.369   1.680  -2.524  1.00  0.00     0.210 HD
ENDBRANCH  35  42
BRANCH  36  44
HETATM   44  O7  UNL     1      -4.273   1.356  -1.283  1.00  0.00    -0.388 OA
HETATM   45  H38 UNL     1      -3.819   1.403  -2.144  1.00  0.00     0.210 HD
ENDBRANCH  36  44
ENDBRANCH  30  31
ENDBRANCH  16  30
BRANCH   3  46
HETATM   46  O1  UNL     1       5.615  -0.716   2.146  1.00  0.00    -0.390 OA
HETATM   47  H14 UNL     1       6.517  -1.049   2.307  1.00  0.00     0.210 HD
ENDBRANCH   3  46
BRANCH   1  48
HETATM   48  C4  UNL     1       6.594   0.675  -2.356  1.00  0.00     0.007 C 
HETATM   49  C2  UNL     1       6.967   1.965  -2.491  1.00  0.00    -0.089 C 
HETATM   50  C1  UNL     1       7.968   2.373  -3.540  1.00  0.00     0.042 C 
HETATM   51  C3  UNL     1       6.463   3.102  -1.645  1.00  0.00     0.042 C 
ENDBRANCH   1  48
TORSDOF 9
