REMARK  12 active torsions:
REMARK  status: ('A' for Active; 'I' for Inactive)
REMARK    1  A    between atoms: C3_3  and  O1_4 
REMARK    2  A    between atoms: N1_14  and  O2_16 
REMARK    3  A    between atoms: O2_16  and  C13_17 
REMARK    4  A    between atoms: C13_17  and  C14_18 
REMARK       I    between atoms: C14_18  and  N2_20 
REMARK    5  A    between atoms: N2_20  and  C15_21 
REMARK    6  A    between atoms: C15_21  and  C16_22 
REMARK    7  A    between atoms: C15_21  and  C23_33 
REMARK       I    between atoms: C16_22  and  N3_24 
REMARK    8  A    between atoms: N3_24  and  C17_25 
REMARK    9  A    between atoms: C17_25  and  C18_26 
REMARK   10  A    between atoms: C17_25  and  C19_29 
REMARK   11  A    between atoms: C18_26  and  O6_28 
REMARK   12  A    between atoms: C19_29  and  C21_31 
ROOT
HETATM    1  C1  UNL     1      -8.641   4.259   0.237  1.00  0.00     0.015 C 
HETATM    2  C2  UNL     1      -8.296   3.111   0.350  1.00  0.00    -0.078 C 
HETATM    3  C3  UNL     1      -7.864   1.709   0.494  1.00  0.00     0.128 C 
HETATM    4  C4  UNL     1      -9.076   0.786   0.694  1.00  0.00     0.052 C 
HETATM    5  C5  UNL     1      -8.614  -0.607   0.251  1.00  0.00     0.010 C 
HETATM    6  C6  UNL     1      -7.307  -0.425  -0.551  1.00  0.00     0.002 C 
HETATM    7  C7  UNL     1      -6.074  -1.238  -0.047  1.00  0.00    -0.004 C 
HETATM    8  C8  UNL     1      -5.891  -1.400   1.481  1.00  0.00     0.010 C 
HETATM    9  C9  UNL     1      -4.715  -2.313   1.830  1.00  0.00     0.035 C 
HETATM   10  C10 UNL     1      -3.432  -1.903   1.154  1.00  0.00    -0.069 C 
HETATM   11  C11 UNL     1      -2.293  -1.815   1.871  1.00  0.00     0.030 C 
HETATM   12  C12 UNL     1      -0.993  -1.493   1.227  1.00  0.00     0.032 C 
HETATM   13  N1  UNL     1      -0.011  -1.122   1.996  1.00  0.00    -0.271 N 
ATOM     14  H1  UNL     1      -0.068  -1.080   3.014  1.00  0.00     0.194 HD
HETATM   15  C26 UNL     1      -0.927  -1.636  -0.279  1.00  0.00     0.060 C 
HETATM   16  C27 UNL     1      -2.184  -0.996  -0.867  1.00  0.00     0.020 C 
HETATM   17  C28 UNL     1      -3.511  -1.633  -0.349  1.00  0.00    -0.016 C 
HETATM   18  C29 UNL     1      -3.676  -3.000  -1.069  1.00  0.00     0.020 C 
HETATM   19  C30 UNL     1      -4.757  -0.720  -0.700  1.00  0.00     0.002 C 
HETATM   20  C31 UNL     1      -4.611   0.775  -0.341  1.00  0.00     0.007 C 
HETATM   21  C32 UNL     1      -5.718   1.602  -0.984  1.00  0.00     0.014 C 
HETATM   22  C33 UNL     1      -7.164   1.116  -0.767  1.00  0.00     0.003 C 
HETATM   23  C34 UNL     1      -7.954   1.493  -2.063  1.00  0.00     0.020 C 
ENDROOT
BRANCH   3  24
HETATM   24  O1  UNL     1      -7.005   1.656   1.627  1.00  0.00    -0.377 OA
HETATM   25  H2  UNL     1      -7.274   0.912   2.197  1.00  0.00     0.211 HD
ENDBRANCH   3  24
BRANCH  13  26
HETATM   26  O2  UNL     1       1.134  -0.787   1.260  1.00  0.00    -0.271 OA
BRANCH  26  27
HETATM   27  C13 UNL     1       2.005  -0.036   2.100  1.00  0.00     0.303 C 
BRANCH  27  28
HETATM   28  C14 UNL     1       3.079   0.687   1.297  1.00  0.00     0.244 C 
HETATM   29  O3  UNL     1       3.606   1.726   1.695  1.00  0.00    -0.271 OA
HETATM   30  N2  UNL     1       3.439   0.073   0.113  1.00  0.00    -0.346 N 
HETATM   31  H16 UNL     1       3.218  -0.916   0.055  1.00  0.00     0.163 HD
BRANCH  30  32
HETATM   32  C15 UNL     1       4.612   0.532  -0.631  1.00  0.00     0.180 C 
BRANCH  32  33
HETATM   33  C16 UNL     1       5.853  -0.186  -0.048  1.00  0.00     0.241 C 
HETATM   34  O4  UNL     1       5.795  -1.315   0.440  1.00  0.00    -0.271 OA
HETATM   35  N3  UNL     1       7.031   0.531  -0.126  1.00  0.00    -0.344 N 
HETATM   36  H18 UNL     1       7.061   1.285  -0.802  1.00  0.00     0.163 HD
BRANCH  35  37
HETATM   37  C17 UNL     1       8.315  -0.069   0.249  1.00  0.00     0.186 C 
BRANCH  37  38
HETATM   38  C18 UNL     1       8.903  -0.779  -0.976  1.00  0.00     0.163 C 
HETATM   39  O5  UNL     1       8.582  -0.609  -2.145  1.00  0.00    -0.648 OA
BRANCH  38  40
HETATM   40  O6  UNL     1       9.894  -1.639  -0.662  1.00  0.00    -0.775 OA
HETATM   41  H20 UNL     1      10.152  -2.033  -1.518  1.00  0.00     0.167 HD
ENDBRANCH  38  40
ENDBRANCH  37  38
BRANCH  37  42
HETATM   42  C19 UNL     1       9.305   0.977   0.821  1.00  0.00     0.014 C 
HETATM   43  C20 UNL     1       9.554   2.147  -0.147  1.00  0.00     0.012 C 
BRANCH  42  44
HETATM   44  C21 UNL     1       8.848   1.535   2.186  1.00  0.00     0.002 C 
HETATM   45  C22 UNL     1       8.879   0.504   3.302  1.00  0.00     0.005 C 
ENDBRANCH  42  44
ENDBRANCH  37  42
ENDBRANCH  35  37
ENDBRANCH  32  33
BRANCH  32  46
HETATM   46  C23 UNL     1       4.412   0.306  -2.147  1.00  0.00     0.009 C 
HETATM   47  C24 UNL     1       5.387   1.136  -2.984  1.00  0.00     0.012 C 
HETATM   48  C25 UNL     1       4.486  -1.166  -2.563  1.00  0.00     0.012 C 
ENDBRANCH  32  46
ENDBRANCH  30  32
ENDBRANCH  27  28
ENDBRANCH  26  27
ENDBRANCH  13  26
TORSDOF 12
