REMARK  23 active torsions:
REMARK  status: ('A' for Active; 'I' for Inactive)
REMARK    1  A    between atoms: C3_3  and  C4_4 
REMARK    2  A    between atoms: C5_5  and  C6_6 
REMARK    3  A    between atoms: C7_8  and  O2_9 
REMARK    4  A    between atoms: C7_8  and  C8_10 
REMARK    5  A    between atoms: C8_10  and  C10_12 
REMARK       I    between atoms: C10_12  and  N1_14 
REMARK    6  A    between atoms: N1_14  and  C11_15 
REMARK    7  A    between atoms: C11_15  and  C12_16 
REMARK    8  A    between atoms: C13_17  and  C14_18 
REMARK    9  A    between atoms: C15_19  and  C17_21 
REMARK   10  A    between atoms: C17_21  and  O4_22 
REMARK   11  A    between atoms: C17_21  and  C19_24 
REMARK   12  A    between atoms: C19_24  and  C21_26 
REMARK   13  A    between atoms: C23_28  and  O5_29 
REMARK   14  A    between atoms: C24_30  and  C25_31 
REMARK   15  A    between atoms: C26_32  and  C27_33 
REMARK   16  A    between atoms: C28_34  and  C29_35 
REMARK   17  A    between atoms: C30_36  and  C31_37 
REMARK   18  A    between atoms: C31_37  and  O7_39 
REMARK   19  A    between atoms: C32_41  and  O9_42 
REMARK   20  A    between atoms: O9_42  and  C33_43 
REMARK   21  A    between atoms: C33_43  and  C34_45 
REMARK   22  A    between atoms: C34_45  and  C35_46 
REMARK   23  A    between atoms: C41_52  and  O11_53 
ROOT
HETATM    1  C10 UNL     1      -2.492   0.865   1.336  1.00  0.00     0.227 C 
HETATM    2  O3  UNL     1      -2.483   0.992   2.558  1.00  0.00    -0.273 OA
HETATM    3  N1  UNL     1      -1.916   1.772   0.480  1.00  0.00    -0.357 N 
HETATM    4  H14 UNL     1      -2.201   1.721  -0.490  1.00  0.00     0.162 HD
ENDROOT
BRANCH   1   5
HETATM    5  C8  UNL     1      -3.248  -0.278   0.661  1.00  0.00     0.139 C 
HETATM    6  C9  UNL     1      -3.043  -1.526   1.522  1.00  0.00     0.026 C 
BRANCH   5   7
HETATM    7  C7  UNL     1      -4.722   0.193   0.479  1.00  0.00     0.204 C 
HETATM    8  O1  UNL     1      -4.657   1.399  -0.322  1.00  0.00    -0.342 OA
HETATM    9  C6  UNL     1      -5.897   1.743  -0.936  1.00  0.00     0.158 C 
HETATM   10  C42 UNL     1      -6.192   0.748  -2.111  1.00  0.00     0.011 C 
HETATM   11  C41 UNL     1      -5.724  -0.686  -1.701  1.00  0.00     0.163 C 
HETATM   12  C43 UNL     1      -7.722   0.724  -2.351  1.00  0.00     0.020 C 
HETATM   13  C44 UNL     1      -5.521   1.180  -3.435  1.00  0.00     0.020 C 
HETATM   14  C32 UNL     1      -5.719  -0.831  -0.172  1.00  0.00     0.224 C 
BRANCH   9  15
HETATM   15  C5  UNL     1      -5.893   3.202  -1.331  1.00  0.00     0.006 C 
HETATM   16  C4  UNL     1      -4.810   3.985  -1.476  1.00  0.00    -0.002 C 
BRANCH  16  17
HETATM   17  C3  UNL     1      -4.905   5.377  -1.850  1.00  0.00    -0.005 C 
HETATM   18  C2  UNL     1      -3.890   6.217  -2.100  1.00  0.00    -0.031 C 
HETATM   19  C1  UNL     1      -2.423   5.934  -2.091  1.00  0.00     0.036 C 
ENDBRANCH  16  17
ENDBRANCH   9  15
BRANCH  11  20
HETATM   20  O11 UNL     1      -4.411  -0.996  -2.194  1.00  0.00    -0.392 OA
HETATM   21  H53 UNL     1      -4.499  -1.212  -3.139  1.00  0.00     0.210 HD
ENDBRANCH  11  20
BRANCH  14  22
HETATM   22  O9  UNL     1      -5.452  -2.205   0.175  1.00  0.00    -0.307 OA
BRANCH  22  23
HETATM   23  C33 UNL     1      -6.421  -2.878   0.867  1.00  0.00     0.263 C 
HETATM   24  O10 UNL     1      -7.529  -2.437   1.141  1.00  0.00    -0.265 OA
BRANCH  23  25
HETATM   25  C34 UNL     1      -5.931  -4.276   1.175  1.00  0.00     0.149 C 
BRANCH  25  26
HETATM   26  C35 UNL     1      -6.574  -4.893   2.395  1.00  0.00    -0.049 A 
HETATM   27  C36 UNL     1      -6.027  -4.685   3.669  1.00  0.00     0.007 A 
HETATM   28  C37 UNL     1      -6.620  -5.260   4.794  1.00  0.00     0.001 A 
HETATM   29  C38 UNL     1      -7.768  -6.041   4.659  1.00  0.00     0.000 A 
HETATM   30  C39 UNL     1      -8.324  -6.246   3.397  1.00  0.00     0.001 A 
HETATM   31  C40 UNL     1      -7.733  -5.672   2.271  1.00  0.00     0.007 A 
ENDBRANCH  25  26
ENDBRANCH  23  25
ENDBRANCH  22  23
ENDBRANCH  14  22
BRANCH   7  32
HETATM   32  O2  UNL     1      -5.304   0.524   1.751  1.00  0.00    -0.362 OA
HETATM   33  H9  UNL     1      -4.592   0.814   2.354  1.00  0.00     0.213 HD
ENDBRANCH   7  32
ENDBRANCH   5   7
ENDBRANCH   1   5
BRANCH   3  34
HETATM   34  C11 UNL     1      -1.462   3.057   0.951  1.00  0.00     0.149 C 
BRANCH  34  35
HETATM   35  C12 UNL     1       0.029   3.169   0.994  1.00  0.00    -0.007 C 
HETATM   36  C13 UNL     1       0.936   2.181   0.931  1.00  0.00    -0.002 C 
BRANCH  36  37
HETATM   37  C14 UNL     1       2.356   2.439   1.040  1.00  0.00     0.005 C 
HETATM   38  C15 UNL     1       3.357   1.535   1.085  1.00  0.00    -0.055 C 
HETATM   39  C16 UNL     1       3.185   0.036   1.052  1.00  0.00     0.046 C 
BRANCH  38  40
HETATM   40  C17 UNL     1       4.804   2.020   1.210  1.00  0.00     0.155 C 
BRANCH  40  41
HETATM   41  O4  UNL     1       5.368   1.458   2.399  1.00  0.00    -0.386 OA
HETATM   42  C18 UNL     1       4.926   2.094   3.589  1.00  0.00     0.202 C 
ENDBRANCH  40  41
BRANCH  40  43
HETATM   43  C19 UNL     1       5.698   1.639  -0.001  1.00  0.00     0.044 C 
HETATM   44  C20 UNL     1       5.083   2.132  -1.324  1.00  0.00     0.015 C 
BRANCH  43  45
HETATM   45  C21 UNL     1       7.137   2.193   0.136  1.00  0.00     0.131 C 
HETATM   46  C22 UNL     1       7.957   1.691   1.320  1.00  0.00     0.067 C 
HETATM   47  C23 UNL     1       9.369   1.877   0.812  1.00  0.00     0.153 C 
HETATM   48  C24 UNL     1       9.229   1.446  -0.653  1.00  0.00     0.173 C 
HETATM   49  O8  UNL     1       7.905   1.860  -1.047  1.00  0.00    -0.374 OA
BRANCH  47  50
HETATM   50  O5  UNL     1      10.341   1.163   1.559  1.00  0.00    -0.393 OA
HETATM   51  H35 UNL     1      10.061   1.170   2.490  1.00  0.00     0.210 HD
ENDBRANCH  47  50
BRANCH  48  52
HETATM   52  C25 UNL     1       9.407  -0.036  -0.881  1.00  0.00     0.007 C 
HETATM   53  C26 UNL     1       8.508  -0.891  -1.398  1.00  0.00    -0.001 C 
BRANCH  53  54
HETATM   54  C27 UNL     1       8.777  -2.305  -1.537  1.00  0.00    -0.000 C 
HETATM   55  C28 UNL     1       7.872  -3.179  -2.004  1.00  0.00     0.000 C 
BRANCH  55  56
HETATM   56  C29 UNL     1       8.146  -4.595  -2.126  1.00  0.00     0.007 C 
HETATM   57  C30 UNL     1       7.247  -5.483  -2.578  1.00  0.00     0.081 C 
BRANCH  57  58
HETATM   58  C31 UNL     1       7.612  -6.903  -2.657  1.00  0.00     0.165 C 
HETATM   59  O6  UNL     1       8.672  -7.413  -2.352  1.00  0.00    -0.647 OA
BRANCH  58  60
HETATM   60  O7  UNL     1       6.585  -7.620  -3.139  1.00  0.00    -0.773 OA
HETATM   61  H43 UNL     1       6.936  -8.536  -3.159  1.00  0.00     0.167 HD
ENDBRANCH  58  60
ENDBRANCH  57  58
ENDBRANCH  55  56
ENDBRANCH  53  54
ENDBRANCH  48  52
ENDBRANCH  43  45
ENDBRANCH  40  43
ENDBRANCH  38  40
ENDBRANCH  36  37
ENDBRANCH  34  35
ENDBRANCH   3  34
TORSDOF 23
