REMARK  6 active torsions:
REMARK  status: ('A' for Active; 'I' for Inactive)
REMARK    1  A    between atoms: C3_3  and  O1_4 
REMARK    2  A    between atoms: N1_14  and  O2_16 
REMARK    3  A    between atoms: O2_16  and  C13_17 
REMARK    4  A    between atoms: C13_17  and  C14_18 
REMARK       I    between atoms: C14_18  and  N2_20 
REMARK    5  A    between atoms: N2_20  and  C15_21 
REMARK    6  A    between atoms: C15_21  and  C17_23 
ROOT
HETATM    1  C1  UNL     1      -6.501  -1.994  -2.794  1.00  0.00     0.015 C 
HETATM    2  C2  UNL     1      -6.481  -1.809  -1.607  1.00  0.00    -0.078 C 
HETATM    3  C3  UNL     1      -6.475  -1.587  -0.145  1.00  0.00     0.128 C 
HETATM    4  C4  UNL     1      -7.257  -0.286   0.188  1.00  0.00     0.052 C 
HETATM    5  C5  UNL     1      -6.203   0.824   0.389  1.00  0.00     0.010 C 
HETATM    6  C6  UNL     1      -4.872   0.174   0.018  1.00  0.00     0.002 C 
HETATM    7  C7  UNL     1      -3.577   0.797   0.555  1.00  0.00    -0.004 C 
HETATM    8  C8  UNL     1      -3.441   2.261   0.117  1.00  0.00     0.010 C 
HETATM    9  C9  UNL     1      -2.143   2.872   0.628  1.00  0.00     0.035 C 
HETATM   10  C10 UNL     1      -0.932   2.067   0.218  1.00  0.00    -0.069 C 
HETATM   11  C11 UNL     1       0.116   2.689  -0.349  1.00  0.00     0.030 C 
HETATM   12  C12 UNL     1       1.387   1.981  -0.646  1.00  0.00     0.032 C 
HETATM   13  N1  UNL     1       2.341   2.659  -1.219  1.00  0.00    -0.271 N 
ATOM     14  H1  UNL     1       2.253   3.629  -1.521  1.00  0.00     0.194 HD
HETATM   15  C23 UNL     1       1.509   0.540  -0.197  1.00  0.00     0.060 C 
HETATM   16  C24 UNL     1       0.160  -0.160  -0.274  1.00  0.00     0.020 C 
HETATM   17  C25 UNL     1      -0.974   0.562   0.511  1.00  0.00    -0.016 C 
HETATM   18  C26 UNL     1      -0.744   0.357   2.025  1.00  0.00     0.020 C 
HETATM   19  C27 UNL     1      -2.358  -0.029   0.037  1.00  0.00     0.002 C 
HETATM   20  C28 UNL     1      -2.522  -1.548   0.319  1.00  0.00     0.007 C 
HETATM   21  C29 UNL     1      -3.882  -2.111  -0.132  1.00  0.00     0.014 C 
HETATM   22  C30 UNL     1      -5.057  -1.299   0.442  1.00  0.00     0.003 C 
HETATM   23  C31 UNL     1      -5.081  -1.500   1.987  1.00  0.00     0.020 C 
ENDROOT
BRANCH   3  24
HETATM   24  O1  UNL     1      -7.084  -2.724   0.449  1.00  0.00    -0.377 OA
HETATM   25  H2  UNL     1      -7.406  -2.478   1.330  1.00  0.00     0.211 HD
ENDBRANCH   3  24
BRANCH  13  26
HETATM   26  O2  UNL     1       3.502   1.890  -1.368  1.00  0.00    -0.271 OA
BRANCH  26  27
HETATM   27  C13 UNL     1       4.474   2.651  -2.081  1.00  0.00     0.303 C 
BRANCH  27  28
HETATM   28  C14 UNL     1       5.822   1.937  -2.070  1.00  0.00     0.244 C 
HETATM   29  O3  UNL     1       6.703   2.184  -2.889  1.00  0.00    -0.271 OA
HETATM   30  N2  UNL     1       5.979   1.034  -1.042  1.00  0.00    -0.351 N 
HETATM   31  H16 UNL     1       5.148   0.796  -0.510  1.00  0.00     0.163 HD
BRANCH  30  32
HETATM   32  C15 UNL     1       7.161   0.205  -0.893  1.00  0.00     0.113 C 
HETATM   33  C16 UNL     1       8.348   1.009  -0.354  1.00  0.00     0.037 C 
BRANCH  32  34
HETATM   34  C17 UNL     1       6.831  -0.990  -0.014  1.00  0.00    -0.036 A 
HETATM   35  C18 UNL     1       6.736  -2.270  -0.582  1.00  0.00     0.009 A 
HETATM   36  C19 UNL     1       6.409  -3.376   0.204  1.00  0.00     0.001 A 
HETATM   37  C20 UNL     1       6.166  -3.218   1.566  1.00  0.00     0.000 A 
HETATM   38  C21 UNL     1       6.246  -1.953   2.144  1.00  0.00     0.001 A 
HETATM   39  C22 UNL     1       6.573  -0.845   1.359  1.00  0.00     0.009 A 
ENDBRANCH  32  34
ENDBRANCH  30  32
ENDBRANCH  27  28
ENDBRANCH  26  27
ENDBRANCH  13  26
TORSDOF 6
