REMARK  5 active torsions:
REMARK  status: ('A' for Active; 'I' for Inactive)
REMARK    1  A    between atoms: C2_2  and  C3_3 
REMARK    2  A    between atoms: C2_2  and  C25_27 
REMARK    3  A    between atoms: C3_3  and  C4_4 
REMARK    4  A    between atoms: C4_4  and  C5_5 
REMARK    5  A    between atoms: C15_15  and  O1_16 
ROOT
HETATM    1  C5  UNL     1      -2.731   0.484  -0.158  1.00  0.00    -0.023 C 
HETATM    2  C6  UNL     1      -1.662  -0.306  -0.355  1.00  0.00    -0.075 C 
HETATM    3  C7  UNL     1      -1.674  -1.825  -0.337  1.00  0.00     0.035 C 
HETATM    4  C8  UNL     1      -0.196  -2.233  -0.415  1.00  0.00     0.013 C 
HETATM    5  C9  UNL     1       0.521  -0.992   0.106  1.00  0.00     0.033 C 
HETATM    6  C10 UNL     1       2.045  -0.915   0.009  1.00  0.00     0.070 C 
HETATM    7  C11 UNL     1       2.704  -2.069   0.809  1.00  0.00     0.039 C 
HETATM    8  C12 UNL     1       4.232  -2.062   0.711  1.00  0.00     0.009 C 
HETATM    9  C13 UNL     1       4.782  -0.638   0.842  1.00  0.00    -0.001 C 
HETATM   10  C14 UNL     1       6.286  -0.568   0.579  1.00  0.00     0.037 C 
HETATM   11  C15 UNL     1       6.844   0.802   0.985  1.00  0.00     0.118 C 
HETATM   12  C16 UNL     1       5.803   1.927   0.935  1.00  0.00     0.032 C 
HETATM   13  C17 UNL     1       4.789   1.713  -0.188  1.00  0.00     0.015 C 
HETATM   14  C18 UNL     1       4.004   0.386  -0.057  1.00  0.00    -0.009 C 
HETATM   15  C19 UNL     1       3.700  -0.193  -1.459  1.00  0.00     0.179 C 
HETATM   16  O2  UNL     1       2.528  -1.024  -1.340  1.00  0.00    -0.379 OA
HETATM   17  C20 UNL     1       2.567   0.456   0.506  1.00  0.00     0.032 C 
HETATM   18  C21 UNL     1       1.732   1.667   0.022  1.00  0.00     0.009 C 
HETATM   19  C22 UNL     1       0.213   1.465   0.127  1.00  0.00     0.014 C 
HETATM   20  C23 UNL     1      -0.230   0.171  -0.576  1.00  0.00    -0.014 C 
HETATM   21  C24 UNL     1      -0.048   0.307  -2.105  1.00  0.00     0.020 C 
ENDROOT
BRANCH   1  22
HETATM   22  C4  UNL     1      -4.143   0.018   0.082  1.00  0.00     0.031 C 
BRANCH  22  23
HETATM   23  C3  UNL     1      -5.070   0.447  -1.060  1.00  0.00     0.037 C 
BRANCH  23  24
HETATM   24  C2  UNL     1      -6.468  -0.145  -0.984  1.00  0.00    -0.086 C 
HETATM   25  C1  UNL     1      -6.866  -1.038  -1.910  1.00  0.00     0.014 C 
BRANCH  24  26
HETATM   26  C25 UNL     1      -7.442   0.309   0.099  1.00  0.00     0.005 C 
HETATM   27  C26 UNL     1      -7.295  -0.505   1.387  1.00  0.00     0.014 C 
HETATM   28  C27 UNL     1      -7.382   1.809   0.394  1.00  0.00     0.014 C 
ENDBRANCH  24  26
ENDBRANCH  23  24
ENDBRANCH  22  23
ENDBRANCH   1  22
BRANCH  11  29
HETATM   29  O1  UNL     1       7.950   1.122   0.146  1.00  0.00    -0.396 OA
HETATM   30  H21 UNL     1       7.624   1.222  -0.764  1.00  0.00     0.210 HD
ENDBRANCH  11  29
TORSDOF 5
