REMARK  11 active torsions:
REMARK  status: ('A' for Active; 'I' for Inactive)
REMARK    1  A    between atoms: C2_2  and  C3_3 
REMARK    2  A    between atoms: C2_2  and  C4_5 
REMARK    3  A    between atoms: C3_3  and  O1_4 
REMARK    4  A    between atoms: C13_14  and  C14_15 
REMARK    5  A    between atoms: C14_15  and  C16_17 
REMARK    6  A    between atoms: C16_17  and  C17_18 
REMARK    7  A    between atoms: C17_18  and  C18_20 
REMARK    8  A    between atoms: C27_29  and  C28_30 
REMARK    9  A    between atoms: C28_30  and  C29_31 
REMARK   10  A    between atoms: C29_31  and  C30_32 
REMARK   11  A    between atoms: C30_32  and  O4_34 
ROOT
HETATM    1  C4  UNL     1      -4.257  -1.180  -0.591  1.00  0.00     0.025 C 
HETATM    2  C5  UNL     1      -3.376  -1.697  -1.741  1.00  0.00     0.010 C 
HETATM    3  C6  UNL     1      -2.335  -0.653  -2.131  1.00  0.00     0.007 C 
HETATM    4  C7  UNL     1      -1.292  -0.504  -1.017  1.00  0.00     0.004 C 
HETATM    5  C8  UNL     1      -1.949  -0.165   0.347  1.00  0.00    -0.027 A 
HETATM    6  C9  UNL     1      -1.389   1.043   1.118  1.00  0.00     0.011 C 
HETATM    7  C10 UNL     1       0.106   1.384   0.955  1.00  0.00     0.011 C 
HETATM    8  C11 UNL     1       0.823   0.576  -0.130  1.00  0.00    -0.032 C 
HETATM    9  C12 UNL     1       1.230  -0.786   0.500  1.00  0.00     0.016 C 
HETATM   10  C13 UNL     1       2.073   1.272  -0.755  1.00  0.00    -0.002 C 
HETATM   11  C22 UNL     1       2.194   0.618  -2.154  1.00  0.00     0.006 C 
HETATM   12  C23 UNL     1       0.847  -0.074  -2.442  1.00  0.00     0.011 C 
HETATM   13  C24 UNL     1      -0.127   0.456  -1.370  1.00  0.00    -0.032 C 
HETATM   14  C25 UNL     1      -0.685   1.811  -1.906  1.00  0.00     0.016 C 
HETATM   15  C26 UNL     1      -2.317  -1.375   1.187  1.00  0.00     0.022 A 
HETATM   16  C27 UNL     1      -3.442  -0.571   0.580  1.00  0.00    -0.024 A 
ENDROOT
BRANCH  10  17
HETATM   17  C14 UNL     1       3.378   1.351   0.089  1.00  0.00    -0.007 C 
HETATM   18  C15 UNL     1       4.153   2.628  -0.288  1.00  0.00     0.011 C 
BRANCH  17  19
HETATM   19  C16 UNL     1       4.336   0.149  -0.049  1.00  0.00     0.087 C 
BRANCH  19  20
HETATM   20  C17 UNL     1       5.317   0.052   1.112  1.00  0.00     0.149 C 
HETATM   21  O2  UNL     1       4.959   0.214   2.276  1.00  0.00    -0.293 OA
BRANCH  20  22
HETATM   22  C18 UNL     1       6.734  -0.282   0.758  1.00  0.00     0.052 C 
HETATM   23  C19 UNL     1       7.701  -0.644   1.624  1.00  0.00    -0.084 C 
HETATM   24  C20 UNL     1       7.500  -0.816   3.106  1.00  0.00     0.043 C 
HETATM   25  C21 UNL     1       9.101  -0.914   1.140  1.00  0.00     0.043 C 
ENDBRANCH  20  22
ENDBRANCH  19  20
ENDBRANCH  17  19
ENDBRANCH  10  17
BRANCH  16  26
HETATM   26  C28 UNL     1      -4.305   0.217   1.578  1.00  0.00     0.021 C 
BRANCH  26  27
HETATM   27  C29 UNL     1      -4.957   1.460   0.974  1.00  0.00     0.111 C 
BRANCH  27  28
HETATM   28  C30 UNL     1      -5.613   2.303   2.033  1.00  0.00     0.139 C 
HETATM   29  O3  UNL     1      -5.782   2.025   3.207  1.00  0.00    -0.650 OA
BRANCH  28  30
HETATM   30  O4  UNL     1      -6.056   3.475   1.535  1.00  0.00    -0.776 OA
HETATM   31  H46 UNL     1      -6.471   3.920   2.305  1.00  0.00     0.167 HD
ENDBRANCH  28  30
ENDBRANCH  27  28
ENDBRANCH  26  27
ENDBRANCH  16  26
BRANCH   1  32
HETATM   32  C2  UNL     1      -5.315  -2.234  -0.236  1.00  0.00    -0.061 C 
HETATM   33  C1  UNL     1      -5.193  -3.091   0.796  1.00  0.00     0.017 C 
BRANCH  32  34
HETATM   34  C3  UNL     1      -6.521  -2.235  -1.155  1.00  0.00     0.198 C 
BRANCH  34  35
HETATM   35  O1  UNL     1      -7.583  -3.029  -0.647  1.00  0.00    -0.397 OA
HETATM   36  H5  UNL     1      -7.816  -2.652   0.219  1.00  0.00     0.209 HD
ENDBRANCH  34  35
ENDBRANCH  32  34
ENDBRANCH   1  32
TORSDOF 11
