REMARK  16 active torsions:
REMARK  status: ('A' for Active; 'I' for Inactive)
REMARK    1  A    between atoms: S1_2  and  C2_3 
REMARK    2  A    between atoms: C2_3  and  C3_4 
REMARK    3  A    between atoms: C3_4  and  C4_5 
REMARK    4  A    between atoms: C4_5  and  N1_6 
REMARK    5  A    between atoms: C4_5  and  C33_44 
REMARK       I    between atoms: N1_6  and  C5_7 
REMARK    6  A    between atoms: C5_7  and  C6_9 
REMARK    7  A    between atoms: C6_9  and  N2_11 
REMARK       I    between atoms: N2_11  and  C8_12 
REMARK    8  A    between atoms: C8_12  and  C9_14 
REMARK    9  A    between atoms: C9_14  and  C10_15 
REMARK   10  A    between atoms: C10_15  and  C11_16 
REMARK   11  A    between atoms: C11_16  and  O4_18 
REMARK   12  A    between atoms: O4_18  and  C12_19 
REMARK   13  A    between atoms: C12_19  and  C13_20 
REMARK   14  A    between atoms: C13_20  and  C14_22 
REMARK   15  A    between atoms: C14_22  and  O6_23 
REMARK   16  A    between atoms: C33_44  and  O10_46 
ROOT
HETATM    1  C12 UNL     1       0.112  -0.061   2.598  1.00  0.00     0.260 C 
ENDROOT
BRANCH   1   2
HETATM    2  O4  UNL     1       1.448  -0.504   2.360  1.00  0.00    -0.314 OA
BRANCH   2   3
HETATM    3  C11 UNL     1       1.819  -0.514   1.048  1.00  0.00     0.259 C 
HETATM    4  O3  UNL     1       1.112  -0.141   0.122  1.00  0.00    -0.265 OA
BRANCH   3   5
HETATM    5  C10 UNL     1       3.197  -1.117   0.915  1.00  0.00     0.120 C 
BRANCH   5   6
HETATM    6  C9  UNL     1       3.806  -0.834  -0.451  1.00  0.00     0.112 C 
BRANCH   6   7
HETATM    7  C8  UNL     1       4.273   0.602  -0.572  1.00  0.00     0.218 C 
HETATM    8  N2  UNL     1       4.740   0.921  -1.827  1.00  0.00    -0.348 N 
HETATM    9  H14 UNL     1       4.905   0.167  -2.482  1.00  0.00     0.163 HD
HETATM   10  O2  UNL     1       4.288   1.396   0.362  1.00  0.00    -0.274 OA
BRANCH   8  11
HETATM   11  C6  UNL     1       5.386   2.206  -2.111  1.00  0.00     0.172 C 
HETATM   12  C7  UNL     1       5.050   2.655  -3.526  1.00  0.00     0.042 C 
BRANCH  11  13
HETATM   13  C5  UNL     1       6.913   2.086  -1.910  1.00  0.00     0.240 C 
HETATM   14  N1  UNL     1       7.293   1.503  -0.722  1.00  0.00    -0.345 N 
HETATM   15  H9  UNL     1       6.581   1.388   0.003  1.00  0.00     0.163 HD
HETATM   16  O1  UNL     1       7.730   2.517  -2.716  1.00  0.00    -0.271 OA
BRANCH  14  17
HETATM   17  C4  UNL     1       8.687   1.406  -0.290  1.00  0.00     0.183 C 
BRANCH  17  18
HETATM   18  C3  UNL     1       9.552   0.490  -1.174  1.00  0.00     0.046 C 
BRANCH  18  19
HETATM   19  C2  UNL     1       8.976  -0.894  -1.479  1.00  0.00     0.076 C 
BRANCH  19  20
HETATM   20  S1  UNL     1       8.909  -2.035  -0.060  1.00  0.00    -0.173 SA
HETATM   21  C1  UNL     1      10.670  -2.422   0.108  1.00  0.00     0.089 C 
ENDBRANCH  19  20
ENDBRANCH  18  19
ENDBRANCH  17  18
BRANCH  17  22
HETATM   22  C33 UNL     1       8.716   1.020   1.190  1.00  0.00     0.163 C 
HETATM   23  O9  UNL     1       7.742   0.852   1.909  1.00  0.00    -0.648 OA
BRANCH  22  24
HETATM   24  O10 UNL     1       9.961   0.934   1.706  1.00  0.00    -0.775 OA
HETATM   25  H46 UNL     1       9.802   0.696   2.645  1.00  0.00     0.167 HD
ENDBRANCH  22  24
ENDBRANCH  17  22
ENDBRANCH  14  17
ENDBRANCH  11  13
ENDBRANCH   8  11
ENDBRANCH   6   7
ENDBRANCH   5   6
ENDBRANCH   3   5
ENDBRANCH   2   3
ENDBRANCH   1   2
BRANCH   1  26
HETATM   26  C13 UNL     1      -0.927  -1.145   2.315  1.00  0.00     0.185 C 
HETATM   27  O5  UNL     1      -0.606  -2.282   1.945  1.00  0.00    -0.292 OA
BRANCH  26  28
HETATM   28  C14 UNL     1      -2.418  -0.831   2.541  1.00  0.00     0.128 C 
HETATM   29  C15 UNL     1      -2.746   0.398   3.415  1.00  0.00     0.047 C 
HETATM   30  C16 UNL     1      -4.120   0.916   2.941  1.00  0.00     0.009 C 
HETATM   31  C17 UNL     1      -4.561  -0.072   1.862  1.00  0.00     0.002 C 
HETATM   32  C18 UNL     1      -5.665   0.333   0.878  1.00  0.00     0.003 C 
HETATM   33  C31 UNL     1      -3.248  -0.589   1.236  1.00  0.00     0.005 C 
HETATM   34  C19 UNL     1      -5.798   1.836   0.566  1.00  0.00     0.010 C 
HETATM   35  C28 UNL     1      -5.616  -0.448  -0.460  1.00  0.00     0.072 C 
HETATM   36  C20 UNL     1      -6.678   2.108  -0.670  1.00  0.00     0.035 C 
HETATM   37  C21 UNL     1      -7.651   0.976  -0.904  1.00  0.00    -0.067 C 
HETATM   38  C22 UNL     1      -8.976   1.185  -0.805  1.00  0.00     0.053 C 
HETATM   39  C26 UNL     1      -7.028  -0.412  -1.155  1.00  0.00    -0.009 C 
HETATM   40  C23 UNL     1      -9.946   0.077  -0.943  1.00  0.00     0.149 C 
HETATM   41  O7  UNL     1     -11.146   0.338  -0.949  1.00  0.00    -0.293 OA
HETATM   42  C24 UNL     1      -9.428  -1.331  -1.110  1.00  0.00     0.084 C 
HETATM   43  C25 UNL     1      -7.998  -1.486  -0.599  1.00  0.00     0.022 C 
HETATM   44  C27 UNL     1      -6.848  -0.592  -2.678  1.00  0.00     0.021 C 
HETATM   45  C29 UNL     1      -4.910  -1.801  -0.327  1.00  0.00     0.133 C 
HETATM   46  O8  UNL     1      -5.331  -2.819  -0.879  1.00  0.00    -0.297 OA
HETATM   47  C30 UNL     1      -3.571  -1.852   0.410  1.00  0.00     0.091 C 
HETATM   48  C32 UNL     1      -2.538   0.460   0.349  1.00  0.00     0.019 C 
BRANCH  28  49
HETATM   49  O6  UNL     1      -2.932  -1.972   3.257  1.00  0.00    -0.381 OA
HETATM   50  H21 UNL     1      -2.530  -2.766   2.852  1.00  0.00     0.211 HD
ENDBRANCH  28  49
ENDBRANCH  26  28
ENDBRANCH   1  26
TORSDOF 16
