REMARK  12 active torsions:
REMARK  status: ('A' for Active; 'I' for Inactive)
REMARK    1  A    between atoms: C2_2  and  C3_3 
REMARK    2  A    between atoms: C2_2  and  C26_31 
REMARK    3  A    between atoms: C3_3  and  C4_4 
REMARK    4  A    between atoms: C4_4  and  C5_5 
REMARK    5  A    between atoms: C5_5  and  C7_7 
REMARK    6  A    between atoms: C8_8  and  O1_9 
REMARK    7  A    between atoms: C9_10  and  O2_11 
REMARK    8  A    between atoms: C20_22  and  O3_23 
REMARK    9  A    between atoms: C23_26  and  O4_27 
REMARK   10  A    between atoms: C25_29  and  O5_30 
REMARK   11  A    between atoms: C26_31  and  C28_33 
REMARK   12  A    between atoms: C28_33  and  O6_34 
ROOT
HETATM    1  C7  UNL     1      -1.341   0.168  -0.168  1.00  0.00     0.029 C 
HETATM    2  C8  UNL     1      -1.320   1.611   0.432  1.00  0.00     0.152 C 
HETATM    3  C9  UNL     1       0.167   1.962   0.692  1.00  0.00     0.155 C 
HETATM    4  C10 UNL     1       0.954   0.745   0.200  1.00  0.00     0.060 C 
HETATM    5  C11 UNL     1      -0.009  -0.463   0.374  1.00  0.00    -0.029 C 
HETATM    6  C12 UNL     1      -0.172  -0.947   1.834  1.00  0.00     0.016 C 
HETATM    7  C13 UNL     1       0.548  -1.626  -0.485  1.00  0.00     0.011 C 
HETATM    8  C14 UNL     1       2.052  -1.521  -0.806  1.00  0.00     0.009 C 
HETATM    9  C15 UNL     1       2.900  -0.912   0.336  1.00  0.00     0.029 C 
HETATM   10  C16 UNL     1       4.465  -1.025   0.085  1.00  0.00    -0.031 C 
HETATM   11  C17 UNL     1       4.867  -2.463   0.542  1.00  0.00     0.016 C 
HETATM   12  C18 UNL     1       4.869  -0.870  -1.409  1.00  0.00     0.012 C 
HETATM   13  C19 UNL     1       6.378  -0.957  -1.651  1.00  0.00     0.032 C 
HETATM   14  C20 UNL     1       7.176   0.006  -0.783  1.00  0.00     0.118 C 
HETATM   15  C21 UNL     1       6.779  -0.059   0.694  1.00  0.00     0.039 C 
HETATM   16  C22 UNL     1       5.256   0.021   0.938  1.00  0.00     0.025 C 
HETATM   17  C23 UNL     1       4.722   1.476   0.836  1.00  0.00     0.126 C 
HETATM   18  C24 UNL     1       3.315   1.609   0.265  1.00  0.00     0.071 C 
HETATM   19  C25 UNL     1       2.383   0.504   0.745  1.00  0.00     0.071 C 
ENDROOT
BRANCH   1  20
HETATM   20  C5  UNL     1      -2.688  -0.591   0.037  1.00  0.00    -0.011 C 
HETATM   21  C6  UNL     1      -2.640  -2.035  -0.477  1.00  0.00     0.010 C 
BRANCH  20  22
HETATM   22  C4  UNL     1      -3.843   0.170  -0.676  1.00  0.00     0.009 C 
BRANCH  22  23
HETATM   23  C3  UNL     1      -5.245  -0.292  -0.239  1.00  0.00     0.034 C 
BRANCH  23  24
HETATM   24  C2  UNL     1      -6.439   0.478  -0.797  1.00  0.00    -0.083 C 
HETATM   25  C1  UNL     1      -6.317   1.480  -1.689  1.00  0.00     0.015 C 
BRANCH  24  26
HETATM   26  C26 UNL     1      -7.799  -0.016  -0.272  1.00  0.00     0.033 C 
HETATM   27  C27 UNL     1      -9.018   0.448  -1.087  1.00  0.00     0.017 C 
BRANCH  26  28
HETATM   28  C28 UNL     1      -8.010   0.309   1.224  1.00  0.00     0.172 C 
BRANCH  28  29
HETATM   29  O6  UNL     1      -7.861   1.693   1.520  1.00  0.00    -0.400 OA
HETATM   30  H48 UNL     1      -8.387   2.197   0.877  1.00  0.00     0.209 HD
ENDBRANCH  28  29
ENDBRANCH  26  28
ENDBRANCH  24  26
ENDBRANCH  23  24
ENDBRANCH  22  23
ENDBRANCH  20  22
ENDBRANCH   1  20
BRANCH   2  31
HETATM   31  O1  UNL     1      -2.024   1.729   1.671  1.00  0.00    -0.393 OA
HETATM   32  H13 UNL     1      -2.978   1.668   1.486  1.00  0.00     0.210 HD
ENDBRANCH   2  31
BRANCH   3  33
HETATM   33  O2  UNL     1       0.406   2.231   2.074  1.00  0.00    -0.392 OA
HETATM   34  H15 UNL     1      -0.491   2.218   2.482  1.00  0.00     0.210 HD
ENDBRANCH   3  33
BRANCH  19  35
HETATM   35  O5  UNL     1       2.398   0.555   2.178  1.00  0.00    -0.389 OA
HETATM   36  H41 UNL     1       1.774   1.269   2.445  1.00  0.00     0.210 HD
ENDBRANCH  19  35
BRANCH  17  37
HETATM   37  O4  UNL     1       5.574   2.325   0.067  1.00  0.00    -0.395 OA
HETATM   38  H38 UNL     1       5.271   3.239   0.208  1.00  0.00     0.210 HD
ENDBRANCH  17  37
BRANCH  14  39
HETATM   39  O3  UNL     1       8.562  -0.319  -0.909  1.00  0.00    -0.396 OA
HETATM   40  H33 UNL     1       9.051   0.346  -0.394  1.00  0.00     0.210 HD
ENDBRANCH  14  39
TORSDOF 12
