REMARK  8 active torsions:
REMARK  status: ('A' for Active; 'I' for Inactive)
REMARK    1  A    between atoms: C4_4  and  C5_5 
REMARK    2  A    between atoms: C5_5  and  C6_6 
REMARK    3  A    between atoms: C6_6  and  C7_7 
REMARK    4  A    between atoms: C9_9  and  C10_10 
REMARK    5  A    between atoms: C11_11  and  C12_12 
REMARK    6  A    between atoms: C14_14  and  C15_15 
REMARK    7  A    between atoms: C24_25  and  C26_27 
REMARK    8  A    between atoms: C29_31  and  O3_33 
ROOT
HETATM    1  C15 UNL     1      -1.714  -0.797  -0.094  1.00  0.00     0.149 C 
HETATM    2  C16 UNL     1      -2.509   0.430  -0.557  1.00  0.00     0.054 C 
HETATM    3  C17 UNL     1      -3.656  -0.175  -1.400  1.00  0.00     0.050 C 
HETATM    4  C18 UNL     1      -2.849  -1.316  -2.048  1.00  0.00     0.272 C 
HETATM    5  O1  UNL     1      -3.599  -2.261  -2.780  1.00  0.00    -0.360 OA
HETATM    6  C19 UNL     1      -4.018  -3.421  -2.094  1.00  0.00     0.171 C 
HETATM    7  C20 UNL     1      -4.982  -3.188  -0.940  1.00  0.00     0.027 C 
HETATM    8  C21 UNL     1      -5.684  -1.831  -0.924  1.00  0.00     0.012 C 
HETATM    9  C22 UNL     1      -4.760  -0.712  -0.402  1.00  0.00     0.032 C 
HETATM   10  C23 UNL     1      -5.590   0.438   0.206  1.00  0.00    -0.066 C 
HETATM   11  C24 UNL     1      -5.781   0.646   1.535  1.00  0.00    -0.021 C 
HETATM   12  C25 UNL     1      -6.476   1.829   2.160  1.00  0.00     0.052 C 
HETATM   13  C27 UNL     1      -6.174   1.342  -0.858  1.00  0.00     0.038 C 
HETATM   14  C28 UNL     1      -5.074   1.930  -1.735  1.00  0.00     0.042 C 
HETATM   15  C29 UNL     1      -4.263   0.830  -2.445  1.00  0.00     0.067 C 
HETATM   16  C30 UNL     1      -3.244   1.507  -3.379  1.00  0.00     0.047 C 
HETATM   17  O4  UNL     1      -2.007  -1.860  -1.022  1.00  0.00    -0.351 OA
ENDROOT
BRANCH   1  18
HETATM   18  C14 UNL     1      -0.231  -0.565  -0.087  1.00  0.00     0.011 C 
HETATM   19  C12 UNL     1       0.546  -0.251   0.971  1.00  0.00    -0.063 C 
HETATM   20  C13 UNL     1       0.005  -0.030   2.362  1.00  0.00     0.048 C 
BRANCH  19  21
HETATM   21  C11 UNL     1       1.985  -0.091   0.760  1.00  0.00     0.006 C 
HETATM   22  C10 UNL     1       2.911   0.139   1.708  1.00  0.00     0.001 C 
BRANCH  22  23
HETATM   23  C9  UNL     1       4.318   0.307   1.397  1.00  0.00     0.002 C 
HETATM   24  C7  UNL     1       5.332   0.472   2.273  1.00  0.00    -0.084 C 
HETATM   25  C8  UNL     1       5.179   0.456   3.776  1.00  0.00     0.043 C 
BRANCH  24  26
HETATM   26  C6  UNL     1       6.782   0.692   1.847  1.00  0.00     0.037 C 
BRANCH  26  27
HETATM   27  C5  UNL     1       7.079   0.832   0.346  1.00  0.00     0.031 C 
BRANCH  27  28
HETATM   28  C4  UNL     1       8.530   1.150   0.099  1.00  0.00    -0.024 C 
HETATM   29  C2  UNL     1       9.481   0.336  -0.402  1.00  0.00    -0.091 C 
HETATM   30  C1  UNL     1      10.882   0.840  -0.626  1.00  0.00     0.042 C 
HETATM   31  C3  UNL     1       9.276  -1.107  -0.773  1.00  0.00     0.042 C 
ENDBRANCH  27  28
ENDBRANCH  26  27
ENDBRANCH  24  26
ENDBRANCH  22  23
ENDBRANCH  19  21
ENDBRANCH   1  18
BRANCH  15  32
HETATM   32  O3  UNL     1      -5.172   0.128  -3.302  1.00  0.00    -0.389 OA
HETATM   33  H44 UNL     1      -5.504   0.736  -3.983  1.00  0.00     0.210 HD
ENDBRANCH  15  32
BRANCH  11  34
HETATM   34  C26 UNL     1      -5.316  -0.338   2.570  1.00  0.00     0.265 C 
HETATM   35  O2  UNL     1      -5.297  -0.082   3.769  1.00  0.00    -0.302 OA
ENDBRANCH  11  34
TORSDOF 8
