REMARK  12 active torsions:
REMARK  status: ('A' for Active; 'I' for Inactive)
REMARK    1  A    between atoms: C2_2  and  C3_3 
REMARK    2  A    between atoms: C2_2  and  C26_31 
REMARK    3  A    between atoms: C3_3  and  C4_4 
REMARK    4  A    between atoms: C4_4  and  C5_5 
REMARK    5  A    between atoms: C5_5  and  C7_7 
REMARK    6  A    between atoms: C8_8  and  O1_9 
REMARK    7  A    between atoms: C9_10  and  O2_11 
REMARK    8  A    between atoms: C20_22  and  O3_23 
REMARK    9  A    between atoms: C23_26  and  O4_27 
REMARK   10  A    between atoms: C25_29  and  O5_30 
REMARK   11  A    between atoms: C26_31  and  C28_33 
REMARK   12  A    between atoms: C28_33  and  O6_34 
ROOT
HETATM    1  C7  UNL     1      -1.373   0.073  -0.232  1.00  0.00     0.029 C 
HETATM    2  C8  UNL     1      -1.431   1.521   0.376  1.00  0.00     0.152 C 
HETATM    3  C9  UNL     1       0.024   1.911   0.743  1.00  0.00     0.155 C 
HETATM    4  C10 UNL     1       0.867   0.780   0.167  1.00  0.00     0.060 C 
HETATM    5  C11 UNL     1      -0.026  -0.494   0.340  1.00  0.00    -0.029 C 
HETATM    6  C12 UNL     1      -0.229  -1.007   1.786  1.00  0.00     0.016 C 
HETATM    7  C13 UNL     1       0.649  -1.605  -0.492  1.00  0.00     0.011 C 
HETATM    8  C14 UNL     1       2.122  -1.830  -0.092  1.00  0.00     0.009 C 
HETATM    9  C15 UNL     1       2.973  -0.540  -0.176  1.00  0.00     0.029 C 
HETATM   10  C16 UNL     1       4.512  -0.744   0.111  1.00  0.00    -0.031 C 
HETATM   11  C17 UNL     1       4.772  -1.278   1.541  1.00  0.00     0.016 C 
HETATM   12  C18 UNL     1       5.116  -1.769  -0.898  1.00  0.00     0.012 C 
HETATM   13  C19 UNL     1       6.644  -1.853  -0.859  1.00  0.00     0.032 C 
HETATM   14  C20 UNL     1       7.315  -0.490  -0.987  1.00  0.00     0.118 C 
HETATM   15  C21 UNL     1       6.746   0.535  -0.006  1.00  0.00     0.039 C 
HETATM   16  C22 UNL     1       5.218   0.628  -0.141  1.00  0.00     0.025 C 
HETATM   17  C23 UNL     1       4.618   1.766   0.703  1.00  0.00     0.126 C 
HETATM   18  C24 UNL     1       3.119   1.928   0.425  1.00  0.00     0.071 C 
HETATM   19  C25 UNL     1       2.327   0.628   0.641  1.00  0.00     0.071 C 
ENDROOT
BRANCH   1  20
HETATM   20  C5  UNL     1      -2.693  -0.737  -0.066  1.00  0.00    -0.011 C 
HETATM   21  C6  UNL     1      -2.578  -2.176  -0.583  1.00  0.00     0.010 C 
BRANCH  20  22
HETATM   22  C4  UNL     1      -3.856  -0.028  -0.818  1.00  0.00     0.009 C 
BRANCH  22  23
HETATM   23  C3  UNL     1      -5.245  -0.436  -0.293  1.00  0.00     0.034 C 
BRANCH  23  24
HETATM   24  C2  UNL     1      -6.449   0.297  -0.877  1.00  0.00    -0.083 C 
HETATM   25  C1  UNL     1      -6.364   1.120  -1.939  1.00  0.00     0.015 C 
BRANCH  24  26
HETATM   26  C26 UNL     1      -7.774  -0.008  -0.158  1.00  0.00     0.033 C 
HETATM   27  C27 UNL     1      -9.040   0.320  -0.966  1.00  0.00     0.017 C 
BRANCH  26  28
HETATM   28  C28 UNL     1      -7.851   0.649   1.240  1.00  0.00     0.172 C 
BRANCH  28  29
HETATM   29  O6  UNL     1      -7.647   2.058   1.206  1.00  0.00    -0.400 OA
HETATM   30  H48 UNL     1      -8.234   2.431   0.528  1.00  0.00     0.209 HD
ENDBRANCH  28  29
ENDBRANCH  26  28
ENDBRANCH  24  26
ENDBRANCH  23  24
ENDBRANCH  22  23
ENDBRANCH  20  22
ENDBRANCH   1  20
BRANCH   2  31
HETATM   31  O1  UNL     1      -2.229   1.624   1.556  1.00  0.00    -0.393 OA
HETATM   32  H13 UNL     1      -3.165   1.618   1.288  1.00  0.00     0.210 HD
ENDBRANCH   2  31
BRANCH   3  33
HETATM   33  O2  UNL     1       0.208   2.024   2.154  1.00  0.00    -0.392 OA
HETATM   34  H15 UNL     1      -0.708   2.064   2.514  1.00  0.00     0.210 HD
ENDBRANCH   3  33
BRANCH  19  35
HETATM   35  O5  UNL     1       2.352   0.351   2.034  1.00  0.00    -0.389 OA
HETATM   36  H41 UNL     1       1.732   0.987   2.458  1.00  0.00     0.210 HD
ENDBRANCH  19  35
BRANCH  17  37
HETATM   37  O4  UNL     1       5.265   3.001   0.381  1.00  0.00    -0.395 OA
HETATM   38  H38 UNL     1       5.099   3.196  -0.557  1.00  0.00     0.210 HD
ENDBRANCH  17  37
BRANCH  14  39
HETATM   39  O3  UNL     1       8.712  -0.648  -0.768  1.00  0.00    -0.396 OA
HETATM   40  H33 UNL     1       9.116   0.236  -0.792  1.00  0.00     0.210 HD
ENDBRANCH  14  39
TORSDOF 12
