REMARK  8 active torsions:
REMARK  status: ('A' for Active; 'I' for Inactive)
REMARK    1  A    between atoms: C2_2  and  C3_3 
REMARK    2  A    between atoms: C2_2  and  C9_12 
REMARK    3  A    between atoms: C3_3  and  C4_4 
REMARK    4  A    between atoms: C4_4  and  O1_5 
REMARK    5  A    between atoms: C4_4  and  C5_6 
REMARK    6  A    between atoms: C5_6  and  O2_7 
REMARK    7  A    between atoms: C5_6  and  C6_8 
REMARK    8  A    between atoms: C6_8  and  O3_11 
ROOT
HETATM    1  C9  UNL     1       1.702   0.580   0.178  1.00  0.00    -0.002 C 
HETATM    2  C10 UNL     1       1.724   0.873  -1.324  1.00  0.00     0.007 C 
HETATM    3  C11 UNL     1       0.248   1.029  -1.659  1.00  0.00     0.015 C 
HETATM    4  C12 UNL     1      -0.440  -0.163  -0.953  1.00  0.00    -0.005 C 
HETATM    5  C13 UNL     1      -0.249  -1.430  -1.838  1.00  0.00     0.021 C 
HETATM    6  C14 UNL     1      -1.957   0.065  -0.771  1.00  0.00    -0.000 C 
HETATM    7  C15 UNL     1      -2.613   0.081   0.417  1.00  0.00    -0.060 C 
HETATM    8  C16 UNL     1      -1.816  -0.096   1.696  1.00  0.00     0.036 C 
HETATM    9  C17 UNL     1      -0.391   0.414   1.558  1.00  0.00     0.015 C 
HETATM   10  C18 UNL     1       0.393  -0.278   0.415  1.00  0.00    -0.028 C 
HETATM   11  C19 UNL     1       0.632  -1.742   0.836  1.00  0.00     0.016 C 
HETATM   12  C20 UNL     1      -4.156   0.225   0.585  1.00  0.00    -0.014 C 
HETATM   13  C21 UNL     1      -4.458   1.305   1.661  1.00  0.00     0.020 C 
HETATM   14  C22 UNL     1      -4.684  -1.158   1.041  1.00  0.00     0.021 C 
HETATM   15  C23 UNL     1      -6.195  -1.337   1.031  1.00  0.00     0.080 C 
HETATM   16  C24 UNL     1      -6.945  -0.118   0.564  1.00  0.00     0.135 C 
HETATM   17  O4  UNL     1      -7.974   0.231   1.145  1.00  0.00    -0.297 OA
HETATM   18  C25 UNL     1      -6.447   0.573  -0.713  1.00  0.00     0.018 C 
HETATM   19  C26 UNL     1      -7.092  -0.211  -1.875  1.00  0.00     0.023 C 
HETATM   20  C27 UNL     1      -7.027   2.008  -0.769  1.00  0.00     0.023 C 
HETATM   21  C28 UNL     1      -4.869   0.656  -0.746  1.00  0.00     0.020 C 
HETATM   22  C29 UNL     1      -4.252  -0.085  -1.930  1.00  0.00     0.090 C 
HETATM   23  C30 UNL     1      -2.778   0.205  -2.019  1.00  0.00     0.157 C 
HETATM   24  O5  UNL     1      -2.269   0.498  -3.098  1.00  0.00    -0.293 OA
ENDROOT
BRANCH   1  25
HETATM   25  C2  UNL     1       3.095   0.211   0.757  1.00  0.00    -0.011 C 
HETATM   26  C1  UNL     1       3.099   0.284   2.291  1.00  0.00     0.010 C 
BRANCH  25  27
HETATM   27  C3  UNL     1       3.719  -1.109   0.260  1.00  0.00     0.039 C 
BRANCH  27  28
HETATM   28  C4  UNL     1       5.254  -1.173   0.403  1.00  0.00     0.150 C 
BRANCH  28  29
HETATM   29  O1  UNL     1       5.652  -2.542   0.186  1.00  0.00    -0.393 OA
HETATM   30  H8  UNL     1       5.288  -2.798  -0.683  1.00  0.00     0.210 HD
ENDBRANCH  28  29
BRANCH  28  31
HETATM   31  C5  UNL     1       6.006  -0.269  -0.616  1.00  0.00     0.180 C 
BRANCH  31  32
HETATM   32  O2  UNL     1       6.569  -1.091  -1.655  1.00  0.00    -0.390 OA
HETATM   33  H10 UNL     1       6.997  -1.837  -1.183  1.00  0.00     0.210 HD
ENDBRANCH  31  32
BRANCH  31  34
HETATM   34  C6  UNL     1       7.107   0.627   0.025  1.00  0.00     0.079 C 
HETATM   35  C7  UNL     1       8.217  -0.192   0.692  1.00  0.00     0.048 C 
HETATM   36  C8  UNL     1       7.740   1.534  -1.040  1.00  0.00     0.048 C 
BRANCH  34  37
HETATM   37  O3  UNL     1       6.515   1.466   1.026  1.00  0.00    -0.388 OA
HETATM   38  H17 UNL     1       6.032   2.178   0.568  1.00  0.00     0.210 HD
ENDBRANCH  34  37
ENDBRANCH  31  34
ENDBRANCH  28  31
ENDBRANCH  27  28
ENDBRANCH  25  27
ENDBRANCH   1  25
TORSDOF 8
