REMARK  11 active torsions:
REMARK  status: ('A' for Active; 'I' for Inactive)
REMARK    1  A    between atoms: C2_2  and  C4_4 
REMARK    2  A    between atoms: C5_5  and  C6_6 
REMARK    3  A    between atoms: C6_6  and  C7_7 
REMARK    4  A    between atoms: C7_7  and  C9_9 
REMARK    5  A    between atoms: C27_28  and  O2_29 
REMARK    6  A    between atoms: O2_29  and  C28_30 
REMARK    7  A    between atoms: C29_32  and  C30_33 
REMARK    8  A    between atoms: C30_33  and  O4_34 
REMARK    9  A    between atoms: C31_35  and  O5_36 
REMARK   10  A    between atoms: C32_37  and  O6_38 
REMARK   11  A    between atoms: C33_39  and  O7_40 
ROOT
HETATM    1  C9  UNL     1       4.429  -0.686  -0.452  1.00  0.00    -0.002 C 
HETATM    2  C10 UNL     1       4.503  -0.619  -2.013  1.00  0.00     0.006 C 
HETATM    3  C11 UNL     1       3.147  -1.097  -2.568  1.00  0.00     0.011 C 
HETATM    4  C12 UNL     1       2.203  -1.072  -1.354  1.00  0.00    -0.029 C 
HETATM    5  C13 UNL     1       1.760   0.419  -1.182  1.00  0.00     0.016 C 
HETATM    6  C14 UNL     1       0.957  -2.010  -1.463  1.00  0.00     0.028 C 
HETATM    7  C15 UNL     1       0.023  -1.646  -2.607  1.00  0.00    -0.021 C 
HETATM    8  C16 UNL     1      -1.306  -1.528  -2.432  1.00  0.00     0.008 C 
HETATM    9  C17 UNL     1      -1.943  -1.742  -1.066  1.00  0.00     0.092 C 
HETATM   10  O1  UNL     1      -1.851  -3.174  -0.869  1.00  0.00    -0.374 OA
HETATM   11  C18 UNL     1      -0.665  -3.443  -0.110  1.00  0.00     0.179 C 
HETATM   12  C19 UNL     1       0.190  -2.154  -0.075  1.00  0.00    -0.004 C 
HETATM   13  C20 UNL     1       1.133  -2.239   1.158  1.00  0.00     0.014 C 
HETATM   14  C21 UNL     1       2.432  -1.416   1.126  1.00  0.00     0.011 C 
HETATM   15  C22 UNL     1       3.170  -1.582  -0.215  1.00  0.00    -0.032 C 
HETATM   16  C23 UNL     1       3.587  -3.080  -0.361  1.00  0.00     0.016 C 
HETATM   17  C24 UNL     1      -0.958  -1.116  -0.032  1.00  0.00     0.036 C 
HETATM   18  C25 UNL     1      -1.609  -0.842   1.320  1.00  0.00     0.011 C 
HETATM   19  C26 UNL     1      -2.801   0.114   1.182  1.00  0.00     0.033 C 
HETATM   20  C27 UNL     1      -3.433   0.137  -0.221  1.00  0.00     0.136 C 
HETATM   21  C34 UNL     1      -3.442  -1.273  -0.880  1.00  0.00     0.014 C 
HETATM   22  C35 UNL     1      -4.225  -1.200  -2.219  1.00  0.00     0.021 C 
HETATM   23  C36 UNL     1      -4.251  -2.274  -0.010  1.00  0.00     0.021 C 
ENDROOT
BRANCH  20  24
HETATM   24  O2  UNL     1      -4.770   0.645  -0.162  1.00  0.00    -0.352 OA
BRANCH  24  25
HETATM   25  C28 UNL     1      -4.876   2.046   0.060  1.00  0.00     0.292 C 
HETATM   26  O3  UNL     1      -5.033   2.367   1.442  1.00  0.00    -0.348 OA
HETATM   27  C29 UNL     1      -6.318   2.105   2.042  1.00  0.00     0.179 C 
HETATM   28  C31 UNL     1      -7.506   2.598   1.207  1.00  0.00     0.180 C 
HETATM   29  C32 UNL     1      -7.379   2.229  -0.272  1.00  0.00     0.183 C 
HETATM   30  C33 UNL     1      -6.003   2.624  -0.817  1.00  0.00     0.204 C 
BRANCH  27  31
HETATM   31  C30 UNL     1      -6.488   0.650   2.520  1.00  0.00     0.198 C 
BRANCH  31  32
HETATM   32  O4  UNL     1      -6.925  -0.223   1.483  1.00  0.00    -0.398 OA
HETATM   33  H44 UNL     1      -7.112  -1.088   1.896  1.00  0.00     0.209 HD
ENDBRANCH  31  32
ENDBRANCH  27  31
BRANCH  28  34
HETATM   34  O5  UNL     1      -7.580   4.043   1.295  1.00  0.00    -0.390 OA
HETATM   35  H46 UNL     1      -8.296   4.269   0.659  1.00  0.00     0.210 HD
ENDBRANCH  28  34
BRANCH  29  36
HETATM   36  O6  UNL     1      -8.422   2.932  -0.988  1.00  0.00    -0.390 OA
HETATM   37  H48 UNL     1      -7.973   3.501  -1.648  1.00  0.00     0.210 HD
ENDBRANCH  29  36
BRANCH  30  38
HETATM   38  O7  UNL     1      -5.926   4.063  -0.899  1.00  0.00    -0.388 OA
HETATM   39  H50 UNL     1      -6.057   4.394   0.016  1.00  0.00     0.210 HD
ENDBRANCH  30  38
ENDBRANCH  24  25
ENDBRANCH  20  24
BRANCH   1  40
HETATM   40  C7  UNL     1       5.803  -1.094   0.170  1.00  0.00    -0.010 C 
HETATM   41  C8  UNL     1       5.762  -1.181   1.699  1.00  0.00     0.010 C 
BRANCH  40  42
HETATM   42  C6  UNL     1       6.971  -0.170  -0.273  1.00  0.00     0.031 C 
BRANCH  42  43
HETATM   43  C5  UNL     1       6.884   1.254   0.216  1.00  0.00    -0.026 C 
HETATM   44  C4  UNL     1       7.838   1.824   0.972  1.00  0.00     0.002 C 
BRANCH  44  45
HETATM   45  C2  UNL     1       7.829   3.187   1.487  1.00  0.00    -0.072 C 
HETATM   46  C1  UNL     1       8.870   3.629   2.218  1.00  0.00     0.018 C 
HETATM   47  C3  UNL     1       6.650   4.083   1.208  1.00  0.00     0.047 C 
ENDBRANCH  44  45
ENDBRANCH  42  43
ENDBRANCH  40  42
ENDBRANCH   1  40
TORSDOF 11
