REMARK  13 active torsions:
REMARK  status: ('A' for Active; 'I' for Inactive)
REMARK    1  A    between atoms: C4_4  and  C5_5 
REMARK    2  A    between atoms: C5_5  and  C6_6 
REMARK    3  A    between atoms: C6_6  and  C7_7 
REMARK    4  A    between atoms: C7_7  and  O1_9 
REMARK    5  A    between atoms: C7_7  and  C9_10 
REMARK    6  A    between atoms: C9_10  and  O2_11 
REMARK    7  A    between atoms: C9_10  and  C10_12 
REMARK    8  A    between atoms: C10_12  and  C11_13 
REMARK    9  A    between atoms: C11_13  and  C12_14 
REMARK   10  A    between atoms: C14_16  and  C15_17 
REMARK   11  A    between atoms: C15_17  and  C16_18 
REMARK   12  A    between atoms: C16_18  and  C17_19 
REMARK   13  A    between atoms: C23_25  and  O3_26 
ROOT
HETATM    1  C12 UNL     1      -0.021   0.126   1.794  1.00  0.00    -0.087 C 
HETATM    2  C13 UNL     1      -0.079   1.506   2.397  1.00  0.00     0.043 C 
HETATM    3  C14 UNL     1      -0.938  -0.370   0.935  1.00  0.00    -0.024 C 
ENDROOT
BRANCH   1   4
HETATM    4  C11 UNL     1       1.164  -0.702   2.279  1.00  0.00     0.036 C 
BRANCH   4   5
HETATM    5  C10 UNL     1       1.729  -1.787   1.358  1.00  0.00     0.039 C 
BRANCH   5   6
HETATM    6  C9  UNL     1       2.206  -1.355  -0.039  1.00  0.00     0.152 C 
BRANCH   6   7
HETATM    7  C7  UNL     1       3.382  -0.329  -0.153  1.00  0.00     0.080 C 
HETATM    8  C8  UNL     1       2.932   1.112   0.095  1.00  0.00     0.048 C 
BRANCH   7   9
HETATM    9  C6  UNL     1       4.587  -0.727   0.736  1.00  0.00     0.044 C 
BRANCH   9  10
HETATM   10  C5  UNL     1       5.843   0.154   0.645  1.00  0.00     0.030 C 
BRANCH  10  11
HETATM   11  C4  UNL     1       6.640  -0.041  -0.615  1.00  0.00    -0.025 C 
HETATM   12  C2  UNL     1       7.771  -0.757  -0.773  1.00  0.00    -0.091 C 
HETATM   13  C1  UNL     1       8.444  -1.562   0.304  1.00  0.00     0.042 C 
HETATM   14  C3  UNL     1       8.458  -0.814  -2.112  1.00  0.00     0.042 C 
ENDBRANCH  10  11
ENDBRANCH   9  10
ENDBRANCH   7   9
BRANCH   7  15
HETATM   15  O1  UNL     1       3.794  -0.371  -1.535  1.00  0.00    -0.388 OA
HETATM   16  H15 UNL     1       3.840  -1.327  -1.746  1.00  0.00     0.210 HD
ENDBRANCH   7  15
ENDBRANCH   6   7
BRANCH   6  17
HETATM   17  O2  UNL     1       2.649  -2.560  -0.714  1.00  0.00    -0.393 OA
HETATM   18  H17 UNL     1       1.875  -3.146  -0.787  1.00  0.00     0.210 HD
ENDBRANCH   6  17
ENDBRANCH   5   6
ENDBRANCH   4   5
ENDBRANCH   1   4
BRANCH   3  19
HETATM   19  C15 UNL     1      -2.191   0.195   0.300  1.00  0.00     0.030 C 
BRANCH  19  20
HETATM   20  C16 UNL     1      -2.627   1.625   0.616  1.00  0.00     0.042 C 
BRANCH  20  21
HETATM   21  C17 UNL     1      -3.987   2.099   0.028  1.00  0.00     0.065 C 
HETATM   22  C18 UNL     1      -4.267   3.486   0.656  1.00  0.00     0.046 C 
HETATM   23  C19 UNL     1      -4.008   2.291  -1.498  1.00  0.00     0.043 C 
HETATM   24  C20 UNL     1      -4.205   1.008  -2.281  1.00  0.00     0.044 C 
HETATM   25  C21 UNL     1      -5.230   0.137  -1.627  1.00  0.00    -0.021 A 
HETATM   26  C22 UNL     1      -5.828  -0.891  -2.369  1.00  0.00     0.046 A 
HETATM   27  C27 UNL     1      -5.583   0.307  -0.286  1.00  0.00     0.082 A 
HETATM   28  C23 UNL     1      -6.781  -1.714  -1.781  1.00  0.00     0.066 A 
HETATM   29  C24 UNL     1      -7.148  -1.543  -0.452  1.00  0.00     0.046 A 
HETATM   30  C25 UNL     1      -6.548  -0.529   0.309  1.00  0.00    -0.025 A 
HETATM   31  C26 UNL     1      -6.933  -0.347   1.751  1.00  0.00     0.051 C 
HETATM   32  O4  UNL     1      -5.042   1.264   0.525  1.00  0.00    -0.340 OA
BRANCH  28  33
HETATM   33  O3  UNL     1      -7.343  -2.688  -2.555  1.00  0.00    -0.361 OA
HETATM   34  H38 UNL     1      -7.997  -3.166  -2.020  1.00  0.00     0.217 HD
ENDBRANCH  28  33
ENDBRANCH  20  21
ENDBRANCH  19  20
ENDBRANCH   3  19
TORSDOF 13
