REMARK  14 active torsions:
REMARK  status: ('A' for Active; 'I' for Inactive)
REMARK    1  A    between atoms: C2_2  and  C3_3 
REMARK    2  A    between atoms: C2_2  and  C26_30 
REMARK    3  A    between atoms: C4_4  and  C5_5 
REMARK    4  A    between atoms: C6_6  and  C7_7 
REMARK    5  A    between atoms: C6_6  and  C9_9 
REMARK    6  A    between atoms: C13_13  and  C14_14 
REMARK    7  A    between atoms: C14_14  and  C15_15 
REMARK    8  A    between atoms: C15_15  and  C16_16 
REMARK    9  A    between atoms: C16_16  and  O1_17 
REMARK   10  A    between atoms: C18_19  and  C20_21 
REMARK   11  A    between atoms: C23_25  and  O3_27 
REMARK   12  A    between atoms: C25_28  and  O4_29 
REMARK   13  A    between atoms: C26_30  and  C27_31 
REMARK   14  A    between atoms: C27_31  and  C28_32 
ROOT
HETATM    1  C9  UNL     1       0.390  -1.648  -1.284  1.00  0.00     0.044 C 
HETATM    2  C10 UNL     1      -0.791  -2.422  -1.869  1.00  0.00     0.013 C 
HETATM    3  C11 UNL     1      -1.923  -2.195  -0.868  1.00  0.00     0.017 C 
HETATM    4  C12 UNL     1      -1.633  -0.841  -0.118  1.00  0.00     0.024 C 
HETATM    5  C13 UNL     1      -2.921   0.089  -0.327  1.00  0.00     0.029 C 
HETATM    6  C17 UNL     1      -3.071   1.094   0.817  1.00  0.00    -0.066 C 
HETATM    7  C18 UNL     1      -2.823   2.423   0.828  1.00  0.00    -0.021 C 
HETATM    8  C19 UNL     1      -3.088   3.354   1.978  1.00  0.00     0.052 C 
HETATM    9  C21 UNL     1      -3.476   0.357   2.091  1.00  0.00     0.038 C 
HETATM   10  C22 UNL     1      -2.803  -1.026   2.200  1.00  0.00     0.042 C 
HETATM   11  C23 UNL     1      -1.436  -1.080   1.476  1.00  0.00     0.065 C 
HETATM   12  C24 UNL     1      -0.713  -2.361   1.927  1.00  0.00     0.047 C 
HETATM   13  C25 UNL     1      -0.296  -0.355  -0.788  1.00  0.00     0.138 C 
ENDROOT
BRANCH   5  14
HETATM   14  C14 UNL     1      -3.288   0.565  -1.761  1.00  0.00     0.012 C 
BRANCH  14  15
HETATM   15  C15 UNL     1      -4.722   1.107  -1.922  1.00  0.00     0.027 C 
BRANCH  15  16
HETATM   16  C16 UNL     1      -5.836   0.125  -1.577  1.00  0.00     0.164 C 
BRANCH  16  17
HETATM   17  O1  UNL     1      -5.660  -1.111  -2.251  1.00  0.00    -0.401 OA
HETATM   18  H23 UNL     1      -5.591  -0.920  -3.201  1.00  0.00     0.209 HD
ENDBRANCH  16  17
ENDBRANCH  15  16
ENDBRANCH  14  15
ENDBRANCH   5  14
BRANCH  11  19
HETATM   19  O3  UNL     1      -0.670  -0.006   2.059  1.00  0.00    -0.389 OA
HETATM   20  H35 UNL     1       0.270  -0.141   1.856  1.00  0.00     0.210 HD
ENDBRANCH  11  19
BRANCH  13  21
HETATM   21  O4  UNL     1      -0.513   0.484  -1.915  1.00  0.00    -0.394 OA
HETATM   22  H37 UNL     1      -0.557   1.403  -1.565  1.00  0.00     0.210 HD
ENDBRANCH  13  21
BRANCH   1  23
HETATM   23  C6  UNL     1       1.619  -1.451  -2.177  1.00  0.00    -0.074 C 
HETATM   24  C5  UNL     1       2.866  -1.307  -1.673  1.00  0.00     0.003 C 
BRANCH  24  25
HETATM   25  C4  UNL     1       3.252  -1.261  -0.273  1.00  0.00     0.001 C 
HETATM   26  C3  UNL     1       4.537  -1.245   0.112  1.00  0.00     0.006 C 
BRANCH  26  27
HETATM   27  C2  UNL     1       5.058  -1.196   1.473  1.00  0.00    -0.067 C 
HETATM   28  C1  UNL     1       6.386  -1.319   1.661  1.00  0.00     0.019 C 
BRANCH  27  29
HETATM   29  C26 UNL     1       4.147  -1.038   2.677  1.00  0.00     0.041 C 
BRANCH  29  30
HETATM   30  C27 UNL     1       3.998   0.417   3.152  1.00  0.00     0.032 C 
BRANCH  30  31
HETATM   31  C28 UNL     1       2.890   1.175   2.472  1.00  0.00    -0.024 C 
HETATM   32  C29 UNL     1       2.995   2.071   1.471  1.00  0.00    -0.091 C 
HETATM   33  C30 UNL     1       4.278   2.465   0.792  1.00  0.00     0.042 C 
HETATM   34  C31 UNL     1       1.772   2.760   0.922  1.00  0.00     0.042 C 
ENDBRANCH  30  31
ENDBRANCH  29  30
ENDBRANCH  27  29
ENDBRANCH  26  27
ENDBRANCH  24  25
BRANCH  23  35
HETATM   35  C7  UNL     1       1.350  -1.440  -3.680  1.00  0.00     0.030 C 
HETATM   36  C8  UNL     1       2.507  -1.095  -4.616  1.00  0.00     0.010 C 
ENDBRANCH  23  35
ENDBRANCH   1  23
BRANCH   7  37
HETATM   37  C20 UNL     1      -2.197   3.133  -0.320  1.00  0.00     0.265 C 
HETATM   38  O2  UNL     1      -1.120   2.800  -0.799  1.00  0.00    -0.302 OA
ENDBRANCH   7  37
TORSDOF 14
