REMARK  13 active torsions:
REMARK  status: ('A' for Active; 'I' for Inactive)
REMARK    1  A    between atoms: C4_4  and  C5_5 
REMARK    2  A    between atoms: C5_5  and  C6_6 
REMARK    3  A    between atoms: C6_6  and  C7_7 
REMARK    4  A    between atoms: C9_9  and  C10_10 
REMARK    5  A    between atoms: C11_11  and  C12_12 
REMARK    6  A    between atoms: C14_14  and  C15_15 
REMARK    7  A    between atoms: C18_18  and  O1_19 
REMARK    8  A    between atoms: C19_21  and  C20_22 
REMARK    9  A    between atoms: C20_22  and  C21_23 
REMARK   10  A    between atoms: C21_23  and  C22_24 
REMARK   11  A    between atoms: C22_24  and  O3_25 
REMARK   12  A    between atoms: C24_27  and  C26_29 
REMARK   13  A    between atoms: C29_33  and  O5_35 
ROOT
HETATM    1  C15 UNL     1      -1.397   1.760   0.328  1.00  0.00     0.149 C 
HETATM    2  C16 UNL     1      -2.446   0.703   0.661  1.00  0.00     0.054 C 
HETATM    3  C17 UNL     1      -3.782   1.267   0.130  1.00  0.00     0.050 C 
HETATM    4  C18 UNL     1      -3.252   2.152  -1.019  1.00  0.00     0.270 C 
HETATM    5  O2  UNL     1      -1.989   2.669  -0.610  1.00  0.00    -0.351 OA
HETATM    6  C19 UNL     1      -4.680   0.082  -0.393  1.00  0.00     0.032 C 
HETATM    7  C23 UNL     1      -5.176  -0.781   0.782  1.00  0.00    -0.066 C 
HETATM    8  C24 UNL     1      -4.951  -2.110   0.955  1.00  0.00    -0.021 C 
HETATM    9  C25 UNL     1      -5.534  -2.930   2.081  1.00  0.00     0.052 C 
HETATM   10  C27 UNL     1      -5.951   0.038   1.803  1.00  0.00     0.038 C 
HETATM   11  C28 UNL     1      -5.124   1.211   2.327  1.00  0.00     0.042 C 
HETATM   12  C29 UNL     1      -4.552   2.114   1.213  1.00  0.00     0.067 C 
HETATM   13  C30 UNL     1      -3.747   3.241   1.880  1.00  0.00     0.047 C 
ENDROOT
BRANCH   4  14
HETATM   14  O1  UNL     1      -3.008   1.401  -2.204  1.00  0.00    -0.370 OA
HETATM   15  H26 UNL     1      -2.659   2.069  -2.824  1.00  0.00     0.212 HD
ENDBRANCH   4  14
BRANCH   6  16
HETATM   16  C20 UNL     1      -5.860   0.518  -1.308  1.00  0.00     0.012 C 
BRANCH  16  17
HETATM   17  C21 UNL     1      -6.383  -0.587  -2.239  1.00  0.00     0.027 C 
BRANCH  17  18
HETATM   18  C22 UNL     1      -5.380  -1.101  -3.270  1.00  0.00     0.164 C 
BRANCH  18  19
HETATM   19  O3  UNL     1      -4.742  -0.035  -3.957  1.00  0.00    -0.401 OA
HETATM   20  H34 UNL     1      -4.102   0.370  -3.336  1.00  0.00     0.209 HD
ENDBRANCH  18  19
ENDBRANCH  17  18
ENDBRANCH  16  17
ENDBRANCH   6  16
BRANCH  12  21
HETATM   21  O5  UNL     1      -5.660   2.761   0.566  1.00  0.00    -0.389 OA
HETATM   22  H46 UNL     1      -6.154   3.274   1.229  1.00  0.00     0.210 HD
ENDBRANCH  12  21
BRANCH   1  23
HETATM   23  C14 UNL     1      -0.154   1.187  -0.291  1.00  0.00     0.011 C 
HETATM   24  C12 UNL     1       0.991   0.839   0.333  1.00  0.00    -0.063 C 
HETATM   25  C13 UNL     1       1.186   0.934   1.825  1.00  0.00     0.048 C 
BRANCH  24  26
HETATM   26  C11 UNL     1       2.101   0.330  -0.474  1.00  0.00     0.006 C 
HETATM   27  C10 UNL     1       3.305  -0.059  -0.023  1.00  0.00     0.001 C 
BRANCH  27  28
HETATM   28  C9  UNL     1       4.352  -0.534  -0.905  1.00  0.00     0.002 C 
HETATM   29  C7  UNL     1       5.566  -0.996  -0.541  1.00  0.00    -0.084 C 
HETATM   30  C8  UNL     1       6.031  -1.174   0.881  1.00  0.00     0.043 C 
BRANCH  29  31
HETATM   31  C6  UNL     1       6.555  -1.436  -1.611  1.00  0.00     0.037 C 
BRANCH  31  32
HETATM   32  C5  UNL     1       7.587  -0.370  -2.006  1.00  0.00     0.031 C 
BRANCH  32  33
HETATM   33  C4  UNL     1       8.627  -0.101  -0.952  1.00  0.00    -0.024 C 
HETATM   34  C2  UNL     1       9.823  -0.705  -0.809  1.00  0.00    -0.091 C 
HETATM   35  C1  UNL     1      10.334  -1.817  -1.682  1.00  0.00     0.042 C 
HETATM   36  C3  UNL     1      10.764  -0.297   0.294  1.00  0.00     0.042 C 
ENDBRANCH  32  33
ENDBRANCH  31  32
ENDBRANCH  29  31
ENDBRANCH  27  28
ENDBRANCH  24  26
ENDBRANCH   1  23
BRANCH   8  37
HETATM   37  C26 UNL     1      -4.091  -2.919   0.031  1.00  0.00     0.265 C 
HETATM   38  O4  UNL     1      -3.929  -4.128   0.159  1.00  0.00    -0.302 OA
ENDBRANCH   8  37
TORSDOF 13
