REMARK  10 active torsions:
REMARK  status: ('A' for Active; 'I' for Inactive)
REMARK    1  A    between atoms: O1_2  and  C2_3 
REMARK    2  A    between atoms: C2_3  and  C3_4 
REMARK    3  A    between atoms: C2_3  and  C26_35 
REMARK    4  A    between atoms: C3_4  and  C4_5 
REMARK    5  A    between atoms: C4_5  and  C5_6 
REMARK    6  A    between atoms: C5_6  and  C7_8 
REMARK    7  A    between atoms: C13_17  and  C14_18 
REMARK    8  A    between atoms: C14_18  and  O5_19 
REMARK    9  A    between atoms: C17_24  and  O8_25 
REMARK   10  A    between atoms: C30_39  and  O10_40 
ROOT
HETATM    1  C7  UNL     1       1.007  -0.938   0.826  1.00  0.00     0.135 C 
HETATM    2  O2  UNL     1      -0.014  -1.466  -0.045  1.00  0.00    -0.348 OA
HETATM    3  C8  UNL     1      -1.390  -1.454   0.409  1.00  0.00     0.177 C 
HETATM    4  C9  UNL     1      -1.548  -0.381   1.491  1.00  0.00     0.102 C 
HETATM    5  C10 UNL     1      -0.753   0.850   1.048  1.00  0.00     0.143 C 
HETATM    6  O3  UNL     1      -1.238   1.957   1.825  1.00  0.00    -0.315 OA
HETATM    7  C11 UNL     1      -1.479   3.083   1.091  1.00  0.00     0.261 C 
HETATM    8  O4  UNL     1      -0.835   3.445   0.116  1.00  0.00    -0.265 OA
HETATM    9  C12 UNL     1      -2.753   3.738   1.538  1.00  0.00     0.145 C 
HETATM   10  C13 UNL     1      -3.823   3.414   0.492  1.00  0.00     0.164 C 
HETATM   11  O6  UNL     1      -4.150   2.002   0.577  1.00  0.00    -0.313 OA
HETATM   12  C15 UNL     1      -4.029   1.254  -0.557  1.00  0.00     0.264 C 
HETATM   13  O7  UNL     1      -3.688   1.673  -1.655  1.00  0.00    -0.265 OA
HETATM   14  C16 UNL     1      -4.431  -0.173  -0.282  1.00  0.00     0.179 C 
HETATM   15  C17 UNL     1      -3.496  -1.197  -0.951  1.00  0.00     0.177 C 
HETATM   16  O9  UNL     1      -2.114  -0.969  -0.738  1.00  0.00    -0.318 OA
HETATM   17  C18 UNL     1      -3.943  -2.629  -0.552  1.00  0.00     0.045 C 
HETATM   18  C19 UNL     1      -4.903  -3.297  -1.545  1.00  0.00     0.015 C 
HETATM   19  C20 UNL     1      -2.728  -3.517  -0.303  1.00  0.00     0.024 C 
HETATM   20  C21 UNL     1      -1.821  -2.925   0.805  1.00  0.00     0.010 C 
HETATM   21  C22 UNL     1      -2.565  -2.984   2.163  1.00  0.00     0.020 C 
HETATM   22  C23 UNL     1      -0.627  -3.899   0.940  1.00  0.00     0.020 C 
HETATM   23  C24 UNL     1       0.729   0.536   1.270  1.00  0.00     0.041 C 
HETATM   24  C25 UNL     1       1.615   1.639   0.698  1.00  0.00     0.015 C 
ENDROOT
BRANCH   1  25
HETATM   25  C5  UNL     1       2.407  -1.234   0.197  1.00  0.00     0.011 C 
HETATM   26  C6  UNL     1       2.765  -2.715   0.410  1.00  0.00     0.012 C 
BRANCH  25  27
HETATM   27  C4  UNL     1       2.455  -0.903  -1.313  1.00  0.00     0.009 C 
BRANCH  27  28
HETATM   28  C3  UNL     1       3.801  -1.083  -2.040  1.00  0.00     0.037 C 
BRANCH  28  29
HETATM   29  C2  UNL     1       5.001  -0.244  -1.549  1.00  0.00     0.153 C 
BRANCH  29  30
HETATM   30  O1  UNL     1       5.465  -0.772  -0.296  1.00  0.00    -0.386 OA
HETATM   31  C1  UNL     1       6.521  -1.711  -0.452  1.00  0.00     0.202 C 
ENDBRANCH  29  30
BRANCH  29  32
HETATM   32  C26 UNL     1       4.762   1.256  -1.437  1.00  0.00    -0.027 A 
HETATM   33  C27 UNL     1       4.097   1.959  -2.457  1.00  0.00     0.010 A 
HETATM   34  C28 UNL     1       3.892   3.339  -2.364  1.00  0.00     0.003 A 
HETATM   35  C29 UNL     1       4.363   4.043  -1.260  1.00  0.00     0.036 A 
HETATM   36  C30 UNL     1       5.044   3.365  -0.259  1.00  0.00     0.066 A 
HETATM   37  C31 UNL     1       5.254   1.989  -0.341  1.00  0.00     0.046 A 
BRANCH  36  38
HETATM   38  O10 UNL     1       5.494   4.086   0.807  1.00  0.00    -0.361 OA
HETATM   39  H45 UNL     1       5.903   3.470   1.437  1.00  0.00     0.217 HD
ENDBRANCH  36  38
ENDBRANCH  29  32
ENDBRANCH  28  29
ENDBRANCH  27  28
ENDBRANCH  25  27
ENDBRANCH   1  25
BRANCH  15  40
HETATM   40  O8  UNL     1      -3.664  -1.072  -2.365  1.00  0.00    -0.364 OA
HETATM   41  H25 UNL     1      -3.331  -0.181  -2.588  1.00  0.00     0.213 HD
ENDBRANCH  15  40
BRANCH  10  42
HETATM   42  C14 UNL     1      -5.115   4.194   0.749  1.00  0.00     0.197 C 
BRANCH  42  43
HETATM   43  O5  UNL     1      -4.882   5.595   0.723  1.00  0.00    -0.398 OA
HETATM   44  H22 UNL     1      -5.751   6.033   0.717  1.00  0.00     0.209 HD
ENDBRANCH  42  43
ENDBRANCH  10  42
TORSDOF 10
