REMARK  6 active torsions:
REMARK  status: ('A' for Active; 'I' for Inactive)
REMARK    1  A    between atoms: C13_15  and  O3_16 
REMARK    2  A    between atoms: C22_26  and  O5_27 
REMARK    3  A    between atoms: C23_28  and  O6_29 
REMARK    4  A    between atoms: C29_36  and  C30_37 
REMARK    5  A    between atoms: C30_37  and  C32_39 
REMARK    6  A    between atoms: C32_39  and  O8_40 
ROOT
HETATM    1  C1  UNL     1      -3.768   6.364  -0.493  1.00  0.00     0.046 C 
HETATM    2  C2  UNL     1      -3.804   4.864  -0.410  1.00  0.00    -0.056 C 
HETATM    3  C3  UNL     1      -2.703   4.124  -0.644  1.00  0.00    -0.004 C 
HETATM    4  C4  UNL     1      -2.763   2.623  -0.681  1.00  0.00     0.150 C 
HETATM    5  C5  UNL     1      -1.400   1.949  -0.575  1.00  0.00     0.270 C 
HETATM    6  O1  UNL     1      -0.806   1.548  -1.579  1.00  0.00    -0.264 OA
HETATM    7  O2  UNL     1      -0.902   1.870   0.692  1.00  0.00    -0.315 OA
HETATM    8  C6  UNL     1       0.303   1.082   0.912  1.00  0.00     0.139 C 
HETATM    9  C7  UNL     1       0.013  -0.403   0.699  1.00  0.00     0.065 C 
HETATM   10  C8  UNL     1       1.308  -1.196   0.664  1.00  0.00     0.131 C 
HETATM   11  C9  UNL     1       1.089  -2.725   0.537  1.00  0.00     0.059 C 
HETATM   12  C10 UNL     1       0.191  -3.135  -0.609  1.00  0.00    -0.019 C 
HETATM   13  C11 UNL     1      -0.920  -3.905  -0.562  1.00  0.00    -0.059 C 
HETATM   14  C12 UNL     1      -1.430  -4.573   0.689  1.00  0.00     0.046 C 
HETATM   15  C13 UNL     1      -1.738  -4.120  -1.840  1.00  0.00     0.153 C 
HETATM   16  C14 UNL     1      -3.224  -3.616  -1.842  1.00  0.00     0.037 C 
HETATM   17  C15 UNL     1      -4.225  -4.604  -1.229  1.00  0.00     0.017 C 
HETATM   18  C16 UNL     1      -3.311  -2.207  -1.295  1.00  0.00    -0.020 C 
HETATM   19  C17 UNL     1      -3.859  -1.825  -0.128  1.00  0.00    -0.003 C 
HETATM   20  C18 UNL     1      -3.685  -0.490   0.373  1.00  0.00     0.008 C 
HETATM   21  C19 UNL     1      -4.179   0.624  -0.184  1.00  0.00    -0.019 C 
HETATM   22  C20 UNL     1      -5.190   0.713  -1.293  1.00  0.00     0.206 C 
HETATM   23  O4  UNL     1      -5.581   2.107  -1.361  1.00  0.00    -0.375 OA
HETATM   24  C21 UNL     1      -5.210   2.688  -0.091  1.00  0.00     0.194 C 
HETATM   25  C22 UNL     1      -5.155   4.236  -0.108  1.00  0.00     0.179 C 
HETATM   26  C23 UNL     1      -3.865   2.033   0.231  1.00  0.00     0.128 C 
HETATM   27  O7  UNL     1       2.076  -0.722  -0.446  1.00  0.00    -0.349 OA
HETATM   28  C24 UNL     1       2.604   0.591  -0.242  1.00  0.00     0.167 C 
HETATM   29  C25 UNL     1       3.238   1.024  -1.586  1.00  0.00     0.069 C 
HETATM   30  C26 UNL     1       4.465   1.896  -1.330  1.00  0.00     0.012 C 
HETATM   31  C27 UNL     1       5.538   1.065  -0.598  1.00  0.00     0.011 C 
HETATM   32  C28 UNL     1       6.427   0.365  -1.638  1.00  0.00     0.012 C 
HETATM   33  C29 UNL     1       4.877   0.051   0.381  1.00  0.00     0.134 C 
HETATM   34  O9  UNL     1       3.597   0.561   0.803  1.00  0.00    -0.349 OA
HETATM   35  C33 UNL     1       1.535   1.636   0.175  1.00  0.00     0.101 C 
ENDROOT
BRANCH  33  36
HETATM   36  C30 UNL     1       5.694  -0.199   1.682  1.00  0.00     0.035 C 
HETATM   37  C31 UNL     1       5.006  -1.272   2.541  1.00  0.00     0.015 C 
BRANCH  36  38
HETATM   38  C32 UNL     1       7.162  -0.577   1.438  1.00  0.00     0.170 C 
BRANCH  38  39
HETATM   39  O8  UNL     1       7.847  -0.787   2.673  1.00  0.00    -0.400 OA
HETATM   40  H46 UNL     1       8.758  -1.059   2.452  1.00  0.00     0.209 HD
ENDBRANCH  38  39
ENDBRANCH  36  38
ENDBRANCH  33  36
BRANCH  15  41
HETATM   41  O3  UNL     1      -1.693  -5.494  -2.213  1.00  0.00    -0.391 OA
HETATM   42  H17 UNL     1      -0.964  -5.911  -1.711  1.00  0.00     0.210 HD
ENDBRANCH  15  41
BRANCH  26  43
HETATM   43  O6  UNL     1      -3.585   2.145   1.622  1.00  0.00    -0.381 OA
HETATM   44  H30 UNL     1      -4.211   1.573   2.104  1.00  0.00     0.211 HD
ENDBRANCH  26  43
BRANCH  25  45
HETATM   45  O5  UNL     1      -5.556   4.721   1.178  1.00  0.00    -0.389 OA
HETATM   46  H29 UNL     1      -4.816   4.543   1.791  1.00  0.00     0.210 HD
ENDBRANCH  25  45
TORSDOF 6
