REMARK  7 active torsions:
REMARK  status: ('A' for Active; 'I' for Inactive)
REMARK    1  A    between atoms: C2_2  and  C3_3 
REMARK    2  A    between atoms: C2_2  and  C4_5 
REMARK    3  A    between atoms: C3_3  and  O1_4 
REMARK    4  A    between atoms: C4_5  and  C5_7 
REMARK    5  A    between atoms: C5_7  and  C6_8 
REMARK    6  A    between atoms: C6_8  and  C7_9 
REMARK    7  A    between atoms: C7_9  and  C9_11 
ROOT
HETATM    1  C9  UNL     1       2.027  -0.466   0.075  1.00  0.00    -0.002 C 
HETATM    2  C10 UNL     1       1.955  -0.761   1.601  1.00  0.00     0.007 C 
HETATM    3  C11 UNL     1       0.469  -0.866   1.987  1.00  0.00     0.015 C 
HETATM    4  C12 UNL     1      -0.287  -0.970   0.651  1.00  0.00    -0.005 C 
HETATM    5  C13 UNL     1      -0.244  -2.469   0.218  1.00  0.00     0.021 C 
HETATM    6  C14 UNL     1      -1.759  -0.583   0.571  1.00  0.00    -0.000 C 
HETATM    7  C15 UNL     1      -2.302  -0.106  -0.579  1.00  0.00    -0.060 C 
HETATM    8  C16 UNL     1      -1.420   0.109  -1.819  1.00  0.00     0.036 C 
HETATM    9  C17 UNL     1       0.096  -0.148  -1.684  1.00  0.00     0.015 C 
HETATM   10  C18 UNL     1       0.576   0.012  -0.237  1.00  0.00    -0.028 C 
HETATM   11  C19 UNL     1       0.426   1.509   0.181  1.00  0.00     0.016 C 
HETATM   12  C20 UNL     1      -3.801   0.279  -0.727  1.00  0.00    -0.014 C 
HETATM   13  C21 UNL     1      -3.886   1.820  -0.679  1.00  0.00     0.020 C 
HETATM   14  C22 UNL     1      -4.362  -0.243  -2.071  1.00  0.00     0.021 C 
HETATM   15  C23 UNL     1      -5.870  -0.131  -2.257  1.00  0.00     0.080 C 
HETATM   16  C24 UNL     1      -6.657   0.310  -1.047  1.00  0.00     0.135 C 
HETATM   17  O3  UNL     1      -7.719   0.915  -1.216  1.00  0.00    -0.297 OA
HETATM   18  C25 UNL     1      -6.183  -0.098   0.353  1.00  0.00     0.018 C 
HETATM   19  C26 UNL     1      -6.592   1.019   1.341  1.00  0.00     0.023 C 
HETATM   20  C27 UNL     1      -6.977  -1.367   0.729  1.00  0.00     0.023 C 
HETATM   21  C28 UNL     1      -4.649  -0.417   0.383  1.00  0.00     0.020 C 
HETATM   22  C29 UNL     1      -4.013  -0.216   1.760  1.00  0.00     0.090 C 
HETATM   23  C30 UNL     1      -2.617  -0.779   1.780  1.00  0.00     0.157 C 
HETATM   24  O4  UNL     1      -2.197  -1.356   2.781  1.00  0.00    -0.293 OA
ENDROOT
BRANCH   1  25
HETATM   25  C7  UNL     1       3.250   0.436  -0.284  1.00  0.00    -0.013 C 
HETATM   26  C8  UNL     1       3.293   0.786  -1.774  1.00  0.00     0.010 C 
BRANCH  25  27
HETATM   27  C6  UNL     1       4.571  -0.260   0.147  1.00  0.00     0.012 C 
BRANCH  27  28
HETATM   28  C5  UNL     1       5.830   0.587  -0.081  1.00  0.00     0.084 C 
BRANCH  28  29
HETATM   29  C4  UNL     1       7.066  -0.015   0.575  1.00  0.00     0.157 C 
HETATM   30  O2  UNL     1       7.033  -1.090   1.177  1.00  0.00    -0.293 OA
BRANCH  29  31
HETATM   31  C2  UNL     1       8.378   0.714   0.476  1.00  0.00     0.002 C 
HETATM   32  C1  UNL     1       8.513   1.861  -0.211  1.00  0.00     0.025 C 
BRANCH  31  33
HETATM   33  C3  UNL     1       9.522   0.078   1.215  1.00  0.00     0.205 C 
BRANCH  33  34
HETATM   34  O1  UNL     1       9.802  -1.205   0.674  1.00  0.00    -0.396 OA
HETATM   35  H5  UNL     1       9.011  -1.749   0.866  1.00  0.00     0.209 HD
ENDBRANCH  33  34
ENDBRANCH  31  33
ENDBRANCH  29  31
ENDBRANCH  28  29
ENDBRANCH  27  28
ENDBRANCH  25  27
ENDBRANCH   1  25
TORSDOF 7
