REMARK  13 active torsions:
REMARK  status: ('A' for Active; 'I' for Inactive)
REMARK    1  A    between atoms: O1_2  and  C2_3 
REMARK    2  A    between atoms: C2_3  and  C3_4 
REMARK    3  A    between atoms: C3_4  and  C4_5 
REMARK    4  A    between atoms: C4_5  and  O2_6 
REMARK    5  A    between atoms: O2_6  and  C5_7 
REMARK    6  A    between atoms: C20_23  and  C21_24 
REMARK    7  A    between atoms: C21_24  and  O4_26 
REMARK    8  A    between atoms: C21_24  and  C23_27 
REMARK    9  A    between atoms: C23_27  and  O5_28 
REMARK   10  A    between atoms: C23_27  and  C24_29 
REMARK   11  A    between atoms: C28_34  and  C29_35 
REMARK       I    between atoms: C29_35  and  N1_37 
REMARK   12  A    between atoms: C32_41  and  O8_42 
REMARK   13  A    between atoms: C37_47  and  O9_48 
ROOT
HETATM    1  C5  UNL     1      -7.442   0.322  -0.282  1.00  0.00     0.122 C 
HETATM    2  C6  UNL     1      -6.826   1.245   0.767  1.00  0.00     0.033 C 
HETATM    3  C7  UNL     1      -5.304   1.259   0.701  1.00  0.00     0.013 C 
HETATM    4  C8  UNL     1      -4.653  -0.161   0.765  1.00  0.00    -0.026 C 
HETATM    5  C9  UNL     1      -4.934  -0.767   2.167  1.00  0.00     0.016 C 
HETATM    6  C10 UNL     1      -5.288  -1.054  -0.335  1.00  0.00     0.071 C 
HETATM    7  C11 UNL     1      -6.825  -1.078  -0.247  1.00  0.00     0.045 C 
HETATM    8  C12 UNL     1      -4.866  -0.635  -1.742  1.00  0.00     0.154 C 
HETATM    9  O3  UNL     1      -5.583  -0.782  -2.729  1.00  0.00    -0.293 OA
HETATM   10  C13 UNL     1      -3.505  -0.101  -1.954  1.00  0.00     0.057 C 
HETATM   11  C14 UNL     1      -2.690   0.159  -0.923  1.00  0.00    -0.037 C 
HETATM   12  C15 UNL     1      -3.103   0.007   0.548  1.00  0.00     0.026 C 
HETATM   13  C16 UNL     1      -2.191  -1.052   1.209  1.00  0.00     0.011 C 
HETATM   14  C17 UNL     1      -0.694  -0.708   1.044  1.00  0.00     0.014 C 
HETATM   15  C18 UNL     1      -0.302  -0.506  -0.436  1.00  0.00    -0.002 C 
HETATM   16  C19 UNL     1      -0.406  -1.879  -1.157  1.00  0.00     0.019 C 
HETATM   17  C20 UNL     1       1.076   0.197  -0.686  1.00  0.00     0.034 C 
HETATM   18  C35 UNL     1       0.946   0.717  -2.144  1.00  0.00     0.012 C 
HETATM   19  C36 UNL     1      -0.573   0.789  -2.449  1.00  0.00     0.044 C 
HETATM   20  C37 UNL     1      -1.245   0.563  -1.088  1.00  0.00     0.089 C 
ENDROOT
BRANCH  17  21
HETATM   21  C21 UNL     1       2.439  -0.461  -0.296  1.00  0.00     0.087 C 
HETATM   22  C22 UNL     1       2.782  -1.712  -1.112  1.00  0.00     0.049 C 
BRANCH  21  23
HETATM   23  O4  UNL     1       2.321  -0.884   1.072  1.00  0.00    -0.387 OA
HETATM   24  H34 UNL     1       1.960  -0.154   1.599  1.00  0.00     0.210 HD
ENDBRANCH  21  23
BRANCH  21  25
HETATM   25  C23 UNL     1       3.588   0.625  -0.422  1.00  0.00     0.181 C 
BRANCH  25  26
HETATM   26  O5  UNL     1       4.068   0.667  -1.771  1.00  0.00    -0.390 OA
HETATM   27  H36 UNL     1       3.986   1.581  -2.096  1.00  0.00     0.210 HD
ENDBRANCH  25  26
BRANCH  25  28
HETATM   28  C24 UNL     1       4.758   0.459   0.581  1.00  0.00     0.158 C 
HETATM   29  O6  UNL     1       5.415  -0.835   0.454  1.00  0.00    -0.373 OA
HETATM   30  C25 UNL     1       6.756  -0.628   0.904  1.00  0.00     0.185 C 
HETATM   31  C26 UNL     1       7.126   0.680   0.251  1.00  0.00     0.028 C 
HETATM   32  C32 UNL     1       7.767  -1.716   0.523  1.00  0.00     0.384 C 
HETATM   33  C27 UNL     1       8.474   1.117   0.776  1.00  0.00     0.053 C 
HETATM   34  C33 UNL     1       5.903   1.521   0.584  1.00  0.00     0.020 C 
HETATM   35  C28 UNL     1       9.522   0.008   0.520  1.00  0.00     0.309 C 
HETATM   36  N2  UNL     1       9.109  -1.350   0.946  1.00  0.00     0.128 N 
HETATM   37  H47 UNL     1       9.140  -1.400   1.964  1.00  0.00     0.320 HD
HETATM   38  C34 UNL     1       5.759   2.755  -0.300  1.00  0.00     0.013 C 
BRANCH  35  39
HETATM   39  C29 UNL     1      10.794   0.392   1.299  1.00  0.00     0.233 C 
HETATM   40  O7  UNL     1      10.871   0.305   2.527  1.00  0.00    -0.277 OA
HETATM   41  N1  UNL     1      11.788   0.927   0.479  1.00  0.00    -0.249 NA
HETATM   42  C30 UNL     1      12.497   2.110   0.881  1.00  0.00     0.113 A 
HETATM   43  C31 UNL     1      13.168   0.784   0.856  1.00  0.00     0.113 A 
ENDBRANCH  35  39
BRANCH  32  44
HETATM   44  O8  UNL     1       7.412  -2.922   1.176  1.00  0.00    -0.366 OA
HETATM   45  H49 UNL     1       6.466  -3.051   0.967  1.00  0.00     0.212 HD
ENDBRANCH  32  44
ENDBRANCH  25  28
ENDBRANCH  21  25
ENDBRANCH  17  21
BRANCH  20  46
HETATM   46  O9  UNL     1      -1.129   1.828  -0.406  1.00  0.00    -0.384 OA
HETATM   47  H58 UNL     1      -1.819   2.407  -0.772  1.00  0.00     0.211 HD
ENDBRANCH  20  46
BRANCH   1  48
HETATM   48  O2  UNL     1      -8.839   0.208   0.015  1.00  0.00    -0.386 OA
BRANCH  48  49
HETATM   49  C4  UNL     1      -9.671   0.450  -1.121  1.00  0.00     0.170 C 
BRANCH  49  50
HETATM   50  C3  UNL     1     -11.118   0.189  -0.725  1.00  0.00     0.052 C 
BRANCH  50  51
HETATM   51  C2  UNL     1     -11.346  -1.286  -0.406  1.00  0.00     0.169 C 
BRANCH  51  52
HETATM   52  O1  UNL     1     -12.726  -1.521  -0.117  1.00  0.00    -0.396 OA
HETATM   53  C1  UNL     1     -13.035  -1.330   1.260  1.00  0.00     0.201 C 
ENDBRANCH  51  52
ENDBRANCH  50  51
ENDBRANCH  49  50
ENDBRANCH  48  49
ENDBRANCH   1  48
TORSDOF 13
