REMARK  8 active torsions:
REMARK  status: ('A' for Active; 'I' for Inactive)
REMARK    1  A    between atoms: C4_4  and  C5_5 
REMARK    2  A    between atoms: C5_5  and  C6_6 
REMARK    3  A    between atoms: C12_14  and  O3_15 
REMARK    4  A    between atoms: C20_24  and  O5_25 
REMARK    5  A    between atoms: C27_33  and  C28_34 
REMARK    6  A    between atoms: C28_34  and  C29_35 
REMARK    7  A    between atoms: C30_36  and  C32_38 
REMARK    8  A    between atoms: C32_38  and  O8_40 
ROOT
HETATM    1  C6  UNL     1       1.476   0.126  -0.203  1.00  0.00     0.014 A 
HETATM    2  C7  UNL     1       0.570  -0.909   0.091  1.00  0.00     0.096 A 
HETATM    3  O1  UNL     1      -0.741  -0.561   0.306  1.00  0.00    -0.333 OA
HETATM    4  C8  UNL     1      -1.711  -1.620   0.244  1.00  0.00     0.126 C 
HETATM    5  C9  UNL     1      -1.251  -2.776   1.148  1.00  0.00     0.129 C 
HETATM    6  C10 UNL     1       0.070  -3.266   0.598  1.00  0.00     0.174 C 
HETATM    7  O2  UNL     1       0.398  -4.448   0.538  1.00  0.00    -0.292 OA
HETATM    8  C11 UNL     1       1.021  -2.229   0.159  1.00  0.00     0.078 A 
HETATM    9  C12 UNL     1       2.352  -2.548  -0.147  1.00  0.00     0.095 A 
HETATM   10  C13 UNL     1       3.257  -1.537  -0.490  1.00  0.00     0.032 A 
HETATM   11  C14 UNL     1       2.817  -0.205  -0.503  1.00  0.00     0.092 A 
HETATM   12  O4  UNL     1       3.640   0.840  -0.837  1.00  0.00    -0.335 OA
HETATM   13  C15 UNL     1       5.061   0.626  -0.922  1.00  0.00     0.078 C 
HETATM   14  C16 UNL     1       5.520   1.375  -2.179  1.00  0.00     0.051 C 
HETATM   15  C17 UNL     1       5.693   1.264   0.321  1.00  0.00     0.051 C 
HETATM   16  C18 UNL     1       5.485  -0.818  -1.023  1.00  0.00     0.012 C 
HETATM   17  C19 UNL     1       4.644  -1.836  -0.828  1.00  0.00     0.016 C 
HETATM   18  C20 UNL     1      -2.298  -3.896   1.210  1.00  0.00     0.144 C 
HETATM   19  C21 UNL     1      -3.402  -3.627   0.189  1.00  0.00     0.089 C 
HETATM   20  C22 UNL     1      -2.766  -3.393  -1.188  1.00  0.00     0.025 C 
HETATM   21  C23 UNL     1      -2.043  -2.018  -1.227  1.00  0.00     0.060 C 
HETATM   22  C24 UNL     1      -2.944  -0.830  -1.696  1.00  0.00     0.062 C 
HETATM   23  C25 UNL     1      -2.127   0.318  -2.306  1.00  0.00     0.046 C 
HETATM   24  C26 UNL     1      -4.052  -1.189  -2.692  1.00  0.00     0.046 C 
HETATM   25  O6  UNL     1      -3.576  -0.321  -0.504  1.00  0.00    -0.358 OA
HETATM   26  C27 UNL     1      -3.134  -1.108   0.627  1.00  0.00     0.158 C 
HETATM   27  C33 UNL     1      -4.071  -2.341   0.634  1.00  0.00     0.171 C 
HETATM   28  O9  UNL     1      -5.262  -2.316   0.934  1.00  0.00    -0.294 OA
ENDROOT
BRANCH  26  29
HETATM   29  C28 UNL     1      -3.310  -0.334   1.942  1.00  0.00     0.077 C 
BRANCH  29  30
HETATM   30  C29 UNL     1      -2.501   0.934   2.082  1.00  0.00    -0.010 C 
HETATM   31  C30 UNL     1      -2.850   2.184   1.719  1.00  0.00     0.008 C 
HETATM   32  C31 UNL     1      -1.942   3.360   1.932  1.00  0.00     0.055 C 
BRANCH  31  33
HETATM   33  C32 UNL     1      -4.163   2.484   1.104  1.00  0.00     0.171 C 
HETATM   34  O7  UNL     1      -5.244   2.009   1.397  1.00  0.00    -0.646 OA
BRANCH  33  35
HETATM   35  O8  UNL     1      -4.053   3.423   0.148  1.00  0.00    -0.773 OA
HETATM   36  H38 UNL     1      -4.973   3.499  -0.183  1.00  0.00     0.167 HD
ENDBRANCH  33  35
ENDBRANCH  31  33
ENDBRANCH  29  30
ENDBRANCH  26  29
BRANCH  18  37
HETATM   37  O5  UNL     1      -2.837  -3.935   2.531  1.00  0.00    -0.394 OA
HETATM   38  H21 UNL     1      -3.507  -4.642   2.573  1.00  0.00     0.210 HD
ENDBRANCH  18  37
BRANCH   1  39
HETATM   39  C5  UNL     1       1.058   1.584  -0.145  1.00  0.00     0.072 C 
BRANCH  39  40
HETATM   40  C4  UNL     1       1.460   2.231   1.157  1.00  0.00    -0.020 C 
HETATM   41  C2  UNL     1       2.166   3.363   1.347  1.00  0.00    -0.091 C 
HETATM   42  C1  UNL     1       2.711   4.243   0.257  1.00  0.00     0.042 C 
HETATM   43  C3  UNL     1       2.467   3.850   2.741  1.00  0.00     0.042 C 
ENDBRANCH  39  40
ENDBRANCH   1  39
BRANCH   9  44
HETATM   44  O3  UNL     1       2.807  -3.846  -0.116  1.00  0.00    -0.359 OA
HETATM   45  H11 UNL     1       2.067  -4.436   0.149  1.00  0.00     0.217 HD
ENDBRANCH   9  44
TORSDOF 8
