REMARK  6 active torsions:
REMARK  status: ('A' for Active; 'I' for Inactive)
REMARK    1  A    between atoms: C2_2  and  C30_32 
REMARK    2  A    between atoms: C3_3  and  C4_4 
REMARK    3  A    between atoms: C4_4  and  C5_6 
REMARK    4  A    between atoms: C5_6  and  C6_7 
REMARK    5  A    between atoms: C6_7  and  C8_9 
REMARK    6  A    between atoms: C30_32  and  O4_34 
ROOT
HETATM    1  C8  UNL     1       1.979  -1.754  -0.966  1.00  0.00    -0.001 C 
HETATM    2  C9  UNL     1       1.691  -1.047  -2.302  1.00  0.00     0.007 C 
HETATM    3  C10 UNL     1       0.160  -0.924  -2.423  1.00  0.00     0.015 C 
HETATM    4  C11 UNL     1      -0.451  -1.656  -1.195  1.00  0.00    -0.013 C 
HETATM    5  C12 UNL     1      -0.659  -3.137  -1.637  1.00  0.00     0.021 C 
HETATM    6  C13 UNL     1      -1.767  -1.021  -0.679  1.00  0.00    -0.070 C 
HETATM    7  C14 UNL     1      -2.916  -1.701  -0.526  1.00  0.00    -0.022 C 
HETATM    8  C15 UNL     1      -4.156  -1.174   0.117  1.00  0.00     0.034 C 
HETATM    9  C16 UNL     1      -4.044   0.191   0.858  1.00  0.00     0.013 C 
HETATM   10  C17 UNL     1      -5.492   0.769   1.101  1.00  0.00     0.018 C 
HETATM   11  C18 UNL     1      -5.536   1.918   2.127  1.00  0.00     0.023 C 
HETATM   12  C19 UNL     1      -6.437  -0.327   1.658  1.00  0.00     0.023 C 
HETATM   13  C20 UNL     1      -6.047   1.283  -0.238  1.00  0.00     0.135 C 
HETATM   14  O2  UNL     1      -7.225   1.116  -0.562  1.00  0.00    -0.297 OA
HETATM   15  C21 UNL     1      -5.133   2.111  -1.121  1.00  0.00     0.080 C 
HETATM   16  C22 UNL     1      -3.731   1.520  -1.264  1.00  0.00     0.017 C 
HETATM   17  C23 UNL     1      -3.064   1.140   0.092  1.00  0.00    -0.031 C 
HETATM   18  C24 UNL     1      -2.752   2.454   0.851  1.00  0.00     0.016 C 
HETATM   19  C25 UNL     1      -1.678   0.415  -0.185  1.00  0.00     0.024 C 
HETATM   20  C26 UNL     1      -0.696   0.378   1.004  1.00  0.00     0.010 C 
HETATM   21  C27 UNL     1       0.684  -0.088   0.524  1.00  0.00     0.011 C 
HETATM   22  C28 UNL     1       0.693  -1.505  -0.111  1.00  0.00    -0.029 C 
HETATM   23  C29 UNL     1       0.584  -2.543   1.026  1.00  0.00     0.016 C 
ENDROOT
BRANCH   1  24
HETATM   24  C6  UNL     1       3.370  -1.480  -0.321  1.00  0.00    -0.007 C 
HETATM   25  C7  UNL     1       4.412  -2.418  -0.963  1.00  0.00     0.011 C 
BRANCH  24  26
HETATM   26  C5  UNL     1       3.892  -0.032  -0.422  1.00  0.00     0.087 C 
BRANCH  26  27
HETATM   27  C4  UNL     1       5.010   0.276   0.565  1.00  0.00     0.150 C 
HETATM   28  O1  UNL     1       5.262  -0.434   1.534  1.00  0.00    -0.293 OA
BRANCH  27  29
HETATM   29  C3  UNL     1       5.761   1.540   0.318  1.00  0.00     0.063 C 
HETATM   30  C2  UNL     1       7.021   1.778   0.728  1.00  0.00     0.015 C 
HETATM   31  C1  UNL     1       7.934   0.823   1.434  1.00  0.00     0.055 C 
BRANCH  30  32
HETATM   32  C30 UNL     1       7.535   3.129   0.405  1.00  0.00     0.171 C 
HETATM   33  O3  UNL     1       6.979   3.968  -0.283  1.00  0.00    -0.646 OA
BRANCH  32  34
HETATM   34  O4  UNL     1       8.726   3.376   0.972  1.00  0.00    -0.773 OA
HETATM   35  H44 UNL     1       8.935   4.293   0.698  1.00  0.00     0.167 HD
ENDBRANCH  32  34
ENDBRANCH  30  32
ENDBRANCH  27  29
ENDBRANCH  26  27
ENDBRANCH  24  26
ENDBRANCH   1  24
TORSDOF 6
