REMARK  10 active torsions:
REMARK  status: ('A' for Active; 'I' for Inactive)
REMARK    1  A    between atoms: N1_2  and  C2_3 
REMARK    2  A    between atoms: C2_3  and  C3_4 
REMARK    3  A    between atoms: C3_4  and  O1_5 
REMARK    4  A    between atoms: O1_5  and  C4_6 
REMARK    5  A    between atoms: C4_6  and  C5_8 
REMARK    6  A    between atoms: C17_21  and  O4_22 
REMARK    7  A    between atoms: O4_22  and  C18_23 
REMARK    8  A    between atoms: C18_23  and  C19_25 
REMARK    9  A    between atoms: C19_25  and  C20_26 
REMARK   10  A    between atoms: C20_26  and  O6_29 
ROOT
HETATM    1  C5  UNL     1       5.270   0.396   1.525  1.00  0.00     0.085 C 
HETATM    2  C6  UNL     1       4.024   0.130   1.078  1.00  0.00    -0.070 C 
HETATM    3  C7  UNL     1       3.499   0.486  -0.296  1.00  0.00     0.035 C 
HETATM    4  C8  UNL     1       2.099   1.115  -0.258  1.00  0.00     0.010 C 
HETATM    5  C9  UNL     1       1.096   0.274   0.561  1.00  0.00     0.006 C 
HETATM    6  C10 UNL     1       1.677   0.121   2.001  1.00  0.00     0.068 C 
HETATM    7  C11 UNL     1       0.711  -0.492   3.016  1.00  0.00     0.132 C 
HETATM    8  O3  UNL     1       1.116  -1.142   3.982  1.00  0.00    -0.298 OA
HETATM    9  C12 UNL     1      -0.762  -0.154   2.905  1.00  0.00     0.085 C 
HETATM   10  C13 UNL     1      -1.197  -0.228   1.439  1.00  0.00     0.011 C 
HETATM   11  C14 UNL     1      -2.740  -0.268   1.158  1.00  0.00    -0.016 C 
HETATM   12  C15 UNL     1      -3.419  -1.366   2.019  1.00  0.00     0.018 C 
HETATM   13  C16 UNL     1      -3.454   1.050   1.531  1.00  0.00     0.018 C 
HETATM   14  C17 UNL     1      -2.965  -0.666  -0.349  1.00  0.00     0.140 C 
HETATM   15  C23 UNL     1      -1.745  -0.408  -1.250  1.00  0.00     0.034 C 
HETATM   16  C24 UNL     1      -1.009   0.867  -0.864  1.00  0.00     0.012 C 
HETATM   17  C25 UNL     1      -0.389   0.810   0.566  1.00  0.00    -0.035 C 
HETATM   18  C26 UNL     1      -0.399   2.259   1.116  1.00  0.00     0.016 C 
HETATM   19  C27 UNL     1       3.044  -0.605   1.987  1.00  0.00     0.022 C 
HETATM   20  C28 UNL     1       2.970  -2.081   1.567  1.00  0.00     0.015 C 
ENDROOT
BRANCH   1  21
HETATM   21  C4  UNL     1       6.396   1.003   0.783  1.00  0.00     0.283 C 
HETATM   22  O2  UNL     1       7.212   1.735   1.324  1.00  0.00    -0.260 OA
BRANCH  21  23
HETATM   23  O1  UNL     1       6.452   0.522  -0.477  1.00  0.00    -0.316 OA
BRANCH  23  24
HETATM   24  C3  UNL     1       7.584   0.971  -1.232  1.00  0.00     0.209 C 
BRANCH  24  25
HETATM   25  C2  UNL     1       7.656   0.204  -2.564  1.00  0.00     0.295 C 
BRANCH  25  26
HETATM   26  N1  UNL     1       8.193  -1.162  -2.465  1.00  0.00     0.081 N 
HETATM   27  C1  UNL     1       7.214  -2.123  -1.974  1.00  0.00     0.306 C 
HETATM   28  H4  UNL     1       9.009  -1.168  -1.850  1.00  0.00     0.315 HD
ENDBRANCH  25  26
ENDBRANCH  24  25
ENDBRANCH  23  24
ENDBRANCH  21  23
ENDBRANCH   1  21
BRANCH  14  29
HETATM   29  O4  UNL     1      -4.094   0.063  -0.874  1.00  0.00    -0.315 OA
BRANCH  29  30
HETATM   30  C18 UNL     1      -4.831  -0.552  -1.842  1.00  0.00     0.262 C 
HETATM   31  O5  UNL     1      -4.642  -1.684  -2.261  1.00  0.00    -0.265 OA
BRANCH  30  32
HETATM   32  C19 UNL     1      -5.920   0.369  -2.329  1.00  0.00     0.148 C 
BRANCH  32  33
HETATM   33  C20 UNL     1      -7.306   0.008  -1.786  1.00  0.00     0.059 C 
HETATM   34  C21 UNL     1      -8.305   1.083  -2.231  1.00  0.00     0.045 C 
HETATM   35  C22 UNL     1      -7.345  -0.118  -0.258  1.00  0.00     0.045 C 
BRANCH  33  36
HETATM   36  O6  UNL     1      -7.739  -1.220  -2.382  1.00  0.00    -0.390 OA
HETATM   37  H34 UNL     1      -7.525  -1.956  -1.770  1.00  0.00     0.210 HD
ENDBRANCH  33  36
ENDBRANCH  32  33
ENDBRANCH  30  32
ENDBRANCH  29  30
ENDBRANCH  14  29
TORSDOF 10
