REMARK  9 active torsions:
REMARK  status: ('A' for Active; 'I' for Inactive)
REMARK    1  A    between atoms: C3_3  and  O1_4 
REMARK    2  A    between atoms: N1_14  and  O2_16 
REMARK    3  A    between atoms: O2_16  and  C13_17 
REMARK    4  A    between atoms: C13_17  and  C14_18 
REMARK       I    between atoms: C14_18  and  N2_20 
REMARK    5  A    between atoms: N2_20  and  C15_21 
REMARK    6  A    between atoms: C15_21  and  C16_22 
REMARK    7  A    between atoms: C15_21  and  C18_26 
REMARK    8  A    between atoms: C16_22  and  C17_23 
REMARK    9  A    between atoms: C17_23  and  O5_25 
ROOT
HETATM    1  C1  UNL     1     -10.891  -0.487  -0.823  1.00  0.00     0.015 C 
HETATM    2  C2  UNL     1      -9.944   0.253  -0.868  1.00  0.00    -0.078 C 
HETATM    3  C3  UNL     1      -8.788   1.164  -0.896  1.00  0.00     0.128 C 
HETATM    4  C4  UNL     1      -8.070   1.152  -2.248  1.00  0.00     0.052 C 
HETATM    5  C5  UNL     1      -6.624   1.554  -1.948  1.00  0.00     0.010 C 
HETATM    6  C6  UNL     1      -6.484   1.656  -0.411  1.00  0.00     0.002 C 
HETATM    7  C7  UNL     1      -5.067   1.261   0.069  1.00  0.00    -0.004 C 
HETATM    8  C8  UNL     1      -4.734   1.906   1.437  1.00  0.00     0.010 C 
HETATM    9  C9  UNL     1      -3.783   1.098   2.315  1.00  0.00     0.035 C 
HETATM   10  C10 UNL     1      -2.773   0.387   1.464  1.00  0.00    -0.069 C 
HETATM   11  C11 UNL     1      -1.468   0.701   1.540  1.00  0.00     0.030 C 
HETATM   12  C12 UNL     1      -0.461   0.066   0.654  1.00  0.00     0.032 C 
HETATM   13  N1  UNL     1       0.797   0.272   0.927  1.00  0.00    -0.271 N 
ATOM     14  H1  UNL     1       1.130   0.837   1.708  1.00  0.00     0.194 HD
HETATM   15  C25 UNL     1      -0.948  -0.803  -0.491  1.00  0.00     0.060 C 
HETATM   16  C26 UNL     1      -2.435  -0.610  -0.785  1.00  0.00     0.020 C 
HETATM   17  C27 UNL     1      -3.337  -0.635   0.483  1.00  0.00    -0.016 C 
HETATM   18  C28 UNL     1      -3.257  -2.034   1.133  1.00  0.00     0.020 C 
HETATM   19  C29 UNL     1      -4.815  -0.272   0.037  1.00  0.00     0.002 C 
HETATM   20  C30 UNL     1      -5.953  -1.007   0.773  1.00  0.00     0.007 C 
HETATM   21  C31 UNL     1      -7.315  -0.696   0.146  1.00  0.00     0.014 C 
HETATM   22  C32 UNL     1      -7.670   0.813   0.138  1.00  0.00     0.003 C 
HETATM   23  C33 UNL     1      -8.092   1.239   1.558  1.00  0.00     0.020 C 
ENDROOT
BRANCH   3  24
HETATM   24  O1  UNL     1      -9.254   2.499  -0.671  1.00  0.00    -0.377 OA
HETATM   25  H2  UNL     1     -10.080   2.605  -1.172  1.00  0.00     0.211 HD
ENDBRANCH   3  24
BRANCH  13  26
HETATM   26  O2  UNL     1       1.637  -0.382   0.011  1.00  0.00    -0.271 OA
BRANCH  26  27
HETATM   27  C13 UNL     1       2.975  -0.277   0.475  1.00  0.00     0.303 C 
BRANCH  27  28
HETATM   28  C14 UNL     1       3.984  -0.756  -0.567  1.00  0.00     0.244 C 
HETATM   29  O3  UNL     1       3.697  -1.048  -1.723  1.00  0.00    -0.271 OA
HETATM   30  N2  UNL     1       5.283  -0.817  -0.081  1.00  0.00    -0.354 N 
HETATM   31  H16 UNL     1       5.374  -0.916   0.925  1.00  0.00     0.162 HD
BRANCH  30  32
HETATM   32  C15 UNL     1       6.373  -1.350  -0.896  1.00  0.00     0.098 C 
BRANCH  32  33
HETATM   33  C16 UNL     1       6.323  -2.881  -1.028  1.00  0.00     0.135 C 
BRANCH  33  34
HETATM   34  C17 UNL     1       6.505  -3.675   0.233  1.00  0.00     0.141 C 
HETATM   35  O4  UNL     1       7.243  -4.639   0.362  1.00  0.00    -0.650 OA
BRANCH  34  36
HETATM   36  O5  UNL     1       5.731  -3.279   1.261  1.00  0.00    -0.776 OA
HETATM   37  H20 UNL     1       5.911  -3.954   1.954  1.00  0.00     0.167 HD
ENDBRANCH  34  36
ENDBRANCH  33  34
ENDBRANCH  32  33
BRANCH  32  38
HETATM   38  C18 UNL     1       7.760  -0.772  -0.490  1.00  0.00     0.014 C 
HETATM   39  C19 UNL     1       8.202  -1.057   0.952  1.00  0.00     0.033 C 
HETATM   40  C20 UNL     1       9.529  -0.380   1.270  1.00  0.00     0.169 C 
HETATM   41  O6  UNL     1       9.467   1.021   1.034  1.00  0.00    -0.381 OA
HETATM   42  C21 UNL     1       9.132   1.398  -0.308  1.00  0.00     0.054 C 
HETATM   43  C22 UNL     1       8.970   2.926  -0.286  1.00  0.00     0.045 C 
HETATM   44  C23 UNL     1      10.273   1.053  -1.275  1.00  0.00     0.045 C 
HETATM   45  C24 UNL     1       7.797   0.754  -0.724  1.00  0.00     0.044 C 
ENDBRANCH  32  38
ENDBRANCH  30  32
ENDBRANCH  27  28
ENDBRANCH  26  27
ENDBRANCH  13  26
TORSDOF 9
