REMARK  13 active torsions:
REMARK  status: ('A' for Active; 'I' for Inactive)
REMARK    1  A    between atoms: C2_2  and  O2_4 
REMARK    2  A    between atoms: O2_4  and  C3_5 
REMARK    3  A    between atoms: C20_22  and  C21_23 
REMARK    4  A    between atoms: C21_23  and  C22_24 
REMARK    5  A    between atoms: C21_23  and  C28_31 
REMARK    6  A    between atoms: C22_24  and  C23_25 
REMARK    7  A    between atoms: C24_26  and  C25_27 
REMARK    8  A    between atoms: C25_27  and  O3_30 
REMARK    9  A    between atoms: C28_31  and  O5_33 
REMARK   10  A    between atoms: O5_33  and  C29_34 
REMARK   11  A    between atoms: C30_35  and  O6_36 
REMARK   12  A    between atoms: C31_37  and  O7_38 
REMARK   13  A    between atoms: C33_41  and  O9_42 
ROOT
HETATM    1  C3  UNL     1       6.199   1.617  -0.317  1.00  0.00     0.140 C 
HETATM    2  C4  UNL     1       5.186   2.462   0.447  1.00  0.00     0.034 C 
HETATM    3  C5  UNL     1       3.730   2.200   0.048  1.00  0.00     0.016 C 
HETATM    4  C6  UNL     1       3.412   0.769  -0.485  1.00  0.00    -0.016 C 
HETATM    5  C7  UNL     1       3.491   0.759  -2.034  1.00  0.00     0.020 C 
HETATM    6  C8  UNL     1       1.957   0.357  -0.118  1.00  0.00    -0.068 C 
HETATM    7  C9  UNL     1       1.656  -0.880   0.359  1.00  0.00    -0.068 C 
HETATM    8  C10 UNL     1       2.680  -1.976   0.566  1.00  0.00     0.036 C 
HETATM    9  C11 UNL     1       4.039  -1.682  -0.055  1.00  0.00     0.011 C 
HETATM   10  C12 UNL     1       4.437  -0.216   0.184  1.00  0.00     0.008 C 
HETATM   11  C13 UNL     1       5.960   0.086  -0.092  1.00  0.00    -0.016 C 
HETATM   12  C14 UNL     1       6.524  -0.676  -1.316  1.00  0.00     0.018 C 
HETATM   13  C15 UNL     1       6.771  -0.413   1.140  1.00  0.00     0.018 C 
HETATM   14  C16 UNL     1       0.234  -1.198   0.815  1.00  0.00    -0.013 C 
HETATM   15  C17 UNL     1       0.192  -0.764   2.315  1.00  0.00     0.021 C 
HETATM   16  C18 UNL     1      -0.267  -2.654   0.751  1.00  0.00     0.015 C 
HETATM   17  C19 UNL     1      -1.802  -2.543   0.727  1.00  0.00     0.007 C 
HETATM   18  C20 UNL     1      -2.164  -1.059   0.447  1.00  0.00     0.009 C 
HETATM   19  C34 UNL     1      -0.819  -0.495  -0.120  1.00  0.00    -0.028 C 
HETATM   20  C35 UNL     1      -0.682  -0.895  -1.626  1.00  0.00     0.016 C 
HETATM   21  C36 UNL     1      -0.594   1.011  -0.001  1.00  0.00     0.015 C 
HETATM   22  C37 UNL     1       0.860   1.409  -0.339  1.00  0.00     0.036 C 
ENDROOT
BRANCH  18  23
HETATM   23  C21 UNL     1      -3.454  -0.892  -0.403  1.00  0.00     0.094 C 
BRANCH  23  24
HETATM   24  C22 UNL     1      -4.742  -1.459   0.247  1.00  0.00     0.042 C 
BRANCH  24  25
HETATM   25  C23 UNL     1      -4.863  -2.957   0.260  1.00  0.00    -0.027 C 
HETATM   26  C24 UNL     1      -5.345  -3.681  -0.767  1.00  0.00     0.006 C 
BRANCH  26  27
HETATM   27  C25 UNL     1      -5.468  -5.190  -0.844  1.00  0.00     0.068 C 
HETATM   28  C26 UNL     1      -4.544  -5.744  -1.928  1.00  0.00     0.050 C 
HETATM   29  C27 UNL     1      -6.919  -5.595  -1.119  1.00  0.00     0.050 C 
BRANCH  27  30
HETATM   30  O3  UNL     1      -5.072  -5.784   0.395  1.00  0.00    -0.387 OA
HETATM   31  H42 UNL     1      -5.663  -5.427   1.082  1.00  0.00     0.211 HD
ENDBRANCH  27  30
ENDBRANCH  26  27
ENDBRANCH  24  25
ENDBRANCH  23  24
BRANCH  23  32
HETATM   32  C28 UNL     1      -3.751   0.566  -0.712  1.00  0.00     0.264 C 
HETATM   33  O4  UNL     1      -3.965   0.992  -1.839  1.00  0.00    -0.265 OA
BRANCH  32  34
HETATM   34  O5  UNL     1      -3.804   1.319   0.424  1.00  0.00    -0.308 OA
BRANCH  34  35
HETATM   35  C29 UNL     1      -4.043   2.736   0.204  1.00  0.00     0.218 C 
HETATM   36  C30 UNL     1      -3.662   3.447   1.507  1.00  0.00     0.183 C 
HETATM   37  C31 UNL     1      -4.258   4.851   1.538  1.00  0.00     0.173 C 
HETATM   38  C32 UNL     1      -5.783   4.788   1.424  1.00  0.00     0.205 C 
HETATM   39  O8  UNL     1      -6.254   3.503   0.987  1.00  0.00    -0.356 OA
HETATM   40  C33 UNL     1      -5.526   3.010  -0.141  1.00  0.00     0.288 C 
BRANCH  36  41
HETATM   41  O6  UNL     1      -2.233   3.561   1.620  1.00  0.00    -0.390 OA
HETATM   42  H45 UNL     1      -1.974   3.077   2.432  1.00  0.00     0.210 HD
ENDBRANCH  36  41
BRANCH  37  43
HETATM   43  O7  UNL     1      -3.877   5.512   2.746  1.00  0.00    -0.391 OA
HETATM   44  H47 UNL     1      -2.901   5.473   2.766  1.00  0.00     0.210 HD
ENDBRANCH  37  43
BRANCH  40  45
HETATM   45  O9  UNL     1      -5.626   3.942  -1.211  1.00  0.00    -0.369 OA
HETATM   46  H51 UNL     1      -6.460   3.728  -1.665  1.00  0.00     0.212 HD
ENDBRANCH  40  45
ENDBRANCH  34  35
ENDBRANCH  32  34
ENDBRANCH  23  32
ENDBRANCH  18  23
BRANCH   1  47
HETATM   47  O2  UNL     1       7.525   1.974   0.134  1.00  0.00    -0.316 OA
BRANCH  47  48
HETATM   48  C2  UNL     1       8.196   2.931  -0.572  1.00  0.00     0.255 C 
HETATM   49  C1  UNL     1       9.524   3.189   0.076  1.00  0.00     0.126 C 
HETATM   50  O1  UNL     1       7.791   3.498  -1.576  1.00  0.00    -0.266 OA
ENDBRANCH  47  48
ENDBRANCH   1  47
TORSDOF 13
