REMARK  12 active torsions:
REMARK  status: ('A' for Active; 'I' for Inactive)
REMARK    1  A    between atoms: O1_2  and  C2_3 
REMARK    2  A    between atoms: C2_3  and  C3_4 
REMARK    3  A    between atoms: C3_4  and  C4_5 
REMARK    4  A    between atoms: C4_5  and  O2_6 
REMARK    5  A    between atoms: O2_6  and  C5_7 
REMARK    6  A    between atoms: C20_23  and  C21_24 
REMARK    7  A    between atoms: C21_24  and  O4_26 
REMARK    8  A    between atoms: C21_24  and  C23_27 
REMARK    9  A    between atoms: C23_27  and  O5_28 
REMARK   10  A    between atoms: C23_27  and  C24_29 
REMARK   11  A    between atoms: C29_36  and  O7_37 
REMARK   12  A    between atoms: C34_42  and  O8_43 
ROOT
HETATM    1  C5  UNL     1       6.287   0.824   0.943  1.00  0.00     0.122 C 
HETATM    2  C6  UNL     1       5.881   2.175   0.333  1.00  0.00     0.033 C 
HETATM    3  C7  UNL     1       4.366   2.322   0.239  1.00  0.00     0.013 C 
HETATM    4  C8  UNL     1       3.712   1.242  -0.684  1.00  0.00    -0.026 C 
HETATM    5  C9  UNL     1       3.591   1.825  -2.117  1.00  0.00     0.016 C 
HETATM    6  C10 UNL     1       4.644  -0.002  -0.787  1.00  0.00     0.071 C 
HETATM    7  C11 UNL     1       5.328  -0.312   0.548  1.00  0.00     0.045 C 
HETATM    8  C12 UNL     1       3.959  -1.233  -1.343  1.00  0.00     0.154 C 
HETATM    9  O3  UNL     1       4.593  -2.152  -1.861  1.00  0.00    -0.293 OA
HETATM   10  C13 UNL     1       2.497  -1.387  -1.200  1.00  0.00     0.057 C 
HETATM   11  C14 UNL     1       1.742  -0.466  -0.585  1.00  0.00    -0.037 C 
HETATM   12  C15 UNL     1       2.302   0.862  -0.077  1.00  0.00     0.026 C 
HETATM   13  C16 UNL     1       1.288   2.040  -0.180  1.00  0.00     0.011 C 
HETATM   14  C17 UNL     1      -0.167   1.696   0.177  1.00  0.00     0.014 C 
HETATM   15  C18 UNL     1      -0.655   0.441  -0.579  1.00  0.00    -0.002 C 
HETATM   16  C19 UNL     1      -0.663   0.724  -2.100  1.00  0.00     0.019 C 
HETATM   17  C20 UNL     1      -2.023  -0.147  -0.079  1.00  0.00     0.034 C 
HETATM   18  C32 UNL     1      -1.934  -1.647  -0.473  1.00  0.00     0.012 C 
HETATM   19  C33 UNL     1      -0.447  -1.957  -0.738  1.00  0.00     0.044 C 
HETATM   20  C34 UNL     1       0.303  -0.730  -0.208  1.00  0.00     0.089 C 
ENDROOT
BRANCH  17  21
HETATM   21  C21 UNL     1      -3.393   0.561  -0.388  1.00  0.00     0.087 C 
HETATM   22  C22 UNL     1      -3.934   0.297  -1.799  1.00  0.00     0.049 C 
BRANCH  21  23
HETATM   23  O4  UNL     1      -3.190   1.981  -0.283  1.00  0.00    -0.387 OA
HETATM   24  H34 UNL     1      -2.828   2.167   0.600  1.00  0.00     0.210 HD
ENDBRANCH  21  23
BRANCH  21  25
HETATM   25  C23 UNL     1      -4.459   0.149   0.705  1.00  0.00     0.181 C 
BRANCH  25  26
HETATM   26  O5  UNL     1      -4.646  -1.269   0.708  1.00  0.00    -0.390 OA
HETATM   27  H36 UNL     1      -4.857  -1.542   1.615  1.00  0.00     0.210 HD
ENDBRANCH  25  26
BRANCH  25  28
HETATM   28  C24 UNL     1      -5.824   0.900   0.609  1.00  0.00     0.158 C 
HETATM   29  O6  UNL     1      -6.578   0.470  -0.546  1.00  0.00    -0.373 OA
HETATM   30  C25 UNL     1      -7.646  -0.410  -0.130  1.00  0.00     0.185 C 
HETATM   31  C26 UNL     1      -7.602  -0.506   1.389  1.00  0.00     0.027 C 
HETATM   32  C29 UNL     1      -8.990   0.145  -0.654  1.00  0.00     0.383 C 
HETATM   33  C27 UNL     1      -8.989  -0.605   2.027  1.00  0.00     0.038 C 
HETATM   34  C30 UNL     1      -6.800   0.725   1.782  1.00  0.00     0.020 C 
HETATM   35  C28 UNL     1      -9.971  -1.284   1.073  1.00  0.00     0.273 C 
HETATM   36  N1  UNL     1     -10.185  -0.485  -0.127  1.00  0.00     0.114 N 
HETATM   37  H44 UNL     1     -10.573  -1.057  -0.877  1.00  0.00     0.319 HD
HETATM   38  C31 UNL     1      -6.199   0.660   3.176  1.00  0.00     0.013 C 
BRANCH  32  39
HETATM   39  O7  UNL     1      -9.027   0.001  -2.066  1.00  0.00    -0.366 OA
HETATM   40  H46 UNL     1      -8.179   0.370  -2.376  1.00  0.00     0.212 HD
ENDBRANCH  32  39
ENDBRANCH  25  28
ENDBRANCH  21  25
ENDBRANCH  17  21
BRANCH  20  41
HETATM   41  O8  UNL     1       0.339  -0.883   1.227  1.00  0.00    -0.384 OA
HETATM   42  H55 UNL     1       0.890  -1.663   1.416  1.00  0.00     0.211 HD
ENDBRANCH  20  41
BRANCH   1  43
HETATM   43  O2  UNL     1       7.608   0.548   0.467  1.00  0.00    -0.386 OA
BRANCH  43  44
HETATM   44  C4  UNL     1       8.372  -0.273   1.346  1.00  0.00     0.170 C 
BRANCH  44  45
HETATM   45  C3  UNL     1       9.709  -0.600   0.693  1.00  0.00     0.052 C 
BRANCH  45  46
HETATM   46  C2  UNL     1       9.534  -1.393  -0.601  1.00  0.00     0.169 C 
BRANCH  46  47
HETATM   47  O1  UNL     1      10.801  -1.700  -1.189  1.00  0.00    -0.396 OA
HETATM   48  C1  UNL     1      11.412  -2.856  -0.634  1.00  0.00     0.201 C 
ENDBRANCH  46  47
ENDBRANCH  45  46
ENDBRANCH  44  45
ENDBRANCH  43  44
ENDBRANCH   1  43
TORSDOF 12
