REMARK  4 active torsions:
REMARK  status: ('A' for Active; 'I' for Inactive)
REMARK    1  A    between atoms: C4_4  and  C5_5 
REMARK    2  A    between atoms: C5_5  and  C6_7 
REMARK    3  A    between atoms: C6_7  and  C7_8 
REMARK    4  A    between atoms: C7_8  and  C9_10 
ROOT
HETATM    1  C9  UNL     1       2.243  -0.979  -0.438  1.00  0.00    -0.002 C 
HETATM    2  C10 UNL     1       1.958  -1.708  -1.786  1.00  0.00     0.006 C 
HETATM    3  C11 UNL     1       0.480  -1.451  -2.148  1.00  0.00     0.011 C 
HETATM    4  C12 UNL     1       0.036  -0.320  -1.205  1.00  0.00    -0.032 C 
HETATM    5  C13 UNL     1       0.561   1.004  -1.872  1.00  0.00     0.016 C 
HETATM    6  C14 UNL     1      -1.496  -0.107  -0.963  1.00  0.00     0.004 C 
HETATM    7  C15 UNL     1      -2.416  -1.251  -1.403  1.00  0.00     0.007 C 
HETATM    8  C16 UNL     1      -3.914  -0.965  -1.171  1.00  0.00     0.007 C 
HETATM    9  C17 UNL     1      -4.236   0.394  -0.501  1.00  0.00     0.010 C 
HETATM   10  C18 UNL     1      -5.733   0.562  -0.087  1.00  0.00     0.018 C 
HETATM   11  C19 UNL     1      -6.173  -0.419   1.012  1.00  0.00     0.023 C 
HETATM   12  C20 UNL     1      -6.656   0.391  -1.308  1.00  0.00     0.023 C 
HETATM   13  C21 UNL     1      -5.942   1.985   0.457  1.00  0.00     0.135 C 
HETATM   14  O2  UNL     1      -7.068   2.457   0.632  1.00  0.00    -0.297 OA
HETATM   15  C22 UNL     1      -4.716   2.815   0.754  1.00  0.00     0.080 C 
HETATM   16  C23 UNL     1      -3.676   1.968   1.466  1.00  0.00     0.018 C 
HETATM   17  C24 UNL     1      -3.290   0.729   0.671  1.00  0.00    -0.026 A 
HETATM   18  C25 UNL     1      -2.682  -0.412   1.449  1.00  0.00     0.021 A 
HETATM   19  C26 UNL     1      -1.804   0.363   0.477  1.00  0.00    -0.027 A 
HETATM   20  C27 UNL     1      -0.688   1.168   1.123  1.00  0.00     0.011 C 
HETATM   21  C28 UNL     1       0.678   0.449   1.130  1.00  0.00     0.011 C 
HETATM   22  C29 UNL     1       0.803  -0.707   0.113  1.00  0.00    -0.032 C 
HETATM   23  C30 UNL     1       0.285  -2.017   0.778  1.00  0.00     0.016 C 
ENDROOT
BRANCH   1  24
HETATM   24  C7  UNL     1       3.279  -1.739   0.438  1.00  0.00    -0.007 C 
HETATM   25  C8  UNL     1       3.560  -1.032   1.768  1.00  0.00     0.011 C 
BRANCH  24  26
HETATM   26  C6  UNL     1       4.610  -2.013  -0.301  1.00  0.00     0.087 C 
BRANCH  26  27
HETATM   27  C5  UNL     1       5.361  -0.761  -0.721  1.00  0.00     0.149 C 
HETATM   28  O1  UNL     1       5.054  -0.129  -1.729  1.00  0.00    -0.293 OA
BRANCH  27  29
HETATM   29  C4  UNL     1       6.505  -0.340   0.141  1.00  0.00     0.052 C 
HETATM   30  C2  UNL     1       6.844   0.937   0.402  1.00  0.00    -0.084 C 
HETATM   31  C1  UNL     1       6.097   2.149  -0.085  1.00  0.00     0.043 C 
HETATM   32  C3  UNL     1       8.047   1.248   1.252  1.00  0.00     0.043 C 
ENDBRANCH  27  29
ENDBRANCH  26  27
ENDBRANCH  24  26
ENDBRANCH   1  24
TORSDOF 4
