REMARK  13 active torsions:
REMARK  status: ('A' for Active; 'I' for Inactive)
REMARK    1  A    between atoms: C19_21  and  O3_22 
REMARK    2  A    between atoms: C19_21  and  C20_23 
REMARK    3  A    between atoms: C20_23  and  C21_25 
REMARK    4  A    between atoms: C21_25  and  O5_26 
REMARK    5  A    between atoms: O5_26  and  C22_27 
REMARK    6  A    between atoms: C22_27  and  C23_29 
REMARK    7  A    between atoms: C23_29  and  C24_30 
REMARK    8  A    between atoms: C24_30  and  C25_31 
REMARK       I    between atoms: C25_31  and  N1_33 
REMARK    9  A    between atoms: N1_33  and  C26_34 
REMARK   10  A    between atoms: C26_34  and  C27_35 
REMARK   11  A    between atoms: C26_34  and  C36_45 
REMARK   12  A    between atoms: C27_35  and  C28_36 
REMARK   13  A    between atoms: C36_45  and  O9_47 
ROOT
HETATM    1  C21 UNL     1       0.485   0.788  -0.060  1.00  0.00     0.260 C 
ENDROOT
BRANCH   1   2
HETATM    2  C20 UNL     1      -0.300   1.611  -1.084  1.00  0.00     0.185 C 
HETATM    3  O4  UNL     1       0.229   2.009  -2.126  1.00  0.00    -0.292 OA
BRANCH   2   4
HETATM    4  C19 UNL     1      -1.741   2.023  -0.709  1.00  0.00     0.128 C 
HETATM    5  C14 UNL     1      -2.772   0.871  -0.448  1.00  0.00     0.005 C 
HETATM    6  C13 UNL     1      -2.711   0.223   0.954  1.00  0.00     0.091 C 
HETATM    7  C15 UNL     1      -2.645  -0.211  -1.547  1.00  0.00     0.019 C 
HETATM    8  C16 UNL     1      -4.088   1.678  -0.542  1.00  0.00     0.002 C 
HETATM    9  C12 UNL     1      -4.073  -0.168   1.532  1.00  0.00     0.133 C 
HETATM   10  C11 UNL     1      -5.232  -0.344   0.553  1.00  0.00     0.072 C 
HETATM   11  O2  UNL     1      -4.166  -0.442   2.728  1.00  0.00    -0.297 OA
HETATM   12  C2  UNL     1      -6.633  -0.778   1.117  1.00  0.00    -0.009 C 
HETATM   13  C10 UNL     1      -5.388   0.881  -0.383  1.00  0.00     0.003 C 
HETATM   14  C1  UNL     1      -6.577  -2.272   1.508  1.00  0.00     0.021 C 
HETATM   15  C3  UNL     1      -7.091   0.069   2.331  1.00  0.00     0.022 C 
HETATM   16  C7  UNL     1      -7.675  -0.602  -0.008  1.00  0.00    -0.067 C 
HETATM   17  C4  UNL     1      -8.532  -0.205   2.752  1.00  0.00     0.084 C 
HETATM   18  C5  UNL     1      -9.488  -0.108   1.589  1.00  0.00     0.149 C 
HETATM   19  O1  UNL     1     -10.689   0.099   1.749  1.00  0.00    -0.293 OA
HETATM   20  C6  UNL     1      -8.964  -0.299   0.218  1.00  0.00     0.053 C 
HETATM   21  C8  UNL     1      -7.143  -0.673  -1.421  1.00  0.00     0.035 C 
HETATM   22  C9  UNL     1      -6.097   0.429  -1.677  1.00  0.00     0.010 C 
HETATM   23  C17 UNL     1      -3.921   2.568  -1.766  1.00  0.00     0.009 C 
HETATM   24  C18 UNL     1      -2.413   2.855  -1.838  1.00  0.00     0.047 C 
BRANCH   4  25
HETATM   25  O3  UNL     1      -1.647   2.865   0.450  1.00  0.00    -0.381 OA
HETATM   26  H25 UNL     1      -1.207   3.692   0.181  1.00  0.00     0.211 HD
ENDBRANCH   4  25
ENDBRANCH   2   4
ENDBRANCH   1   2
BRANCH   1  27
HETATM   27  O5  UNL     1       1.797   0.475  -0.536  1.00  0.00    -0.314 OA
BRANCH  27  28
HETATM   28  C22 UNL     1       1.835  -0.532  -1.448  1.00  0.00     0.259 C 
HETATM   29  O6  UNL     1       0.856  -1.185  -1.794  1.00  0.00    -0.265 OA
BRANCH  28  30
HETATM   30  C23 UNL     1       3.202  -0.705  -2.066  1.00  0.00     0.120 C 
BRANCH  30  31
HETATM   31  C24 UNL     1       4.354  -0.103  -1.271  1.00  0.00     0.112 C 
BRANCH  31  32
HETATM   32  C25 UNL     1       4.596  -0.845   0.028  1.00  0.00     0.218 C 
HETATM   33  O7  UNL     1       3.922  -1.801   0.397  1.00  0.00    -0.274 OA
HETATM   34  N1  UNL     1       5.654  -0.340   0.745  1.00  0.00    -0.346 N 
HETATM   35  H32 UNL     1       5.973   0.594   0.526  1.00  0.00     0.163 HD
BRANCH  34  36
HETATM   36  C26 UNL     1       5.993  -0.877   2.069  1.00  0.00     0.186 C 
BRANCH  36  37
HETATM   37  C27 UNL     1       7.483  -0.694   2.393  1.00  0.00     0.077 C 
BRANCH  37  38
HETATM   38  C28 UNL     1       8.390  -1.318   1.376  1.00  0.00    -0.028 A 
HETATM   39  C29 UNL     1       8.692  -2.661   1.266  1.00  0.00     0.096 A 
HETATM   40  N2  UNL     1       9.529  -2.828   0.197  1.00  0.00    -0.365 N 
HETATM   41  C30 UNL     1       9.790  -1.615  -0.398  1.00  0.00     0.042 A 
HETATM   42  H37 UNL     1       9.904  -3.712  -0.118  1.00  0.00     0.165 HD
HETATM   43  C31 UNL     1      10.582  -1.311  -1.512  1.00  0.00     0.030 A 
HETATM   44  C35 UNL     1       9.096  -0.645   0.326  1.00  0.00    -0.002 A 
HETATM   45  C32 UNL     1      10.673   0.030  -1.895  1.00  0.00     0.002 A 
HETATM   46  C33 UNL     1       9.996   1.024  -1.194  1.00  0.00     0.001 A 
HETATM   47  C34 UNL     1       9.204   0.700  -0.084  1.00  0.00     0.014 A 
ENDBRANCH  37  38
ENDBRANCH  36  37
BRANCH  36  48
HETATM   48  C36 UNL     1       5.188  -0.196   3.178  1.00  0.00     0.163 C 
HETATM   49  O8  UNL     1       5.204  -0.494   4.362  1.00  0.00    -0.648 OA
BRANCH  48  50
HETATM   50  O9  UNL     1       4.460   0.869   2.772  1.00  0.00    -0.775 OA
HETATM   51  H42 UNL     1       4.002   1.156   3.590  1.00  0.00     0.167 HD
ENDBRANCH  48  50
ENDBRANCH  36  48
ENDBRANCH  34  36
ENDBRANCH  31  32
ENDBRANCH  30  31
ENDBRANCH  28  30
ENDBRANCH  27  28
ENDBRANCH   1  27
TORSDOF 13
