REMARK  10 active torsions:
REMARK  status: ('A' for Active; 'I' for Inactive)
REMARK    1  A    between atoms: O1_2  and  C2_3 
REMARK    2  A    between atoms: C2_3  and  C3_4 
REMARK    3  A    between atoms: C2_3  and  C26_35 
REMARK    4  A    between atoms: C3_4  and  C4_5 
REMARK    5  A    between atoms: C4_5  and  C5_6 
REMARK    6  A    between atoms: C5_6  and  C7_8 
REMARK    7  A    between atoms: C13_17  and  C14_18 
REMARK    8  A    between atoms: C14_18  and  O5_19 
REMARK    9  A    between atoms: C17_24  and  O8_25 
REMARK   10  A    between atoms: C30_39  and  O10_40 
ROOT
HETATM    1  C7  UNL     1       0.411  -0.586   1.358  1.00  0.00     0.135 C 
HETATM    2  O2  UNL     1      -0.438  -1.749   1.441  1.00  0.00    -0.348 OA
HETATM    3  C8  UNL     1      -1.837  -1.575   1.178  1.00  0.00     0.177 C 
HETATM    4  C9  UNL     1      -2.350  -0.622   2.265  1.00  0.00     0.102 C 
HETATM    5  C10 UNL     1      -1.576   0.694   2.292  1.00  0.00     0.143 C 
HETATM    6  O3  UNL     1      -1.843   1.523   1.141  1.00  0.00    -0.315 OA
HETATM    7  C11 UNL     1      -2.930   2.336   1.221  1.00  0.00     0.261 C 
HETATM    8  O4  UNL     1      -3.727   2.327   2.154  1.00  0.00    -0.265 OA
HETATM    9  C12 UNL     1      -3.020   3.324   0.081  1.00  0.00     0.145 C 
HETATM   10  C13 UNL     1      -2.338   2.877  -1.215  1.00  0.00     0.164 C 
HETATM   11  O6  UNL     1      -3.065   1.741  -1.711  1.00  0.00    -0.313 OA
HETATM   12  C15 UNL     1      -2.310   0.726  -2.214  1.00  0.00     0.264 C 
HETATM   13  O7  UNL     1      -1.171   0.843  -2.647  1.00  0.00    -0.265 OA
HETATM   14  C16 UNL     1      -3.086  -0.566  -2.183  1.00  0.00     0.179 C 
HETATM   15  C17 UNL     1      -3.301  -1.039  -0.735  1.00  0.00     0.177 C 
HETATM   16  O9  UNL     1      -2.003  -1.063  -0.141  1.00  0.00    -0.318 OA
HETATM   17  C18 UNL     1      -3.961  -2.440  -0.716  1.00  0.00     0.045 C 
HETATM   18  C19 UNL     1      -5.409  -2.476  -1.214  1.00  0.00     0.015 C 
HETATM   19  C20 UNL     1      -3.895  -3.030   0.703  1.00  0.00     0.024 C 
HETATM   20  C21 UNL     1      -2.447  -3.030   1.245  1.00  0.00     0.010 C 
HETATM   21  C22 UNL     1      -2.463  -3.607   2.676  1.00  0.00     0.020 C 
HETATM   22  C23 UNL     1      -1.595  -4.006   0.379  1.00  0.00     0.020 C 
HETATM   23  C24 UNL     1      -0.051   0.462   2.402  1.00  0.00     0.041 C 
HETATM   24  C25 UNL     1       0.640   1.831   2.310  1.00  0.00     0.015 C 
ENDROOT
BRANCH   1  25
HETATM   25  C5  UNL     1       1.830  -1.203   1.580  1.00  0.00     0.011 C 
HETATM   26  C6  UNL     1       2.119  -2.282   0.523  1.00  0.00     0.012 C 
BRANCH  25  27
HETATM   27  C4  UNL     1       3.046  -0.266   1.728  1.00  0.00     0.009 C 
BRANCH  27  28
HETATM   28  C3  UNL     1       3.370   0.687   0.569  1.00  0.00     0.037 C 
BRANCH  28  29
HETATM   29  C2  UNL     1       4.166   0.098  -0.615  1.00  0.00     0.153 C 
BRANCH  29  30
HETATM   30  O1  UNL     1       5.222  -0.735  -0.115  1.00  0.00    -0.386 OA
HETATM   31  C1  UNL     1       5.637  -1.722  -1.052  1.00  0.00     0.202 C 
ENDBRANCH  29  30
BRANCH  29  32
HETATM   32  C26 UNL     1       4.725   1.233  -1.468  1.00  0.00    -0.027 A 
HETATM   33  C27 UNL     1       3.945   1.794  -2.494  1.00  0.00     0.010 A 
HETATM   34  C28 UNL     1       4.430   2.866  -3.248  1.00  0.00     0.003 A 
HETATM   35  C29 UNL     1       5.697   3.387  -2.989  1.00  0.00     0.036 A 
HETATM   36  C30 UNL     1       6.473   2.833  -1.978  1.00  0.00     0.066 A 
HETATM   37  C31 UNL     1       6.000   1.772  -1.212  1.00  0.00     0.046 A 
BRANCH  36  38
HETATM   38  O10 UNL     1       7.708   3.366  -1.768  1.00  0.00    -0.361 OA
HETATM   39  H45 UNL     1       8.170   2.819  -1.111  1.00  0.00     0.217 HD
ENDBRANCH  36  38
ENDBRANCH  29  32
ENDBRANCH  28  29
ENDBRANCH  27  28
ENDBRANCH  25  27
ENDBRANCH   1  25
BRANCH  15  40
HETATM   40  O8  UNL     1      -4.152  -0.087  -0.112  1.00  0.00    -0.364 OA
HETATM   41  H25 UNL     1      -4.802  -0.512   0.464  1.00  0.00     0.213 HD
ENDBRANCH  15  40
BRANCH  10  42
HETATM   42  C14 UNL     1      -2.387   3.987  -2.266  1.00  0.00     0.197 C 
BRANCH  42  43
HETATM   43  O5  UNL     1      -1.694   5.140  -1.804  1.00  0.00    -0.398 OA
HETATM   44  H22 UNL     1      -2.045   5.905  -2.288  1.00  0.00     0.209 HD
ENDBRANCH  42  43
ENDBRANCH  10  42
TORSDOF 10
