REMARK  7 active torsions:
REMARK  status: ('A' for Active; 'I' for Inactive)
REMARK    1  A    between atoms: C2_2  and  C4_4 
REMARK    2  A    between atoms: C7_7  and  O1_9 
REMARK    3  A    between atoms: C9_10  and  C10_11 
REMARK    4  A    between atoms: C11_12  and  C12_13 
REMARK    5  A    between atoms: C14_15  and  C15_16 
REMARK    6  A    between atoms: C24_26  and  C26_28 
REMARK    7  A    between atoms: C29_32  and  O4_34 
ROOT
HETATM    1  C15 UNL     1      -0.800   0.194   1.168  1.00  0.00     0.149 C 
HETATM    2  C16 UNL     1      -1.846   0.583   0.124  1.00  0.00     0.054 C 
HETATM    3  C17 UNL     1      -2.833  -0.620   0.031  1.00  0.00     0.050 C 
HETATM    4  C18 UNL     1      -2.466  -1.360   1.350  1.00  0.00     0.272 C 
HETATM    5  O2  UNL     1      -3.065  -0.827   2.530  1.00  0.00    -0.360 OA
HETATM    6  C19 UNL     1      -4.360  -1.326   2.798  1.00  0.00     0.171 C 
HETATM    7  C20 UNL     1      -5.419  -0.390   2.244  1.00  0.00     0.027 C 
HETATM    8  C21 UNL     1      -4.929   0.550   1.147  1.00  0.00     0.012 C 
HETATM    9  C22 UNL     1      -4.322  -0.116  -0.110  1.00  0.00     0.032 C 
HETATM   10  C23 UNL     1      -5.293  -1.142  -0.739  1.00  0.00    -0.066 C 
HETATM   11  C24 UNL     1      -6.455  -0.816  -1.363  1.00  0.00    -0.021 C 
HETATM   12  C25 UNL     1      -7.437  -1.802  -1.931  1.00  0.00     0.052 C 
HETATM   13  C27 UNL     1      -4.821  -2.575  -0.657  1.00  0.00     0.038 C 
HETATM   14  C28 UNL     1      -3.427  -2.784  -1.248  1.00  0.00     0.042 C 
HETATM   15  C29 UNL     1      -2.514  -1.535  -1.225  1.00  0.00     0.067 C 
HETATM   16  C30 UNL     1      -2.641  -0.803  -2.583  1.00  0.00     0.047 C 
HETATM   17  O5  UNL     1      -1.053  -1.168   1.521  1.00  0.00    -0.351 OA
ENDROOT
BRANCH   1  18
HETATM   18  C14 UNL     1       0.683   0.394   1.016  1.00  0.00     0.011 C 
HETATM   19  C12 UNL     1       1.538   0.526  -0.021  1.00  0.00    -0.064 C 
HETATM   20  C13 UNL     1       1.181   0.388  -1.473  1.00  0.00     0.048 C 
BRANCH  19  21
HETATM   21  C11 UNL     1       2.951   0.787   0.292  1.00  0.00     0.003 C 
HETATM   22  C10 UNL     1       3.954   0.949  -0.585  1.00  0.00    -0.018 C 
BRANCH  22  23
HETATM   23  C9  UNL     1       5.422   1.206  -0.292  1.00  0.00     0.050 C 
HETATM   24  C4  UNL     1       5.860   1.586   1.159  1.00  0.00     0.024 C 
HETATM   25  C5  UNL     1       7.237   0.904   1.365  1.00  0.00     0.013 C 
HETATM   26  C6  UNL     1       7.651   0.380  -0.001  1.00  0.00     0.039 C 
HETATM   27  C7  UNL     1       6.330   0.007  -0.676  1.00  0.00     0.062 C 
HETATM   28  C8  UNL     1       5.813  -1.358  -0.206  1.00  0.00     0.046 C 
BRANCH  24  29
HETATM   29  C2  UNL     1       5.826   3.098   1.381  1.00  0.00    -0.088 C 
HETATM   30  C1  UNL     1       6.885   3.914   1.235  1.00  0.00     0.014 C 
HETATM   31  C3  UNL     1       4.489   3.672   1.772  1.00  0.00     0.043 C 
ENDBRANCH  24  29
BRANCH  27  32
HETATM   32  O1  UNL     1       6.521  -0.041  -2.091  1.00  0.00    -0.390 OA
HETATM   33  H14 UNL     1       7.126  -0.777  -2.283  1.00  0.00     0.210 HD
ENDBRANCH  27  32
ENDBRANCH  22  23
ENDBRANCH  19  21
ENDBRANCH   1  18
BRANCH  15  34
HETATM   34  O4  UNL     1      -1.171  -2.023  -1.166  1.00  0.00    -0.389 OA
HETATM   35  H44 UNL     1      -0.978  -2.531  -1.973  1.00  0.00     0.210 HD
ENDBRANCH  15  34
BRANCH  11  36
HETATM   36  C26 UNL     1      -6.899   0.603  -1.537  1.00  0.00     0.265 C 
HETATM   37  O3  UNL     1      -6.163   1.507  -1.911  1.00  0.00    -0.302 OA
ENDBRANCH  11  36
TORSDOF 7
