REMARK  8 active torsions:
REMARK  status: ('A' for Active; 'I' for Inactive)
REMARK    1  A    between atoms: C2_2  and  C30_34 
REMARK    2  A    between atoms: C3_3  and  C4_4 
REMARK    3  A    between atoms: C4_4  and  O1_5 
REMARK    4  A    between atoms: C4_4  and  C5_6 
REMARK    5  A    between atoms: C5_6  and  C6_7 
REMARK    6  A    between atoms: C6_7  and  C8_9 
REMARK    7  A    between atoms: C10_11  and  O2_12 
REMARK    8  A    between atoms: C30_34  and  O6_36 
ROOT
HETATM    1  C8  UNL     1       1.852   0.786  -1.843  1.00  0.00     0.001 C 
HETATM    2  C9  UNL     1       1.191   0.635  -3.248  1.00  0.00     0.038 C 
HETATM    3  C10 UNL     1      -0.324   0.460  -3.026  1.00  0.00     0.131 C 
HETATM    4  C11 UNL     1      -0.558   0.911  -1.560  1.00  0.00     0.014 C 
HETATM    5  C12 UNL     1      -0.646   2.470  -1.522  1.00  0.00     0.023 C 
HETATM    6  C13 UNL     1      -1.804   0.430  -0.817  1.00  0.00    -0.058 C 
HETATM    7  C14 UNL     1      -1.825   0.350   0.538  1.00  0.00    -0.000 C 
HETATM    8  C15 UNL     1      -0.538   0.631   1.301  1.00  0.00     0.157 C 
HETATM    9  O3  UNL     1      -0.536   0.713   2.530  1.00  0.00    -0.293 OA
HETATM   10  C16 UNL     1       0.779   0.827   0.556  1.00  0.00     0.094 C 
HETATM   11  C17 UNL     1       0.722   0.300  -0.878  1.00  0.00    -0.019 C 
HETATM   12  C18 UNL     1       0.716  -1.261  -0.827  1.00  0.00     0.017 C 
HETATM   13  C19 UNL     1      -3.093  -0.022   1.350  1.00  0.00    -0.008 C 
HETATM   14  C20 UNL     1      -2.857  -1.454   1.888  1.00  0.00     0.021 C 
HETATM   15  C21 UNL     1      -3.316   0.942   2.561  1.00  0.00     0.022 C 
HETATM   16  C22 UNL     1      -4.767   1.169   2.981  1.00  0.00     0.080 C 
HETATM   17  C23 UNL     1      -5.654   0.006   2.614  1.00  0.00     0.135 C 
HETATM   18  O4  UNL     1      -6.345  -0.555   3.463  1.00  0.00    -0.297 OA
HETATM   19  C24 UNL     1      -5.713  -0.363   1.128  1.00  0.00     0.018 C 
HETATM   20  C25 UNL     1      -6.040  -1.859   0.971  1.00  0.00     0.023 C 
HETATM   21  C26 UNL     1      -6.897   0.430   0.529  1.00  0.00     0.023 C 
HETATM   22  C27 UNL     1      -4.377   0.082   0.441  1.00  0.00     0.014 C 
HETATM   23  C28 UNL     1      -4.144  -0.575  -0.923  1.00  0.00     0.011 C 
HETATM   24  C29 UNL     1      -3.012   0.122  -1.670  1.00  0.00     0.036 C 
ENDROOT
BRANCH   1  25
HETATM   25  C6  UNL     1       3.273   0.140  -1.784  1.00  0.00    -0.011 C 
HETATM   26  C7  UNL     1       4.170   0.745  -2.878  1.00  0.00     0.010 C 
BRANCH  25  27
HETATM   27  C5  UNL     1       3.912   0.273  -0.375  1.00  0.00     0.040 C 
BRANCH  27  28
HETATM   28  C4  UNL     1       5.404  -0.099  -0.271  1.00  0.00     0.142 C 
BRANCH  28  29
HETATM   29  C3  UNL     1       5.813  -0.337   1.155  1.00  0.00     0.018 C 
HETATM   30  C2  UNL     1       6.681  -1.266   1.607  1.00  0.00     0.010 C 
HETATM   31  C1  UNL     1       7.459  -2.230   0.763  1.00  0.00     0.055 C 
BRANCH  30  32
HETATM   32  C30 UNL     1       6.902  -1.299   3.076  1.00  0.00     0.171 C 
HETATM   33  O5  UNL     1       6.392  -0.566   3.905  1.00  0.00    -0.646 OA
BRANCH  32  34
HETATM   34  O6  UNL     1       7.761  -2.265   3.444  1.00  0.00    -0.773 OA
HETATM   35  H44 UNL     1       7.817  -2.165   4.417  1.00  0.00     0.167 HD
ENDBRANCH  32  34
ENDBRANCH  30  32
ENDBRANCH  28  29
BRANCH  28  36
HETATM   36  O1  UNL     1       6.200   0.975  -0.758  1.00  0.00    -0.392 OA
HETATM   37  H6  UNL     1       6.206   1.678  -0.086  1.00  0.00     0.210 HD
ENDBRANCH  28  36
ENDBRANCH  27  28
ENDBRANCH  25  27
ENDBRANCH   1  25
BRANCH   3  38
HETATM   38  O2  UNL     1      -1.080   1.175  -3.991  1.00  0.00    -0.394 OA
HETATM   39  H17 UNL     1      -0.704   2.066  -4.092  1.00  0.00     0.210 HD
ENDBRANCH   3  38
TORSDOF 8
