REMARK  14 active torsions:
REMARK  status: ('A' for Active; 'I' for Inactive)
REMARK    1  A    between atoms: C19_20  and  O2_21 
REMARK    2  A    between atoms: C19_20  and  C20_22 
REMARK    3  A    between atoms: C20_22  and  C21_24 
REMARK    4  A    between atoms: C21_24  and  O4_25 
REMARK    5  A    between atoms: O4_25  and  C22_26 
REMARK    6  A    between atoms: C22_26  and  C23_28 
REMARK    7  A    between atoms: C23_28  and  C24_29 
REMARK    8  A    between atoms: C24_29  and  C25_30 
REMARK       I    between atoms: C25_30  and  N1_32 
REMARK    9  A    between atoms: N1_32  and  C26_33 
REMARK   10  A    between atoms: C26_33  and  C27_34 
REMARK   11  A    between atoms: C27_34  and  C28_35 
REMARK   12  A    between atoms: C27_34  and  C30_39 
REMARK   13  A    between atoms: C28_35  and  C29_36 
REMARK   14  A    between atoms: C29_36  and  O8_38 
ROOT
HETATM    1  C20 UNL     1       0.280   0.867   0.898  1.00  0.00     0.185 C 
HETATM    2  O3  UNL     1       0.627   1.730   1.715  1.00  0.00    -0.292 OA
ENDROOT
BRANCH   1   3
HETATM    3  C19 UNL     1      -1.088   1.024   0.185  1.00  0.00     0.128 C 
HETATM    4  C14 UNL     1      -2.224  -0.004   0.487  1.00  0.00    -0.002 C 
HETATM    5  C13 UNL     1      -2.890   0.108   1.869  1.00  0.00     0.013 C 
HETATM    6  C15 UNL     1      -1.769  -1.466   0.259  1.00  0.00     0.019 C 
HETATM    7  C16 UNL     1      -3.268   0.458  -0.568  1.00  0.00     0.002 C 
HETATM    8  C12 UNL     1      -4.195  -0.706   1.942  1.00  0.00     0.007 C 
HETATM    9  C11 UNL     1      -5.205  -0.348   0.818  1.00  0.00     0.002 C 
HETATM   10  C2  UNL     1      -6.559  -1.154   0.891  1.00  0.00    -0.016 C 
HETATM   11  C10 UNL     1      -4.541  -0.399  -0.594  1.00  0.00    -0.004 C 
HETATM   12  C1  UNL     1      -6.327  -2.680   0.830  1.00  0.00     0.020 C 
HETATM   13  C3  UNL     1      -7.263  -0.806   2.237  1.00  0.00     0.022 C 
HETATM   14  C7  UNL     1      -7.453  -0.754  -0.291  1.00  0.00    -0.068 C 
HETATM   15  C4  UNL     1      -8.738  -1.184   2.275  1.00  0.00     0.084 C 
HETATM   16  C5  UNL     1      -9.465  -0.541   1.123  1.00  0.00     0.149 C 
HETATM   17  O1  UNL     1     -10.625  -0.153   1.210  1.00  0.00    -0.293 OA
HETATM   18  C6  UNL     1      -8.759  -0.445  -0.173  1.00  0.00     0.053 C 
HETATM   19  C8  UNL     1      -6.805  -0.734  -1.655  1.00  0.00     0.035 C 
HETATM   20  C9  UNL     1      -5.526   0.095  -1.661  1.00  0.00     0.010 C 
HETATM   21  C17 UNL     1      -2.438   0.589  -1.843  1.00  0.00     0.009 C 
HETATM   22  C18 UNL     1      -1.054   1.082  -1.360  1.00  0.00     0.047 C 
BRANCH   3  23
HETATM   23  O2  UNL     1      -1.572   2.331   0.602  1.00  0.00    -0.381 OA
HETATM   24  H27 UNL     1      -0.806   2.811   0.985  1.00  0.00     0.211 HD
ENDBRANCH   3  23
ENDBRANCH   1   3
BRANCH   1  25
HETATM   25  C21 UNL     1       1.202  -0.320   0.636  1.00  0.00     0.260 C 
BRANCH  25  26
HETATM   26  O4  UNL     1       1.538  -0.586  -0.719  1.00  0.00    -0.314 OA
BRANCH  26  27
HETATM   27  C22 UNL     1       2.487   0.244  -1.240  1.00  0.00     0.259 C 
HETATM   28  O5  UNL     1       3.008   1.165  -0.633  1.00  0.00    -0.265 OA
BRANCH  27  29
HETATM   29  C23 UNL     1       2.834  -0.165  -2.648  1.00  0.00     0.120 C 
BRANCH  29  30
HETATM   30  C24 UNL     1       4.192  -0.852  -2.657  1.00  0.00     0.112 C 
BRANCH  30  31
HETATM   31  C25 UNL     1       5.329   0.150  -2.706  1.00  0.00     0.218 C 
HETATM   32  O6  UNL     1       5.222   1.259  -3.214  1.00  0.00    -0.274 OA
HETATM   33  N1  UNL     1       6.505  -0.342  -2.181  1.00  0.00    -0.360 N 
HETATM   34  H34 UNL     1       6.458  -1.181  -1.615  1.00  0.00     0.162 HD
BRANCH  33  35
HETATM   35  C26 UNL     1       7.652   0.525  -1.954  1.00  0.00     0.132 C 
BRANCH  35  36
HETATM   36  C27 UNL     1       7.504   1.390  -0.676  1.00  0.00     0.046 C 
BRANCH  36  37
HETATM   37  C28 UNL     1       8.790   2.173  -0.365  1.00  0.00     0.120 C 
BRANCH  37  38
HETATM   38  C29 UNL     1       9.057   3.277  -1.352  1.00  0.00     0.140 C 
HETATM   39  O7  UNL     1       8.321   3.693  -2.228  1.00  0.00    -0.650 OA
BRANCH  38  40
HETATM   40  O8  UNL     1      10.277   3.823  -1.172  1.00  0.00    -0.776 OA
HETATM   41  H40 UNL     1      10.321   4.528  -1.850  1.00  0.00     0.167 HD
ENDBRANCH  38  40
ENDBRANCH  37  38
ENDBRANCH  36  37
BRANCH  36  42
HETATM   42  C30 UNL     1       7.108   0.538   0.530  1.00  0.00    -0.052 A 
HETATM   43  C31 UNL     1       7.928  -0.494   1.014  1.00  0.00     0.007 A 
HETATM   44  C32 UNL     1       7.522  -1.272   2.101  1.00  0.00     0.001 A 
HETATM   45  C33 UNL     1       6.298  -1.026   2.721  1.00  0.00     0.000 A 
HETATM   46  C34 UNL     1       5.481   0.001   2.257  1.00  0.00     0.001 A 
HETATM   47  C35 UNL     1       5.880   0.778   1.168  1.00  0.00     0.007 A 
ENDBRANCH  36  42
ENDBRANCH  35  36
ENDBRANCH  33  35
ENDBRANCH  30  31
ENDBRANCH  29  30
ENDBRANCH  27  29
ENDBRANCH  26  27
ENDBRANCH  25  26
ENDBRANCH   1  25
TORSDOF 14
