REMARK  7 active torsions:
REMARK  status: ('A' for Active; 'I' for Inactive)
REMARK    1  A    between atoms: C2_2  and  C3_3 
REMARK    2  A    between atoms: C2_2  and  C9_11 
REMARK    3  A    between atoms: C3_3  and  C4_4 
REMARK    4  A    between atoms: C4_4  and  C5_5 
REMARK    5  A    between atoms: C5_5  and  O1_6 
REMARK    6  A    between atoms: C5_5  and  C6_7 
REMARK    7  A    between atoms: C6_7  and  O2_10 
ROOT
HETATM    1  C9  UNL     1       1.784  -0.268   1.575  1.00  0.00    -0.001 C 
HETATM    2  C10 UNL     1       1.227  -0.389   3.024  1.00  0.00     0.007 C 
HETATM    3  C11 UNL     1      -0.284  -0.659   2.920  1.00  0.00     0.015 C 
HETATM    4  C12 UNL     1      -0.526  -1.009   1.441  1.00  0.00    -0.004 C 
HETATM    5  C13 UNL     1      -0.206  -2.526   1.268  1.00  0.00     0.021 C 
HETATM    6  C14 UNL     1      -1.902  -0.818   0.835  1.00  0.00     0.007 C 
HETATM    7  C15 UNL     1      -2.116  -0.584  -0.480  1.00  0.00     0.007 C 
HETATM    8  C16 UNL     1      -0.876  -0.420  -1.354  1.00  0.00     0.157 C 
HETATM    9  O3  UNL     1      -0.979  -0.301  -2.574  1.00  0.00    -0.293 OA
HETATM   10  C17 UNL     1       0.520  -0.393  -0.737  1.00  0.00     0.094 C 
HETATM   11  C18 UNL     1       0.483  -0.024   0.745  1.00  0.00    -0.022 C 
HETATM   12  C19 UNL     1       0.075   1.479   0.865  1.00  0.00     0.017 C 
HETATM   13  C20 UNL     1      -3.518  -0.478  -1.158  1.00  0.00    -0.007 C 
HETATM   14  C21 UNL     1      -3.551  -1.501  -2.321  1.00  0.00     0.021 C 
HETATM   15  C22 UNL     1      -3.670   0.980  -1.670  1.00  0.00     0.022 C 
HETATM   16  C23 UNL     1      -5.038   1.307  -2.235  1.00  0.00     0.080 C 
HETATM   17  C24 UNL     1      -6.093   1.061  -1.188  1.00  0.00     0.135 C 
HETATM   18  O4  UNL     1      -6.873   1.955  -0.864  1.00  0.00    -0.297 OA
HETATM   19  C25 UNL     1      -6.167  -0.351  -0.599  1.00  0.00     0.018 C 
HETATM   20  C26 UNL     1      -6.806  -1.272  -1.661  1.00  0.00     0.023 C 
HETATM   21  C27 UNL     1      -7.162  -0.348   0.589  1.00  0.00     0.023 C 
HETATM   22  C28 UNL     1      -4.713  -0.817  -0.156  1.00  0.00     0.021 C 
HETATM   23  C29 UNL     1      -4.358  -0.288   1.245  1.00  0.00     0.090 C 
HETATM   24  C30 UNL     1      -3.086  -0.929   1.720  1.00  0.00     0.157 C 
HETATM   25  O5  UNL     1      -3.023  -1.502   2.802  1.00  0.00    -0.293 OA
ENDROOT
BRANCH   1  26
HETATM   26  C2  UNL     1       2.979   0.736   1.489  1.00  0.00    -0.014 C 
HETATM   27  C1  UNL     1       4.081   0.327   2.484  1.00  0.00     0.010 C 
BRANCH  26  28
HETATM   28  C3  UNL     1       3.544   0.842   0.052  1.00  0.00     0.007 C 
BRANCH  28  29
HETATM   29  C4  UNL     1       4.759   1.768  -0.119  1.00  0.00     0.035 C 
BRANCH  29  30
HETATM   30  C5  UNL     1       6.128   1.066  -0.117  1.00  0.00     0.151 C 
BRANCH  30  31
HETATM   31  O1  UNL     1       7.115   2.031   0.309  1.00  0.00    -0.393 OA
HETATM   32  H10 UNL     1       6.906   2.271   1.228  1.00  0.00     0.210 HD
ENDBRANCH  30  31
BRANCH  30  33
HETATM   33  C6  UNL     1       6.631   0.479  -1.469  1.00  0.00     0.076 C 
HETATM   34  C7  UNL     1       5.791  -0.692  -1.973  1.00  0.00     0.048 C 
HETATM   35  C8  UNL     1       6.785   1.527  -2.578  1.00  0.00     0.048 C 
BRANCH  33  36
HETATM   36  O2  UNL     1       7.953  -0.043  -1.216  1.00  0.00    -0.388 OA
HETATM   37  H17 UNL     1       8.422   0.684  -0.760  1.00  0.00     0.210 HD
ENDBRANCH  33  36
ENDBRANCH  30  33
ENDBRANCH  29  30
ENDBRANCH  28  29
ENDBRANCH  26  28
ENDBRANCH   1  26
TORSDOF 7
