REMARK  4 active torsions:
REMARK  status: ('A' for Active; 'I' for Inactive)
REMARK    1  A    between atoms: C2_2  and  C4_4 
REMARK    2  A    between atoms: C4_4  and  C5_5 
REMARK    3  A    between atoms: C5_5  and  O1_6 
REMARK    4  A    between atoms: C8_9  and  C9_10 
ROOT
HETATM    1  C9  UNL     1       1.636  -0.304  -1.820  1.00  0.00     0.001 C 
HETATM    2  C10 UNL     1       1.220  -1.622  -2.527  1.00  0.00     0.007 C 
HETATM    3  C11 UNL     1      -0.274  -1.845  -2.224  1.00  0.00     0.011 C 
HETATM    4  C12 UNL     1      -0.780  -0.497  -1.672  1.00  0.00    -0.032 C 
HETATM    5  C13 UNL     1      -1.104   0.390  -2.916  1.00  0.00     0.016 C 
HETATM    6  C14 UNL     1      -2.019  -0.600  -0.744  1.00  0.00     0.004 C 
HETATM    7  C15 UNL     1      -3.323  -0.965  -1.470  1.00  0.00     0.007 C 
HETATM    8  C16 UNL     1      -4.459  -1.133  -0.462  1.00  0.00     0.007 C 
HETATM    9  C17 UNL     1      -4.826   0.225   0.154  1.00  0.00     0.010 C 
HETATM   10  C18 UNL     1      -5.951   0.177   1.241  1.00  0.00     0.018 C 
HETATM   11  C19 UNL     1      -5.754  -0.930   2.290  1.00  0.00     0.023 C 
HETATM   12  C20 UNL     1      -7.323  -0.024   0.571  1.00  0.00     0.023 C 
HETATM   13  C21 UNL     1      -6.003   1.535   1.964  1.00  0.00     0.135 C 
HETATM   14  O2  UNL     1      -6.549   1.686   3.058  1.00  0.00    -0.297 OA
HETATM   15  C22 UNL     1      -5.430   2.716   1.222  1.00  0.00     0.080 C 
HETATM   16  C23 UNL     1      -3.953   2.489   0.925  1.00  0.00     0.018 C 
HETATM   17  C24 UNL     1      -3.614   1.024   0.651  1.00  0.00    -0.026 A 
HETATM   18  C25 UNL     1      -2.608   0.382   1.576  1.00  0.00     0.021 A 
HETATM   19  C26 UNL     1      -2.191   0.659   0.143  1.00  0.00    -0.027 A 
HETATM   20  C27 UNL     1      -1.200   1.807  -0.072  1.00  0.00     0.011 C 
HETATM   21  C28 UNL     1       0.252   1.437  -0.426  1.00  0.00     0.011 C 
HETATM   22  C29 UNL     1       0.464  -0.030  -0.825  1.00  0.00    -0.032 C 
HETATM   23  C30 UNL     1       0.677  -0.847   0.481  1.00  0.00     0.016 C 
ENDROOT
BRANCH   1  24
HETATM   24  C8  UNL     1       3.126  -0.266  -1.385  1.00  0.00     0.014 C 
HETATM   25  C7  UNL     1       3.531   1.019  -0.662  1.00  0.00     0.010 C 
HETATM   26  C6  UNL     1       5.049   1.054  -0.513  1.00  0.00     0.041 C 
HETATM   27  C4  UNL     1       5.617  -0.239   0.138  1.00  0.00     0.085 C 
HETATM   28  O3  UNL     1       4.564  -1.186   0.417  1.00  0.00    -0.377 OA
HETATM   29  C31 UNL     1       3.682  -1.502  -0.663  1.00  0.00     0.174 C 
BRANCH  27  30
HETATM   30  C2  UNL     1       6.283   0.112   1.519  1.00  0.00     0.014 C 
HETATM   31  C1  UNL     1       7.024  -1.056   2.187  1.00  0.00     0.012 C 
HETATM   32  C3  UNL     1       5.260   0.649   2.538  1.00  0.00     0.012 C 
ENDBRANCH  27  30
BRANCH  27  33
HETATM   33  C5  UNL     1       6.635  -0.889  -0.843  1.00  0.00     0.202 C 
BRANCH  33  34
HETATM   34  O1  UNL     1       6.952  -2.231  -0.481  1.00  0.00    -0.398 OA
HETATM   35  H10 UNL     1       6.161  -2.578  -0.027  1.00  0.00     0.209 HD
ENDBRANCH  33  34
ENDBRANCH  27  33
ENDBRANCH   1  24
TORSDOF 4
