REMARK  10 active torsions:
REMARK  status: ('A' for Active; 'I' for Inactive)
REMARK    1  A    between atoms: C19_20  and  O2_21 
REMARK    2  A    between atoms: C19_20  and  C20_22 
REMARK    3  A    between atoms: C20_22  and  C21_24 
REMARK    4  A    between atoms: C21_24  and  O4_25 
REMARK    5  A    between atoms: O4_25  and  C22_26 
REMARK    6  A    between atoms: C22_26  and  C23_28 
REMARK    7  A    between atoms: C23_28  and  C24_29 
REMARK    8  A    between atoms: C24_29  and  C25_30 
REMARK       I    between atoms: C25_30  and  N1_32 
REMARK    9  A    between atoms: N1_32  and  C26_33 
REMARK   10  A    between atoms: C26_33  and  C27_34 
ROOT
HETATM    1  C1  UNL     1      -6.034  -1.203  -0.376  1.00  0.00     0.020 C 
HETATM    2  C2  UNL     1      -5.537   0.202   0.068  1.00  0.00    -0.016 C 
HETATM    3  C3  UNL     1      -6.163   0.526   1.455  1.00  0.00     0.022 C 
HETATM    4  C4  UNL     1      -7.666   0.765   1.408  1.00  0.00     0.084 C 
HETATM    5  C5  UNL     1      -7.974   1.872   0.433  1.00  0.00     0.149 C 
HETATM    6  O1  UNL     1      -8.928   2.634   0.576  1.00  0.00    -0.293 OA
HETATM    7  C6  UNL     1      -7.131   1.979  -0.782  1.00  0.00     0.053 C 
HETATM    8  C7  UNL     1      -6.051   1.200  -0.968  1.00  0.00    -0.068 C 
HETATM    9  C8  UNL     1      -5.336   1.218  -2.291  1.00  0.00     0.035 C 
HETATM   10  C9  UNL     1      -3.848   1.403  -2.093  1.00  0.00     0.010 C 
HETATM   11  C10 UNL     1      -3.219   0.305  -1.214  1.00  0.00    -0.004 C 
HETATM   12  C11 UNL     1      -3.954   0.138   0.160  1.00  0.00     0.002 C 
HETATM   13  C12 UNL     1      -3.251   1.011   1.226  1.00  0.00     0.007 C 
HETATM   14  C13 UNL     1      -1.774   0.598   1.463  1.00  0.00     0.013 C 
HETATM   15  C14 UNL     1      -1.048   0.052   0.209  1.00  0.00    -0.002 C 
HETATM   16  C15 UNL     1      -1.085  -1.505   0.203  1.00  0.00     0.019 C 
HETATM   17  C16 UNL     1      -1.728   0.664  -1.028  1.00  0.00     0.002 C 
HETATM   18  C17 UNL     1      -0.787   0.326  -2.184  1.00  0.00     0.009 C 
HETATM   19  C18 UNL     1       0.617   0.287  -1.549  1.00  0.00     0.047 C 
HETATM   20  C19 UNL     1       0.423   0.543  -0.033  1.00  0.00     0.128 C 
ENDROOT
BRANCH  20  21
HETATM   21  O2  UNL     1       0.560   1.961   0.157  1.00  0.00    -0.381 OA
HETATM   22  H27 UNL     1       0.404   2.150   1.100  1.00  0.00     0.211 HD
ENDBRANCH  20  21
BRANCH  20  23
HETATM   23  C20 UNL     1       1.484  -0.103   0.872  1.00  0.00     0.185 C 
HETATM   24  O3  UNL     1       1.207  -0.456   2.025  1.00  0.00    -0.292 OA
BRANCH  23  25
HETATM   25  C21 UNL     1       2.925  -0.142   0.360  1.00  0.00     0.260 C 
BRANCH  25  26
HETATM   26  O4  UNL     1       3.742  -1.029   1.127  1.00  0.00    -0.314 OA
BRANCH  26  27
HETATM   27  C22 UNL     1       3.467  -2.346   0.913  1.00  0.00     0.259 C 
HETATM   28  O5  UNL     1       2.616  -2.756   0.131  1.00  0.00    -0.265 OA
BRANCH  27  29
HETATM   29  C23 UNL     1       4.293  -3.248   1.803  1.00  0.00     0.120 C 
BRANCH  29  30
HETATM   30  C24 UNL     1       5.649  -2.659   2.185  1.00  0.00     0.112 C 
BRANCH  30  31
HETATM   31  C25 UNL     1       6.490  -2.367   0.958  1.00  0.00     0.218 C 
HETATM   32  O6  UNL     1       6.316  -2.931  -0.118  1.00  0.00    -0.274 OA
HETATM   33  N1  UNL     1       7.477  -1.433   1.178  1.00  0.00    -0.357 N 
HETATM   34  H34 UNL     1       7.444  -0.890   2.031  1.00  0.00     0.162 HD
BRANCH  33  35
HETATM   35  C26 UNL     1       8.272  -0.918   0.086  1.00  0.00     0.162 C 
BRANCH  35  36
HETATM   36  C27 UNL     1       7.589   0.236  -0.589  1.00  0.00    -0.025 A 
HETATM   37  C28 UNL     1       6.744   0.045  -1.686  1.00  0.00     0.011 A 
HETATM   38  C29 UNL     1       6.116   1.138  -2.276  1.00  0.00     0.018 A 
HETATM   39  C30 UNL     1       6.341   2.392  -1.737  1.00  0.00     0.087 A 
HETATM   40  N2  UNL     1       7.134   2.617  -0.669  1.00  0.00    -0.375 N 
HETATM   41  C31 UNL     1       7.738   1.537  -0.122  1.00  0.00     0.096 A 
ATOM     42  H2  UNL     1       7.271   3.555  -0.293  1.00  0.00     0.164 HD
ENDBRANCH  35  36
ENDBRANCH  33  35
ENDBRANCH  30  31
ENDBRANCH  29  30
ENDBRANCH  27  29
ENDBRANCH  26  27
ENDBRANCH  25  26
ENDBRANCH  23  25
ENDBRANCH  20  23
TORSDOF 10
