REMARK  4 active torsions:
REMARK  status: ('A' for Active; 'I' for Inactive)
REMARK    1  A    between atoms: C2_2  and  C3_3 
REMARK    2  A    between atoms: C6_6  and  C7_7 
REMARK    3  A    between atoms: C7_7  and  O1_9 
REMARK    4  A    between atoms: C23_29  and  O6_30 
ROOT
HETATM    1  C3  UNL     1      -2.365   1.488   0.355  1.00  0.00     0.008 C 
HETATM    2  C4  UNL     1      -2.771   1.301  -1.084  1.00  0.00    -0.023 C 
HETATM    3  C5  UNL     1      -2.876   0.166  -1.795  1.00  0.00     0.004 C 
HETATM    4  C6  UNL     1      -2.647  -1.296  -1.459  1.00  0.00     0.182 C 
HETATM    5  O2  UNL     1      -1.807  -1.511  -0.312  1.00  0.00    -0.308 OA
HETATM    6  C9  UNL     1      -0.466  -1.521  -0.546  1.00  0.00     0.276 C 
HETATM    7  O3  UNL     1       0.057  -1.162  -1.598  1.00  0.00    -0.264 OA
HETATM    8  C10 UNL     1       0.325  -2.193   0.613  1.00  0.00     0.095 C 
HETATM    9  C11 UNL     1      -0.390  -2.109   1.981  1.00  0.00     0.036 C 
HETATM   10  C12 UNL     1       0.282  -3.660   0.224  1.00  0.00     0.003 C 
HETATM   11  C13 UNL     1       1.226  -4.577   0.016  1.00  0.00     0.072 C 
HETATM   12  C14 UNL     1       2.684  -4.472   0.085  1.00  0.00     0.245 C 
HETATM   13  O4  UNL     1       3.349  -5.499  -0.045  1.00  0.00    -0.268 OA
HETATM   14  N1  UNL     1       3.306  -3.291   0.249  1.00  0.00    -0.320 N 
HETATM   15  C15 UNL     1       2.921  -1.989   0.441  1.00  0.00     0.098 C 
HETATM   16  C16 UNL     1       1.687  -1.492   0.630  1.00  0.00     0.045 C 
HETATM   17  C17 UNL     1       1.597  -0.011   0.903  1.00  0.00     0.194 C 
HETATM   18  O5  UNL     1       0.672   0.455   1.552  1.00  0.00    -0.287 OA
HETATM   19  C18 UNL     1       2.643   0.898   0.416  1.00  0.00     0.046 A 
HETATM   20  C19 UNL     1       3.912   0.358   0.244  1.00  0.00     0.032 A 
HETATM   21  C20 UNL     1       5.007   1.171  -0.079  1.00  0.00     0.026 A 
HETATM   22  C21 UNL     1       4.845   2.552  -0.224  1.00  0.00    -0.027 A 
HETATM   23  C22 UNL     1       6.030   3.430  -0.522  1.00  0.00     0.051 C 
HETATM   24  C23 UNL     1       3.569   3.098  -0.038  1.00  0.00     0.086 A 
HETATM   25  C24 UNL     1       2.453   2.283   0.253  1.00  0.00     0.059 A 
HETATM   26  C25 UNL     1       1.142   2.978   0.376  1.00  0.00     0.163 C 
HETATM   27  O7  UNL     1       1.135   4.068   0.955  1.00  0.00    -0.292 OA
HETATM   28  C26 UNL     1      -0.080   2.452  -0.347  1.00  0.00     0.084 C 
HETATM   29  C27 UNL     1      -1.342   2.633   0.510  1.00  0.00     0.016 C 
HETATM   30  C28 UNL     1       4.121  -1.080   0.431  1.00  0.00     0.210 C 
HETATM   31  O8  UNL     1       5.253  -1.548   0.509  1.00  0.00    -0.285 OA
HETATM   32  H20 UNL     1       4.322  -3.417   0.211  1.00  0.00     0.169 HD
ENDROOT
BRANCH   4  33
HETATM   33  C7  UNL     1      -4.013  -1.990  -1.204  1.00  0.00     0.147 C 
HETATM   34  C8  UNL     1      -3.854  -3.444  -0.767  1.00  0.00     0.042 C 
BRANCH  33  35
HETATM   35  O1  UNL     1      -4.810  -1.981  -2.395  1.00  0.00    -0.393 OA
HETATM   36  H14 UNL     1      -5.742  -2.026  -2.117  1.00  0.00     0.210 HD
ENDBRANCH  33  35
ENDBRANCH   4  33
BRANCH   1  37
HETATM   37  C2  UNL     1      -3.597   1.683   1.266  1.00  0.00     0.004 C 
HETATM   38  C1  UNL     1      -4.451   2.914   0.982  1.00  0.00     0.006 C 
ENDBRANCH   1  37
BRANCH  24  39
HETATM   39  O6  UNL     1       3.462   4.465  -0.139  1.00  0.00    -0.359 OA
HETATM   40  H25 UNL     1       2.640   4.747   0.323  1.00  0.00     0.217 HD
ENDBRANCH  24  39
TORSDOF 4
