REMARK  8 active torsions:
REMARK  status: ('A' for Active; 'I' for Inactive)
REMARK    1  A    between atoms: C2_2  and  C30_35 
REMARK    2  A    between atoms: C3_3  and  C4_4 
REMARK    3  A    between atoms: C4_4  and  O1_5 
REMARK    4  A    between atoms: C4_4  and  C5_6 
REMARK    5  A    between atoms: C5_6  and  C6_7 
REMARK    6  A    between atoms: C6_7  and  C8_9 
REMARK    7  A    between atoms: C10_11  and  O2_12 
REMARK    8  A    between atoms: C30_35  and  O7_37 
ROOT
HETATM    1  C8  UNL     1      -2.045  -0.078  -0.409  1.00  0.00     0.001 C 
HETATM    2  C9  UNL     1      -1.999  -1.569  -0.850  1.00  0.00     0.038 C 
HETATM    3  C10 UNL     1      -0.549  -2.065  -0.678  1.00  0.00     0.132 C 
HETATM    4  C11 UNL     1       0.178  -0.926   0.086  1.00  0.00     0.021 C 
HETATM    5  C12 UNL     1      -0.091  -1.193   1.603  1.00  0.00     0.024 C 
HETATM    6  C13 UNL     1       1.686  -0.726  -0.001  1.00  0.00     0.010 C 
HETATM    7  C14 UNL     1       2.282   0.470   0.233  1.00  0.00     0.007 C 
HETATM    8  C15 UNL     1       1.375   1.667   0.490  1.00  0.00     0.157 C 
HETATM    9  O3  UNL     1       1.851   2.755   0.815  1.00  0.00    -0.293 OA
HETATM   10  C16 UNL     1      -0.138   1.543   0.362  1.00  0.00     0.094 C 
HETATM   11  C17 UNL     1      -0.546   0.347  -0.497  1.00  0.00    -0.019 C 
HETATM   12  C18 UNL     1      -0.176   0.670  -1.977  1.00  0.00     0.017 C 
HETATM   13  C19 UNL     1       3.816   0.707   0.248  1.00  0.00    -0.007 C 
HETATM   14  C20 UNL     1       4.155   1.472  -1.053  1.00  0.00     0.021 C 
HETATM   15  C21 UNL     1       4.266   1.568   1.475  1.00  0.00     0.022 C 
HETATM   16  C22 UNL     1       5.662   1.288   2.024  1.00  0.00     0.080 C 
HETATM   17  C23 UNL     1       6.580   0.727   0.969  1.00  0.00     0.135 C 
HETATM   18  O4  UNL     1       7.655   1.265   0.713  1.00  0.00    -0.297 OA
HETATM   19  C24 UNL     1       6.134  -0.582   0.309  1.00  0.00     0.018 C 
HETATM   20  C25 UNL     1       6.733  -0.676  -1.108  1.00  0.00     0.023 C 
HETATM   21  C26 UNL     1       6.744  -1.728   1.145  1.00  0.00     0.023 C 
HETATM   22  C27 UNL     1       4.569  -0.668   0.354  1.00  0.00     0.021 C 
HETATM   23  C28 UNL     1       3.995  -1.688  -0.625  1.00  0.00     0.090 C 
HETATM   24  C29 UNL     1       2.537  -1.910  -0.332  1.00  0.00     0.157 C 
HETATM   25  O5  UNL     1       2.050  -3.036  -0.420  1.00  0.00    -0.293 OA
ENDROOT
BRANCH   1  26
HETATM   26  C6  UNL     1      -3.126   0.727  -1.185  1.00  0.00    -0.011 C 
HETATM   27  C7  UNL     1      -3.182   2.201  -0.769  1.00  0.00     0.010 C 
BRANCH  26  28
HETATM   28  C5  UNL     1      -4.553   0.104  -1.105  1.00  0.00     0.040 C 
BRANCH  28  29
HETATM   29  C4  UNL     1      -5.227   0.096   0.280  1.00  0.00     0.142 C 
BRANCH  29  30
HETATM   30  C3  UNL     1      -6.656  -0.360   0.180  1.00  0.00     0.018 C 
HETATM   31  C2  UNL     1      -7.756   0.243   0.675  1.00  0.00     0.010 C 
HETATM   32  C1  UNL     1      -7.797   1.527   1.446  1.00  0.00     0.055 C 
BRANCH  31  33
HETATM   33  C30 UNL     1      -9.044  -0.461   0.445  1.00  0.00     0.171 C 
HETATM   34  O6  UNL     1      -9.205  -1.506  -0.162  1.00  0.00    -0.646 OA
BRANCH  33  35
HETATM   35  O7  UNL     1     -10.084   0.177   1.003  1.00  0.00    -0.773 OA
HETATM   36  H42 UNL     1     -10.849  -0.395   0.785  1.00  0.00     0.167 HD
ENDBRANCH  33  35
ENDBRANCH  31  33
ENDBRANCH  29  30
BRANCH  29  37
HETATM   37  O1  UNL     1      -4.562  -0.810   1.153  1.00  0.00    -0.392 OA
HETATM   38  H6  UNL     1      -4.808  -1.713   0.890  1.00  0.00     0.210 HD
ENDBRANCH  29  37
ENDBRANCH  28  29
ENDBRANCH  26  28
ENDBRANCH   1  26
BRANCH   3  39
HETATM   39  O2  UNL     1       0.005  -2.305  -1.967  1.00  0.00    -0.394 OA
HETATM   40  H17 UNL     1       0.745  -2.928  -1.814  1.00  0.00     0.210 HD
ENDBRANCH   3  39
TORSDOF 8
