REMARK  8 active torsions:
REMARK  status: ('A' for Active; 'I' for Inactive)
REMARK    1  A    between atoms: C12_14  and  C13_15 
REMARK    2  A    between atoms: C13_15  and  C15_17 
REMARK    3  A    between atoms: C15_17  and  C16_18 
REMARK    4  A    between atoms: C16_18  and  C17_19 
REMARK    5  A    between atoms: C26_28  and  C27_29 
REMARK    6  A    between atoms: C27_29  and  C28_30 
REMARK    7  A    between atoms: C28_30  and  C29_31 
REMARK    8  A    between atoms: C29_31  and  O4_33 
ROOT
HETATM    1  C1  UNL     1      -6.253   1.638  -1.011  1.00  0.00     0.025 C 
HETATM    2  C2  UNL     1      -4.966   1.422  -1.309  1.00  0.00     0.015 C 
HETATM    3  C3  UNL     1      -4.053   2.565  -1.535  1.00  0.00     0.289 C 
HETATM    4  O1  UNL     1      -4.242   3.721  -1.207  1.00  0.00    -0.260 OA
HETATM    5  O2  UNL     1      -2.962   2.095  -2.190  1.00  0.00    -0.311 OA
HETATM    6  C4  UNL     1      -3.170   0.722  -2.550  1.00  0.00     0.142 C 
HETATM    7  C5  UNL     1      -1.842  -0.014  -2.536  1.00  0.00     0.039 C 
HETATM    8  C6  UNL     1      -1.208   0.013  -1.138  1.00  0.00     0.006 C 
HETATM    9  C7  UNL     1      -2.132  -0.712  -0.128  1.00  0.00    -0.027 A 
HETATM   10  C8  UNL     1      -1.538  -1.950   0.568  1.00  0.00     0.011 C 
HETATM   11  C9  UNL     1      -0.054  -1.897   0.975  1.00  0.00     0.011 C 
HETATM   12  C10 UNL     1       0.721  -0.719   0.378  1.00  0.00    -0.032 C 
HETATM   13  C11 UNL     1       0.474   0.525   1.272  1.00  0.00     0.016 C 
HETATM   14  C12 UNL     1       2.251  -0.960   0.195  1.00  0.00    -0.002 C 
HETATM   15  C21 UNL     1       2.642   0.001  -0.953  1.00  0.00     0.006 C 
HETATM   16  C22 UNL     1       1.324   0.459  -1.617  1.00  0.00     0.011 C 
HETATM   17  C23 UNL     1       0.253  -0.530  -1.111  1.00  0.00    -0.032 C 
HETATM   18  C24 UNL     1       0.371  -1.808  -2.007  1.00  0.00     0.016 C 
HETATM   19  C25 UNL     1      -3.042   0.133   0.742  1.00  0.00     0.022 A 
HETATM   20  C26 UNL     1      -3.679  -0.639  -0.389  1.00  0.00    -0.021 A 
HETATM   21  C30 UNL     1      -4.226   0.155  -1.604  1.00  0.00     0.063 C 
ENDROOT
BRANCH  14  22
HETATM   22  C13 UNL     1       3.225  -1.088   1.402  1.00  0.00    -0.014 C 
HETATM   23  C14 UNL     1       4.570  -1.657   0.911  1.00  0.00     0.010 C 
BRANCH  22  24
HETATM   24  C15 UNL     1       3.460   0.073   2.400  1.00  0.00     0.008 C 
BRANCH  24  25
HETATM   25  C16 UNL     1       4.021   1.422   1.930  1.00  0.00     0.028 C 
BRANCH  25  26
HETATM   26  C17 UNL     1       5.456   1.375   1.482  1.00  0.00    -0.025 C 
HETATM   27  C18 UNL     1       6.021   2.011   0.437  1.00  0.00    -0.091 C 
HETATM   28  C19 UNL     1       7.484   1.822   0.129  1.00  0.00     0.042 C 
HETATM   29  C20 UNL     1       5.313   2.953  -0.497  1.00  0.00     0.042 C 
ENDBRANCH  25  26
ENDBRANCH  24  25
ENDBRANCH  22  24
ENDBRANCH  14  22
BRANCH  20  30
HETATM   30  C27 UNL     1      -4.471  -1.921  -0.071  1.00  0.00     0.021 C 
BRANCH  30  31
HETATM   31  C28 UNL     1      -5.966  -1.766   0.174  1.00  0.00     0.111 C 
BRANCH  31  32
HETATM   32  C29 UNL     1      -6.288  -1.054   1.460  1.00  0.00     0.139 C 
HETATM   33  O3  UNL     1      -5.606  -0.989   2.467  1.00  0.00    -0.650 OA
BRANCH  32  34
HETATM   34  O4  UNL     1      -7.519  -0.504   1.432  1.00  0.00    -0.776 OA
HETATM   35  H43 UNL     1      -7.615  -0.096   2.319  1.00  0.00     0.167 HD
ENDBRANCH  32  34
ENDBRANCH  31  32
ENDBRANCH  30  31
ENDBRANCH  20  30
TORSDOF 8
