REMARK  14 active torsions:
REMARK  status: ('A' for Active; 'I' for Inactive)
REMARK    1  A    between atoms: C2_2  and  O1_3 
REMARK    2  A    between atoms: O1_3  and  C3_4 
REMARK    3  A    between atoms: C4_6  and  C5_7 
REMARK    4  A    between atoms: C5_7  and  O3_8 
REMARK    5  A    between atoms: C5_7  and  C6_9 
REMARK    6  A    between atoms: C6_9  and  O4_10 
REMARK    7  A    between atoms: O4_10  and  C7_11 
REMARK    8  A    between atoms: C12_16  and  C13_17 
REMARK    9  A    between atoms: C13_17  and  O5_19 
REMARK   10  A    between atoms: C13_17  and  C15_20 
REMARK   11  A    between atoms: C15_20  and  O6_21 
REMARK   12  A    between atoms: C18_24  and  O7_26 
REMARK   13  A    between atoms: C22_29  and  O8_30 
REMARK   14  A    between atoms: C23_31  and  O9_32 
ROOT
HETATM    1  C7  UNL     1      -0.097  -0.593  -0.220  1.00  0.00     0.126 C 
HETATM    2  C8  UNL     1      -0.579  -1.964   0.224  1.00  0.00     0.040 C 
HETATM    3  C9  UNL     1      -2.119  -1.849   0.255  1.00  0.00     0.026 C 
HETATM    4  C10 UNL     1      -2.465  -0.726  -0.769  1.00  0.00    -0.001 C 
HETATM    5  C11 UNL     1      -3.391   0.420  -0.339  1.00  0.00     0.013 C 
HETATM    6  C12 UNL     1      -4.832  -0.003   0.012  1.00  0.00     0.022 C 
HETATM    7  C16 UNL     1      -4.924  -0.506   1.467  1.00  0.00     0.010 C 
HETATM    8  C17 UNL     1      -4.219  -1.830   1.729  1.00  0.00     0.038 C 
HETATM    9  C18 UNL     1      -2.682  -1.824   1.698  1.00  0.00     0.058 C 
HETATM   10  C19 UNL     1      -2.076  -0.760   2.621  1.00  0.00     0.046 C 
HETATM   11  C20 UNL     1      -1.088  -0.269  -1.336  1.00  0.00     0.015 C 
HETATM   12  C21 UNL     1      -0.958   1.171  -1.819  1.00  0.00     0.013 C 
ENDROOT
BRANCH   1  13
HETATM   13  O4  UNL     1       1.228  -0.635  -0.734  1.00  0.00    -0.383 OA
BRANCH  13  14
HETATM   14  C6  UNL     1       2.219  -0.609   0.305  1.00  0.00     0.202 C 
BRANCH  14  15
HETATM   15  C5  UNL     1       3.591  -0.755  -0.362  1.00  0.00     0.173 C 
BRANCH  15  16
HETATM   16  C4  UNL     1       4.737  -0.755   0.661  1.00  0.00     0.187 C 
HETATM   17  O2  UNL     1       5.987  -1.058  -0.011  1.00  0.00    -0.348 OA
HETATM   18  C3  UNL     1       6.901   0.025   0.231  1.00  0.00     0.291 C 
HETATM   19  C23 UNL     1       6.469   0.601   1.584  1.00  0.00     0.204 C 
HETATM   20  C22 UNL     1       4.953   0.542   1.463  1.00  0.00     0.183 C 
BRANCH  18  21
HETATM   21  O1  UNL     1       6.800   1.022  -0.780  1.00  0.00    -0.359 OA
BRANCH  21  22
HETATM   22  C2  UNL     1       7.214   0.536  -2.054  1.00  0.00     0.166 C 
HETATM   23  C1  UNL     1       7.098   1.670  -3.054  1.00  0.00     0.033 C 
ENDBRANCH  21  22
ENDBRANCH  18  21
BRANCH  19  24
HETATM   24  O9  UNL     1       6.907  -0.234   2.668  1.00  0.00    -0.388 OA
HETATM   25  H42 UNL     1       6.878  -1.160   2.363  1.00  0.00     0.210 HD
ENDBRANCH  19  24
BRANCH  20  26
HETATM   26  O8  UNL     1       4.451   1.711   0.818  1.00  0.00    -0.390 OA
HETATM   27  H40 UNL     1       4.631   1.603  -0.145  1.00  0.00     0.210 HD
ENDBRANCH  20  26
ENDBRANCH  15  16
BRANCH  15  28
HETATM   28  O3  UNL     1       3.755   0.302  -1.326  1.00  0.00    -0.391 OA
HETATM   29  H9  UNL     1       2.912   0.314  -1.824  1.00  0.00     0.210 HD
ENDBRANCH  15  28
ENDBRANCH  14  15
ENDBRANCH  13  14
ENDBRANCH   1  13
BRANCH   9  30
HETATM   30  O7  UNL     1      -2.282  -3.095   2.267  1.00  0.00    -0.390 OA
HETATM   31  H34 UNL     1      -2.638  -3.148   3.172  1.00  0.00     0.210 HD
ENDBRANCH   9  30
BRANCH   6  32
HETATM   32  C13 UNL     1      -5.874   1.148  -0.254  1.00  0.00     0.079 C 
HETATM   33  C14 UNL     1      -5.600   2.412   0.566  1.00  0.00     0.048 C 
BRANCH  32  34
HETATM   34  O5  UNL     1      -7.173   0.664   0.140  1.00  0.00    -0.388 OA
HETATM   35  H23 UNL     1      -7.435   0.033  -0.560  1.00  0.00     0.210 HD
ENDBRANCH  32  34
BRANCH  32  36
HETATM   36  C15 UNL     1      -6.006   1.524  -1.751  1.00  0.00     0.201 C 
BRANCH  36  37
HETATM   37  O6  UNL     1      -6.345   0.360  -2.508  1.00  0.00    -0.398 OA
HETATM   38  H26 UNL     1      -6.453   0.648  -3.432  1.00  0.00     0.209 HD
ENDBRANCH  36  37
ENDBRANCH  32  36
ENDBRANCH   6  32
TORSDOF 14
