REMARK  10 active torsions:
REMARK  status: ('A' for Active; 'I' for Inactive)
REMARK    1  A    between atoms: C2_2  and  C3_3 
REMARK    2  A    between atoms: C3_3  and  C5_5 
REMARK    3  A    between atoms: C5_5  and  C6_6 
REMARK    4  A    between atoms: C6_6  and  C8_8 
REMARK    5  A    between atoms: C9_9  and  C11_11 
REMARK    6  A    between atoms: C12_13  and  C13_14 
REMARK    7  A    between atoms: C14_15  and  O2_16 
REMARK    8  A    between atoms: C15_17  and  C16_18 
REMARK    9  A    between atoms: C16_18  and  O3_19 
REMARK   10  A    between atoms: C21_25  and  O5_26 
ROOT
HETATM    1  C13 UNL     1      -2.288   0.074  -0.072  1.00  0.00     0.068 C 
HETATM    2  C14 UNL     1      -3.135   0.234  -1.110  1.00  0.00     0.066 C 
HETATM    3  C15 UNL     1      -4.247  -0.745  -1.446  1.00  0.00     0.098 C 
HETATM    4  C22 UNL     1      -3.842  -2.116  -0.894  1.00  0.00     0.140 C 
HETATM    5  N1  UNL     1      -3.423  -2.039   0.492  1.00  0.00    -0.352 N 
HETATM    6  C23 UNL     1      -3.512  -3.251   1.287  1.00  0.00     0.152 C 
HETATM    7  C24 UNL     1      -2.517  -1.058   0.889  1.00  0.00     0.254 C 
HETATM    8  O6  UNL     1      -1.969  -1.085   1.986  1.00  0.00    -0.268 OA
ENDROOT
BRANCH   1   9
HETATM    9  C12 UNL     1      -1.123   1.002   0.196  1.00  0.00     0.163 C 
HETATM   10  O1  UNL     1       0.095   0.252   0.090  1.00  0.00    -0.371 OA
HETATM   11  C11 UNL     1       1.237   1.066   0.383  1.00  0.00     0.154 C 
HETATM   12  C27 UNL     1       1.283   1.321   1.909  1.00  0.00     0.015 C 
HETATM   13  C26 UNL     1      -0.128   1.430   2.520  1.00  0.00     0.010 C 
HETATM   14  C28 UNL     1       2.112   2.569   2.230  1.00  0.00     0.012 C 
HETATM   15  C25 UNL     1      -1.204   1.808   1.506  1.00  0.00     0.037 C 
BRANCH  11  16
HETATM   16  C9  UNL     1       2.436   0.402  -0.297  1.00  0.00    -0.058 C 
HETATM   17  C8  UNL     1       3.526  -0.062   0.352  1.00  0.00    -0.018 C 
HETATM   18  C10 UNL     1       2.283   0.316  -1.798  1.00  0.00     0.046 C 
BRANCH  17  19
HETATM   19  C6  UNL     1       4.731  -0.775  -0.234  1.00  0.00     0.005 C 
HETATM   20  C7  UNL     1       4.895  -2.120   0.475  1.00  0.00     0.014 C 
BRANCH  19  21
HETATM   21  C5  UNL     1       5.963   0.150  -0.118  1.00  0.00     0.012 C 
BRANCH  21  22
HETATM   22  C3  UNL     1       7.263  -0.401  -0.749  1.00  0.00    -0.018 C 
HETATM   23  C4  UNL     1       8.115  -1.177   0.262  1.00  0.00     0.010 C 
BRANCH  22  24
HETATM   24  C2  UNL     1       8.097   0.731  -1.394  1.00  0.00    -0.000 C 
HETATM   25  C1  UNL     1       8.581   1.808  -0.430  1.00  0.00     0.005 C 
ENDBRANCH  22  24
ENDBRANCH  21  22
ENDBRANCH  19  21
ENDBRANCH  17  19
ENDBRANCH  11  16
ENDBRANCH   1   9
BRANCH   2  26
HETATM   26  O2  UNL     1      -3.005   1.313  -1.972  1.00  0.00    -0.364 OA
HETATM   27  H22 UNL     1      -3.539   1.153  -2.775  1.00  0.00     0.217 HD
ENDBRANCH   2  26
BRANCH   3  28
HETATM   28  C16 UNL     1      -5.656  -0.212  -1.016  1.00  0.00     0.095 C 
HETATM   29  C17 UNL     1      -5.848   0.038   0.488  1.00  0.00     0.048 C 
HETATM   30  C18 UNL     1      -7.140   0.801   0.782  1.00  0.00     0.081 C 
HETATM   31  C19 UNL     1      -8.254   0.467  -0.186  1.00  0.00     0.129 C 
HETATM   32  O4  UNL     1      -9.242   1.195  -0.282  1.00  0.00    -0.298 OA
HETATM   33  C20 UNL     1      -8.181  -0.849  -0.919  1.00  0.00     0.113 C 
HETATM   34  C21 UNL     1      -6.799  -1.143  -1.510  1.00  0.00     0.160 C 
BRANCH  28  35
HETATM   35  O3  UNL     1      -5.857   1.048  -1.714  1.00  0.00    -0.386 OA
HETATM   36  H24 UNL     1      -5.247   1.704  -1.318  1.00  0.00     0.210 HD
ENDBRANCH  28  35
BRANCH  34  37
HETATM   37  O5  UNL     1      -6.865  -1.064  -2.939  1.00  0.00    -0.392 OA
HETATM   38  H32 UNL     1      -6.868  -0.105  -3.144  1.00  0.00     0.210 HD
ENDBRANCH  34  37
ENDBRANCH   3  28
TORSDOF 10
