REMARK  8 active torsions:
REMARK  status: ('A' for Active; 'I' for Inactive)
REMARK    1  A    between atoms: C2_2  and  C3_3 
REMARK    2  A    between atoms: C2_2  and  C9_12 
REMARK    3  A    between atoms: C3_3  and  C4_4 
REMARK    4  A    between atoms: C4_4  and  C5_5 
REMARK    5  A    between atoms: C6_6  and  C7_7 
REMARK    6  A    between atoms: C6_6  and  C8_9 
REMARK    7  A    between atoms: C7_7  and  O1_8 
REMARK    8  A    between atoms: C8_9  and  O3_11 
ROOT
HETATM    1  C9  UNL     1       2.015   0.457  -0.240  1.00  0.00    -0.002 C 
HETATM    2  C10 UNL     1       2.330  -0.981   0.178  1.00  0.00     0.006 C 
HETATM    3  C11 UNL     1       0.962  -1.645   0.085  1.00  0.00     0.006 C 
HETATM    4  C12 UNL     1      -0.006  -0.618   0.689  1.00  0.00    -0.001 C 
HETATM    5  C13 UNL     1      -1.409  -0.625   0.048  1.00  0.00    -0.000 C 
HETATM    6  C14 UNL     1      -2.116  -1.972   0.169  1.00  0.00     0.006 C 
HETATM    7  C15 UNL     1      -3.551  -1.860  -0.342  1.00  0.00     0.007 C 
HETATM    8  C16 UNL     1      -4.416  -1.002   0.605  1.00  0.00     0.010 C 
HETATM    9  C17 UNL     1      -5.922  -0.915   0.165  1.00  0.00     0.018 C 
HETATM   10  C18 UNL     1      -6.836  -0.724   1.396  1.00  0.00     0.023 C 
HETATM   11  C19 UNL     1      -6.408  -2.213  -0.525  1.00  0.00     0.023 C 
HETATM   12  C20 UNL     1      -6.171   0.250  -0.806  1.00  0.00     0.135 C 
HETATM   13  O4  UNL     1      -7.062   0.204  -1.657  1.00  0.00    -0.297 OA
HETATM   14  C21 UNL     1      -5.307   1.482  -0.713  1.00  0.00     0.080 C 
HETATM   15  C22 UNL     1      -4.626   1.579   0.634  1.00  0.00     0.018 C 
HETATM   16  C23 UNL     1      -3.739   0.373   0.851  1.00  0.00    -0.026 A 
HETATM   17  C24 UNL     1      -2.786   0.424   2.026  1.00  0.00     0.021 A 
HETATM   18  C25 UNL     1      -2.211   0.535   0.629  1.00  0.00    -0.028 A 
HETATM   19  C26 UNL     1      -1.605   1.892   0.272  1.00  0.00     0.011 C 
HETATM   20  C27 UNL     1      -0.155   1.796  -0.217  1.00  0.00     0.011 C 
HETATM   21  C28 UNL     1       0.707   0.776   0.563  1.00  0.00    -0.036 C 
HETATM   22  C29 UNL     1       0.978   1.317   1.983  1.00  0.00     0.016 C 
ENDROOT
BRANCH   1  23
HETATM   23  C2  UNL     1       3.165   1.499  -0.147  1.00  0.00    -0.014 C 
HETATM   24  C1  UNL     1       4.237   1.187   0.899  1.00  0.00     0.010 C 
BRANCH  23  25
HETATM   25  C3  UNL     1       3.782   1.804  -1.539  1.00  0.00     0.008 C 
BRANCH  25  26
HETATM   26  C4  UNL     1       4.547   0.675  -2.246  1.00  0.00     0.028 C 
BRANCH  26  27
HETATM   27  C5  UNL     1       5.980   0.559  -1.801  1.00  0.00    -0.011 C 
HETATM   28  C6  UNL     1       6.652  -0.538  -1.397  1.00  0.00     0.035 C 
BRANCH  28  29
HETATM   29  C7  UNL     1       8.095  -0.483  -0.980  1.00  0.00     0.209 C 
BRANCH  29  30
HETATM   30  O1  UNL     1       8.204  -0.554   0.437  1.00  0.00    -0.396 OA
HETATM   31  H12 UNL     1       7.711  -1.356   0.702  1.00  0.00     0.209 HD
ENDBRANCH  29  30
ENDBRANCH  28  29
BRANCH  28  32
HETATM   32  C8  UNL     1       6.031  -1.879  -1.393  1.00  0.00     0.173 C 
HETATM   33  O2  UNL     1       5.245  -2.335  -2.201  1.00  0.00    -0.646 OA
BRANCH  32  34
HETATM   34  O3  UNL     1       6.447  -2.604  -0.335  1.00  0.00    -0.773 OA
HETATM   35  H13 UNL     1       5.955  -3.448  -0.436  1.00  0.00     0.167 HD
ENDBRANCH  32  34
ENDBRANCH  28  32
ENDBRANCH  26  27
ENDBRANCH  25  26
ENDBRANCH  23  25
ENDBRANCH   1  23
TORSDOF 8
