REMARK  19 active torsions:
REMARK  status: ('A' for Active; 'I' for Inactive)
REMARK    1  A    between atoms: O1_2  and  C2_3 
REMARK    2  A    between atoms: C2_3  and  C3_4 
REMARK    3  A    between atoms: C2_3  and  C28_36 
REMARK    4  A    between atoms: C3_4  and  C4_5 
REMARK    5  A    between atoms: C4_5  and  C6_7 
REMARK    6  A    between atoms: C6_7  and  O2_8 
REMARK    7  A    between atoms: C6_7  and  C7_9 
REMARK    8  A    between atoms: C8_10  and  C9_11 
REMARK    9  A    between atoms: C10_12  and  C11_13 
REMARK   10  A    between atoms: C11_13  and  N1_14 
REMARK       I    between atoms: N1_14  and  C12_15 
REMARK   11  A    between atoms: C12_15  and  C13_17 
REMARK   12  A    between atoms: C13_17  and  C16_20 
REMARK   13  A    between atoms: C16_20  and  O4_21 
REMARK   14  A    between atoms: C16_20  and  C17_22 
REMARK   15  A    between atoms: C19_24  and  C20_25 
REMARK   16  A    between atoms: C21_26  and  C22_27 
REMARK   17  A    between atoms: C23_28  and  C24_29 
REMARK   18  A    between atoms: C26_31  and  N2_33 
REMARK   19  A    between atoms: C28_36  and  O7_37 
ROOT
HETATM    1  C9  UNL     1      -1.151  -0.983   2.181  1.00  0.00    -0.003 C 
HETATM    2  C10 UNL     1       0.094  -0.610   2.512  1.00  0.00    -0.007 C 
ENDROOT
BRANCH   1   3
HETATM    3  C8  UNL     1      -1.778  -0.576   0.944  1.00  0.00    -0.002 C 
HETATM    4  C7  UNL     1      -3.054  -0.864   0.632  1.00  0.00     0.005 C 
BRANCH   4   5
HETATM    5  C6  UNL     1      -3.757  -0.488  -0.651  1.00  0.00     0.144 C 
BRANCH   5   6
HETATM    6  C4  UNL     1      -4.733   0.710  -0.545  1.00  0.00     0.016 C 
HETATM    7  C5  UNL     1      -4.002   1.984  -0.074  1.00  0.00     0.013 C 
BRANCH   6   8
HETATM    8  C3  UNL     1      -5.976   0.496   0.353  1.00  0.00     0.042 C 
BRANCH   8   9
HETATM    9  C2  UNL     1      -7.118  -0.435  -0.115  1.00  0.00     0.159 C 
BRANCH   9  10
HETATM   10  O1  UNL     1      -6.597  -1.682  -0.618  1.00  0.00    -0.388 OA
HETATM   11  C1  UNL     1      -6.481  -2.677   0.398  1.00  0.00     0.202 C 
ENDBRANCH   9  10
BRANCH   9  12
HETATM   12  C28 UNL     1      -8.156   0.080  -1.178  1.00  0.00     0.133 C 
HETATM   13  C29 UNL     1      -7.536   0.523  -2.534  1.00  0.00     0.114 C 
HETATM   14  C30 UNL     1      -8.438   0.325  -3.753  1.00  0.00     0.023 C 
HETATM   15  C31 UNL     1      -7.314   2.009  -2.343  1.00  0.00     0.227 C 
HETATM   16  O8  UNL     1      -6.547   2.700  -2.991  1.00  0.00    -0.273 OA
HETATM   17  N3  UNL     1      -8.160   2.438  -1.335  1.00  0.00    -0.332 N 
HETATM   18  C32 UNL     1      -8.102   3.775  -0.790  1.00  0.00     0.154 C 
HETATM   19  C33 UNL     1      -8.935   1.322  -0.708  1.00  0.00     0.183 C 
HETATM   20  C34 UNL     1      -9.302   1.453   0.795  1.00  0.00     0.294 C 
HETATM   21  C35 UNL     1     -10.488   1.508  -0.870  1.00  0.00     0.169 C 
HETATM   22  O9  UNL     1      -8.733   1.397   1.863  1.00  0.00    -0.262 OA
HETATM   23  O10 UNL     1     -10.604   1.748   0.566  1.00  0.00    -0.311 OA
HETATM   24  C36 UNL     1     -11.455   0.408  -1.271  1.00  0.00     0.043 C 
BRANCH  12  25
HETATM   25  O7  UNL     1      -9.047  -1.025  -1.413  1.00  0.00    -0.383 OA
HETATM   26  H42 UNL     1      -8.470  -1.814  -1.499  1.00  0.00     0.210 HD
ENDBRANCH  12  25
ENDBRANCH   9  12
ENDBRANCH   8   9
ENDBRANCH   6   8
ENDBRANCH   5   6
BRANCH   5  27
HETATM   27  O2  UNL     1      -2.787  -0.185  -1.660  1.00  0.00    -0.391 OA
HETATM   28  H12 UNL     1      -2.247  -0.985  -1.772  1.00  0.00     0.210 HD
ENDBRANCH   5  27
ENDBRANCH   4   5
ENDBRANCH   1   3
BRANCH   2  29
HETATM   29  C11 UNL     1       0.773  -1.000   3.787  1.00  0.00     0.149 C 
BRANCH  29  30
HETATM   30  N1  UNL     1       2.052  -1.572   3.446  1.00  0.00    -0.357 N 
HETATM   31  C12 UNL     1       3.233  -1.151   4.013  1.00  0.00     0.228 C 
HETATM   32  O3  UNL     1       3.272  -0.263   4.860  1.00  0.00    -0.273 OA
HETATM   33  H19 UNL     1       2.098  -2.261   2.697  1.00  0.00     0.162 HD
BRANCH  31  34
HETATM   34  C13 UNL     1       4.498  -1.885   3.511  1.00  0.00     0.063 C 
HETATM   35  C14 UNL     1       5.724  -1.243   4.203  1.00  0.00     0.028 C 
HETATM   36  C15 UNL     1       4.398  -3.355   3.958  1.00  0.00     0.028 C 
BRANCH  34  37
HETATM   37  C16 UNL     1       4.571  -1.697   1.964  1.00  0.00     0.164 C 
BRANCH  37  38
HETATM   38  O4  UNL     1       3.606  -2.536   1.308  1.00  0.00    -0.390 OA
HETATM   39  H27 UNL     1       3.762  -2.435   0.351  1.00  0.00     0.210 HD
ENDBRANCH  37  38
BRANCH  37  40
HETATM   40  C17 UNL     1       5.920  -1.934   1.288  1.00  0.00    -0.054 C 
HETATM   41  C18 UNL     1       6.447  -3.346   1.286  1.00  0.00     0.046 C 
HETATM   42  C19 UNL     1       6.557  -0.889   0.718  1.00  0.00     0.005 C 
BRANCH  42  43
HETATM   43  C20 UNL     1       7.852  -0.899   0.069  1.00  0.00     0.000 C 
HETATM   44  C21 UNL     1       8.370   0.199  -0.505  1.00  0.00     0.000 C 
BRANCH  44  45
HETATM   45  C22 UNL     1       9.670   0.227  -1.149  1.00  0.00     0.001 C 
HETATM   46  C23 UNL     1      10.163   1.340  -1.718  1.00  0.00     0.009 C 
BRANCH  46  47
HETATM   47  C24 UNL     1      11.470   1.495  -2.374  1.00  0.00    -0.034 C 
HETATM   48  C25 UNL     1      12.317   0.238  -2.465  1.00  0.00     0.050 C 
HETATM   49  C26 UNL     1      11.858   2.700  -2.858  1.00  0.00     0.082 C 
HETATM   50  C27 UNL     1      11.189   4.036  -2.893  1.00  0.00     0.075 C 
BRANCH  49  51
HETATM   51  N2  UNL     1      13.178   2.782  -3.456  1.00  0.00    -0.120 N 
HETATM   52  O5  UNL     1      13.231   2.780  -4.692  1.00  0.00    -0.532 OA
HETATM   53  O6  UNL     1      14.140   2.874  -2.683  1.00  0.00    -0.532 OA
ENDBRANCH  49  51
ENDBRANCH  46  47
ENDBRANCH  44  45
ENDBRANCH  42  43
ENDBRANCH  37  40
ENDBRANCH  34  37
ENDBRANCH  31  34
ENDBRANCH  29  30
ENDBRANCH   2  29
TORSDOF 19
