REMARK  11 active torsions:
REMARK  status: ('A' for Active; 'I' for Inactive)
REMARK    1  A    between atoms: C6_6  and  C8_8 
REMARK    2  A    between atoms: C8_8  and  O1_9 
REMARK    3  A    between atoms: O1_9  and  C9_10 
REMARK    4  A    between atoms: C10_12  and  C11_13 
REMARK    5  A    between atoms: C11_13  and  O3_14 
REMARK    6  A    between atoms: C12_15  and  O4_16 
REMARK    7  A    between atoms: C13_17  and  O5_18 
REMARK    8  A    between atoms: C14_19  and  O6_20 
REMARK    9  A    between atoms: C20_26  and  C21_27 
REMARK   10  A    between atoms: C21_27  and  C22_28 
REMARK   11  A    between atoms: C26_34  and  O9_35 
ROOT
HETATM    1  C1  UNL     1      -4.701   1.270   2.205  1.00  0.00     0.015 C 
HETATM    2  C2  UNL     1      -3.505   0.808   1.801  1.00  0.00    -0.084 C 
HETATM    3  C3  UNL     1      -2.376   0.563   2.768  1.00  0.00     0.034 C 
HETATM    4  C4  UNL     1      -1.102   1.303   2.354  1.00  0.00     0.010 C 
HETATM    5  C5  UNL     1      -0.735   1.086   0.863  1.00  0.00     0.005 C 
HETATM    6  C6  UNL     1       0.661   1.708   0.459  1.00  0.00    -0.018 C 
HETATM    7  C7  UNL     1       0.953   3.068   1.130  1.00  0.00     0.018 C 
HETATM    8  C15 UNL     1       0.761   1.904  -1.080  1.00  0.00     0.012 C 
HETATM    9  C16 UNL     1      -0.093   0.902  -1.843  1.00  0.00     0.002 C 
HETATM   10  C17 UNL     1      -1.574   1.172  -1.596  1.00  0.00     0.010 C 
HETATM   11  C18 UNL     1      -1.940   1.416  -0.096  1.00  0.00    -0.032 C 
HETATM   12  C19 UNL     1      -2.352   2.914   0.009  1.00  0.00     0.016 C 
HETATM   13  C20 UNL     1      -3.190   0.538   0.330  1.00  0.00     0.025 C 
ENDROOT
BRANCH   6  14
HETATM   14  C8  UNL     1       1.769   0.706   0.917  1.00  0.00     0.180 C 
BRANCH  14  15
HETATM   15  O1  UNL     1       3.069   1.172   0.549  1.00  0.00    -0.358 OA
BRANCH  15  16
HETATM   16  C9  UNL     1       4.087   0.201   0.821  1.00  0.00     0.291 C 
HETATM   17  O2  UNL     1       3.863  -0.963   0.031  1.00  0.00    -0.348 OA
HETATM   18  C10 UNL     1       4.857  -1.973   0.256  1.00  0.00     0.179 C 
HETATM   19  C12 UNL     1       6.242  -1.480  -0.192  1.00  0.00     0.180 C 
HETATM   20  C13 UNL     1       6.580  -0.166   0.536  1.00  0.00     0.183 C 
HETATM   21  C14 UNL     1       5.439   0.856   0.476  1.00  0.00     0.204 C 
BRANCH  18  22
HETATM   22  C11 UNL     1       4.429  -3.243  -0.482  1.00  0.00     0.198 C 
BRANCH  22  23
HETATM   23  O3  UNL     1       5.234  -4.343  -0.070  1.00  0.00    -0.398 OA
HETATM   24  H17 UNL     1       4.904  -5.126  -0.547  1.00  0.00     0.209 HD
ENDBRANCH  22  23
ENDBRANCH  18  22
BRANCH  19  25
HETATM   25  O4  UNL     1       6.274  -1.275  -1.612  1.00  0.00    -0.390 OA
HETATM   26  H19 UNL     1       7.107  -0.796  -1.786  1.00  0.00     0.210 HD
ENDBRANCH  19  25
BRANCH  20  27
HETATM   27  O5  UNL     1       7.761   0.408  -0.049  1.00  0.00    -0.390 OA
HETATM   28  H21 UNL     1       7.418   1.070  -0.690  1.00  0.00     0.210 HD
ENDBRANCH  20  27
BRANCH  21  29
HETATM   29  O6  UNL     1       5.431   1.442  -0.846  1.00  0.00    -0.388 OA
HETATM   30  H23 UNL     1       4.484   1.577  -1.060  1.00  0.00     0.210 HD
ENDBRANCH  21  29
ENDBRANCH  15  16
ENDBRANCH  14  15
ENDBRANCH   6  14
BRANCH  13  31
HETATM   31  C21 UNL     1      -3.034  -0.994   0.089  1.00  0.00     0.037 C 
BRANCH  31  32
HETATM   32  C22 UNL     1      -4.286  -1.780   0.383  1.00  0.00    -0.010 C 
HETATM   33  C23 UNL     1      -5.151  -2.265  -0.524  1.00  0.00     0.044 C 
HETATM   34  C24 UNL     1      -6.340  -3.049  -0.109  1.00  0.00     0.291 C 
HETATM   35  C26 UNL     1      -5.199  -2.155  -2.003  1.00  0.00     0.181 C 
HETATM   36  O7  UNL     1      -6.552  -3.517   0.994  1.00  0.00    -0.260 OA
HETATM   37  O8  UNL     1      -7.153  -3.194  -1.194  1.00  0.00    -0.315 OA
HETATM   38  C25 UNL     1      -6.678  -2.361  -2.250  1.00  0.00     0.215 C 
BRANCH  35  39
HETATM   39  O9  UNL     1      -4.750  -0.897  -2.477  1.00  0.00    -0.389 OA
HETATM   40  H40 UNL     1      -4.912  -0.861  -3.435  1.00  0.00     0.210 HD
ENDBRANCH  35  39
ENDBRANCH  31  32
ENDBRANCH  13  31
TORSDOF 11
