REMARK  11 active torsions:
REMARK  status: ('A' for Active; 'I' for Inactive)
REMARK    1  A    between atoms: C3_4  and  O2_5 
REMARK    2  A    between atoms: O2_5  and  C4_6 
REMARK    3  A    between atoms: C7_9  and  C8_10 
REMARK    4  A    between atoms: N1_11  and  C9_13 
REMARK    5  A    between atoms: C9_13  and  C10_14 
REMARK    6  A    between atoms: C10_14  and  C11_15 
REMARK    7  A    between atoms: C22_26  and  C23_27 
REMARK    8  A    between atoms: C29_35  and  O5_36 
REMARK    9  A    between atoms: C33_40  and  O6_41 
REMARK   10  A    between atoms: C36_44  and  O7_45 
REMARK   11  A    between atoms: C37_46  and  O8_47 
ROOT
HETATM    1  C4  UNL     1       2.764   0.199   1.284  1.00  0.00     0.127 C 
HETATM    2  C5  UNL     1       1.892   0.207   2.530  1.00  0.00     0.033 C 
HETATM    3  C6  UNL     1       0.392   0.090   2.247  1.00  0.00     0.021 C 
HETATM    4  C7  UNL     1       0.004  -0.537   0.868  1.00  0.00     0.026 C 
HETATM    5  C17 UNL     1      -1.460  -1.139   0.999  1.00  0.00     0.009 C 
HETATM    6  C18 UNL     1      -2.559  -0.458   0.137  1.00  0.00     0.007 C 
HETATM    7  C19 UNL     1      -3.966  -1.057   0.350  1.00  0.00     0.013 C 
HETATM    8  C20 UNL     1      -3.961  -2.588   0.194  1.00  0.00    -0.005 C 
HETATM    9  C21 UNL     1      -3.656  -2.910  -1.307  1.00  0.00     0.019 C 
HETATM   10  C22 UNL     1      -5.270  -3.369   0.541  1.00  0.00     0.028 C 
HETATM   11  C27 UNL     1      -4.758  -4.754   1.043  1.00  0.00     0.013 C 
HETATM   12  C28 UNL     1      -3.216  -4.692   1.081  1.00  0.00     0.040 C 
HETATM   13  C29 UNL     1      -2.924  -3.199   1.179  1.00  0.00     0.070 C 
HETATM   14  C30 UNL     1      -1.499  -2.696   0.870  1.00  0.00     0.026 C 
HETATM   15  C31 UNL     1      -0.417  -3.305   1.770  1.00  0.00     0.011 C 
HETATM   16  C32 UNL     1       1.003  -2.840   1.414  1.00  0.00     0.039 C 
HETATM   17  C33 UNL     1       1.067  -1.609   0.478  1.00  0.00     0.073 C 
HETATM   18  C34 UNL     1       2.510  -1.045   0.425  1.00  0.00     0.071 C 
ENDROOT
BRANCH   1  19
HETATM   19  O2  UNL     1       4.128   0.259   1.720  1.00  0.00    -0.356 OA
BRANCH  19  20
HETATM   20  C3  UNL     1       5.046   0.692   0.715  1.00  0.00     0.263 C 
HETATM   21  O1  UNL     1       5.313  -0.370  -0.200  1.00  0.00    -0.354 OA
HETATM   22  C2  UNL     1       6.539  -0.288  -0.933  1.00  0.00     0.151 C 
HETATM   23  C1  UNL     1       7.498  -1.358  -0.414  1.00  0.00     0.042 C 
HETATM   24  C37 UNL     1       7.132   1.129  -0.973  1.00  0.00     0.175 C 
HETATM   25  C36 UNL     1       7.332   1.694   0.442  1.00  0.00     0.154 C 
HETATM   26  C35 UNL     1       6.307   1.159   1.433  1.00  0.00     0.095 C 
BRANCH  24  27
HETATM   27  O8  UNL     1       8.369   1.203  -1.687  1.00  0.00    -0.390 OA
HETATM   28  H55 UNL     1       8.238   0.777  -2.555  1.00  0.00     0.210 HD
ENDBRANCH  24  27
BRANCH  25  29
HETATM   29  O7  UNL     1       8.649   1.395   0.918  1.00  0.00    -0.393 OA
HETATM   30  H53 UNL     1       9.216   1.424   0.120  1.00  0.00     0.210 HD
ENDBRANCH  25  29
ENDBRANCH  19  20
ENDBRANCH   1  19
BRANCH  17  31
HETATM   31  O6  UNL     1       0.782  -2.103  -0.849  1.00  0.00    -0.389 OA
HETATM   32  H47 UNL     1       1.490  -2.726  -1.094  1.00  0.00     0.210 HD
ENDBRANCH  17  31
BRANCH   4  33
HETATM   33  C8  UNL     1       0.018   0.520  -0.250  1.00  0.00     0.068 C 
HETATM   34  N1  UNL     1       0.128   1.781  -0.006  1.00  0.00    -0.401 N 
ATOM     35  H1  UNL     1       0.215   2.151   0.940  1.00  0.00     0.158 HD
BRANCH  34  36
HETATM   36  C9  UNL     1       0.118   2.644  -1.195  1.00  0.00     0.123 C 
BRANCH  36  37
HETATM   37  C10 UNL     1      -0.878   3.786  -0.969  1.00  0.00     0.053 C 
BRANCH  37  38
HETATM   38  C11 UNL     1      -0.898   4.779  -2.110  1.00  0.00    -0.082 C 
HETATM   39  C12 UNL     1      -0.311   5.986  -2.005  1.00  0.00    -0.024 C 
HETATM   40  C13 UNL     1      -0.345   7.031  -3.082  1.00  0.00     0.027 C 
HETATM   41  C14 UNL     1      -1.372   6.736  -4.175  1.00  0.00     0.004 C 
HETATM   42  C15 UNL     1      -1.352   5.263  -4.566  1.00  0.00     0.005 C 
HETATM   43  C16 UNL     1      -1.640   4.364  -3.360  1.00  0.00     0.034 C 
ENDBRANCH  37  38
ENDBRANCH  36  37
ENDBRANCH  34  36
ENDBRANCH   4  33
BRANCH  13  44
HETATM   44  O5  UNL     1      -3.250  -2.816   2.526  1.00  0.00    -0.389 OA
HETATM   45  H41 UNL     1      -2.690  -3.328   3.134  1.00  0.00     0.210 HD
ENDBRANCH  13  44
BRANCH  10  46
HETATM   46  C23 UNL     1      -6.290  -2.737   1.451  1.00  0.00    -0.045 A 
HETATM   47  C24 UNL     1      -7.522  -2.382   1.083  1.00  0.00     0.087 A 
HETATM   48  C25 UNL     1      -8.204  -1.874   2.269  1.00  0.00     0.283 A 
HETATM   49  O3  UNL     1      -9.350  -1.464   2.288  1.00  0.00    -0.260 OA
HETATM   50  O4  UNL     1      -7.365  -1.952   3.332  1.00  0.00    -0.314 OA
HETATM   51  C26 UNL     1      -6.098  -2.458   2.895  1.00  0.00     0.213 A 
ENDBRANCH  10  46
TORSDOF 11
