REMARK  4 active torsions:
REMARK  status: ('A' for Active; 'I' for Inactive)
REMARK    1  A    between atoms: C4_4  and  C5_5 
REMARK    2  A    between atoms: C5_5  and  C6_6 
REMARK    3  A    between atoms: C6_6  and  C7_7 
REMARK    4  A    between atoms: C25_26  and  O2_27 
ROOT
HETATM    1  C7  UNL     1       3.446  -1.871  -0.467  1.00  0.00     0.023 C 
HETATM    2  C8  UNL     1       2.140  -2.029  -0.660  1.00  0.00    -0.034 C 
HETATM    3  C9  UNL     1       1.645  -3.275  -0.038  1.00  0.00     0.163 C 
HETATM    4  C10 UNL     1       0.280  -2.888   0.542  1.00  0.00     0.048 C 
HETATM    5  C11 UNL     1       0.056  -1.389   0.126  1.00  0.00    -0.019 C 
HETATM    6  C12 UNL     1       0.604  -0.540   1.333  1.00  0.00     0.017 C 
HETATM    7  C13 UNL     1       0.973  -1.253  -1.137  1.00  0.00     0.027 C 
HETATM    8  C14 UNL     1       1.062   0.180  -1.636  1.00  0.00     0.010 C 
HETATM    9  C15 UNL     1      -0.348   0.705  -1.964  1.00  0.00     0.007 C 
HETATM   10  C16 UNL     1      -1.349   0.544  -0.789  1.00  0.00     0.011 C 
HETATM   11  C17 UNL     1      -2.733   1.286  -1.008  1.00  0.00    -0.032 C 
HETATM   12  C18 UNL     1      -2.478   2.786  -0.626  1.00  0.00     0.016 C 
HETATM   13  C19 UNL     1      -3.233   1.289  -2.480  1.00  0.00     0.017 C 
HETATM   14  C20 UNL     1      -4.749   1.468  -2.636  1.00  0.00     0.079 C 
HETATM   15  C21 UNL     1      -5.423   2.117  -1.439  1.00  0.00     0.131 C 
HETATM   16  O1  UNL     1      -6.255   3.011  -1.596  1.00  0.00    -0.298 OA
HETATM   17  C22 UNL     1      -5.104   1.556  -0.051  1.00  0.00     0.059 C 
HETATM   18  C23 UNL     1      -6.350   0.831   0.452  1.00  0.00     0.018 C 
HETATM   19  C24 UNL     1      -3.867   0.633  -0.144  1.00  0.00     0.041 C 
HETATM   20  C25 UNL     1      -3.358   0.103   1.200  1.00  0.00     0.194 C 
HETATM   21  C26 UNL     1      -2.331  -1.010   0.974  1.00  0.00     0.165 C 
HETATM   22  O3  UNL     1      -2.260  -1.939   1.783  1.00  0.00    -0.294 OA
HETATM   23  C27 UNL     1      -1.421  -0.943  -0.267  1.00  0.00     0.032 C 
HETATM   24  C28 UNL     1      -2.054  -1.896  -1.313  1.00  0.00     0.025 C 
HETATM   25  O4  UNL     1       2.671  -3.625   0.857  1.00  0.00    -0.308 OA
HETATM   26  C29 UNL     1       3.810  -2.982   0.442  1.00  0.00     0.290 C 
HETATM   27  O5  UNL     1       4.938  -3.252   0.817  1.00  0.00    -0.260 OA
ENDROOT
BRANCH   1  28
HETATM   28  C6  UNL     1       4.420  -0.826  -0.884  1.00  0.00     0.049 C 
BRANCH  28  29
HETATM   29  C5  UNL     1       4.476   0.431   0.002  1.00  0.00     0.032 C 
BRANCH  29  30
HETATM   30  C4  UNL     1       4.803   0.181   1.452  1.00  0.00    -0.024 C 
HETATM   31  C2  UNL     1       5.859   0.650   2.145  1.00  0.00    -0.091 C 
HETATM   32  C1  UNL     1       6.969   1.475   1.556  1.00  0.00     0.042 C 
HETATM   33  C3  UNL     1       5.992   0.362   3.616  1.00  0.00     0.042 C 
ENDBRANCH  29  30
ENDBRANCH  28  29
ENDBRANCH   1  28
BRANCH  20  34
HETATM   34  O2  UNL     1      -2.844   1.137   2.018  1.00  0.00    -0.388 OA
HETATM   35  H37 UNL     1      -2.537   0.723   2.845  1.00  0.00     0.210 HD
ENDBRANCH  20  34
TORSDOF 4
