REMARK  4 active torsions:
REMARK  status: ('A' for Active; 'I' for Inactive)
REMARK    1  A    between atoms: C2_2  and  C4_4 
REMARK    2  A    between atoms: C4_4  and  C5_5 
REMARK    3  A    between atoms: C5_5  and  O1_6 
REMARK    4  A    between atoms: C8_9  and  C9_10 
ROOT
HETATM    1  C9  UNL     1      -1.567   1.182   0.206  1.00  0.00     0.001 C 
HETATM    2  C10 UNL     1      -1.257   2.060   1.447  1.00  0.00     0.007 C 
HETATM    3  C11 UNL     1       0.230   1.853   1.785  1.00  0.00     0.011 C 
HETATM    4  C12 UNL     1       0.835   1.160   0.548  1.00  0.00    -0.032 C 
HETATM    5  C13 UNL     1       1.174   2.292  -0.473  1.00  0.00     0.016 C 
HETATM    6  C14 UNL     1       2.094   0.304   0.841  1.00  0.00     0.004 C 
HETATM    7  C15 UNL     1       3.337   1.129   1.196  1.00  0.00     0.007 C 
HETATM    8  C16 UNL     1       4.479   0.195   1.574  1.00  0.00     0.007 C 
HETATM    9  C17 UNL     1       5.026  -0.568   0.350  1.00  0.00     0.010 C 
HETATM   10  C18 UNL     1       6.076   0.230  -0.524  1.00  0.00     0.018 C 
HETATM   11  C19 UNL     1       7.305  -0.658  -0.838  1.00  0.00     0.023 C 
HETATM   12  C20 UNL     1       6.652   1.492   0.157  1.00  0.00     0.023 C 
HETATM   13  C21 UNL     1       5.442   0.639  -1.861  1.00  0.00     0.135 C 
HETATM   14  O2  UNL     1       5.496   1.794  -2.290  1.00  0.00    -0.297 OA
HETATM   15  C22 UNL     1       4.804  -0.440  -2.707  1.00  0.00     0.080 C 
HETATM   16  C23 UNL     1       4.332  -1.618  -1.875  1.00  0.00     0.018 C 
HETATM   17  C24 UNL     1       3.871  -1.167  -0.504  1.00  0.00    -0.026 A 
HETATM   18  C25 UNL     1       2.889  -2.080   0.183  1.00  0.00     0.021 A 
HETATM   19  C26 UNL     1       2.394  -0.718  -0.283  1.00  0.00    -0.027 A 
HETATM   20  C27 UNL     1       1.451  -0.717  -1.496  1.00  0.00     0.011 C 
HETATM   21  C28 UNL     1      -0.026  -0.341  -1.273  1.00  0.00     0.011 C 
HETATM   22  C29 UNL     1      -0.345   0.213   0.120  1.00  0.00    -0.032 C 
HETATM   23  C30 UNL     1      -0.552  -1.001   1.066  1.00  0.00     0.016 C 
ENDROOT
BRANCH   1  24
HETATM   24  C8  UNL     1      -3.037   0.691   0.141  1.00  0.00     0.014 C 
HETATM   25  C7  UNL     1      -3.629   0.081   1.423  1.00  0.00     0.010 C 
HETATM   26  C6  UNL     1      -4.577  -1.078   1.122  1.00  0.00     0.041 C 
HETATM   27  C4  UNL     1      -5.500  -0.806  -0.092  1.00  0.00     0.085 C 
HETATM   28  O3  UNL     1      -4.738  -0.378  -1.248  1.00  0.00    -0.377 OA
HETATM   29  C31 UNL     1      -3.334  -0.200  -1.067  1.00  0.00     0.174 C 
BRANCH  27  30
HETATM   30  C2  UNL     1      -6.531   0.345   0.196  1.00  0.00     0.014 C 
HETATM   31  C1  UNL     1      -7.407   0.149   1.437  1.00  0.00     0.012 C 
HETATM   32  C3  UNL     1      -7.438   0.654  -1.007  1.00  0.00     0.012 C 
ENDBRANCH  27  30
BRANCH  27  33
HETATM   33  C5  UNL     1      -6.178  -2.137  -0.517  1.00  0.00     0.202 C 
BRANCH  33  34
HETATM   34  O1  UNL     1      -6.914  -2.769   0.523  1.00  0.00    -0.398 OA
HETATM   35  H10 UNL     1      -6.275  -3.186   1.124  1.00  0.00     0.209 HD
ENDBRANCH  33  34
ENDBRANCH  27  33
ENDBRANCH   1  24
TORSDOF 4
