REMARK  7 active torsions:
REMARK  status: ('A' for Active; 'I' for Inactive)
REMARK    1  A    between atoms: C2_2  and  C3_3 
REMARK    2  A    between atoms: C2_2  and  C9_11 
REMARK    3  A    between atoms: C3_3  and  C4_4 
REMARK    4  A    between atoms: C5_5  and  C6_6 
REMARK    5  A    between atoms: C6_6  and  O1_9 
REMARK    6  A    between atoms: O1_9  and  O2_10 
REMARK    7  A    between atoms: C10_12  and  O3_13 
ROOT
HETATM    1  C9  UNL     1       1.744  -0.607  -0.645  1.00  0.00     0.028 C 
HETATM    2  C10 UNL     1       1.576  -0.467  -2.194  1.00  0.00     0.124 C 
HETATM    3  C11 UNL     1       0.068  -0.329  -2.488  1.00  0.00     0.046 C 
HETATM    4  C12 UNL     1      -0.624  -0.780  -1.186  1.00  0.00    -0.010 C 
HETATM    5  C13 UNL     1      -0.664  -2.342  -1.212  1.00  0.00     0.021 C 
HETATM    6  C14 UNL     1      -2.068  -0.334  -0.956  1.00  0.00    -0.070 C 
HETATM    7  C15 UNL     1      -2.948  -0.225  -1.973  1.00  0.00    -0.022 C 
HETATM    8  C16 UNL     1      -4.405   0.111  -1.811  1.00  0.00     0.034 C 
HETATM    9  C17 UNL     1      -4.735   0.579  -0.384  1.00  0.00     0.013 C 
HETATM   10  C18 UNL     1      -6.225   0.963  -0.117  1.00  0.00     0.018 C 
HETATM   11  C19 UNL     1      -6.692   2.025  -1.136  1.00  0.00     0.023 C 
HETATM   12  C20 UNL     1      -7.213  -0.209  -0.158  1.00  0.00     0.023 C 
HETATM   13  C21 UNL     1      -6.309   1.600   1.282  1.00  0.00     0.135 C 
HETATM   14  O4  UNL     1      -7.305   2.220   1.659  1.00  0.00    -0.297 OA
HETATM   15  C22 UNL     1      -5.107   1.458   2.194  1.00  0.00     0.080 C 
HETATM   16  C23 UNL     1      -4.564   0.039   2.112  1.00  0.00     0.017 C 
HETATM   17  C24 UNL     1      -4.057  -0.356   0.693  1.00  0.00    -0.031 C 
HETATM   18  C25 UNL     1      -4.366  -1.865   0.498  1.00  0.00     0.016 C 
HETATM   19  C26 UNL     1      -2.499  -0.118   0.511  1.00  0.00     0.024 C 
HETATM   20  C27 UNL     1      -1.586  -0.879   1.503  1.00  0.00     0.010 C 
HETATM   21  C28 UNL     1      -0.064  -0.700   1.281  1.00  0.00     0.011 C 
HETATM   22  C29 UNL     1       0.334  -0.159  -0.110  1.00  0.00    -0.026 C 
HETATM   23  C30 UNL     1       0.301   1.404  -0.079  1.00  0.00     0.016 C 
ENDROOT
BRANCH   1  24
HETATM   24  C2  UNL     1       3.019   0.124  -0.099  1.00  0.00    -0.008 C 
HETATM   25  C1  UNL     1       3.165  -0.055   1.420  1.00  0.00     0.011 C 
BRANCH  24  26
HETATM   26  C3  UNL     1       4.305  -0.373  -0.812  1.00  0.00     0.031 C 
BRANCH  26  27
HETATM   27  C4  UNL     1       5.550   0.365  -0.404  1.00  0.00    -0.027 C 
HETATM   28  C5  UNL     1       6.628  -0.217   0.151  1.00  0.00     0.009 C 
BRANCH  28  29
HETATM   29  C6  UNL     1       7.913   0.472   0.581  1.00  0.00     0.106 C 
HETATM   30  C7  UNL     1       9.041   0.017  -0.355  1.00  0.00     0.053 C 
HETATM   31  C8  UNL     1       8.283   0.095   2.023  1.00  0.00     0.053 C 
BRANCH  29  32
HETATM   32  O1  UNL     1       7.845   1.906   0.429  1.00  0.00    -0.229 OA
BRANCH  32  33
HETATM   33  O2  UNL     1       6.967   2.439   1.470  1.00  0.00    -0.249 OA
HETATM   34  H15 UNL     1       7.630   3.023   1.879  1.00  0.00     0.253 HD
ENDBRANCH  32  33
ENDBRANCH  29  32
ENDBRANCH  28  29
ENDBRANCH  26  27
ENDBRANCH  24  26
ENDBRANCH   1  24
BRANCH   2  35
HETATM   35  O3  UNL     1       2.049  -1.634  -2.861  1.00  0.00    -0.395 OA
HETATM   36  H18 UNL     1       2.991  -1.749  -2.659  1.00  0.00     0.210 HD
ENDBRANCH   2  35
TORSDOF 7
