REMARK  10 active torsions:
REMARK  status: ('A' for Active; 'I' for Inactive)
REMARK    1  A    between atoms: C2_2  and  C3_3 
REMARK    2  A    between atoms: C2_2  and  C9_11 
REMARK    3  A    between atoms: C3_3  and  C4_4 
REMARK    4  A    between atoms: C4_4  and  C5_5 
REMARK    5  A    between atoms: C5_5  and  O1_6 
REMARK    6  A    between atoms: C5_5  and  C6_7 
REMARK    7  A    between atoms: C6_7  and  O2_10 
REMARK    8  A    between atoms: C12_14  and  C13_15 
REMARK    9  A    between atoms: C13_15  and  O4_17 
REMARK   10  A    between atoms: C21_25  and  O5_26 
ROOT
HETATM    1  C9  UNL     1      -1.838  -0.184   0.849  1.00  0.00    -0.001 C 
HETATM    2  C10 UNL     1      -1.649  -1.716   1.018  1.00  0.00     0.007 C 
HETATM    3  C11 UNL     1      -0.192  -2.035   0.595  1.00  0.00     0.022 C 
HETATM    4  C12 UNL     1       0.501  -0.657   0.513  1.00  0.00     0.057 C 
HETATM    5  C14 UNL     1       1.771  -0.530  -0.375  1.00  0.00     0.010 C 
HETATM    6  C15 UNL     1       2.917  -1.488  -0.006  1.00  0.00     0.010 C 
HETATM    7  C16 UNL     1       4.036  -0.902   0.858  1.00  0.00     0.036 C 
HETATM    8  C17 UNL     1       5.087  -0.083   0.117  1.00  0.00    -0.067 C 
HETATM    9  C18 UNL     1       4.797   0.748  -0.916  1.00  0.00    -0.076 C 
HETATM   10  C19 UNL     1       5.874   1.452  -1.729  1.00  0.00     0.037 C 
HETATM   11  C20 UNL     1       7.302   1.004  -1.450  1.00  0.00     0.037 C 
HETATM   12  C21 UNL     1       7.521   0.784   0.038  1.00  0.00     0.130 C 
HETATM   13  C22 UNL     1       6.547  -0.294   0.614  1.00  0.00     0.002 C 
HETATM   14  C23 UNL     1       6.633  -0.229   2.159  1.00  0.00     0.022 C 
HETATM   15  C24 UNL     1       7.032  -1.689   0.153  1.00  0.00     0.022 C 
HETATM   16  C25 UNL     1       3.409   1.142  -1.410  1.00  0.00     0.039 C 
HETATM   17  C26 UNL     1       2.209   0.959  -0.460  1.00  0.00    -0.005 C 
HETATM   18  C27 UNL     1       1.051   1.893  -0.905  1.00  0.00     0.006 C 
HETATM   19  C28 UNL     1      -0.278   1.686  -0.158  1.00  0.00     0.011 C 
HETATM   20  C29 UNL     1      -0.673   0.201  -0.109  1.00  0.00    -0.022 C 
HETATM   21  C30 UNL     1      -1.050  -0.202  -1.571  1.00  0.00     0.017 C 
ENDROOT
BRANCH   1  22
HETATM   22  C2  UNL     1      -3.272   0.331   0.520  1.00  0.00    -0.014 C 
HETATM   23  C1  UNL     1      -4.000   0.659   1.835  1.00  0.00     0.010 C 
BRANCH  22  24
HETATM   24  C3  UNL     1      -4.142  -0.619  -0.337  1.00  0.00     0.007 C 
BRANCH  24  25
HETATM   25  C4  UNL     1      -5.454   0.017  -0.846  1.00  0.00     0.035 C 
BRANCH  25  26
HETATM   26  C5  UNL     1      -6.706  -0.498  -0.108  1.00  0.00     0.151 C 
BRANCH  26  27
HETATM   27  O1  UNL     1      -6.784  -1.923  -0.294  1.00  0.00    -0.393 OA
HETATM   28  H10 UNL     1      -6.706  -2.078  -1.252  1.00  0.00     0.210 HD
ENDBRANCH  26  27
BRANCH  26  29
HETATM   29  C6  UNL     1      -8.045   0.132  -0.589  1.00  0.00     0.076 C 
HETATM   30  C7  UNL     1      -8.026   1.661  -0.555  1.00  0.00     0.048 C 
HETATM   31  C8  UNL     1      -9.217  -0.378   0.263  1.00  0.00     0.048 C 
BRANCH  29  32
HETATM   32  O2  UNL     1      -8.283  -0.263  -1.950  1.00  0.00    -0.388 OA
HETATM   33  H17 UNL     1      -8.616  -1.178  -1.927  1.00  0.00     0.210 HD
ENDBRANCH  29  32
ENDBRANCH  26  29
ENDBRANCH  25  26
ENDBRANCH  24  25
ENDBRANCH  22  24
ENDBRANCH   1  22
BRANCH   4  34
HETATM   34  C13 UNL     1       0.886  -0.252   1.965  1.00  0.00     0.149 C 
HETATM   35  O3  UNL     1       0.823   0.853   2.477  1.00  0.00    -0.649 OA
BRANCH  34  36
HETATM   36  O4  UNL     1       1.391  -1.265   2.700  1.00  0.00    -0.776 OA
HETATM   37  H23 UNL     1       1.593  -0.844   3.562  1.00  0.00     0.167 HD
ENDBRANCH  34  36
ENDBRANCH   4  34
BRANCH  12  38
HETATM   38  O5  UNL     1       7.388   2.039   0.717  1.00  0.00    -0.394 OA
HETATM   39  H34 UNL     1       6.441   2.270   0.718  1.00  0.00     0.210 HD
ENDBRANCH  12  38
TORSDOF 10
