REMARK  0 active torsions:
REMARK  status: ('A' for Active; 'I' for Inactive)
ROOT
HETATM    1  C1  UNL     1       2.253  -0.196  -0.619  1.00  0.00     0.001 A 
HETATM    2  C2  UNL     1       1.828  -1.453  -0.213  1.00  0.00     0.001 A 
HETATM    3  C3  UNL     1       0.515  -1.633   0.217  1.00  0.00     0.008 A 
HETATM    4  C4  UNL     1      -0.404  -0.562   0.259  1.00  0.00    -0.041 A 
HETATM    5  C5  UNL     1       0.022   0.716  -0.181  1.00  0.00    -0.041 A 
HETATM    6  C6  UNL     1       1.362   0.875  -0.600  1.00  0.00     0.008 A 
HETATM    7  C7  UNL     1      -0.824   1.978  -0.170  1.00  0.00     0.125 C 
HETATM    8  S1  UNL     1      -2.609   1.726  -0.245  1.00  0.00    -0.093 SA
HETATM    9  S2  UNL     1      -2.796   0.458   1.348  1.00  0.00    -0.093 SA
HETATM   10  C8  UNL     1      -1.813  -0.913   0.708  1.00  0.00     0.125 C 
ENDROOT
TORSDOF 0
