REMARK  4 active torsions:
REMARK  status: ('A' for Active; 'I' for Inactive)
REMARK    1  A    between atoms: C4_4  and  O1_5 
REMARK    2  A    between atoms: C5_6  and  O2_7 
REMARK    3  A    between atoms: C8_11  and  C9_12 
REMARK    4  A    between atoms: C22_26  and  C23_27 
ROOT
HETATM    1  C1  UNL     1       6.558   2.089  -2.519  1.00  0.00     0.040 C 
HETATM    2  C2  UNL     1       6.555   1.065  -1.392  1.00  0.00     0.123 C 
HETATM    3  C3  UNL     1       6.237  -0.329  -1.925  1.00  0.00     0.069 C 
HETATM    4  C4  UNL     1       6.205  -1.317  -0.768  1.00  0.00     0.188 C 
HETATM    5  C5  UNL     1       5.220  -0.878   0.336  1.00  0.00     0.240 C 
HETATM    6  O3  UNL     1       3.880  -1.052  -0.174  1.00  0.00    -0.341 OA
HETATM    7  C6  UNL     1       2.916  -0.535   0.765  1.00  0.00     0.156 C 
HETATM    8  C7  UNL     1       1.517  -0.732   0.172  1.00  0.00     0.056 C 
HETATM    9  C8  UNL     1       0.371  -0.121   1.024  1.00  0.00     0.043 C 
HETATM   10  C10 UNL     1       0.739   1.292   1.487  1.00  0.00    -0.065 C 
HETATM   11  C11 UNL     1      -0.118   2.329   1.424  1.00  0.00    -0.022 C 
HETATM   12  C12 UNL     1      -1.525   2.246   0.914  1.00  0.00     0.035 C 
HETATM   13  C13 UNL     1      -2.035   0.808   0.809  1.00  0.00     0.030 C 
HETATM   14  C14 UNL     1      -0.958  -0.132   0.183  1.00  0.00     0.012 C 
HETATM   15  C15 UNL     1      -1.500  -1.571  -0.113  1.00  0.00     0.007 C 
HETATM   16  C16 UNL     1      -2.895  -1.629  -0.787  1.00  0.00     0.016 C 
HETATM   17  C17 UNL     1      -3.876  -0.753  -0.004  1.00  0.00     0.023 C 
HETATM   18  C18 UNL     1      -4.231  -1.418   1.345  1.00  0.00     0.022 C 
HETATM   19  C19 UNL     1      -3.274   0.705  -0.044  1.00  0.00     0.077 C 
HETATM   20  C20 UNL     1      -3.275   1.269  -1.471  1.00  0.00     0.042 C 
HETATM   21  C21 UNL     1      -4.661   0.790  -1.885  1.00  0.00     0.047 C 
HETATM   22  C22 UNL     1      -5.063   0.149  -0.559  1.00  0.00     0.098 C 
HETATM   23  O7  UNL     1      -4.584   1.143   0.513  1.00  0.00    -0.362 OA
HETATM   24  C27 UNL     1       2.144   1.490   2.018  1.00  0.00     0.069 C 
HETATM   25  C28 UNL     1       3.186   0.951   1.040  1.00  0.00     0.158 C 
HETATM   26  O8  UNL     1       4.494   1.131   1.602  1.00  0.00    -0.347 OA
HETATM   27  C29 UNL     1       5.500   0.618   0.707  1.00  0.00     0.325 C 
HETATM   28  O9  UNL     1       5.566   1.469  -0.446  1.00  0.00    -0.351 OA
ENDROOT
BRANCH  22  29
HETATM   29  C23 UNL     1      -6.438  -0.320  -0.444  1.00  0.00    -0.015 A 
HETATM   30  C24 UNL     1      -6.942  -1.360  -1.099  1.00  0.00     0.090 A 
HETATM   31  C25 UNL     1      -8.346  -1.444  -0.699  1.00  0.00     0.283 A 
HETATM   32  O5  UNL     1      -9.132  -2.276  -1.110  1.00  0.00    -0.260 OA
HETATM   33  O6  UNL     1      -8.624  -0.450   0.190  1.00  0.00    -0.314 OA
HETATM   34  C26 UNL     1      -7.445   0.327   0.412  1.00  0.00     0.216 A 
ENDBRANCH  22  29
BRANCH   9  35
HETATM   35  C9  UNL     1       0.164  -0.928   2.315  1.00  0.00     0.245 C 
HETATM   36  O4  UNL     1       0.778  -1.951   2.601  1.00  0.00    -0.306 OA
ENDBRANCH   9  35
BRANCH   5  37
HETATM   37  O2  UNL     1       5.391  -1.748   1.456  1.00  0.00    -0.360 OA
HETATM   38  H9  UNL     1       5.494  -2.639   1.073  1.00  0.00     0.213 HD
ENDBRANCH   5  37
BRANCH   4  39
HETATM   39  O1  UNL     1       5.837  -2.618  -1.254  1.00  0.00    -0.390 OA
HETATM   40  H8  UNL     1       4.872  -2.574  -1.417  1.00  0.00     0.210 HD
ENDBRANCH   4  39
TORSDOF 4
