REMARK  12 active torsions:
REMARK  status: ('A' for Active; 'I' for Inactive)
REMARK    1  A    between atoms: C2_2  and  C3_3 
REMARK    2  A    between atoms: C5_5  and  S1_6 
REMARK    3  A    between atoms: C14_18  and  C15_19 
REMARK    4  A    between atoms: C15_19  and  O4_20 
REMARK    5  A    between atoms: C21_26  and  O5_27 
REMARK    6  A    between atoms: C33_40  and  C34_41 
REMARK    7  A    between atoms: C33_40  and  N1_52 
REMARK    8  A    between atoms: C34_41  and  C35_42 
REMARK    9  A    between atoms: C35_42  and  C36_43 
REMARK   10  A    between atoms: C35_42  and  C37_45 
REMARK   11  A    between atoms: C36_43  and  O7_44 
REMARK   12  A    between atoms: C37_45  and  C38_46 
REMARK       I    between atoms: C44_54  and  N2_55 
REMARK       I    between atoms: C44_54  and  N3_56 
ROOT
HETATM    1  C3  UNL     1       0.363  -4.337  -1.897  1.00  0.00     0.019 C 
HETATM    2  C4  UNL     1       1.404  -3.236  -1.518  1.00  0.00     0.033 C 
HETATM    3  C5  UNL     1       1.395  -2.786  -0.034  1.00  0.00     0.139 C 
HETATM    4  C6  UNL     1       2.029  -1.385   0.251  1.00  0.00     0.038 C 
HETATM    5  C7  UNL     1       3.507  -1.232  -0.085  1.00  0.00    -0.014 C 
HETATM    6  C8  UNL     1       4.076  -0.028   0.139  1.00  0.00    -0.050 C 
HETATM    7  C9  UNL     1       3.186   1.033   0.736  1.00  0.00     0.042 C 
HETATM    8  C10 UNL     1       2.107   1.202  -0.335  1.00  0.00     0.001 C 
HETATM    9  C11 UNL     1       2.744   1.530  -1.737  1.00  0.00     0.037 C 
HETATM   10  C12 UNL     1       4.108   2.273  -1.791  1.00  0.00     0.123 C 
HETATM   11  C13 UNL     1       3.906   3.788  -1.545  1.00  0.00     0.039 C 
HETATM   12  C14 UNL     1       5.120   4.757  -1.668  1.00  0.00     0.023 C 
HETATM   13  C16 UNL     1       5.957   4.969  -0.378  1.00  0.00     0.101 C 
HETATM   14  C17 UNL     1       6.674   3.798   0.128  1.00  0.00    -0.101 C 
HETATM   15  C18 UNL     1       7.102   2.730   0.480  1.00  0.00    -0.066 C 
HETATM   16  C19 UNL     1       7.395   1.358   0.778  1.00  0.00     0.029 A 
HETATM   17  C20 UNL     1       8.517   1.089   1.572  1.00  0.00     0.057 A 
HETATM   18  C21 UNL     1       8.839  -0.221   1.906  1.00  0.00     0.067 A 
HETATM   19  C22 UNL     1       8.067  -1.280   1.450  1.00  0.00     0.037 A 
HETATM   20  C23 UNL     1       6.950  -1.020   0.654  1.00  0.00     0.014 A 
HETATM   21  C24 UNL     1       6.578   0.299   0.308  1.00  0.00    -0.006 A 
HETATM   22  C25 UNL     1       5.320   0.470  -0.557  1.00  0.00     0.185 C 
HETATM   23  O6  UNL     1       5.100   1.839  -0.879  1.00  0.00    -0.371 OA
HETATM   24  C26 UNL     1       1.284  -0.156  -0.444  1.00  0.00     0.030 C 
HETATM   25  C27 UNL     1      -0.183   0.039  -0.087  1.00  0.00    -0.057 C 
HETATM   26  C28 UNL     1      -0.735  -0.387   1.120  1.00  0.00     0.092 A 
HETATM   27  C29 UNL     1      -2.120  -0.520   1.247  1.00  0.00     0.096 A 
HETATM   28  C30 UNL     1      -2.989  -0.193   0.188  1.00  0.00    -0.007 C 
HETATM   29  C31 UNL     1      -2.429   0.433  -0.939  1.00  0.00     0.010 C 
HETATM   30  C32 UNL     1      -1.044   0.542  -1.074  1.00  0.00     0.005 C 
HETATM   31  C33 UNL     1      -4.442  -0.735   0.175  1.00  0.00     0.169 C 
HETATM   32  O8  UNL     1      -4.600  -1.768  -0.884  1.00  0.00    -0.316 OA
HETATM   33  C45 UNL     1      -3.508  -2.550  -1.161  1.00  0.00     0.072 C 
HETATM   34  C46 UNL     1      -2.922  -2.405  -2.418  1.00  0.00     0.037 C 
HETATM   35  C47 UNL     1      -1.687  -3.002  -2.687  1.00  0.00     0.010 C 
HETATM   36  C48 UNL     1      -1.063  -3.811  -1.728  1.00  0.00    -0.054 C 
HETATM   37  C49 UNL     1      -1.745  -4.062  -0.525  1.00  0.00     0.010 C 
HETATM   38  C50 UNL     1      -2.956  -3.428  -0.236  1.00  0.00     0.037 C 
HETATM   39 NA1  UNL     1       0.000   0.000   0.000  1.00  0.00    -0.355 Na
ATOM     40 1HA1 UNL     1       0.704  -0.052  -0.736  1.00  0.00     0.103 HD
ATOM     41 2HA1 UNL     1       0.664   0.535  -0.560  1.00  0.00     0.103 HD
ENDROOT
BRANCH  31  42
HETATM   42  C34 UNL     1      -5.463   0.358  -0.303  1.00  0.00     0.074 C 
BRANCH  42  43
HETATM   43  C35 UNL     1      -5.801   1.634   0.520  1.00  0.00     0.018 C 
BRANCH  43  44
HETATM   44  C36 UNL     1      -4.677   2.677   0.592  1.00  0.00     0.169 C 
BRANCH  44  45
HETATM   45  O7  UNL     1      -3.835   2.534   1.721  1.00  0.00    -0.400 OA
HETATM   46  H41 UNL     1      -3.165   1.857   1.520  1.00  0.00     0.209 HD
ENDBRANCH  44  45
ENDBRANCH  43  44
BRANCH  43  47
HETATM   47  C37 UNL     1      -6.446   1.331   1.888  1.00  0.00     0.045 C 
BRANCH  47  48
HETATM   48  C38 UNL     1      -7.333   2.455   2.380  1.00  0.00    -0.058 A 
HETATM   49  C39 UNL     1      -8.674   2.529   1.976  1.00  0.00     0.007 A 
HETATM   50  C40 UNL     1      -9.490   3.572   2.418  1.00  0.00     0.001 A 
HETATM   51  C41 UNL     1      -8.973   4.551   3.264  1.00  0.00     0.000 A 
HETATM   52  C42 UNL     1      -7.641   4.485   3.672  1.00  0.00     0.001 A 
HETATM   53  C43 UNL     1      -6.823   3.444   3.230  1.00  0.00     0.007 A 
ENDBRANCH  47  48
ENDBRANCH  43  47
ENDBRANCH  42  43
ENDBRANCH  31  42
BRANCH  31  54
HETATM   54  N1  UNL     1      -4.870  -1.111   1.533  1.00  0.00    -0.336 N 
HETATM   55  C44 UNL     1      -5.627  -2.104   1.776  1.00  0.00     0.124 C 
HETATM   56  N2  UNL     1      -5.981  -2.369   3.054  1.00  0.00    -0.279 NA
HETATM   57  N3  UNL     1      -6.169  -3.023   0.956  1.00  0.00    -0.279 NA
HETATM   58  H49 UNL     1      -5.843  -3.349   3.282  1.00  0.00     0.126 HD
HETATM   59  H50 UNL     1      -5.437  -1.788   3.686  1.00  0.00     0.126 HD
HETATM   60  H51 UNL     1      -7.109  -3.302   1.196  1.00  0.00     0.126 HD
HETATM   61  H52 UNL     1      -6.032  -2.839  -0.037  1.00  0.00     0.126 HD
ATOM     62  H1  UNL     1      -4.543  -0.547   2.318  1.00  0.00     0.165 HD
ENDBRANCH  31  54
BRANCH   1  63
HETATM   63  C2  UNL     1       0.671  -4.865  -3.319  1.00  0.00     0.005 C 
HETATM   64  C1  UNL     1      -0.195  -6.054  -3.719  1.00  0.00     0.006 C 
ENDBRANCH   1  63
BRANCH   3  65
HETATM   65  S1  UNL     1       2.137  -4.047   1.056  1.00  0.00     0.106 S 
HETATM   66  O1  UNL     1       1.213  -5.181   0.985  1.00  0.00    -0.595 OA
HETATM   67  O2  UNL     1       3.450  -4.306   0.466  1.00  0.00    -0.595 OA
HETATM   68  O3  UNL     1       2.170  -3.412   2.373  1.00  0.00    -0.595 OA
ENDBRANCH   3  65
BRANCH  12  69
HETATM   69  C15 UNL     1       5.974   4.570  -2.931  1.00  0.00     0.169 C 
BRANCH  69  70
HETATM   70  O4  UNL     1       6.711   3.366  -2.946  1.00  0.00    -0.400 OA
HETATM   71  H23 UNL     1       7.419   3.447  -3.603  1.00  0.00     0.209 HD
ENDBRANCH  69  70
ENDBRANCH  12  69
BRANCH  18  72
HETATM   72  O5  UNL     1       9.922  -0.433   2.707  1.00  0.00    -0.361 OA
HETATM   73  H27 UNL     1       9.970  -1.387   2.890  1.00  0.00     0.217 HD
ENDBRANCH  18  72
TORSDOF 12
