REMARK  11 active torsions:
REMARK  status: ('A' for Active; 'I' for Inactive)
REMARK    1  A    between atoms: C2_2  and  O1_4 
REMARK    2  A    between atoms: C2_2  and  C4_5 
REMARK    3  A    between atoms: C5_6  and  C6_7 
REMARK    4  A    between atoms: C6_7  and  C7_8 
REMARK    5  A    between atoms: C7_8  and  C8_9 
REMARK    6  A    between atoms: C7_8  and  C14_21 
REMARK    7  A    between atoms: C8_9  and  O3_11 
REMARK    8  A    between atoms: O3_11  and  C9_12 
REMARK    9  A    between atoms: C11_15  and  O5_16 
REMARK   10  A    between atoms: C12_17  and  O6_18 
REMARK   11  A    between atoms: C13_19  and  O7_20 
ROOT
HETATM    1  C7  UNL     1      -2.223   0.247  -1.928  1.00  0.00     0.094 C 
ENDROOT
BRANCH   1   2
HETATM    2  C6  UNL     1      -2.542  -1.261  -2.029  1.00  0.00     0.042 C 
BRANCH   2   3
HETATM    3  C5  UNL     1      -2.740  -2.004  -0.735  1.00  0.00    -0.027 C 
HETATM    4  C4  UNL     1      -3.913  -2.542  -0.357  1.00  0.00     0.006 C 
BRANCH   4   5
HETATM    5  C2  UNL     1      -4.179  -3.308   0.919  1.00  0.00     0.068 C 
HETATM    6  C1  UNL     1      -5.300  -2.630   1.712  1.00  0.00     0.050 C 
HETATM    7  C3  UNL     1      -4.546  -4.758   0.590  1.00  0.00     0.050 C 
BRANCH   5   8
HETATM    8  O1  UNL     1      -3.002  -3.311   1.725  1.00  0.00    -0.387 OA
HETATM    9  H7  UNL     1      -3.192  -3.836   2.521  1.00  0.00     0.211 HD
ENDBRANCH   5   8
ENDBRANCH   4   5
ENDBRANCH   2   3
ENDBRANCH   1   2
BRANCH   1  10
HETATM   10  C8  UNL     1      -3.003   0.926  -0.806  1.00  0.00     0.266 C 
HETATM   11  O2  UNL     1      -2.536   1.598   0.103  1.00  0.00    -0.265 OA
BRANCH  10  12
HETATM   12  O3  UNL     1      -4.343   0.727  -0.977  1.00  0.00    -0.287 OA
BRANCH  12  13
HETATM   13  C9  UNL     1      -5.161   1.172   0.118  1.00  0.00     0.300 C 
HETATM   14  O4  UNL     1      -6.450   0.569   0.001  1.00  0.00    -0.355 OA
HETATM   15  C10 UNL     1      -7.261   0.839   1.144  1.00  0.00     0.205 C 
HETATM   16  C11 UNL     1      -7.325   2.330   1.516  1.00  0.00     0.173 C 
HETATM   17  C12 UNL     1      -6.671   3.220   0.445  1.00  0.00     0.182 C 
HETATM   18  C13 UNL     1      -5.247   2.724   0.151  1.00  0.00     0.205 C 
BRANCH  16  19
HETATM   19  O5  UNL     1      -6.696   2.531   2.792  1.00  0.00    -0.391 OA
HETATM   20  H17 UNL     1      -5.754   2.759   2.649  1.00  0.00     0.210 HD
ENDBRANCH  16  19
BRANCH  17  21
HETATM   21  O6  UNL     1      -7.456   3.243  -0.753  1.00  0.00    -0.390 OA
HETATM   22  H19 UNL     1      -8.317   3.625  -0.521  1.00  0.00     0.210 HD
ENDBRANCH  17  21
BRANCH  18  23
HETATM   23  O7  UNL     1      -4.382   3.223   1.193  1.00  0.00    -0.388 OA
HETATM   24  H21 UNL     1      -3.486   2.871   0.987  1.00  0.00     0.210 HD
ENDBRANCH  18  23
ENDBRANCH  12  13
ENDBRANCH  10  12
ENDBRANCH   1  10
BRANCH   1  25
HETATM   25  C14 UNL     1      -0.716   0.601  -2.102  1.00  0.00     0.009 C 
HETATM   26  C15 UNL     1      -0.451   2.129  -2.228  1.00  0.00     0.007 C 
HETATM   27  C16 UNL     1       0.984   2.383  -1.728  1.00  0.00     0.015 C 
HETATM   28  C17 UNL     1       1.646   0.992  -1.700  1.00  0.00    -0.013 C 
HETATM   29  C18 UNL     1       2.129   0.684  -3.153  1.00  0.00     0.021 C 
HETATM   30  C19 UNL     1       2.880   0.772  -0.833  1.00  0.00    -0.068 C 
HETATM   31  C23 UNL     1       0.440   0.108  -1.177  1.00  0.00    -0.028 C 
HETATM   32  C20 UNL     1       3.147  -0.460  -0.327  1.00  0.00    -0.068 C 
HETATM   33  C35 UNL     1       3.795   1.958  -0.656  1.00  0.00     0.036 C 
HETATM   34  C21 UNL     1       2.193  -1.640  -0.568  1.00  0.00     0.036 C 
HETATM   35  C25 UNL     1       4.400  -0.737   0.542  1.00  0.00    -0.015 C 
HETATM   36  C22 UNL     1       0.873  -1.354  -1.323  1.00  0.00     0.015 C 
HETATM   37  C26 UNL     1       3.937  -0.719   2.016  1.00  0.00     0.020 C 
HETATM   38  C27 UNL     1       5.025  -2.107   0.189  1.00  0.00     0.021 C 
HETATM   39  C33 UNL     1       5.512   0.322   0.236  1.00  0.00     0.013 C 
HETATM   40  C28 UNL     1       6.311  -2.447   0.925  1.00  0.00     0.080 C 
HETATM   41  C29 UNL     1       7.034  -1.292   1.573  1.00  0.00     0.135 C 
HETATM   42  O8  UNL     1       7.830  -1.534   2.488  1.00  0.00    -0.297 OA
HETATM   43  C30 UNL     1       6.861   0.128   1.016  1.00  0.00     0.018 C 
HETATM   44  C31 UNL     1       8.044   0.344   0.045  1.00  0.00     0.023 C 
HETATM   45  C32 UNL     1       7.033   1.117   2.194  1.00  0.00     0.023 C 
HETATM   46  C34 UNL     1       4.946   1.746   0.321  1.00  0.00     0.011 C 
HETATM   47  C24 UNL     1       0.098   0.372   0.321  1.00  0.00     0.016 C 
ENDBRANCH   1  25
TORSDOF 11
