REMARK  13 active torsions:
REMARK  status: ('A' for Active; 'I' for Inactive)
REMARK    1  A    between atoms: C2_2  and  C4_4 
REMARK    2  A    between atoms: C5_6  and  C6_7 
REMARK    3  A    between atoms: C7_8  and  C8_9 
REMARK    4  A    between atoms: C9_10  and  C10_11 
REMARK    5  A    between atoms: C11_12  and  C12_13 
REMARK    6  A    between atoms: C12_13  and  C13_14 
REMARK    7  A    between atoms: C18_21  and  C19_22 
REMARK    8  A    between atoms: C19_22  and  O4_23 
REMARK    9  A    between atoms: C20_24  and  O5_25 
REMARK   10  A    between atoms: C21_26  and  O6_27 
REMARK   11  A    between atoms: C30_38  and  O9_39 
REMARK   12  A    between atoms: O9_39  and  C31_40 
REMARK   13  A    between atoms: C31_40  and  C32_41 
ROOT
HETATM    1  C4  UNL     1      -0.222   2.030   0.314  1.00  0.00     0.142 C 
HETATM    2  O1  UNL     1       0.043   2.085  -1.110  1.00  0.00    -0.308 OA
HETATM    3  C5  UNL     1       0.501   0.783  -1.435  1.00  0.00     0.306 C 
HETATM    4  O2  UNL     1       1.228   0.319  -0.314  1.00  0.00    -0.320 OA
HETATM    5  C15 UNL     1       0.313   0.641   0.741  1.00  0.00     0.179 C 
HETATM    6  C16 UNL     1      -0.747  -0.483   0.702  1.00  0.00     0.086 C 
HETATM    7  C17 UNL     1      -0.060  -1.814   0.944  1.00  0.00     0.172 A 
HETATM    8  O3  UNL     1      -0.025  -2.736  -0.142  1.00  0.00    -0.363 OA
HETATM    9  C18 UNL     1      -0.751  -3.177   1.023  1.00  0.00     0.138 A 
HETATM   10  C20 UNL     1      -2.245  -3.394   0.812  1.00  0.00     0.200 C 
HETATM   11  C21 UNL     1      -3.051  -2.271   0.130  1.00  0.00     0.161 C 
HETATM   12  C22 UNL     1      -4.297  -2.815  -0.565  1.00  0.00     0.192 C 
HETATM   13  O7  UNL     1      -5.069  -3.653  -0.121  1.00  0.00    -0.289 OA
HETATM   14  C23 UNL     1      -4.514  -2.155  -1.868  1.00  0.00    -0.016 C 
HETATM   15  C24 UNL     1      -5.720  -2.367  -2.694  1.00  0.00     0.052 C 
HETATM   16  C25 UNL     1      -3.413  -1.435  -2.101  1.00  0.00    -0.005 C 
HETATM   17  C26 UNL     1      -2.348  -1.553  -1.037  1.00  0.00     0.090 C 
HETATM   18  C27 UNL     1      -1.545  -0.272  -0.632  1.00  0.00     0.092 C 
HETATM   19  O8  UNL     1      -0.611  -0.066  -1.729  1.00  0.00    -0.316 OA
HETATM   20  C28 UNL     1      -2.452   1.031  -0.460  1.00  0.00     0.050 C 
HETATM   21  C29 UNL     1      -2.892   1.708  -1.774  1.00  0.00     0.016 C 
HETATM   22  C30 UNL     1      -1.766   2.109   0.456  1.00  0.00     0.170 C 
ENDROOT
BRANCH   3  23
HETATM   23  C6  UNL     1       1.328   0.879  -2.677  1.00  0.00     0.074 C 
HETATM   24  C7  UNL     1       2.499   0.321  -3.031  1.00  0.00     0.004 C 
BRANCH  24  25
HETATM   25  C8  UNL     1       3.291  -0.621  -2.274  1.00  0.00    -0.000 C 
HETATM   26  C9  UNL     1       4.471  -1.092  -2.706  1.00  0.00    -0.000 C 
BRANCH  26  27
HETATM   27  C10 UNL     1       5.258  -2.041  -1.950  1.00  0.00    -0.004 C 
HETATM   28  C11 UNL     1       6.440  -2.511  -2.375  1.00  0.00    -0.027 C 
BRANCH  28  29
HETATM   29  C12 UNL     1       7.267  -3.502  -1.605  1.00  0.00     0.027 C 
BRANCH  29  30
HETATM   30  C13 UNL     1       8.573  -2.911  -1.068  1.00  0.00    -0.001 C 
HETATM   31  C14 UNL     1       9.563  -2.525  -2.159  1.00  0.00     0.005 C 
ENDBRANCH  29  30
ENDBRANCH  28  29
ENDBRANCH  26  27
ENDBRANCH  24  25
ENDBRANCH   3  23
BRANCH   1  32
HETATM   32  C2  UNL     1       0.498   3.221   0.966  1.00  0.00    -0.054 C 
HETATM   33  C1  UNL     1       0.913   4.300   0.273  1.00  0.00     0.017 C 
HETATM   34  C3  UNL     1       0.738   3.175   2.453  1.00  0.00     0.046 C 
ENDBRANCH   1  32
BRANCH  22  35
HETATM   35  O9  UNL     1      -2.142   1.898   1.828  1.00  0.00    -0.377 OA
BRANCH  35  36
HETATM   36  C31 UNL     1      -3.426   2.431   2.166  1.00  0.00     0.207 C 
BRANCH  36  37
HETATM   37  C32 UNL     1      -3.307   3.871   2.598  1.00  0.00    -0.035 A 
HETATM   38  C33 UNL     1      -3.802   4.905   1.791  1.00  0.00     0.009 A 
HETATM   39  C34 UNL     1      -3.680   6.236   2.193  1.00  0.00     0.001 A 
HETATM   40  C35 UNL     1      -3.063   6.546   3.403  1.00  0.00     0.000 A 
HETATM   41  C36 UNL     1      -2.565   5.527   4.212  1.00  0.00     0.001 A 
HETATM   42  C37 UNL     1      -2.686   4.195   3.812  1.00  0.00     0.009 A 
ENDBRANCH  36  37
ENDBRANCH  35  36
ENDBRANCH  22  35
BRANCH  11  43
HETATM   43  O6  UNL     1      -3.549  -1.360   1.127  1.00  0.00    -0.378 OA
HETATM   44  H27 UNL     1      -3.819  -1.957   1.863  1.00  0.00     0.211 HD
ENDBRANCH  11  43
BRANCH   9  45
HETATM   45  C19 UNL     1      -0.019  -4.324   1.683  1.00  0.00     0.207 C 
BRANCH  45  46
HETATM   46  O4  UNL     1      -0.559  -4.547   2.982  1.00  0.00    -0.398 OA
HETATM   47  H24 UNL     1       0.019  -5.205   3.410  1.00  0.00     0.209 HD
ENDBRANCH  45  46
ENDBRANCH   9  45
BRANCH  10  48
HETATM   48  O5  UNL     1      -2.864  -3.585   2.108  1.00  0.00    -0.389 OA
HETATM   49  H26 UNL     1      -2.227  -4.085   2.663  1.00  0.00     0.210 HD
ENDBRANCH  10  48
TORSDOF 13
