REMARK  7 active torsions:
REMARK  status: ('A' for Active; 'I' for Inactive)
REMARK    1  A    between atoms: C2_2  and  C30_32 
REMARK    2  A    between atoms: C3_3  and  C4_4 
REMARK    3  A    between atoms: C4_4  and  O1_5 
REMARK    4  A    between atoms: C4_4  and  C5_6 
REMARK    5  A    between atoms: C5_6  and  C6_7 
REMARK    6  A    between atoms: C6_7  and  C8_9 
REMARK    7  A    between atoms: C30_32  and  O4_34 
ROOT
HETATM    1  C8  UNL     1       1.924  -0.443  -0.114  1.00  0.00    -0.002 C 
HETATM    2  C9  UNL     1       1.920  -1.375   1.141  1.00  0.00     0.007 C 
HETATM    3  C10 UNL     1       0.465  -1.470   1.646  1.00  0.00     0.015 C 
HETATM    4  C11 UNL     1      -0.373  -0.887   0.496  1.00  0.00    -0.013 C 
HETATM    5  C12 UNL     1      -0.529  -2.044  -0.555  1.00  0.00     0.021 C 
HETATM    6  C13 UNL     1      -1.799  -0.416   0.792  1.00  0.00    -0.070 C 
HETATM    7  C14 UNL     1      -2.626  -1.166   1.545  1.00  0.00    -0.022 C 
HETATM    8  C15 UNL     1      -4.115  -1.006   1.549  1.00  0.00     0.034 C 
HETATM    9  C16 UNL     1      -4.596  -0.322   0.250  1.00  0.00     0.013 C 
HETATM   10  C17 UNL     1      -6.156  -0.358   0.063  1.00  0.00     0.018 C 
HETATM   11  C18 UNL     1      -6.592  -1.818  -0.232  1.00  0.00     0.023 C 
HETATM   12  C19 UNL     1      -6.985   0.118   1.267  1.00  0.00     0.023 C 
HETATM   13  C20 UNL     1      -6.542   0.503  -1.149  1.00  0.00     0.135 C 
HETATM   14  O2  UNL     1      -7.374   0.142  -1.982  1.00  0.00    -0.297 OA
HETATM   15  C21 UNL     1      -5.911   1.868  -1.259  1.00  0.00     0.080 C 
HETATM   16  C22 UNL     1      -4.397   1.737  -1.216  1.00  0.00     0.017 C 
HETATM   17  C23 UNL     1      -3.870   1.058   0.072  1.00  0.00    -0.031 C 
HETATM   18  C24 UNL     1      -4.129   2.021   1.267  1.00  0.00     0.016 C 
HETATM   19  C25 UNL     1      -2.288   0.830   0.032  1.00  0.00     0.024 C 
HETATM   20  C26 UNL     1      -1.599   0.917  -1.347  1.00  0.00     0.010 C 
HETATM   21  C27 UNL     1      -0.046   0.875  -1.290  1.00  0.00     0.011 C 
HETATM   22  C28 UNL     1       0.547   0.292   0.016  1.00  0.00    -0.029 C 
HETATM   23  C29 UNL     1       0.721   1.428   1.076  1.00  0.00     0.016 C 
ENDROOT
BRANCH   1  24
HETATM   24  C6  UNL     1       3.249   0.374  -0.235  1.00  0.00    -0.011 C 
HETATM   25  C7  UNL     1       3.219   1.352  -1.414  1.00  0.00     0.010 C 
BRANCH  24  26
HETATM   26  C5  UNL     1       4.454  -0.603  -0.379  1.00  0.00     0.040 C 
BRANCH  26  27
HETATM   27  C4  UNL     1       5.844   0.060  -0.376  1.00  0.00     0.142 C 
BRANCH  27  28
HETATM   28  C3  UNL     1       6.945  -0.968  -0.457  1.00  0.00     0.018 C 
HETATM   29  C2  UNL     1       8.257  -0.786  -0.201  1.00  0.00     0.010 C 
HETATM   30  C1  UNL     1       9.261  -1.896  -0.237  1.00  0.00     0.055 C 
BRANCH  29  31
HETATM   31  C30 UNL     1       8.818   0.533   0.159  1.00  0.00     0.171 C 
HETATM   32  O3  UNL     1       9.585   0.746   1.079  1.00  0.00    -0.646 OA
BRANCH  31  33
HETATM   33  O4  UNL     1       8.452   1.491  -0.710  1.00  0.00    -0.773 OA
HETATM   34  H46 UNL     1       8.847   2.305  -0.338  1.00  0.00     0.167 HD
ENDBRANCH  31  33
ENDBRANCH  29  31
ENDBRANCH  27  28
BRANCH  27  35
HETATM   35  O1  UNL     1       5.986   0.816   0.821  1.00  0.00    -0.392 OA
HETATM   36  H6  UNL     1       6.020   0.188   1.562  1.00  0.00     0.210 HD
ENDBRANCH  27  35
ENDBRANCH  26  27
ENDBRANCH  24  26
ENDBRANCH   1  24
TORSDOF 7
