REMARK  12 active torsions:
REMARK  status: ('A' for Active; 'I' for Inactive)
REMARK    1  A    between atoms: C2_2  and  C3_3 
REMARK    2  A    between atoms: C2_2  and  C9_11 
REMARK    3  A    between atoms: C3_3  and  C4_4 
REMARK    4  A    between atoms: C4_4  and  C5_6 
REMARK    5  A    between atoms: C5_6  and  C6_7 
REMARK    6  A    between atoms: C6_7  and  O2_10 
REMARK    7  A    between atoms: C25_28  and  O4_29 
REMARK    8  A    between atoms: C27_31  and  O5_32 
REMARK    9  A    between atoms: O5_32  and  C28_33 
REMARK   10  A    between atoms: C30_36  and  O7_37 
REMARK   11  A    between atoms: C31_38  and  O8_39 
REMARK   12  A    between atoms: C32_40  and  O9_41 
ROOT
HETATM    1  C9  UNL     1      -4.079  -0.578  -0.691  1.00  0.00     0.068 C 
HETATM    2  C10 UNL     1      -4.082   0.875  -1.212  1.00  0.00     0.133 C 
HETATM    3  O3  UNL     1      -5.079   1.485  -1.582  1.00  0.00    -0.298 OA
HETATM    4  C11 UNL     1      -2.705   1.520  -1.206  1.00  0.00     0.089 C 
HETATM    5  C12 UNL     1      -1.801   0.331  -0.850  1.00  0.00    -0.022 C 
HETATM    6  C13 UNL     1      -1.466  -0.393  -2.193  1.00  0.00     0.017 C 
HETATM    7  C14 UNL     1      -0.490   0.714  -0.083  1.00  0.00     0.024 C 
HETATM    8  C15 UNL     1       0.565   1.492  -0.893  1.00  0.00     0.014 C 
HETATM    9  C16 UNL     1       1.622   0.694  -1.672  1.00  0.00     0.036 C 
HETATM   10  C17 UNL     1       2.725  -0.083  -0.946  1.00  0.00    -0.064 C 
HETATM   11  C18 UNL     1       2.627  -0.535   0.334  1.00  0.00    -0.044 C 
HETATM   12  C19 UNL     1       1.450  -0.278   1.256  1.00  0.00     0.071 C 
HETATM   13  C20 UNL     1       0.097  -0.495   0.623  1.00  0.00    -0.075 C 
HETATM   14  C21 UNL     1      -0.577  -1.655   0.777  1.00  0.00    -0.022 C 
HETATM   15  C22 UNL     1      -2.016  -1.870   0.363  1.00  0.00     0.038 C 
HETATM   16  C23 UNL     1      -2.734  -0.526   0.109  1.00  0.00    -0.022 C 
HETATM   17  C24 UNL     1      -2.985   0.169   1.493  1.00  0.00     0.017 C 
HETATM   18  C25 UNL     1       3.731  -1.334   1.013  1.00  0.00     0.150 C 
HETATM   19  C26 UNL     1       4.826  -1.849   0.092  1.00  0.00     0.069 C 
HETATM   20  C27 UNL     1       5.227  -0.791  -0.920  1.00  0.00     0.139 C 
HETATM   21  C33 UNL     1       4.000  -0.372  -1.805  1.00  0.00     0.003 C 
HETATM   22  C34 UNL     1       3.665  -1.516  -2.790  1.00  0.00     0.022 C 
HETATM   23  C35 UNL     1       4.452   0.849  -2.647  1.00  0.00     0.022 C 
ENDROOT
BRANCH  20  24
HETATM   24  O5  UNL     1       5.758   0.377  -0.275  1.00  0.00    -0.352 OA
BRANCH  24  25
HETATM   25  C28 UNL     1       7.054   0.209   0.304  1.00  0.00     0.291 C 
HETATM   26  O6  UNL     1       6.922  -0.064   1.698  1.00  0.00    -0.356 OA
HETATM   27  C29 UNL     1       8.174  -0.407   2.297  1.00  0.00     0.205 C 
HETATM   28  C30 UNL     1       9.344   0.469   1.825  1.00  0.00     0.173 C 
HETATM   29  C31 UNL     1       8.854   1.787   1.203  1.00  0.00     0.182 C 
HETATM   30  C32 UNL     1       7.822   1.536   0.092  1.00  0.00     0.204 C 
BRANCH  28  31
HETATM   31  O7  UNL     1      10.228   0.695   2.925  1.00  0.00    -0.391 OA
HETATM   32  H44 UNL     1      10.636   1.575   2.797  1.00  0.00     0.210 HD
ENDBRANCH  28  31
BRANCH  29  33
HETATM   33  O8  UNL     1       8.307   2.645   2.217  1.00  0.00    -0.390 OA
HETATM   34  H46 UNL     1       7.606   2.150   2.687  1.00  0.00     0.210 HD
ENDBRANCH  29  33
BRANCH  30  35
HETATM   35  O9  UNL     1       8.494   1.485  -1.181  1.00  0.00    -0.388 OA
HETATM   36  H48 UNL     1       8.518   2.397  -1.518  1.00  0.00     0.210 HD
ENDBRANCH  30  35
ENDBRANCH  24  25
ENDBRANCH  20  24
BRANCH  18  37
HETATM   37  O4  UNL     1       3.163  -2.482   1.653  1.00  0.00    -0.391 OA
HETATM   38  H36 UNL     1       3.872  -2.896   2.170  1.00  0.00     0.210 HD
ENDBRANCH  18  37
BRANCH   1  39
HETATM   39  C2  UNL     1      -5.404  -0.966   0.025  1.00  0.00     0.000 C 
HETATM   40  C1  UNL     1      -5.298  -2.302   0.773  1.00  0.00     0.011 C 
BRANCH  39  41
HETATM   41  C3  UNL     1      -6.564  -1.087  -0.997  1.00  0.00     0.083 C 
BRANCH  41  42
HETATM   42  C4  UNL     1      -7.951  -1.267  -0.388  1.00  0.00     0.130 C 
HETATM   43  O1  UNL     1      -8.620  -2.258  -0.698  1.00  0.00    -0.298 OA
BRANCH  42  44
HETATM   44  C5  UNL     1      -8.487  -0.236   0.596  1.00  0.00     0.115 C 
BRANCH  44  45
HETATM   45  C6  UNL     1      -9.269   0.942  -0.008  1.00  0.00     0.057 C 
HETATM   46  C7  UNL     1      -8.468   1.762  -1.016  1.00  0.00     0.045 C 
HETATM   47  C8  UNL     1      -9.733   1.858   1.134  1.00  0.00     0.045 C 
BRANCH  45  48
HETATM   48  O2  UNL     1     -10.442   0.446  -0.651  1.00  0.00    -0.390 OA
HETATM   49  H15 UNL     1     -10.900   1.190  -1.080  1.00  0.00     0.210 HD
ENDBRANCH  45  48
ENDBRANCH  44  45
ENDBRANCH  42  44
ENDBRANCH  41  42
ENDBRANCH  39  41
ENDBRANCH   1  39
TORSDOF 12
