REMARK  11 active torsions:
REMARK  status: ('A' for Active; 'I' for Inactive)
REMARK    1  A    between atoms: C2_2  and  C4_4 
REMARK    2  A    between atoms: C4_4  and  C6_6 
REMARK    3  A    between atoms: C7_8  and  C8_9 
REMARK    4  A    between atoms: C8_9  and  O2_11 
REMARK    5  A    between atoms: C8_9  and  C10_12 
REMARK    6  A    between atoms: C13_15  and  O3_16 
REMARK    7  A    between atoms: C17_21  and  C18_22 
REMARK    8  A    between atoms: C18_22  and  C19_23 
REMARK    9  A    between atoms: C22_26  and  O5_27 
REMARK   10  A    between atoms: C31_36  and  O6_37 
REMARK   11  A    between atoms: C32_38  and  O7_39 
ROOT
HETATM    1  C10 UNL     1       2.601  -1.039  -0.037  1.00  0.00     0.034 C 
HETATM    2  C11 UNL     1       2.516  -1.637  -1.481  1.00  0.00     0.012 C 
HETATM    3  C12 UNL     1       1.143  -1.258  -2.066  1.00  0.00     0.044 C 
HETATM    4  C13 UNL     1       0.627  -0.181  -1.114  1.00  0.00     0.089 C 
HETATM    5  C14 UNL     1      -0.831   0.214  -1.065  1.00  0.00    -0.037 C 
HETATM    6  C15 UNL     1      -1.791  -0.387  -1.787  1.00  0.00     0.057 C 
HETATM    7  C16 UNL     1      -3.228  -0.063  -1.607  1.00  0.00     0.160 C 
HETATM    8  O4  UNL     1      -4.029  -0.490  -2.436  1.00  0.00    -0.292 OA
HETATM    9  C17 UNL     1      -3.649   0.757  -0.377  1.00  0.00     0.043 C 
HETATM   10  C25 UNL     1      -5.024   1.477  -0.590  1.00  0.00     0.034 C 
HETATM   11  C26 UNL     1      -5.396   2.312   0.661  1.00  0.00     0.008 C 
HETATM   12  C27 UNL     1      -4.344   3.348   1.034  1.00  0.00     0.001 C 
HETATM   13  C28 UNL     1      -2.936   2.754   1.082  1.00  0.00     0.011 C 
HETATM   14  C29 UNL     1      -2.576   1.904  -0.176  1.00  0.00    -0.015 C 
HETATM   15  C30 UNL     1      -2.594   2.913  -1.405  1.00  0.00     0.045 C 
HETATM   16  C31 UNL     1      -3.688   2.722  -2.453  1.00  0.00     0.148 C 
HETATM   17  C32 UNL     1      -5.062   2.313  -1.899  1.00  0.00     0.152 C 
HETATM   18  C33 UNL     1      -1.104   1.341  -0.064  1.00  0.00     0.027 C 
HETATM   19  C34 UNL     1      -0.576   0.949   1.338  1.00  0.00     0.011 C 
HETATM   20  C35 UNL     1       0.883   0.432   1.316  1.00  0.00     0.014 C 
HETATM   21  C36 UNL     1       1.102  -0.701   0.283  1.00  0.00    -0.002 C 
HETATM   22  C37 UNL     1       0.322  -1.963   0.736  1.00  0.00     0.019 C 
ENDROOT
BRANCH   1  23
HETATM   23  C8  UNL     1       3.453  -1.922   0.931  1.00  0.00     0.087 C 
HETATM   24  C9  UNL     1       3.411  -1.400   2.374  1.00  0.00     0.049 C 
BRANCH  23  25
HETATM   25  C7  UNL     1       4.877  -2.027   0.395  1.00  0.00     0.185 A 
HETATM   26  C6  UNL     1       6.064  -1.263   0.945  1.00  0.00     0.158 A 
HETATM   27  O1  UNL     1       5.816  -2.633   1.302  1.00  0.00    -0.372 OA
BRANCH  26  28
HETATM   28  C4  UNL     1       7.303  -1.057   0.109  1.00  0.00     0.017 C 
HETATM   29  C5  UNL     1       8.542  -1.058   1.011  1.00  0.00     0.013 C 
BRANCH  28  30
HETATM   30  C2  UNL     1       7.163   0.212  -0.776  1.00  0.00    -0.016 C 
HETATM   31  C1  UNL     1       7.245   1.527   0.005  1.00  0.00     0.010 C 
HETATM   32  C3  UNL     1       8.202   0.220  -1.904  1.00  0.00     0.010 C 
ENDBRANCH  28  30
ENDBRANCH  26  28
ENDBRANCH  23  25
BRANCH  23  33
HETATM   33  O2  UNL     1       2.932  -3.254   0.956  1.00  0.00    -0.387 OA
HETATM   34  H17 UNL     1       3.581  -3.791   1.446  1.00  0.00     0.210 HD
ENDBRANCH  23  33
ENDBRANCH   1  23
BRANCH   4  35
HETATM   35  O3  UNL     1       1.342   1.017  -1.465  1.00  0.00    -0.384 OA
HETATM   36  H23 UNL     1       1.030   1.290  -2.346  1.00  0.00     0.211 HD
ENDBRANCH   4  35
BRANCH   9  37
HETATM   37  C18 UNL     1      -3.707  -0.273   0.815  1.00  0.00     0.057 C 
BRANCH  37  38
HETATM   38  C19 UNL     1      -4.852  -1.273   0.858  1.00  0.00    -0.057 A 
HETATM   39  C20 UNL     1      -4.895  -2.370  -0.015  1.00  0.00     0.010 A 
HETATM   40  C21 UNL     1      -5.940  -3.294   0.049  1.00  0.00     0.037 A 
HETATM   41  C22 UNL     1      -6.943  -3.138   0.994  1.00  0.00     0.065 A 
HETATM   42  C23 UNL     1      -6.916  -2.073   1.885  1.00  0.00     0.037 A 
HETATM   43  C24 UNL     1      -5.868  -1.150   1.820  1.00  0.00     0.010 A 
BRANCH  41  44
HETATM   44  O5  UNL     1      -7.942  -4.064   1.020  1.00  0.00    -0.361 OA
HETATM   45  H29 UNL     1      -8.580  -3.814   1.708  1.00  0.00     0.217 HD
ENDBRANCH  41  44
ENDBRANCH  37  38
ENDBRANCH   9  37
BRANCH  16  46
HETATM   46  O6  UNL     1      -3.805   3.924  -3.224  1.00  0.00    -0.393 OA
HETATM   47  H42 UNL     1      -4.580   4.385  -2.839  1.00  0.00     0.210 HD
ENDBRANCH  16  46
BRANCH  17  48
HETATM   48  O7  UNL     1      -5.866   3.496  -1.760  1.00  0.00    -0.393 OA
HETATM   49  H44 UNL     1      -6.791   3.197  -1.689  1.00  0.00     0.210 HD
ENDBRANCH  17  48
TORSDOF 11
