REMARK  7 active torsions:
REMARK  status: ('A' for Active; 'I' for Inactive)
REMARK    1  A    between atoms: C2_2  and  C30_32 
REMARK    2  A    between atoms: C3_3  and  C4_4 
REMARK    3  A    between atoms: C4_4  and  C5_5 
REMARK    4  A    between atoms: C5_5  and  C6_6 
REMARK    5  A    between atoms: C6_6  and  C8_8 
REMARK    6  A    between atoms: C29_30  and  O2_31 
REMARK    7  A    between atoms: C30_32  and  O3_33 
ROOT
HETATM    1  C8  UNL     1       1.994   0.239  -0.132  1.00  0.00    -0.002 C 
HETATM    2  C9  UNL     1       1.944   1.220  -1.329  1.00  0.00     0.007 C 
HETATM    3  C10 UNL     1       0.453   1.550  -1.571  1.00  0.00     0.015 C 
HETATM    4  C11 UNL     1      -0.294   1.028  -0.326  1.00  0.00    -0.010 C 
HETATM    5  C12 UNL     1      -0.182   2.133   0.774  1.00  0.00     0.021 C 
HETATM    6  C13 UNL     1      -1.782   0.683  -0.416  1.00  0.00    -0.039 C 
HETATM    7  C14 UNL     1      -2.302  -0.238   0.443  1.00  0.00    -0.066 C 
HETATM    8  C15 UNL     1      -1.410  -0.992   1.450  1.00  0.00     0.036 C 
HETATM    9  C16 UNL     1       0.119  -0.799   1.349  1.00  0.00     0.015 C 
HETATM   10  C17 UNL     1       0.530  -0.281  -0.033  1.00  0.00    -0.029 C 
HETATM   11  C18 UNL     1       0.281  -1.415  -1.070  1.00  0.00     0.016 C 
HETATM   12  C19 UNL     1      -3.812  -0.611   0.447  1.00  0.00    -0.015 C 
HETATM   13  C20 UNL     1      -3.932  -2.025  -0.175  1.00  0.00     0.020 C 
HETATM   14  C21 UNL     1      -4.356  -0.648   1.906  1.00  0.00     0.021 C 
HETATM   15  C22 UNL     1      -5.858  -0.422   2.063  1.00  0.00     0.080 C 
HETATM   16  C23 UNL     1      -6.631  -0.655   0.788  1.00  0.00     0.135 C 
HETATM   17  O1  UNL     1      -7.617  -1.393   0.781  1.00  0.00    -0.297 OA
HETATM   18  C24 UNL     1      -6.187   0.137  -0.448  1.00  0.00     0.018 C 
HETATM   19  C25 UNL     1      -6.995   1.453  -0.443  1.00  0.00     0.023 C 
HETATM   20  C26 UNL     1      -6.577  -0.635  -1.724  1.00  0.00     0.023 C 
HETATM   21  C27 UNL     1      -4.657   0.459  -0.334  1.00  0.00     0.016 C 
HETATM   22  C28 UNL     1      -3.996   0.794  -1.679  1.00  0.00     0.043 C 
HETATM   23  C29 UNL     1      -2.606   1.390  -1.468  1.00  0.00     0.148 C 
ENDROOT
BRANCH   1  24
HETATM   24  C6  UNL     1       3.161  -0.794  -0.123  1.00  0.00    -0.014 C 
HETATM   25  C7  UNL     1       3.546  -1.364  -1.495  1.00  0.00     0.010 C 
BRANCH  24  26
HETATM   26  C5  UNL     1       4.407  -0.146   0.543  1.00  0.00     0.008 C 
BRANCH  26  27
HETATM   27  C4  UNL     1       5.578  -1.112   0.754  1.00  0.00     0.028 C 
BRANCH  27  28
HETATM   28  C3  UNL     1       6.694  -0.449   1.515  1.00  0.00    -0.022 C 
HETATM   29  C2  UNL     1       7.859   0.020   1.021  1.00  0.00    -0.064 C 
HETATM   30  C1  UNL     1       8.228   0.016  -0.439  1.00  0.00     0.045 C 
BRANCH  29  31
HETATM   31  C30 UNL     1       8.894   0.631   1.930  1.00  0.00     0.197 C 
BRANCH  31  32
HETATM   32  O3  UNL     1      10.098  -0.113   1.818  1.00  0.00    -0.397 OA
HETATM   33  H48 UNL     1      10.747   0.325   2.391  1.00  0.00     0.209 HD
ENDBRANCH  31  32
ENDBRANCH  29  31
ENDBRANCH  27  28
ENDBRANCH  26  27
ENDBRANCH  24  26
ENDBRANCH   1  24
BRANCH  23  34
HETATM   34  O2  UNL     1      -2.779   2.751  -1.082  1.00  0.00    -0.391 OA
HETATM   35  H45 UNL     1      -1.946   3.209  -1.275  1.00  0.00     0.210 HD
ENDBRANCH  23  34
TORSDOF 7
