REMARK  6 active torsions:
REMARK  status: ('A' for Active; 'I' for Inactive)
REMARK    1  A    between atoms: C2_2  and  C30_31 
REMARK    2  A    between atoms: C3_3  and  C4_4 
REMARK    3  A    between atoms: C4_4  and  C5_5 
REMARK    4  A    between atoms: C5_5  and  C6_6 
REMARK    5  A    between atoms: C6_6  and  C8_8 
REMARK    6  A    between atoms: C30_31  and  O3_33 
ROOT
HETATM    1  C8  UNL     1       2.147   0.137  -0.603  1.00  0.00    -0.002 C 
HETATM    2  C9  UNL     1       2.316  -1.383  -0.872  1.00  0.00     0.007 C 
HETATM    3  C10 UNL     1       0.972  -2.060  -0.503  1.00  0.00     0.015 C 
HETATM    4  C11 UNL     1       0.176  -0.974   0.256  1.00  0.00    -0.013 C 
HETATM    5  C12 UNL     1       0.681  -1.038   1.731  1.00  0.00     0.021 C 
HETATM    6  C13 UNL     1      -1.349  -0.999   0.292  1.00  0.00    -0.070 C 
HETATM    7  C14 UNL     1      -2.093  -1.955  -0.294  1.00  0.00    -0.022 C 
HETATM    8  C15 UNL     1      -3.585  -1.888  -0.445  1.00  0.00     0.034 C 
HETATM    9  C16 UNL     1      -4.144  -0.468  -0.204  1.00  0.00     0.013 C 
HETATM   10  C17 UNL     1      -5.706  -0.314  -0.376  1.00  0.00     0.018 C 
HETATM   11  C18 UNL     1      -5.999   0.666  -1.536  1.00  0.00     0.023 C 
HETATM   12  C19 UNL     1      -6.417  -1.642  -0.717  1.00  0.00     0.023 C 
HETATM   13  C20 UNL     1      -6.389   0.288   0.864  1.00  0.00     0.135 C 
HETATM   14  O1  UNL     1      -7.514  -0.070   1.226  1.00  0.00    -0.297 OA
HETATM   15  C21 UNL     1      -5.708   1.416   1.606  1.00  0.00     0.080 C 
HETATM   16  C22 UNL     1      -4.209   1.491   1.366  1.00  0.00     0.017 C 
HETATM   17  C23 UNL     1      -3.555   0.116   1.119  1.00  0.00    -0.031 C 
HETATM   18  C24 UNL     1      -3.846  -0.811   2.337  1.00  0.00     0.016 C 
HETATM   19  C25 UNL     1      -1.981   0.227   0.983  1.00  0.00     0.024 C 
HETATM   20  C26 UNL     1      -1.453   1.538   0.340  1.00  0.00     0.010 C 
HETATM   21  C27 UNL     1       0.081   1.572   0.147  1.00  0.00     0.011 C 
HETATM   22  C28 UNL     1       0.598   0.305  -0.562  1.00  0.00    -0.029 C 
HETATM   23  C29 UNL     1       0.024   0.316  -2.016  1.00  0.00     0.016 C 
ENDROOT
BRANCH   1  24
HETATM   24  C6  UNL     1       2.945   1.124  -1.505  1.00  0.00    -0.014 C 
HETATM   25  C7  UNL     1       3.236   0.650  -2.932  1.00  0.00     0.010 C 
BRANCH  24  26
HETATM   26  C5  UNL     1       4.254   1.600  -0.822  1.00  0.00     0.008 C 
BRANCH  26  27
HETATM   27  C4  UNL     1       5.324   0.518  -0.614  1.00  0.00     0.028 C 
BRANCH  27  28
HETATM   28  C3  UNL     1       6.529   1.074   0.101  1.00  0.00    -0.013 C 
HETATM   29  C2  UNL     1       7.367   0.415   0.927  1.00  0.00     0.008 C 
HETATM   30  C1  UNL     1       8.520   1.112   1.592  1.00  0.00     0.055 C 
BRANCH  29  31
HETATM   31  C30 UNL     1       7.241  -1.043   1.167  1.00  0.00     0.171 C 
HETATM   32  O2  UNL     1       6.706  -1.866   0.448  1.00  0.00    -0.646 OA
BRANCH  31  33
HETATM   33  O3  UNL     1       7.827  -1.413   2.319  1.00  0.00    -0.773 OA
HETATM   34  H46 UNL     1       7.690  -2.381   2.345  1.00  0.00     0.167 HD
ENDBRANCH  31  33
ENDBRANCH  29  31
ENDBRANCH  27  28
ENDBRANCH  26  27
ENDBRANCH  24  26
ENDBRANCH   1  24
TORSDOF 6
