REMARK  12 active torsions:
REMARK  status: ('A' for Active; 'I' for Inactive)
REMARK    1  A    between atoms: C3_3  and  O1_4 
REMARK    2  A    between atoms: N1_14  and  O2_16 
REMARK    3  A    between atoms: O2_16  and  C13_17 
REMARK    4  A    between atoms: C13_17  and  C14_18 
REMARK       I    between atoms: C14_18  and  N2_20 
REMARK    5  A    between atoms: N2_20  and  C15_21 
REMARK    6  A    between atoms: C15_21  and  C16_22 
REMARK    7  A    between atoms: C15_21  and  C26_36 
REMARK       I    between atoms: C16_22  and  N3_24 
REMARK    8  A    between atoms: N3_24  and  C17_25 
REMARK    9  A    between atoms: C17_25  and  C18_26 
REMARK   10  A    between atoms: C17_25  and  C25_33 
REMARK   11  A    between atoms: C18_26  and  C19_27 
REMARK   12  A    between atoms: C25_33  and  O6_35 
ROOT
HETATM    1  C1  UNL     1     -10.123   0.579  -2.835  1.00  0.00     0.015 C 
HETATM    2  C2  UNL     1      -9.281   1.032  -2.108  1.00  0.00    -0.078 C 
HETATM    3  C3  UNL     1      -8.250   1.607  -1.213  1.00  0.00     0.128 C 
HETATM    4  C4  UNL     1      -8.745   1.554   0.225  1.00  0.00     0.052 C 
HETATM    5  C5  UNL     1      -8.265   0.215   0.785  1.00  0.00     0.010 C 
HETATM    6  C6  UNL     1      -7.238  -0.373  -0.222  1.00  0.00     0.002 C 
HETATM    7  C7  UNL     1      -6.015  -1.130   0.403  1.00  0.00    -0.004 C 
HETATM    8  C8  UNL     1      -5.910  -1.059   1.944  1.00  0.00     0.010 C 
HETATM    9  C9  UNL     1      -4.725  -1.839   2.516  1.00  0.00     0.035 C 
HETATM   10  C10 UNL     1      -3.451  -1.396   1.846  1.00  0.00    -0.069 C 
HETATM   11  C11 UNL     1      -2.468  -0.837   2.570  1.00  0.00     0.030 C 
HETATM   12  C12 UNL     1      -1.292  -0.192   1.937  1.00  0.00     0.032 C 
HETATM   13  N1  UNL     1      -0.349   0.242   2.727  1.00  0.00    -0.271 N 
ATOM     14  H1  UNL     1      -0.367   0.149   3.743  1.00  0.00     0.194 HD
HETATM   15  C29 UNL     1      -1.327   0.019   0.439  1.00  0.00     0.060 C 
HETATM   16  C30 UNL     1      -2.060  -1.106  -0.278  1.00  0.00     0.020 C 
HETATM   17  C31 UNL     1      -3.431  -1.538   0.331  1.00  0.00    -0.016 C 
HETATM   18  C32 UNL     1      -3.569  -3.040  -0.056  1.00  0.00     0.020 C 
HETATM   19  C33 UNL     1      -4.662  -0.749  -0.265  1.00  0.00     0.002 C 
HETATM   20  C34 UNL     1      -4.480   0.784  -0.285  1.00  0.00     0.007 C 
HETATM   21  C35 UNL     1      -5.741   1.615  -0.585  1.00  0.00     0.014 C 
HETATM   22  C36 UNL     1      -6.908   0.802  -1.188  1.00  0.00     0.003 C 
HETATM   23  C37 UNL     1      -6.526   0.374  -2.626  1.00  0.00     0.020 C 
ENDROOT
BRANCH   3  24
HETATM   24  O1  UNL     1      -8.030   2.957  -1.599  1.00  0.00    -0.377 OA
HETATM   25  H2  UNL     1      -8.901   3.390  -1.620  1.00  0.00     0.211 HD
ENDBRANCH   3  24
BRANCH  13  26
HETATM   26  O2  UNL     1       0.692   0.852   2.012  1.00  0.00    -0.271 OA
BRANCH  26  27
HETATM   27  C13 UNL     1       1.415   1.708   2.890  1.00  0.00     0.303 C 
BRANCH  27  28
HETATM   28  C14 UNL     1       2.848   1.890   2.413  1.00  0.00     0.244 C 
HETATM   29  O3  UNL     1       3.475   2.933   2.592  1.00  0.00    -0.271 OA
HETATM   30  N2  UNL     1       3.404   0.779   1.828  1.00  0.00    -0.346 N 
HETATM   31  H16 UNL     1       2.812  -0.028   1.638  1.00  0.00     0.163 HD
BRANCH  30  32
HETATM   32  C15 UNL     1       4.783   0.736   1.349  1.00  0.00     0.180 C 
BRANCH  32  33
HETATM   33  C16 UNL     1       4.818  -0.278   0.183  1.00  0.00     0.241 C 
HETATM   34  O4  UNL     1       3.973  -1.164   0.056  1.00  0.00    -0.271 OA
HETATM   35  N3  UNL     1       5.853  -0.108  -0.709  1.00  0.00    -0.345 N 
HETATM   36  H18 UNL     1       6.667   0.405  -0.393  1.00  0.00     0.163 HD
BRANCH  35  37
HETATM   37  C17 UNL     1       6.091  -1.070  -1.792  1.00  0.00     0.186 C 
BRANCH  37  38
HETATM   38  C18 UNL     1       6.809  -0.416  -2.989  1.00  0.00     0.074 C 
BRANCH  38  39
HETATM   39  C19 UNL     1       8.103   0.289  -2.633  1.00  0.00    -0.056 A 
HETATM   40  C20 UNL     1       8.112   1.672  -2.400  1.00  0.00     0.007 A 
HETATM   41  C21 UNL     1       9.289   2.315  -2.017  1.00  0.00     0.001 A 
HETATM   42  C22 UNL     1      10.465   1.588  -1.865  1.00  0.00     0.000 A 
HETATM   43  C23 UNL     1      10.470   0.217  -2.107  1.00  0.00     0.001 A 
HETATM   44  C24 UNL     1       9.296  -0.430  -2.493  1.00  0.00     0.007 A 
ENDBRANCH  38  39
ENDBRANCH  37  38
BRANCH  37  45
HETATM   45  C25 UNL     1       6.868  -2.310  -1.335  1.00  0.00     0.163 C 
HETATM   46  O5  UNL     1       7.157  -3.268  -2.035  1.00  0.00    -0.648 OA
BRANCH  45  47
HETATM   47  O6  UNL     1       7.290  -2.269  -0.055  1.00  0.00    -0.775 OA
HETATM   48  H27 UNL     1       7.765  -3.118   0.066  1.00  0.00     0.167 HD
ENDBRANCH  45  47
ENDBRANCH  37  45
ENDBRANCH  35  37
ENDBRANCH  32  33
BRANCH  32  49
HETATM   49  C26 UNL     1       5.754   0.427   2.512  1.00  0.00     0.009 C 
HETATM   50  C27 UNL     1       5.596  -0.994   3.062  1.00  0.00     0.012 C 
HETATM   51  C28 UNL     1       7.215   0.694   2.155  1.00  0.00     0.012 C 
ENDBRANCH  32  49
ENDBRANCH  30  32
ENDBRANCH  27  28
ENDBRANCH  26  27
ENDBRANCH  13  26
TORSDOF 12
