REMARK  8 active torsions:
REMARK  status: ('A' for Active; 'I' for Inactive)
REMARK    1  A    between atoms: C2_2  and  O1_3 
REMARK    2  A    between atoms: O1_3  and  C3_4 
REMARK    3  A    between atoms: C3_4  and  C4_6 
REMARK    4  A    between atoms: C4_6  and  O3_7 
REMARK    5  A    between atoms: C6_11  and  C7_12 
REMARK    6  A    between atoms: C7_12  and  C8_13 
REMARK    7  A    between atoms: C19_25  and  C20_26 
REMARK    8  A    between atoms: C23_29  and  O7_30 
ROOT
HETATM    1  C4  UNL     1      -2.426   1.089   1.696  1.00  0.00     0.291 A 
HETATM    2  O4  UNL     1      -1.685   0.895   2.898  1.00  0.00    -0.265 OA
HETATM    3  C5  UNL     1      -0.861  -0.172   2.756  1.00  0.00     0.293 A 
HETATM    4  O5  UNL     1      -0.107  -0.593   3.614  1.00  0.00    -0.259 OA
HETATM    5  C6  UNL     1      -1.007  -0.743   1.413  1.00  0.00     0.034 A 
HETATM    6  C19 UNL     1      -1.951  -0.016   0.809  1.00  0.00     0.037 A 
ENDROOT
BRANCH   5   7
HETATM    7  C7  UNL     1      -0.216  -1.924   0.977  1.00  0.00     0.084 C 
BRANCH   7   8
HETATM    8  C8  UNL     1       1.079  -1.522   0.312  1.00  0.00    -0.053 A 
HETATM    9  C9  UNL     1       1.149  -1.371  -1.079  1.00  0.00     0.010 A 
HETATM   10  C10 UNL     1       2.336  -0.955  -1.682  1.00  0.00     0.038 A 
HETATM   11  C11 UNL     1       3.462  -0.680  -0.907  1.00  0.00     0.076 A 
HETATM   12  O6  UNL     1       4.571  -0.271  -1.597  1.00  0.00    -0.340 OA
HETATM   13  C17 UNL     1       3.418  -0.842   0.479  1.00  0.00    -0.024 A 
HETATM   14  C12 UNL     1       5.669   0.246  -0.822  1.00  0.00     0.061 C 
HETATM   15  C13 UNL     1       6.915   0.088  -1.706  1.00  0.00     0.046 C 
HETATM   16  C14 UNL     1       5.438   1.744  -0.570  1.00  0.00     0.046 C 
HETATM   17  C15 UNL     1       5.879  -0.551   0.474  1.00  0.00     0.042 C 
HETATM   18  C16 UNL     1       4.620  -0.554   1.328  1.00  0.00     0.044 C 
HETATM   19  C18 UNL     1       2.219  -1.249   1.084  1.00  0.00     0.017 A 
ENDBRANCH   7   8
ENDBRANCH   5   7
BRANCH   6  20
HETATM   20  C20 UNL     1      -2.502  -0.272  -0.522  1.00  0.00    -0.023 A 
HETATM   21  C21 UNL     1      -3.267  -1.429  -0.744  1.00  0.00     0.015 A 
HETATM   22  C22 UNL     1      -3.806  -1.696  -2.005  1.00  0.00     0.037 A 
HETATM   23  C23 UNL     1      -3.582  -0.803  -3.046  1.00  0.00     0.065 A 
HETATM   24  C24 UNL     1      -2.831   0.348  -2.844  1.00  0.00     0.037 A 
HETATM   25  C25 UNL     1      -2.291   0.615  -1.584  1.00  0.00     0.015 A 
BRANCH  23  26
HETATM   26  O7  UNL     1      -4.086  -1.021  -4.293  1.00  0.00    -0.361 OA
HETATM   27  H24 UNL     1      -4.586  -1.854  -4.289  1.00  0.00     0.217 HD
ENDBRANCH  23  26
ENDBRANCH   6  20
BRANCH   1  28
HETATM   28  C3  UNL     1      -3.949   0.860   1.976  1.00  0.00     0.328 C 
HETATM   29  O2  UNL     1      -4.400   0.062   2.794  1.00  0.00    -0.259 OA
BRANCH  28  30
HETATM   30  O1  UNL     1      -4.717   1.620   1.138  1.00  0.00    -0.317 OA
BRANCH  30  31
HETATM   31  C2  UNL     1      -6.127   1.435   1.291  1.00  0.00     0.174 C 
HETATM   32  C1  UNL     1      -6.831   2.325   0.286  1.00  0.00     0.034 C 
ENDBRANCH  30  31
ENDBRANCH  28  30
ENDBRANCH   1  28
BRANCH   1  33
HETATM   33  O3  UNL     1      -2.087   2.362   1.177  1.00  0.00    -0.353 OA
HETATM   34  H6  UNL     1      -1.296   2.253   0.628  1.00  0.00     0.214 HD
ENDBRANCH   1  33
TORSDOF 8
