REMARK  7 active torsions:
REMARK  status: ('A' for Active; 'I' for Inactive)
REMARK    1  A    between atoms: C4_4  and  C5_5 
REMARK    2  A    between atoms: C5_5  and  O1_6 
REMARK    3  A    between atoms: C5_5  and  C6_7 
REMARK    4  A    between atoms: C6_7  and  C7_8 
REMARK    5  A    between atoms: C7_8  and  C8_10 
REMARK    6  A    between atoms: C8_10  and  C10_12 
REMARK    7  A    between atoms: C18_20  and  O3_21 
ROOT
HETATM    1  C10 UNL     1       1.310  -0.913  -0.124  1.00  0.00     0.008 C 
HETATM    2  C11 UNL     1       0.687  -1.134  -1.518  1.00  0.00     0.007 C 
HETATM    3  C12 UNL     1      -0.484  -0.186  -1.782  1.00  0.00     0.006 C 
HETATM    4  C13 UNL     1      -1.579  -0.245  -0.693  1.00  0.00     0.003 C 
HETATM    5  C14 UNL     1      -2.880   0.622  -1.015  1.00  0.00    -0.035 C 
HETATM    6  C15 UNL     1      -2.553   2.130  -1.116  1.00  0.00     0.016 C 
HETATM    7  C16 UNL     1      -3.458   0.178  -2.395  1.00  0.00     0.012 C 
HETATM    8  C17 UNL     1      -4.862   0.701  -2.689  1.00  0.00     0.033 C 
HETATM    9  C18 UNL     1      -5.854   0.346  -1.587  1.00  0.00     0.126 C 
HETATM   10  C19 UNL     1      -5.411   0.804  -0.166  1.00  0.00    -0.017 C 
HETATM   11  C20 UNL     1      -6.392   0.150   0.848  1.00  0.00     0.018 C 
HETATM   12  C21 UNL     1      -5.565   2.327   0.021  1.00  0.00     0.018 C 
HETATM   13  C22 UNL     1      -3.949   0.275   0.089  1.00  0.00     0.004 C 
HETATM   14  C23 UNL     1      -3.404   0.550   1.503  1.00  0.00     0.007 C 
HETATM   15  C24 UNL     1      -2.140  -0.270   1.792  1.00  0.00     0.011 C 
HETATM   16  C25 UNL     1      -0.981  -0.087   0.771  1.00  0.00    -0.029 C 
HETATM   17  C26 UNL     1      -0.394   1.344   0.989  1.00  0.00     0.016 C 
HETATM   18  C27 UNL     1       0.214  -1.195   0.988  1.00  0.00     0.002 C 
HETATM   19  C28 UNL     1      -0.344  -2.637   0.939  1.00  0.00     0.190 C 
HETATM   20  O4  UNL     1      -0.698  -3.012   2.271  1.00  0.00    -0.321 OA
HETATM   21  C29 UNL     1      -0.056  -2.208   3.155  1.00  0.00     0.259 C 
HETATM   22  O5  UNL     1      -0.120  -2.332   4.366  1.00  0.00    -0.265 OA
HETATM   23  C30 UNL     1       0.771  -1.196   2.424  1.00  0.00     0.124 C 
ENDROOT
BRANCH   1  24
HETATM   24  C8  UNL     1       2.746  -1.555  -0.066  1.00  0.00     0.056 C 
HETATM   25  C9  UNL     1       2.802  -3.062   0.139  1.00  0.00     0.018 C 
BRANCH  24  26
HETATM   26  C7  UNL     1       3.691  -0.792   0.889  1.00  0.00     0.133 C 
HETATM   27  O2  UNL     1       3.299   0.184   1.535  1.00  0.00    -0.297 OA
BRANCH  26  28
HETATM   28  C6  UNL     1       5.145  -1.219   1.004  1.00  0.00     0.114 C 
BRANCH  28  29
HETATM   29  C5  UNL     1       5.995  -0.907  -0.226  1.00  0.00     0.148 C 
BRANCH  29  30
HETATM   30  C4  UNL     1       5.914   0.519  -0.694  1.00  0.00     0.007 C 
HETATM   31  C2  UNL     1       6.892   1.446  -0.734  1.00  0.00    -0.089 C 
HETATM   32  C1  UNL     1       8.319   1.238  -0.307  1.00  0.00     0.042 C 
HETATM   33  C3  UNL     1       6.600   2.840  -1.229  1.00  0.00     0.042 C 
ENDBRANCH  29  30
BRANCH  29  34
HETATM   34  O1  UNL     1       5.606  -1.743  -1.311  1.00  0.00    -0.391 OA
HETATM   35  H9  UNL     1       6.168  -1.492  -2.067  1.00  0.00     0.210 HD
ENDBRANCH  29  34
ENDBRANCH  28  29
ENDBRANCH  26  28
ENDBRANCH  24  26
ENDBRANCH   1  24
BRANCH   9  36
HETATM   36  O3  UNL     1      -7.135   0.870  -1.937  1.00  0.00    -0.395 OA
HETATM   37  H30 UNL     1      -7.043   1.824  -2.091  1.00  0.00     0.210 HD
ENDBRANCH   9  36
TORSDOF 7
