REMARK  14 active torsions:
REMARK  status: ('A' for Active; 'I' for Inactive)
REMARK    1  A    between atoms: O1_2  and  C2_3 
REMARK    2  A    between atoms: C2_3  and  C3_4 
REMARK    3  A    between atoms: C2_3  and  C24_30 
REMARK    4  A    between atoms: C3_4  and  C5_6 
REMARK    5  A    between atoms: C6_8  and  C8_10 
REMARK    6  A    between atoms: C8_10  and  C9_11 
REMARK    7  A    between atoms: C9_11  and  O3_13 
REMARK    8  A    between atoms: C9_11  and  C11_14 
REMARK    9  A    between atoms: C12_15  and  C13_16 
REMARK   10  A    between atoms: C14_17  and  C16_19 
REMARK   11  A    between atoms: C17_21  and  C18_22 
REMARK   12  A    between atoms: C18_22  and  C19_23 
REMARK   13  A    between atoms: C19_23  and  O6_25 
REMARK   14  A    between atoms: C24_30  and  O7_32 
ROOT
HETATM    1  C9  UNL     1      -1.029   0.764  -0.265  1.00  0.00     0.075 C 
HETATM    2  C10 UNL     1      -1.226   2.084  -1.019  1.00  0.00     0.050 C 
ENDROOT
BRANCH   1   3
HETATM    3  C8  UNL     1      -1.861  -0.401  -0.855  1.00  0.00     0.082 C 
BRANCH   3   4
HETATM    4  C6  UNL     1      -3.348  -0.131  -0.997  1.00  0.00     0.087 A 
HETATM    5  C5  UNL     1      -4.223  -0.168   0.255  1.00  0.00     0.163 A 
HETATM    6  O2  UNL     1      -4.159  -1.273  -0.654  1.00  0.00    -0.369 OA
HETATM    7  C7  UNL     1      -3.814   0.520  -2.269  1.00  0.00     0.049 C 
BRANCH   5   8
HETATM    8  C3  UNL     1      -5.567   0.505   0.339  1.00  0.00     0.045 C 
HETATM    9  C4  UNL     1      -5.364   1.975   0.736  1.00  0.00     0.015 C 
BRANCH   8  10
HETATM   10  C2  UNL     1      -6.512  -0.208   1.347  1.00  0.00     0.155 C 
BRANCH  10  11
HETATM   11  O1  UNL     1      -7.790   0.455   1.269  1.00  0.00    -0.388 OA
HETATM   12  C1  UNL     1      -8.245   0.947   2.523  1.00  0.00     0.202 C 
ENDBRANCH  10  11
BRANCH  10  13
HETATM   13  C24 UNL     1      -6.686  -1.730   1.063  1.00  0.00     0.143 C 
HETATM   14  C25 UNL     1      -7.771  -2.374   1.918  1.00  0.00     0.042 C 
BRANCH  13  15
HETATM   15  O7  UNL     1      -7.012  -1.999  -0.303  1.00  0.00    -0.393 OA
HETATM   16  H42 UNL     1      -6.230  -1.751  -0.830  1.00  0.00     0.210 HD
ENDBRANCH  13  15
ENDBRANCH  10  13
ENDBRANCH   8  10
ENDBRANCH   5   8
ENDBRANCH   3   4
ENDBRANCH   1   3
BRANCH   1  17
HETATM   17  O3  UNL     1      -1.449   0.993   1.087  1.00  0.00    -0.386 OA
HETATM   18  H18 UNL     1      -0.795   1.592   1.488  1.00  0.00     0.211 HD
ENDBRANCH   1  17
BRANCH   1  19
HETATM   19  C11 UNL     1       0.419   0.319  -0.168  1.00  0.00     0.010 C 
HETATM   20  C12 UNL     1       1.469   0.792  -0.861  1.00  0.00    -0.001 C 
BRANCH  20  21
HETATM   21  C13 UNL     1       2.818   0.315  -0.647  1.00  0.00     0.005 C 
HETATM   22  C14 UNL     1       3.935   0.697  -1.301  1.00  0.00    -0.055 C 
HETATM   23  C15 UNL     1       3.980   1.691  -2.433  1.00  0.00     0.046 C 
BRANCH  22  24
HETATM   24  C16 UNL     1       5.301   0.150  -0.898  1.00  0.00     0.154 C 
HETATM   25  O4  UNL     1       5.391   0.232   0.534  1.00  0.00    -0.375 OA
HETATM   26  C17 UNL     1       6.692  -0.100   1.036  1.00  0.00     0.132 C 
HETATM   27  C20 UNL     1       7.006  -1.560   0.692  1.00  0.00     0.033 C 
HETATM   28  C21 UNL     1       6.903  -1.793  -0.811  1.00  0.00     0.009 C 
HETATM   29  C22 UNL     1       5.550  -1.306  -1.354  1.00  0.00     0.015 C 
HETATM   30  C23 UNL     1       5.512  -1.476  -2.873  1.00  0.00     0.012 C 
BRANCH  26  31
HETATM   31  C18 UNL     1       6.669   0.140   2.544  1.00  0.00     0.141 C 
BRANCH  31  32
HETATM   32  C19 UNL     1       8.049   0.131   3.130  1.00  0.00     0.141 C 
HETATM   33  O5  UNL     1       9.106   0.233   2.532  1.00  0.00    -0.650 OA
BRANCH  32  34
HETATM   34  O6  UNL     1       8.030   0.023   4.474  1.00  0.00    -0.776 OA
HETATM   35  H29 UNL     1       8.975   0.044   4.732  1.00  0.00     0.167 HD
ENDBRANCH  32  34
ENDBRANCH  31  32
ENDBRANCH  26  31
ENDBRANCH  22  24
ENDBRANCH  20  21
ENDBRANCH   1  19
TORSDOF 14
