REMARK  4 active torsions:
REMARK  status: ('A' for Active; 'I' for Inactive)
REMARK    1  A    between atoms: C4_4  and  C5_5 
REMARK    2  A    between atoms: C5_5  and  C6_6 
REMARK    3  A    between atoms: C6_6  and  C7_7 
REMARK    4  A    between atoms: C7_7  and  C9_9 
ROOT
HETATM    1  C9  UNL     1      -1.595  -0.221  -0.494  1.00  0.00    -0.002 C 
HETATM    2  C10 UNL     1      -1.227   1.250  -0.719  1.00  0.00     0.006 C 
HETATM    3  C11 UNL     1       0.289   1.257  -0.736  1.00  0.00     0.011 C 
HETATM    4  C12 UNL     1       0.667   0.043  -1.615  1.00  0.00    -0.032 C 
HETATM    5  C13 UNL     1       0.579   0.527  -3.096  1.00  0.00     0.016 C 
HETATM    6  C14 UNL     1       2.147  -0.454  -1.354  1.00  0.00     0.004 C 
HETATM    7  C15 UNL     1       3.168   0.696  -1.510  1.00  0.00     0.007 C 
HETATM    8  C16 UNL     1       4.595   0.302  -1.161  1.00  0.00     0.007 C 
HETATM    9  C17 UNL     1       4.788  -0.128   0.304  1.00  0.00     0.010 C 
HETATM   10  C18 UNL     1       5.099   1.026   1.320  1.00  0.00     0.018 C 
HETATM   11  C19 UNL     1       6.395   1.767   0.924  1.00  0.00     0.023 C 
HETATM   12  C20 UNL     1       3.969   2.056   1.461  1.00  0.00     0.023 C 
HETATM   13  C21 UNL     1       5.350   0.423   2.715  1.00  0.00     0.135 C 
HETATM   14  O1  UNL     1       5.892   1.065   3.618  1.00  0.00    -0.297 OA
HETATM   15  C22 UNL     1       4.929  -1.003   2.956  1.00  0.00     0.080 C 
HETATM   16  C23 UNL     1       3.587  -1.237   2.295  1.00  0.00     0.018 C 
HETATM   17  C24 UNL     1       3.658  -1.057   0.784  1.00  0.00    -0.026 A 
HETATM   18  C25 UNL     1       3.425  -2.295  -0.050  1.00  0.00     0.021 A 
HETATM   19  C26 UNL     1       2.353  -1.216  -0.031  1.00  0.00    -0.027 A 
HETATM   20  C27 UNL     1       1.077  -1.626   0.673  1.00  0.00     0.011 C 
HETATM   21  C28 UNL     1       0.077  -2.150  -0.343  1.00  0.00     0.011 C 
HETATM   22  C29 UNL     1      -0.469  -1.037  -1.275  1.00  0.00    -0.032 C 
HETATM   23  C30 UNL     1      -0.991  -1.753  -2.541  1.00  0.00     0.016 C 
ENDROOT
BRANCH   1  24
HETATM   24  C7  UNL     1      -3.099  -0.539  -0.782  1.00  0.00    -0.014 C 
HETATM   25  C8  UNL     1      -3.491  -1.916  -0.222  1.00  0.00     0.010 C 
BRANCH  24  26
HETATM   26  C6  UNL     1      -4.040   0.548  -0.190  1.00  0.00     0.008 C 
BRANCH  26  27
HETATM   27  C5  UNL     1      -5.528   0.343  -0.517  1.00  0.00     0.028 C 
BRANCH  27  28
HETATM   28  C4  UNL     1      -6.344   1.521  -0.054  1.00  0.00    -0.025 C 
HETATM   29  C2  UNL     1      -7.347   1.542   0.846  1.00  0.00    -0.091 C 
HETATM   30  C1  UNL     1      -8.042   2.838   1.180  1.00  0.00     0.042 C 
HETATM   31  C3  UNL     1      -7.879   0.354   1.600  1.00  0.00     0.042 C 
ENDBRANCH  27  28
ENDBRANCH  26  27
ENDBRANCH  24  26
ENDBRANCH   1  24
TORSDOF 4
