REMARK  9 active torsions:
REMARK  status: ('A' for Active; 'I' for Inactive)
REMARK    1  A    between atoms: C2_2  and  C30_35 
REMARK    2  A    between atoms: C3_3  and  C4_4 
REMARK    3  A    between atoms: C4_4  and  O1_5 
REMARK    4  A    between atoms: C4_4  and  C5_6 
REMARK    5  A    between atoms: C5_6  and  C6_7 
REMARK    6  A    between atoms: C6_7  and  C8_9 
REMARK    7  A    between atoms: C10_11  and  O2_12 
REMARK    8  A    between atoms: C29_33  and  O5_34 
REMARK    9  A    between atoms: C30_35  and  O7_37 
ROOT
HETATM    1  C8  UNL     1       2.053  -1.596  -0.792  1.00  0.00     0.001 C 
HETATM    2  C9  UNL     1       1.547  -3.032  -0.475  1.00  0.00     0.038 C 
HETATM    3  C10 UNL     1       0.072  -2.887  -0.050  1.00  0.00     0.132 C 
HETATM    4  C11 UNL     1      -0.379  -1.539  -0.679  1.00  0.00     0.017 C 
HETATM    5  C12 UNL     1      -0.611  -1.765  -2.211  1.00  0.00     0.023 C 
HETATM    6  C13 UNL     1      -1.660  -0.830  -0.215  1.00  0.00    -0.029 C 
HETATM    7  C14 UNL     1      -1.783   0.526  -0.310  1.00  0.00     0.002 C 
HETATM    8  C15 UNL     1      -0.565   1.345  -0.730  1.00  0.00     0.157 C 
HETATM    9  O3  UNL     1      -0.618   2.569  -0.825  1.00  0.00    -0.293 OA
HETATM   10  C16 UNL     1       0.756   0.660  -1.049  1.00  0.00     0.094 C 
HETATM   11  C17 UNL     1       0.884  -0.671  -0.318  1.00  0.00    -0.019 C 
HETATM   12  C18 UNL     1       1.002  -0.363   1.205  1.00  0.00     0.017 C 
HETATM   13  C19 UNL     1      -3.108   1.286   0.021  1.00  0.00    -0.008 C 
HETATM   14  C20 UNL     1      -2.897   1.858   1.441  1.00  0.00     0.021 C 
HETATM   15  C21 UNL     1      -3.432   2.445  -0.965  1.00  0.00     0.022 C 
HETATM   16  C22 UNL     1      -4.784   3.106  -0.732  1.00  0.00     0.080 C 
HETATM   17  C23 UNL     1      -5.910   2.109  -0.785  1.00  0.00     0.135 C 
HETATM   18  O4  UNL     1      -6.935   2.373  -1.416  1.00  0.00    -0.297 OA
HETATM   19  C24 UNL     1      -5.769   0.835   0.058  1.00  0.00     0.018 C 
HETATM   20  C25 UNL     1      -6.192   1.154   1.498  1.00  0.00     0.023 C 
HETATM   21  C26 UNL     1      -6.786  -0.199  -0.496  1.00  0.00     0.023 C 
HETATM   22  C27 UNL     1      -4.315   0.273  -0.108  1.00  0.00     0.016 C 
HETATM   23  C28 UNL     1      -4.036  -0.971   0.738  1.00  0.00     0.043 C 
HETATM   24  C29 UNL     1      -2.818  -1.717   0.200  1.00  0.00     0.149 C 
ENDROOT
BRANCH   1  25
HETATM   25  C6  UNL     1       3.544  -1.354  -0.396  1.00  0.00    -0.011 C 
HETATM   26  C7  UNL     1       3.882  -1.551   1.086  1.00  0.00     0.010 C 
BRANCH  25  27
HETATM   27  C5  UNL     1       4.046   0.011  -0.926  1.00  0.00     0.040 C 
BRANCH  27  28
HETATM   28  C4  UNL     1       5.566   0.128  -1.146  1.00  0.00     0.142 C 
BRANCH  28  29
HETATM   29  C3  UNL     1       6.397   0.155   0.102  1.00  0.00     0.018 C 
HETATM   30  C2  UNL     1       6.641   1.187   0.937  1.00  0.00     0.010 C 
HETATM   31  C1  UNL     1       6.073   2.569   0.826  1.00  0.00     0.055 C 
BRANCH  30  32
HETATM   32  C30 UNL     1       7.541   0.901   2.082  1.00  0.00     0.171 C 
HETATM   33  O6  UNL     1       7.955  -0.191   2.427  1.00  0.00    -0.646 OA
BRANCH  32  34
HETATM   34  O7  UNL     1       7.887   2.011   2.754  1.00  0.00    -0.773 OA
HETATM   35  H44 UNL     1       8.479   1.678   3.459  1.00  0.00     0.167 HD
ENDBRANCH  32  34
ENDBRANCH  30  32
ENDBRANCH  28  29
BRANCH  28  36
HETATM   36  O1  UNL     1       5.840   1.312  -1.891  1.00  0.00    -0.392 OA
HETATM   37  H6  UNL     1       5.428   1.210  -2.765  1.00  0.00     0.210 HD
ENDBRANCH  28  36
ENDBRANCH  27  28
ENDBRANCH  25  27
ENDBRANCH   1  25
BRANCH   3  38
HETATM   38  O2  UNL     1      -0.708  -3.997  -0.475  1.00  0.00    -0.394 OA
HETATM   39  H17 UNL     1      -0.208  -4.804  -0.254  1.00  0.00     0.210 HD
ENDBRANCH   3  38
BRANCH  24  40
HETATM   40  O5  UNL     1      -2.425  -2.614   1.228  1.00  0.00    -0.391 OA
HETATM   41  H43 UNL     1      -2.150  -3.432   0.768  1.00  0.00     0.210 HD
ENDBRANCH  24  40
TORSDOF 9
