REMARK  4 active torsions:
REMARK  status: ('A' for Active; 'I' for Inactive)
REMARK    1  A    between atoms: C2_2  and  C3_3 
REMARK    2  A    between atoms: C2_2  and  C9_9 
REMARK    3  A    between atoms: C4_4  and  C5_5 
REMARK    4  A    between atoms: C23_23  and  O1_24 
ROOT
HETATM    1  C9  UNL     1       1.990  -0.386   0.105  1.00  0.00     0.001 C 
HETATM    2  C10 UNL     1       2.007  -0.795  -1.400  1.00  0.00     0.006 C 
HETATM    3  C11 UNL     1       0.556  -0.753  -1.899  1.00  0.00     0.009 C 
HETATM    4  C12 UNL     1      -0.212  -0.147  -0.732  1.00  0.00     0.036 C 
HETATM    5  C13 UNL     1       0.514  -0.677   0.531  1.00  0.00    -0.033 C 
HETATM    6  C14 UNL     1       0.314  -2.185   0.804  1.00  0.00     0.016 C 
HETATM    7  C15 UNL     1      -0.011   0.150   1.722  1.00  0.00     0.010 C 
HETATM    8  C16 UNL     1      -1.543   0.075   1.853  1.00  0.00     0.010 C 
HETATM    9  C17 UNL     1      -2.286   0.480   0.564  1.00  0.00     0.039 C 
HETATM   10  C18 UNL     1      -1.743  -0.231  -0.721  1.00  0.00     0.123 C 
HETATM   11  C19 UNL     1      -2.363  -1.586  -0.949  1.00  0.00     0.014 C 
HETATM   12  C20 UNL     1      -3.699  -1.552  -1.040  1.00  0.00     0.014 C 
HETATM   13  C21 UNL     1      -4.295  -0.178  -0.804  1.00  0.00     0.124 C 
HETATM   14  C22 UNL     1      -5.812  -0.168  -1.033  1.00  0.00     0.078 C 
HETATM   15  C23 UNL     1      -6.499   1.113  -0.545  1.00  0.00     0.121 C 
HETATM   16  C24 UNL     1      -5.542   2.221  -0.122  1.00  0.00     0.033 C 
HETATM   17  C25 UNL     1      -4.508   1.754   0.907  1.00  0.00     0.015 C 
HETATM   18  C26 UNL     1      -3.870   0.357   0.608  1.00  0.00     0.001 C 
HETATM   19  C27 UNL     1      -4.357  -0.612   1.721  1.00  0.00     0.019 C 
HETATM   20  O2  UNL     1      -3.704   0.713  -1.793  1.00  0.00    -0.223 OA
HETATM   21  O3  UNL     1      -2.218   0.562  -1.845  1.00  0.00    -0.224 OA
ENDROOT
BRANCH   1  22
HETATM   22  C2  UNL     1       3.159  -1.027   0.903  1.00  0.00     0.008 C 
HETATM   23  C1  UNL     1       3.141  -0.667   2.393  1.00  0.00     0.014 C 
BRANCH  22  24
HETATM   24  C3  UNL     1       4.491  -0.689   0.251  1.00  0.00    -0.026 C 
HETATM   25  C4  UNL     1       5.328   0.307   0.585  1.00  0.00    -0.025 C 
BRANCH  25  26
HETATM   26  C5  UNL     1       6.612   0.594  -0.063  1.00  0.00     0.012 A 
HETATM   27  C6  UNL     1       6.864   1.998  -0.556  1.00  0.00     0.013 A 
HETATM   28  C7  UNL     1       6.647   0.885  -1.544  1.00  0.00    -0.010 A 
HETATM   29  C8  UNL     1       7.780   0.389  -2.376  1.00  0.00     0.010 C 
ENDBRANCH  25  26
ENDBRANCH  22  24
ENDBRANCH   1  22
BRANCH  15  30
HETATM   30  O1  UNL     1      -7.336   0.775   0.565  1.00  0.00    -0.395 OA
HETATM   31  H33 UNL     1      -7.834   1.575   0.809  1.00  0.00     0.210 HD
ENDBRANCH  15  30
TORSDOF 4
