REMARK  15 active torsions:
REMARK  status: ('A' for Active; 'I' for Inactive)
REMARK    1  A    between atoms: C2_2  and  C26_34 
REMARK    2  A    between atoms: C3_3  and  C4_4 
REMARK    3  A    between atoms: C5_5  and  C6_6 
REMARK    4  A    between atoms: C6_6  and  C7_7 
REMARK    5  A    between atoms: C7_7  and  O1_8 
REMARK    6  A    between atoms: C7_7  and  C8_9 
REMARK    7  A    between atoms: C8_9  and  C9_10 
REMARK    8  A    between atoms: C14_16  and  O3_17 
REMARK    9  A    between atoms: C22_28  and  O7_29 
REMARK   10  A    between atoms: C23_30  and  O8_31 
REMARK   11  A    between atoms: C26_34  and  C27_35 
REMARK   12  A    between atoms: C28_36  and  C29_37 
REMARK   13  A    between atoms: C30_38  and  C31_39 
REMARK   14  A    between atoms: C31_39  and  C32_40 
REMARK   15  A    between atoms: C32_40  and  O9_41 
ROOT
HETATM    1  C9  UNL     1      -1.484  -0.531   1.233  1.00  0.00     0.134 C 
HETATM    2  C10 UNL     1      -2.276  -1.824   1.491  1.00  0.00     0.033 C 
HETATM    3  C11 UNL     1      -3.695  -1.817   0.905  1.00  0.00     0.005 C 
HETATM    4  C12 UNL     1      -3.728  -1.813  -0.629  1.00  0.00     0.032 C 
HETATM    5  C13 UNL     1      -5.123  -1.568  -1.241  1.00  0.00     0.131 C 
HETATM    6  O2  UNL     1      -5.494  -0.216  -0.950  1.00  0.00    -0.347 OA
HETATM    7  C14 UNL     1      -6.606   0.270  -1.696  1.00  0.00     0.191 C 
HETATM    8  C15 UNL     1      -7.292   1.341  -0.805  1.00  0.00     0.074 C 
HETATM    9  C16 UNL     1      -6.607   2.716  -0.656  1.00  0.00     0.037 C 
HETATM   10  C17 UNL     1      -5.137   2.698  -0.247  1.00  0.00     0.122 C 
HETATM   11  C18 UNL     1      -4.564   4.097  -0.053  1.00  0.00     0.035 C 
HETATM   12  C19 UNL     1      -3.510   3.924   1.026  1.00  0.00     0.045 C 
HETATM   13  C20 UNL     1      -3.656   2.477   1.481  1.00  0.00     0.221 C 
HETATM   14  O4  UNL     1      -4.950   2.056   1.020  1.00  0.00    -0.371 OA
HETATM   15  C21 UNL     1      -2.534   1.598   0.909  1.00  0.00     0.288 C 
HETATM   16  O5  UNL     1      -1.961   1.805  -0.152  1.00  0.00    -0.262 OA
HETATM   17  O6  UNL     1      -2.286   0.554   1.749  1.00  0.00    -0.314 OA
HETATM   18  C22 UNL     1      -7.605  -0.864  -2.106  1.00  0.00     0.209 C 
HETATM   19  C23 UNL     1      -7.643  -1.995  -1.077  1.00  0.00     0.158 C 
HETATM   20  C24 UNL     1      -6.228  -2.517  -0.719  1.00  0.00     0.042 C 
HETATM   21  C25 UNL     1      -6.010  -3.940  -1.247  1.00  0.00     0.015 C 
ENDROOT
BRANCH   1  22
HETATM   22  C8  UNL     1      -0.138  -0.570   1.978  1.00  0.00     0.064 C 
BRANCH  22  23
HETATM   23  C7  UNL     1       0.813   0.525   1.484  1.00  0.00     0.124 C 
BRANCH  23  24
HETATM   24  C6  UNL     1       2.049   0.721   2.384  1.00  0.00     0.059 C 
BRANCH  24  25
HETATM   25  C5  UNL     1       2.996  -0.453   2.408  1.00  0.00    -0.024 C 
HETATM   26  C4  UNL     1       4.320  -0.460   2.187  1.00  0.00    -0.004 C 
BRANCH  26  27
HETATM   27  C3  UNL     1       5.157   0.687   1.915  1.00  0.00     0.002 C 
HETATM   28  C2  UNL     1       6.478   0.673   1.642  1.00  0.00    -0.080 C 
HETATM   29  C1  UNL     1       7.210   1.967   1.377  1.00  0.00     0.043 C 
BRANCH  28  30
HETATM   30  C26 UNL     1       7.358  -0.562   1.580  1.00  0.00     0.060 C 
BRANCH  30  31
HETATM   31  C27 UNL     1       7.503  -1.052   0.164  1.00  0.00    -0.022 C 
HETATM   32  C28 UNL     1       8.626  -1.251  -0.543  1.00  0.00    -0.004 C 
BRANCH  32  33
HETATM   33  C29 UNL     1       9.974  -1.073  -0.057  1.00  0.00    -0.004 C 
HETATM   34  C30 UNL     1      11.098  -1.106  -0.791  1.00  0.00    -0.025 C 
BRANCH  34  35
HETATM   35  C31 UNL     1      11.245  -1.276  -2.280  1.00  0.00     0.053 C 
BRANCH  35  36
HETATM   36  C32 UNL     1      12.092  -0.162  -2.907  1.00  0.00     0.168 C 
BRANCH  36  37
HETATM   37  O9  UNL     1      11.483   1.118  -2.772  1.00  0.00    -0.401 OA
HETATM   38  H50 UNL     1      10.528   1.010  -2.919  1.00  0.00     0.209 HD
ENDBRANCH  36  37
ENDBRANCH  35  36
ENDBRANCH  34  35
ENDBRANCH  32  33
ENDBRANCH  30  31
ENDBRANCH  28  30
ENDBRANCH  26  27
ENDBRANCH  24  25
ENDBRANCH  23  24
BRANCH  23  39
HETATM   39  O1  UNL     1       1.217   0.201   0.152  1.00  0.00    -0.395 OA
HETATM   40  H10 UNL     1       1.859   0.873  -0.134  1.00  0.00     0.210 HD
ENDBRANCH  23  39
ENDBRANCH  22  23
ENDBRANCH   1  22
BRANCH   7  41
HETATM   41  O3  UNL     1      -6.130   0.836  -2.926  1.00  0.00    -0.363 OA
HETATM   42  H21 UNL     1      -6.359   1.779  -2.935  1.00  0.00     0.213 HD
ENDBRANCH   7  41
BRANCH  19  43
HETATM   43  O8  UNL     1      -8.340  -1.575   0.107  1.00  0.00    -0.392 OA
HETATM   44  H35 UNL     1      -7.698  -1.167   0.720  1.00  0.00     0.210 HD
ENDBRANCH  19  43
BRANCH  18  45
HETATM   45  O7  UNL     1      -7.212  -1.433  -3.378  1.00  0.00    -0.387 OA
HETATM   46  H33 UNL     1      -6.681  -0.729  -3.810  1.00  0.00     0.210 HD
ENDBRANCH  18  45
TORSDOF 15
