REMARK  6 active torsions:
REMARK  status: ('A' for Active; 'I' for Inactive)
REMARK    1  A    between atoms: C2_2  and  C3_3 
REMARK    2  A    between atoms: C6_6  and  O1_7 
REMARK    3  A    between atoms: C7_8  and  C8_9 
REMARK    4  A    between atoms: C8_9  and  C9_10 
REMARK    5  A    between atoms: C17_20  and  O4_21 
REMARK    6  A    between atoms: C26_33  and  O6_34 
ROOT
HETATM    1  C3  UNL     1       0.094  -4.036   0.083  1.00  0.00     0.008 C 
HETATM    2  C4  UNL     1      -0.891  -3.164  -0.683  1.00  0.00    -0.023 C 
HETATM    3  C5  UNL     1      -1.170  -1.873  -0.431  1.00  0.00     0.003 C 
HETATM    4  C6  UNL     1      -2.174  -1.039  -1.180  1.00  0.00     0.170 C 
HETATM    5  C7  UNL     1      -2.687   0.140  -0.318  1.00  0.00     0.164 C 
HETATM    6  O2  UNL     1      -1.590   1.080  -0.110  1.00  0.00    -0.312 OA
HETATM    7  C12 UNL     1      -1.362   1.499   1.172  1.00  0.00     0.276 C 
HETATM    8  O3  UNL     1      -1.943   1.056   2.159  1.00  0.00    -0.264 OA
HETATM    9  C13 UNL     1      -0.407   2.736   1.195  1.00  0.00     0.095 C 
HETATM   10  C14 UNL     1      -0.107   3.105   2.660  1.00  0.00     0.036 C 
HETATM   11  C15 UNL     1      -1.339   3.803   0.610  1.00  0.00     0.002 C 
HETATM   12  C16 UNL     1      -1.052   4.914  -0.074  1.00  0.00     0.053 C 
HETATM   13  C17 UNL     1       0.315   5.367  -0.233  1.00  0.00     0.140 C 
HETATM   14  N1  UNL     1       1.452   4.802  -0.258  1.00  0.00    -0.333 N 
ATOM     15  H1  UNL     1       2.279   5.397  -0.310  1.00  0.00     0.168 HD
HETATM   16  C18 UNL     1       1.641   3.441  -0.219  1.00  0.00     0.097 C 
HETATM   17  C19 UNL     1       0.928   2.512   0.452  1.00  0.00     0.045 C 
HETATM   18  C20 UNL     1       1.528   1.136   0.614  1.00  0.00     0.194 C 
HETATM   19  O5  UNL     1       0.927   0.266   1.232  1.00  0.00    -0.287 OA
HETATM   20  C21 UNL     1       2.891   0.839   0.127  1.00  0.00     0.046 A 
HETATM   21  C22 UNL     1       3.558   1.800  -0.616  1.00  0.00     0.032 A 
HETATM   22  C23 UNL     1       4.882   1.599  -1.051  1.00  0.00     0.026 A 
HETATM   23  C24 UNL     1       5.576   0.433  -0.715  1.00  0.00    -0.027 A 
HETATM   24  C25 UNL     1       7.004   0.244  -1.145  1.00  0.00     0.051 C 
HETATM   25  C26 UNL     1       4.915  -0.533   0.045  1.00  0.00     0.086 A 
HETATM   26  C27 UNL     1       3.571  -0.359   0.418  1.00  0.00     0.059 A 
HETATM   27  C28 UNL     1       2.936  -1.530   1.050  1.00  0.00     0.163 C 
HETATM   28  O7  UNL     1       3.316  -1.852   2.175  1.00  0.00    -0.292 OA
HETATM   29  C29 UNL     1       2.053  -2.382   0.158  1.00  0.00     0.084 C 
HETATM   30  C30 UNL     1       1.111  -3.277   0.967  1.00  0.00     0.016 C 
HETATM   31  C31 UNL     1       2.885   3.046  -0.974  1.00  0.00     0.210 C 
HETATM   32  O8  UNL     1       3.345   3.737  -1.875  1.00  0.00    -0.285 OA
ENDROOT
BRANCH   5  33
HETATM   33  C8  UNL     1      -3.823   0.945  -0.985  1.00  0.00     0.039 C 
BRANCH  33  34
HETATM   34  C9  UNL     1      -5.110   0.162  -1.306  1.00  0.00    -0.020 C 
HETATM   35  C10 UNL     1      -6.149   1.099  -1.928  1.00  0.00     0.009 C 
HETATM   36  C11 UNL     1      -5.701  -0.522  -0.071  1.00  0.00     0.009 C 
ENDBRANCH  33  34
ENDBRANCH   5  33
BRANCH   4  37
HETATM   37  O1  UNL     1      -1.570  -0.553  -2.377  1.00  0.00    -0.389 OA
HETATM   38  H10 UNL     1      -0.812  -1.125  -2.577  1.00  0.00     0.210 HD
ENDBRANCH   4  37
BRANCH   1  39
HETATM   39  C2  UNL     1      -0.723  -5.059   0.897  1.00  0.00     0.004 C 
HETATM   40  C1  UNL     1       0.102  -6.198   1.477  1.00  0.00     0.006 C 
ENDBRANCH   1  39
BRANCH  13  41
HETATM   41  O4  UNL     1       0.307   6.704  -0.362  1.00  0.00    -0.346 OA
HETATM   42  H26 UNL     1       1.235   6.983  -0.476  1.00  0.00     0.219 HD
ENDBRANCH  13  41
BRANCH  25  43
HETATM   43  O6  UNL     1       5.616  -1.659   0.400  1.00  0.00    -0.359 OA
HETATM   44  H31 UNL     1       5.243  -2.005   1.245  1.00  0.00     0.217 HD
ENDBRANCH  25  43
TORSDOF 6
