REMARK  13 active torsions:
REMARK  status: ('A' for Active; 'I' for Inactive)
REMARK    1  A    between atoms: O1_2  and  C2_3 
REMARK    2  A    between atoms: C4_5  and  O2_6 
REMARK    3  A    between atoms: O2_6  and  C5_7 
REMARK    4  A    between atoms: C10_12  and  C11_13 
REMARK    5  A    between atoms: C11_13  and  C12_14 
REMARK    6  A    between atoms: C12_14  and  O3_15 
REMARK    7  A    between atoms: C12_14  and  C22_26 
REMARK    8  A    between atoms: O3_15  and  C13_16 
REMARK    9  A    between atoms: C13_16  and  C14_18 
REMARK   10  A    between atoms: C15_19  and  C16_20 
REMARK   11  A    between atoms: C27_32  and  C28_33 
REMARK   12  A    between atoms: C33_40  and  O8_41 
REMARK   13  A    between atoms: C37_46  and  O10_47 
ROOT
HETATM    1  C5  UNL     1      -3.512   0.533  -0.616  1.00  0.00     0.128 C 
HETATM    2  C6  UNL     1      -2.755   1.850  -0.760  1.00  0.00     0.033 C 
HETATM    3  C7  UNL     1      -1.242   1.639  -0.795  1.00  0.00     0.016 C 
HETATM    4  C8  UNL     1      -0.677   0.829   0.422  1.00  0.00     0.002 C 
HETATM    5  C9  UNL     1      -0.793   1.740   1.674  1.00  0.00     0.019 C 
HETATM    6  C10 UNL     1       0.848   0.510   0.140  1.00  0.00     0.073 C 
HETATM    7  C30 UNL     1       0.969  -0.468  -1.018  1.00  0.00     0.154 C 
HETATM    8  O7  UNL     1       1.904  -0.427  -1.814  1.00  0.00    -0.293 OA
HETATM    9  C31 UNL     1      -0.044  -1.535  -1.167  1.00  0.00     0.049 C 
HETATM   10  C32 UNL     1      -1.146  -1.548  -0.409  1.00  0.00     0.015 C 
HETATM   11  C33 UNL     1      -1.500  -0.494   0.611  1.00  0.00     0.086 C 
HETATM   12  C34 UNL     1      -3.017  -0.235   0.609  1.00  0.00     0.075 C 
ENDROOT
BRANCH   6  13
HETATM   13  C11 UNL     1       1.653  -0.015   1.358  1.00  0.00     0.047 C 
BRANCH  13  14
HETATM   14  C12 UNL     1       3.170  -0.267   1.130  1.00  0.00     0.149 C 
BRANCH  14  15
HETATM   15  O3  UNL     1       3.715   0.971   0.622  1.00  0.00    -0.311 OA
BRANCH  15  16
HETATM   16  C13 UNL     1       4.556   0.865  -0.445  1.00  0.00     0.283 C 
HETATM   17  O4  UNL     1       5.021  -0.171  -0.883  1.00  0.00    -0.260 OA
BRANCH  16  18
HETATM   18  C14 UNL     1       4.832   2.232  -0.936  1.00  0.00     0.083 C 
HETATM   19  C15 UNL     1       5.428   2.545  -2.099  1.00  0.00     0.017 C 
BRANCH  19  20
HETATM   20  C16 UNL     1       5.889   1.622  -3.143  1.00  0.00    -0.036 A 
HETATM   21  C17 UNL     1       5.012   0.726  -3.770  1.00  0.00     0.011 A 
HETATM   22  C18 UNL     1       5.472  -0.131  -4.777  1.00  0.00     0.001 A 
HETATM   23  C19 UNL     1       6.810  -0.090  -5.167  1.00  0.00     0.000 A 
HETATM   24  C20 UNL     1       7.686   0.813  -4.564  1.00  0.00     0.001 A 
HETATM   25  C21 UNL     1       7.226   1.670  -3.557  1.00  0.00     0.011 A 
ENDBRANCH  19  20
ENDBRANCH  16  18
ENDBRANCH  15  16
ENDBRANCH  14  15
BRANCH  14  26
HETATM   26  C22 UNL     1       3.937  -0.723   2.429  1.00  0.00     0.054 C 
HETATM   27  C23 UNL     1       3.658   0.189   3.633  1.00  0.00     0.027 C 
HETATM   28  C24 UNL     1       3.506  -2.156   2.725  1.00  0.00     0.138 C 
HETATM   29  O5  UNL     1       2.467  -2.464   3.293  1.00  0.00    -0.297 OA
HETATM   30  C25 UNL     1       4.500  -3.188   2.258  1.00  0.00     0.080 C 
HETATM   31  C26 UNL     1       5.582  -2.357   1.591  1.00  0.00     0.021 C 
HETATM   32  C27 UNL     1       5.462  -0.951   2.185  1.00  0.00     0.073 C 
BRANCH  32  33
HETATM   33  C28 UNL     1       6.373  -0.703   3.396  1.00  0.00     0.128 C 
HETATM   34  C29 UNL     1       6.595  -1.803   4.402  1.00  0.00     0.091 C 
HETATM   35  O6  UNL     1       6.875   0.411   3.573  1.00  0.00    -0.298 OA
ENDBRANCH  32  33
ENDBRANCH  14  26
ENDBRANCH  13  14
ENDBRANCH   6  13
BRANCH  11  36
HETATM   36  O8  UNL     1      -1.178  -1.074   1.876  1.00  0.00    -0.385 OA
HETATM   37  H40 UNL     1      -1.741  -1.852   2.021  1.00  0.00     0.211 HD
ENDBRANCH  11  36
BRANCH   1  38
HETATM   38  O2  UNL     1      -4.896   0.842  -0.431  1.00  0.00    -0.356 OA
BRANCH  38  39
HETATM   39  C4  UNL     1      -5.783  -0.188  -0.872  1.00  0.00     0.263 C 
HETATM   40  C3  UNL     1      -6.802  -0.414   0.246  1.00  0.00     0.095 C 
HETATM   41  C2  UNL     1      -8.026   0.464  -0.000  1.00  0.00     0.156 C 
HETATM   42  C37 UNL     1      -8.681   0.040  -1.334  1.00  0.00     0.175 C 
HETATM   43  C35 UNL     1      -7.623  -0.373  -2.377  1.00  0.00     0.151 C 
HETATM   44  O9  UNL     1      -6.367   0.251  -2.101  1.00  0.00    -0.354 OA
HETATM   45  C36 UNL     1      -8.053   0.020  -3.786  1.00  0.00     0.042 C 
BRANCH  41  46
HETATM   46  O1  UNL     1      -9.022   0.322   1.029  1.00  0.00    -0.388 OA
HETATM   47  C1  UNL     1      -8.661   0.970   2.247  1.00  0.00     0.202 C 
ENDBRANCH  41  46
BRANCH  42  48
HETATM   48  O10 UNL     1      -9.556  -1.077  -1.111  1.00  0.00    -0.390 OA
HETATM   49  H48 UNL     1      -9.909  -0.943  -0.202  1.00  0.00     0.210 HD
ENDBRANCH  42  48
ENDBRANCH  38  39
ENDBRANCH   1  38
TORSDOF 13
