REMARK  11 active torsions:
REMARK  status: ('A' for Active; 'I' for Inactive)
REMARK    1  A    between atoms: C13_13  and  S1_14 
REMARK    2  A    between atoms: C25_30  and  O5_31 
REMARK    3  A    between atoms: C31_37  and  C32_38 
REMARK    4  A    between atoms: C32_38  and  O6_39 
REMARK    5  A    between atoms: C40_47  and  C41_48 
REMARK    6  A    between atoms: C40_47  and  N1_59 
REMARK    7  A    between atoms: C41_48  and  C42_49 
REMARK    8  A    between atoms: C42_49  and  C43_50 
REMARK    9  A    between atoms: C42_49  and  C44_52 
REMARK   10  A    between atoms: C43_50  and  O7_51 
REMARK   11  A    between atoms: C44_52  and  C45_53 
REMARK       I    between atoms: C51_61  and  N2_62 
REMARK       I    between atoms: C51_61  and  N3_63 
ROOT
HETATM    1  C1  UNL     1      -3.041  -2.463  -2.819  1.00  0.00     0.011 C 
HETATM    2  C2  UNL     1      -1.526  -2.481  -2.993  1.00  0.00    -0.009 C 
HETATM    3  C3  UNL     1      -1.033  -1.101  -3.455  1.00  0.00     0.009 C 
HETATM    4  C4  UNL     1       0.455  -1.116  -3.790  1.00  0.00     0.039 C 
HETATM    5  C5  UNL     1       1.295  -1.834  -2.769  1.00  0.00    -0.049 C 
HETATM    6  C6  UNL     1       2.617  -1.439  -2.540  1.00  0.00     0.044 C 
HETATM    7  C7  UNL     1       3.359  -2.055  -1.529  1.00  0.00     0.073 C 
HETATM    8  C8  UNL     1       2.914  -3.234  -0.944  1.00  0.00     0.037 C 
HETATM    9  C9  UNL     1       1.609  -3.650  -1.179  1.00  0.00     0.011 C 
HETATM   10  C10 UNL     1       0.762  -2.881  -1.998  1.00  0.00    -0.046 C 
HETATM   11  C11 UNL     1      -0.755  -2.970  -1.743  1.00  0.00     0.037 C 
HETATM   12  C12 UNL     1      -0.948  -2.145  -0.429  1.00  0.00     0.126 C 
HETATM   13  C13 UNL     1      -2.188  -2.261   0.460  1.00  0.00     0.153 C 
HETATM   14  C14 UNL     1      -2.256  -1.246   1.693  1.00  0.00     0.053 C 
HETATM   15  C15 UNL     1      -3.717  -0.733   1.760  1.00  0.00    -0.013 C 
HETATM   16  C16 UNL     1      -4.061   0.546   2.021  1.00  0.00    -0.050 C 
HETATM   17  C17 UNL     1      -3.013   1.499   2.510  1.00  0.00     0.043 C 
HETATM   18  C18 UNL     1      -1.830   1.384   1.544  1.00  0.00     0.014 C 
HETATM   19  C19 UNL     1      -2.218   1.672   0.043  1.00  0.00     0.039 C 
HETATM   20  C20 UNL     1      -3.601   2.346  -0.204  1.00  0.00     0.130 C 
HETATM   21  O4  UNL     1      -4.616   1.346  -0.052  1.00  0.00    -0.371 OA
HETATM   22  C21 UNL     1      -5.167   1.247   1.279  1.00  0.00     0.185 C 
HETATM   23  C22 UNL     1      -6.589   0.720   1.172  1.00  0.00    -0.006 A 
HETATM   24  C23 UNL     1      -7.081  -0.296   2.004  1.00  0.00     0.014 A 
HETATM   25  C24 UNL     1      -8.417  -0.699   1.919  1.00  0.00     0.037 A 
HETATM   26  C25 UNL     1      -9.277  -0.082   1.016  1.00  0.00     0.067 A 
HETATM   27  C26 UNL     1      -8.832   0.942   0.187  1.00  0.00     0.057 A 
HETATM   28  C27 UNL     1      -7.498   1.350   0.267  1.00  0.00     0.029 A 
HETATM   29  C28 UNL     1      -7.029   2.409  -0.589  1.00  0.00    -0.066 C 
HETATM   30  C29 UNL     1      -6.299   3.142  -1.202  1.00  0.00    -0.101 C 
HETATM   31  C30 UNL     1      -5.103   3.809  -1.749  1.00  0.00     0.103 C 
HETATM   32  C31 UNL     1      -3.787   2.966  -1.626  1.00  0.00     0.049 C 
HETATM   33  C33 UNL     1      -1.203  -0.034   1.846  1.00  0.00     0.100 C 
HETATM   34  C34 UNL     1       0.285  -0.196   1.519  1.00  0.00    -0.040 A 
HETATM   35  C35 UNL     1       1.021  -1.215   2.147  1.00  0.00     0.009 A 
HETATM   36  C36 UNL     1       2.369  -1.445   1.828  1.00  0.00     0.012 A 
HETATM   37  C37 UNL     1       3.045  -0.658   0.877  1.00  0.00    -0.003 A 
HETATM   38  C38 UNL     1       2.325   0.405   0.307  1.00  0.00     0.012 A 
HETATM   39  C39 UNL     1       0.977   0.633   0.626  1.00  0.00     0.009 A 
HETATM   40  C40 UNL     1       4.473  -1.040   0.371  1.00  0.00     0.171 C 
HETATM   41  O8  UNL     1       4.459  -1.371  -1.078  1.00  0.00    -0.316 OA
HETATM   42 NA1  UNL     1       0.000   0.000   0.000  1.00  0.00    -0.240 Na
ENDROOT
BRANCH  40  43
HETATM   43  C41 UNL     1       5.433   0.205   0.434  1.00  0.00     0.074 C 
BRANCH  43  44
HETATM   44  C42 UNL     1       5.974   0.650   1.815  1.00  0.00     0.018 C 
BRANCH  44  45
HETATM   45  C43 UNL     1       4.910   1.146   2.799  1.00  0.00     0.169 C 
BRANCH  45  46
HETATM   46  O7  UNL     1       4.102   2.171   2.250  1.00  0.00    -0.400 OA
HETATM   47  H45 UNL     1       3.175   1.939   2.453  1.00  0.00     0.209 HD
ENDBRANCH  45  46
ENDBRANCH  44  45
BRANCH  44  48
HETATM   48  C44 UNL     1       7.155   1.647   1.675  1.00  0.00     0.045 C 
BRANCH  48  49
HETATM   49  C45 UNL     1       6.996   2.826   0.745  1.00  0.00    -0.058 A 
HETATM   50  C46 UNL     1       6.359   3.999   1.169  1.00  0.00     0.007 A 
HETATM   51  C47 UNL     1       6.229   5.090   0.306  1.00  0.00     0.001 A 
HETATM   52  C48 UNL     1       6.739   5.024  -0.988  1.00  0.00     0.000 A 
HETATM   53  C49 UNL     1       7.377   3.864  -1.423  1.00  0.00     0.001 A 
HETATM   54  C50 UNL     1       7.506   2.773  -0.562  1.00  0.00     0.007 A 
ENDBRANCH  48  49
ENDBRANCH  44  48
ENDBRANCH  43  44
ENDBRANCH  40  43
BRANCH  40  55
HETATM   55  N1  UNL     1       5.084  -2.063   1.251  1.00  0.00    -0.336 N 
HETATM   56  C51 UNL     1       6.034  -2.811   0.835  1.00  0.00     0.124 C 
HETATM   57  N2  UNL     1       6.593  -3.692   1.691  1.00  0.00    -0.279 NA
HETATM   58  N3  UNL     1       6.637  -2.842  -0.371  1.00  0.00    -0.279 NA
HETATM   59  H53 UNL     1       6.740  -4.619   1.316  1.00  0.00     0.126 HD
HETATM   60  H54 UNL     1       6.052  -3.730   2.550  1.00  0.00     0.126 HD
HETATM   61  H55 UNL     1       6.109  -2.370  -1.101  1.00  0.00     0.126 HD
HETATM   62  H56 UNL     1       7.007  -3.730  -0.676  1.00  0.00     0.126 HD
ATOM     63  H1  UNL     1       4.741  -2.173   2.205  1.00  0.00     0.165 HD
ENDBRANCH  40  55
BRANCH  13  64
HETATM   64  S1  UNL     1      -2.356  -3.959   1.129  1.00  0.00     0.108 S 
HETATM   65  O1  UNL     1      -1.105  -4.175   1.856  1.00  0.00    -0.595 OA
HETATM   66  O2  UNL     1      -2.531  -4.806  -0.048  1.00  0.00    -0.595 OA
HETATM   67  O3  UNL     1      -3.543  -3.892   1.979  1.00  0.00    -0.595 OA
ENDBRANCH  13  64
BRANCH  32  68
HETATM   68  C32 UNL     1      -3.687   1.933  -2.760  1.00  0.00     0.172 C 
BRANCH  68  69
HETATM   69  O6  UNL     1      -4.744   0.989  -2.757  1.00  0.00    -0.400 OA
HETATM   70  H34 UNL     1      -4.881   0.716  -1.824  1.00  0.00     0.209 HD
ENDBRANCH  68  69
ENDBRANCH  32  68
BRANCH  26  71
HETATM   71  O5  UNL     1     -10.573  -0.512   0.975  1.00  0.00    -0.361 OA
HETATM   72  H27 UNL     1     -11.034  -0.022   0.276  1.00  0.00     0.217 HD
ENDBRANCH  26  71
TORSDOF 11
