REMARK  6 active torsions:
REMARK  status: ('A' for Active; 'I' for Inactive)
REMARK    1  A    between atoms: C12_13  and  C13_14 
REMARK    2  A    between atoms: C13_14  and  C15_16 
REMARK    3  A    between atoms: C15_16  and  C16_17 
REMARK    4  A    between atoms: C16_17  and  C17_18 
REMARK    5  A    between atoms: C18_19  and  C20_21 
REMARK    6  A    between atoms: C20_21  and  O3_23 
ROOT
HETATM    1  C1  UNL     1      -6.758   2.060   0.013  1.00  0.00     0.052 C 
HETATM    2  C2  UNL     1      -5.959   0.856   0.425  1.00  0.00    -0.013 C 
HETATM    3  C3  UNL     1      -5.018   0.232  -0.319  1.00  0.00    -0.066 C 
HETATM    4  C4  UNL     1      -4.568   0.691  -1.685  1.00  0.00     0.036 C 
HETATM    5  C5  UNL     1      -3.092   1.104  -1.623  1.00  0.00     0.010 C 
HETATM    6  C6  UNL     1      -2.198  -0.028  -1.056  1.00  0.00     0.007 C 
HETATM    7  C7  UNL     1      -2.756  -0.497   0.327  1.00  0.00     0.068 C 
HETATM    8  C8  UNL     1      -1.838  -1.542   0.930  1.00  0.00     0.133 C 
HETATM    9  O1  UNL     1      -1.973  -1.931   2.091  1.00  0.00    -0.298 OA
HETATM   10  C9  UNL     1      -0.747  -2.094   0.056  1.00  0.00     0.089 C 
HETATM   11  C10 UNL     1       0.170  -1.006  -0.590  1.00  0.00    -0.026 C 
HETATM   12  C11 UNL     1       0.800  -1.739  -1.797  1.00  0.00     0.016 C 
HETATM   13  C12 UNL     1       1.209  -0.477   0.490  1.00  0.00    -0.002 C 
HETATM   14  C21 UNL     1       0.417   0.643   1.179  1.00  0.00     0.006 C 
HETATM   15  C22 UNL     1      -0.299   1.366   0.054  1.00  0.00     0.011 C 
HETATM   16  C23 UNL     1      -0.658   0.296  -1.015  1.00  0.00    -0.032 C 
HETATM   17  C24 UNL     1      -0.218   0.867  -2.386  1.00  0.00     0.016 C 
HETATM   18  C25 UNL     1      -4.218  -0.980   0.155  1.00  0.00     0.027 C 
HETATM   19  C26 UNL     1      -4.892  -1.643   1.362  1.00  0.00     0.018 C 
HETATM   20  C27 UNL     1      -5.274  -0.636   2.425  1.00  0.00     0.084 C 
HETATM   21  C28 UNL     1      -6.212   0.388   1.833  1.00  0.00     0.155 C 
HETATM   22  O4  UNL     1      -7.126   0.873   2.500  1.00  0.00    -0.293 OA
ENDROOT
BRANCH  13  23
HETATM   23  C13 UNL     1       2.621  -0.051  -0.061  1.00  0.00    -0.014 C 
HETATM   24  C14 UNL     1       3.546  -1.281  -0.086  1.00  0.00     0.010 C 
BRANCH  23  25
HETATM   25  C15 UNL     1       3.294   1.106   0.725  1.00  0.00     0.008 C 
BRANCH  25  26
HETATM   26  C16 UNL     1       4.681   1.548   0.219  1.00  0.00     0.028 C 
BRANCH  26  27
HETATM   27  C17 UNL     1       5.824   0.777   0.823  1.00  0.00    -0.013 C 
HETATM   28  C18 UNL     1       6.889   0.250   0.184  1.00  0.00     0.008 C 
HETATM   29  C19 UNL     1       7.174   0.359  -1.283  1.00  0.00     0.055 C 
BRANCH  28  30
HETATM   30  C20 UNL     1       7.868  -0.488   1.025  1.00  0.00     0.171 C 
HETATM   31  O2  UNL     1       7.859  -0.589   2.240  1.00  0.00    -0.646 OA
BRANCH  30  32
HETATM   32  O3  UNL     1       8.823  -1.084   0.292  1.00  0.00    -0.773 OA
HETATM   33  H28 UNL     1       9.385  -1.519   0.968  1.00  0.00     0.167 HD
ENDBRANCH  30  32
ENDBRANCH  28  30
ENDBRANCH  26  27
ENDBRANCH  25  26
ENDBRANCH  23  25
ENDBRANCH  13  23
TORSDOF 6
