REMARK  8 active torsions:
REMARK  status: ('A' for Active; 'I' for Inactive)
REMARK    1  A    between atoms: C2_2  and  C30_33 
REMARK    2  A    between atoms: C3_3  and  C4_4 
REMARK    3  A    between atoms: C4_4  and  C5_5 
REMARK    4  A    between atoms: C5_5  and  C6_6 
REMARK    5  A    between atoms: C6_6  and  C8_8 
REMARK    6  A    between atoms: C21_22  and  O2_23 
REMARK    7  A    between atoms: C23_25  and  O3_26 
REMARK    8  A    between atoms: C30_33  and  O4_34 
ROOT
HETATM    1  C8  UNL     1       2.235  -1.408  -1.087  1.00  0.00    -0.001 C 
HETATM    2  C9  UNL     1       2.469  -0.220  -2.061  1.00  0.00     0.007 C 
HETATM    3  C10 UNL     1       1.095   0.432  -2.312  1.00  0.00     0.015 C 
HETATM    4  C11 UNL     1       0.071  -0.582  -1.766  1.00  0.00    -0.012 C 
HETATM    5  C12 UNL     1      -0.173  -1.647  -2.883  1.00  0.00     0.021 C 
HETATM    6  C13 UNL     1      -1.318  -0.100  -1.374  1.00  0.00    -0.060 C 
HETATM    7  C14 UNL     1      -2.054  -0.780  -0.460  1.00  0.00     0.002 C 
HETATM    8  C15 UNL     1      -1.441  -2.013   0.193  1.00  0.00     0.157 C 
HETATM    9  O1  UNL     1      -2.153  -2.806   0.820  1.00  0.00    -0.293 OA
HETATM   10  C16 UNL     1       0.054  -2.300   0.062  1.00  0.00     0.094 C 
HETATM   11  C17 UNL     1       0.829  -1.105  -0.490  1.00  0.00    -0.022 C 
HETATM   12  C18 UNL     1       0.929  -0.036   0.639  1.00  0.00     0.017 C 
HETATM   13  C19 UNL     1      -3.517  -0.414  -0.100  1.00  0.00     0.017 C 
HETATM   14  C20 UNL     1      -4.384  -1.413  -0.917  1.00  0.00     0.023 C 
HETATM   15  C21 UNL     1      -3.761  -0.546   1.452  1.00  0.00     0.134 C 
HETATM   16  C22 UNL     1      -4.587   0.579   2.090  1.00  0.00     0.065 C 
HETATM   17  C23 UNL     1      -5.746   1.031   1.204  1.00  0.00     0.128 C 
HETATM   18  C24 UNL     1      -5.250   1.604  -0.164  1.00  0.00    -0.017 C 
HETATM   19  C25 UNL     1      -5.166   3.149  -0.003  1.00  0.00     0.018 C 
HETATM   20  C26 UNL     1      -6.275   1.350  -1.290  1.00  0.00     0.018 C 
HETATM   21  C27 UNL     1      -3.796   1.081  -0.504  1.00  0.00     0.011 C 
HETATM   22  C28 UNL     1      -3.342   1.365  -1.949  1.00  0.00     0.011 C 
HETATM   23  C29 UNL     1      -1.845   1.106  -2.115  1.00  0.00     0.036 C 
ENDROOT
BRANCH   1  24
HETATM   24  C6  UNL     1       3.483  -1.763  -0.226  1.00  0.00    -0.014 C 
HETATM   25  C7  UNL     1       3.273  -3.075   0.541  1.00  0.00     0.010 C 
BRANCH  24  26
HETATM   26  C5  UNL     1       4.032  -0.667   0.713  1.00  0.00     0.008 C 
BRANCH  26  27
HETATM   27  C4  UNL     1       5.518  -0.866   1.046  1.00  0.00     0.028 C 
BRANCH  27  28
HETATM   28  C3  UNL     1       6.032   0.266   1.892  1.00  0.00    -0.022 C 
HETATM   29  C2  UNL     1       6.787   1.312   1.499  1.00  0.00    -0.064 C 
HETATM   30  C1  UNL     1       7.232   1.571   0.084  1.00  0.00     0.045 C 
BRANCH  29  31
HETATM   31  C30 UNL     1       7.232   2.353   2.493  1.00  0.00     0.197 C 
BRANCH  31  32
HETATM   32  O4  UNL     1       8.651   2.356   2.554  1.00  0.00    -0.397 OA
HETATM   33  H48 UNL     1       8.895   2.909   3.312  1.00  0.00     0.209 HD
ENDBRANCH  31  32
ENDBRANCH  29  31
ENDBRANCH  27  28
ENDBRANCH  26  27
ENDBRANCH  24  26
ENDBRANCH   1  24
BRANCH  15  34
HETATM   34  O2  UNL     1      -4.439  -1.774   1.753  1.00  0.00    -0.394 OA
HETATM   35  H30 UNL     1      -3.746  -2.476   1.723  1.00  0.00     0.210 HD
ENDBRANCH  15  34
BRANCH  17  36
HETATM   36  O3  UNL     1      -6.682  -0.034   1.051  1.00  0.00    -0.395 OA
HETATM   37  H34 UNL     1      -6.225  -0.877   1.232  1.00  0.00     0.210 HD
ENDBRANCH  17  36
TORSDOF 8
