REMARK  7 active torsions:
REMARK  status: ('A' for Active; 'I' for Inactive)
REMARK    1  A    between atoms: C2_2  and  O2_4 
REMARK    2  A    between atoms: O2_4  and  C3_5 
REMARK    3  A    between atoms: C3_5  and  C4_6 
REMARK    4  A    between atoms: C3_5  and  C9_12 
REMARK    5  A    between atoms: C5_7  and  C6_8 
REMARK    6  A    between atoms: C6_8  and  O3_11 
REMARK    7  A    between atoms: C9_12  and  C11_14 
ROOT
HETATM    1  C11 UNL     1       1.880  -0.460   0.535  1.00  0.00     0.001 C 
HETATM    2  C12 UNL     1       2.027   1.017   0.067  1.00  0.00     0.007 C 
HETATM    3  C13 UNL     1       0.615   1.609  -0.093  1.00  0.00     0.015 C 
HETATM    4  C14 UNL     1      -0.314   0.595   0.590  1.00  0.00    -0.013 C 
HETATM    5  C15 UNL     1      -0.308   0.920   2.117  1.00  0.00     0.021 C 
HETATM    6  C16 UNL     1      -1.785   0.577   0.193  1.00  0.00    -0.068 C 
HETATM    7  C17 UNL     1      -2.507  -0.569   0.257  1.00  0.00    -0.068 C 
HETATM    8  C18 UNL     1      -1.846  -1.879   0.718  1.00  0.00     0.036 C 
HETATM    9  C19 UNL     1      -0.321  -1.868   0.979  1.00  0.00     0.015 C 
HETATM   10  C20 UNL     1       0.384  -0.760   0.186  1.00  0.00    -0.029 C 
HETATM   11  C21 UNL     1       0.272  -1.084  -1.338  1.00  0.00     0.016 C 
HETATM   12  C22 UNL     1      -3.996  -0.650  -0.192  1.00  0.00    -0.015 C 
HETATM   13  C23 UNL     1      -4.050  -1.607  -1.417  1.00  0.00     0.020 C 
HETATM   14  C24 UNL     1      -4.868  -1.207   0.956  1.00  0.00     0.021 C 
HETATM   15  C25 UNL     1      -6.315  -1.473   0.554  1.00  0.00     0.080 C 
HETATM   16  C26 UNL     1      -6.832  -0.496  -0.476  1.00  0.00     0.135 C 
HETATM   17  O4  UNL     1      -7.805  -0.795  -1.170  1.00  0.00    -0.297 OA
HETATM   18  C27 UNL     1      -6.165   0.880  -0.549  1.00  0.00     0.018 C 
HETATM   19  C28 UNL     1      -6.672   1.626  -1.804  1.00  0.00     0.023 C 
HETATM   20  C29 UNL     1      -6.678   1.658   0.684  1.00  0.00     0.023 C 
HETATM   21  C30 UNL     1      -4.594   0.743  -0.650  1.00  0.00     0.013 C 
HETATM   22  C31 UNL     1      -3.887   1.923   0.037  1.00  0.00     0.011 C 
HETATM   23  C32 UNL     1      -2.389   1.891  -0.210  1.00  0.00     0.036 C 
ENDROOT
BRANCH   1  24
HETATM   24  C9  UNL     1       3.008  -1.394  -0.020  1.00  0.00     0.020 C 
HETATM   25  C10 UNL     1       2.778  -2.854   0.402  1.00  0.00     0.013 C 
BRANCH  24  26
HETATM   26  C3  UNL     1       4.461  -0.999   0.412  1.00  0.00     0.158 C 
BRANCH  26  27
HETATM   27  O2  UNL     1       4.503  -0.699   1.820  1.00  0.00    -0.312 OA
BRANCH  27  28
HETATM   28  C2  UNL     1       5.032  -1.648   2.639  1.00  0.00     0.255 C 
HETATM   29  C1  UNL     1       5.010  -1.166   4.057  1.00  0.00     0.126 C 
HETATM   30  O1  UNL     1       5.436  -2.751   2.298  1.00  0.00    -0.266 OA
ENDBRANCH  27  28
ENDBRANCH  26  27
BRANCH  26  31
HETATM   31  C4  UNL     1       5.007   0.220  -0.291  1.00  0.00     0.005 C 
HETATM   32  C5  UNL     1       5.647   0.184  -1.473  1.00  0.00     0.008 C 
BRANCH  32  33
HETATM   33  C6  UNL     1       6.223   1.349  -2.245  1.00  0.00     0.068 C 
HETATM   34  C7  UNL     1       7.698   1.085  -2.561  1.00  0.00     0.050 C 
HETATM   35  C8  UNL     1       6.073   2.722  -1.580  1.00  0.00     0.050 C 
BRANCH  33  36
HETATM   36  O3  UNL     1       5.519   1.391  -3.489  1.00  0.00    -0.387 OA
HETATM   37  H13 UNL     1       4.574   1.484  -3.276  1.00  0.00     0.211 HD
ENDBRANCH  33  36
ENDBRANCH  32  33
ENDBRANCH  26  31
ENDBRANCH  24  26
ENDBRANCH   1  24
TORSDOF 7
