REMARK  9 active torsions:
REMARK  status: ('A' for Active; 'I' for Inactive)
REMARK    1  A    between atoms: C3_4  and  O2_5 
REMARK    2  A    between atoms: O2_5  and  C4_6 
REMARK    3  A    between atoms: C11_13  and  O3_14 
REMARK    4  A    between atoms: C15_18  and  C16_19 
REMARK    5  A    between atoms: C23_28  and  O6_29 
REMARK    6  A    between atoms: C24_30  and  C25_31 
REMARK    7  A    between atoms: C28_35  and  O8_36 
REMARK    8  A    between atoms: C29_37  and  O9_38 
REMARK    9  A    between atoms: C30_39  and  O10_40 
ROOT
HETATM    1  C4  UNL     1      -3.130   0.189   0.977  1.00  0.00     0.148 C 
HETATM    2  C5  UNL     1      -2.093   1.269   1.069  1.00  0.00     0.009 C 
HETATM    3  C6  UNL     1      -0.891   1.242   0.458  1.00  0.00    -0.065 C 
HETATM    4  C7  UNL     1       0.042   2.420   0.599  1.00  0.00     0.036 C 
HETATM    5  C8  UNL     1       1.439   1.979   1.003  1.00  0.00     0.012 C 
HETATM    6  C9  UNL     1       2.008   0.932   0.024  1.00  0.00     0.029 C 
HETATM    7  C10 UNL     1       1.089  -0.322  -0.008  1.00  0.00     0.041 C 
HETATM    8  C11 UNL     1       1.719  -1.425  -0.893  1.00  0.00     0.125 C 
HETATM    9  C12 UNL     1       3.163  -1.735  -0.501  1.00  0.00     0.045 C 
HETATM   10  C13 UNL     1       4.115  -0.511  -0.511  1.00  0.00    -0.003 C 
HETATM   11  C14 UNL     1       4.381  -0.114  -1.975  1.00  0.00     0.019 C 
HETATM   12  C15 UNL     1       5.417  -0.913   0.285  1.00  0.00     0.032 C 
HETATM   13  C21 UNL     1       5.191  -0.409   1.731  1.00  0.00     0.013 C 
HETATM   14  C22 UNL     1       3.781   0.185   1.776  1.00  0.00     0.040 C 
HETATM   15  C23 UNL     1       3.498   0.633   0.335  1.00  0.00     0.070 C 
HETATM   16  C24 UNL     1      -0.404   0.050  -0.386  1.00  0.00     0.043 C 
HETATM   17  C26 UNL     1      -1.354  -1.168  -0.192  1.00  0.00     0.025 C 
HETATM   18  C27 UNL     1      -2.830  -0.777  -0.165  1.00  0.00     0.037 C 
ENDROOT
BRANCH   1  19
HETATM   19  O2  UNL     1      -4.377   0.838   0.719  1.00  0.00    -0.349 OA
BRANCH  19  20
HETATM   20  C3  UNL     1      -5.413   0.429   1.603  1.00  0.00     0.292 C 
HETATM   21  O1  UNL     1      -5.850  -0.913   1.356  1.00  0.00    -0.351 OA
HETATM   22  C2  UNL     1      -6.424  -1.095   0.050  1.00  0.00     0.152 C 
HETATM   23  C1  UNL     1      -6.769  -2.574  -0.090  1.00  0.00     0.042 C 
HETATM   24  C30 UNL     1      -7.660  -0.207  -0.145  1.00  0.00     0.178 C 
HETATM   25  C29 UNL     1      -7.300   1.254   0.144  1.00  0.00     0.183 C 
HETATM   26  C28 UNL     1      -6.613   1.392   1.504  1.00  0.00     0.204 C 
BRANCH  24  27
HETATM   27  O10 UNL     1      -8.169  -0.315  -1.476  1.00  0.00    -0.390 OA
HETATM   28  H40 UNL     1      -8.787   0.435  -1.582  1.00  0.00     0.210 HD
ENDBRANCH  24  27
BRANCH  25  29
HETATM   29  O9  UNL     1      -8.512   2.031   0.116  1.00  0.00    -0.390 OA
HETATM   30  H38 UNL     1      -8.846   2.030   1.038  1.00  0.00     0.210 HD
ENDBRANCH  25  29
BRANCH  26  31
HETATM   31  O8  UNL     1      -7.591   1.115   2.530  1.00  0.00    -0.388 OA
HETATM   32  H36 UNL     1      -7.528   0.162   2.741  1.00  0.00     0.210 HD
ENDBRANCH  26  31
ENDBRANCH  19  20
ENDBRANCH   1  19
BRANCH  16  33
HETATM   33  C25 UNL     1      -0.480   0.484  -1.862  1.00  0.00     0.245 C 
HETATM   34  O7  UNL     1      -0.509  -0.290  -2.817  1.00  0.00    -0.306 OA
ENDBRANCH  16  33
BRANCH   8  35
HETATM   35  O3  UNL     1       1.004  -2.645  -0.730  1.00  0.00    -0.395 OA
HETATM   36  H15 UNL     1       1.107  -3.156  -1.553  1.00  0.00     0.210 HD
ENDBRANCH   8  35
BRANCH  15  37
HETATM   37  O6  UNL     1       4.234   1.848   0.139  1.00  0.00    -0.389 OA
HETATM   38  H29 UNL     1       4.036   2.194  -0.748  1.00  0.00     0.210 HD
ENDBRANCH  15  37
BRANCH  12  39
HETATM   39  C16 UNL     1       6.770  -0.532  -0.297  1.00  0.00    -0.030 A 
HETATM   40  C17 UNL     1       7.568  -1.448  -0.866  1.00  0.00     0.153 A 
HETATM   41  O4  UNL     1       8.821  -1.165  -1.430  1.00  0.00    -0.287 OA
HETATM   42  C18 UNL     1       9.300   0.117  -1.417  1.00  0.00     0.287 A 
HETATM   43  O5  UNL     1      10.381   0.423  -1.906  1.00  0.00    -0.260 OA
HETATM   44  C19 UNL     1       8.452   1.141  -0.781  1.00  0.00     0.083 A 
HETATM   45  C20 UNL     1       7.264   0.825  -0.255  1.00  0.00     0.015 A 
ENDBRANCH  12  39
TORSDOF 9
