REMARK  8 active torsions:
REMARK  status: ('A' for Active; 'I' for Inactive)
REMARK    1  A    between atoms: C5_5  and  C6_6 
REMARK    2  A    between atoms: C6_6  and  O1_9 
REMARK    3  A    between atoms: C11_12  and  C12_13 
REMARK    4  A    between atoms: C12_13  and  C13_14 
REMARK    5  A    between atoms: C17_18  and  O2_19 
REMARK    6  A    between atoms: C18_20  and  C19_21 
REMARK    7  A    between atoms: C20_23  and  O4_24 
REMARK    8  A    between atoms: C21_25  and  C22_26 
ROOT
HETATM    1  C1  UNL     1       4.736  -2.094  -0.674  1.00  0.00     0.019 C 
HETATM    2  C2  UNL     1       3.729  -2.021   0.213  1.00  0.00    -0.068 C 
HETATM    3  C3  UNL     1       3.959  -1.352   1.468  1.00  0.00     0.003 C 
HETATM    4  C4  UNL     1       3.488  -0.203   1.974  1.00  0.00    -0.019 C 
HETATM    5  C5  UNL     1       2.530   0.924   1.577  1.00  0.00     0.042 C 
HETATM    6  C9  UNL     1       1.949   0.958   0.119  1.00  0.00     0.020 C 
HETATM    7  C10 UNL     1       0.718   0.116  -0.331  1.00  0.00     0.030 C 
HETATM    8  C11 UNL     1      -0.701   0.707  -0.034  1.00  0.00     0.031 C 
HETATM    9  C16 UNL     1      -1.682  -0.414  -0.327  1.00  0.00     0.015 A 
HETATM   10  C17 UNL     1      -2.774  -0.756   0.492  1.00  0.00     0.091 A 
HETATM   11  C18 UNL     1      -3.653  -1.790   0.121  1.00  0.00     0.069 A 
HETATM   12  C20 UNL     1      -3.435  -2.518  -1.058  1.00  0.00     0.097 A 
HETATM   13  C21 UNL     1      -2.341  -2.202  -1.869  1.00  0.00     0.070 A 
HETATM   14  C23 UNL     1      -1.477  -1.153  -1.503  1.00  0.00     0.095 A 
HETATM   15  O6  UNL     1      -0.455  -0.851  -2.359  1.00  0.00    -0.338 OA
HETATM   16  C24 UNL     1       0.789  -0.328  -1.840  1.00  0.00     0.068 C 
HETATM   17  C25 UNL     1       1.163   0.829  -2.805  1.00  0.00     0.047 C 
HETATM   18  C26 UNL     1       1.839  -1.437  -2.129  1.00  0.00     0.039 C 
HETATM   19  C27 UNL     1       1.760  -2.743  -1.325  1.00  0.00     0.007 C 
HETATM   20  C28 UNL     1       2.423  -2.762   0.056  1.00  0.00     0.038 C 
ENDROOT
BRANCH   5  21
HETATM   21  C6  UNL     1       1.576   1.251   2.790  1.00  0.00     0.057 C 
HETATM   22  C7  UNL     1       0.707   0.064   3.222  1.00  0.00     0.046 C 
HETATM   23  C8  UNL     1       0.768   2.538   2.590  1.00  0.00     0.046 C 
BRANCH  21  24
HETATM   24  O1  UNL     1       2.388   1.521   3.961  1.00  0.00    -0.390 OA
HETATM   25  H12 UNL     1       2.930   2.310   3.788  1.00  0.00     0.210 HD
ENDBRANCH  21  24
ENDBRANCH   5  21
BRANCH   8  26
HETATM   26  C12 UNL     1      -1.087   2.018  -0.766  1.00  0.00     0.014 C 
BRANCH  26  27
HETATM   27  C13 UNL     1      -2.270   2.788  -0.123  1.00  0.00    -0.022 C 
HETATM   28  C14 UNL     1      -1.997   4.295  -0.137  1.00  0.00     0.009 C 
HETATM   29  C15 UNL     1      -3.587   2.521  -0.858  1.00  0.00     0.009 C 
ENDBRANCH  26  27
ENDBRANCH   8  26
BRANCH  10  30
HETATM   30  O2  UNL     1      -3.048  -0.098   1.661  1.00  0.00    -0.359 OA
HETATM   31  H26 UNL     1      -2.339   0.514   1.908  1.00  0.00     0.217 HD
ENDBRANCH  10  30
BRANCH  11  32
HETATM   32  C19 UNL     1      -4.828  -2.083   0.972  1.00  0.00     0.275 C 
HETATM   33  O3  UNL     1      -5.589  -3.010   0.703  1.00  0.00    -0.301 OA
ENDBRANCH  11  32
BRANCH  13  34
HETATM   34  C22 UNL     1      -2.033  -2.960  -3.110  1.00  0.00     0.275 C 
HETATM   35  O5  UNL     1      -2.338  -4.131  -3.298  1.00  0.00    -0.301 OA
ENDBRANCH  13  34
BRANCH  12  36
HETATM   36  O4  UNL     1      -4.297  -3.507  -1.454  1.00  0.00    -0.359 OA
HETATM   37  H28 UNL     1      -4.996  -3.632  -0.769  1.00  0.00     0.217 HD
ENDBRANCH  12  36
TORSDOF 8
