REMARK  10 active torsions:
REMARK  status: ('A' for Active; 'I' for Inactive)
REMARK    1  A    between atoms: C3_3  and  O1_4 
REMARK    2  A    between atoms: N1_14  and  O2_16 
REMARK    3  A    between atoms: O2_16  and  C13_17 
REMARK    4  A    between atoms: C13_17  and  C14_18 
REMARK       I    between atoms: C14_18  and  N2_20 
REMARK    5  A    between atoms: N2_20  and  C15_21 
REMARK    6  A    between atoms: C15_21  and  C16_22 
REMARK       I    between atoms: C16_22  and  N3_24 
REMARK    7  A    between atoms: N3_24  and  C17_25 
REMARK    8  A    between atoms: C17_25  and  C18_26 
REMARK    9  A    between atoms: C17_25  and  C19_29 
REMARK   10  A    between atoms: C18_26  and  O6_28 
ROOT
HETATM    1  C1  UNL     1      -7.962   1.597  -2.049  1.00  0.00     0.015 C 
HETATM    2  C2  UNL     1      -8.064   0.956  -1.039  1.00  0.00    -0.078 C 
HETATM    3  C3  UNL     1      -8.267   0.175   0.202  1.00  0.00     0.128 C 
HETATM    4  C4  UNL     1      -8.140   1.077   1.429  1.00  0.00     0.052 C 
HETATM    5  C5  UNL     1      -6.637   1.160   1.654  1.00  0.00     0.010 C 
HETATM    6  C6  UNL     1      -6.100  -0.257   1.346  1.00  0.00     0.002 C 
HETATM    7  C7  UNL     1      -4.684  -0.211   0.744  1.00  0.00    -0.004 C 
HETATM    8  C8  UNL     1      -3.893  -1.509   1.017  1.00  0.00     0.010 C 
HETATM    9  C9  UNL     1      -2.672  -1.698   0.102  1.00  0.00     0.035 C 
HETATM   10  C10 UNL     1      -2.196  -0.395  -0.486  1.00  0.00    -0.069 C 
HETATM   11  C11 UNL     1      -0.948   0.052  -0.246  1.00  0.00     0.030 C 
HETATM   12  C12 UNL     1      -0.466   1.348  -0.804  1.00  0.00     0.032 C 
HETATM   13  N1  UNL     1       0.769   1.745  -0.838  1.00  0.00    -0.271 N 
ATOM     14  H1  UNL     1       1.075   2.610  -1.283  1.00  0.00     0.194 HD
HETATM   15  C22 UNL     1      -1.487   2.287  -1.425  1.00  0.00     0.060 C 
HETATM   16  C23 UNL     1      -2.923   1.908  -1.083  1.00  0.00     0.020 C 
HETATM   17  C24 UNL     1      -3.229   0.396  -1.292  1.00  0.00    -0.016 C 
HETATM   18  C25 UNL     1      -3.075   0.063  -2.796  1.00  0.00     0.020 C 
HETATM   19  C26 UNL     1      -4.699   0.116  -0.764  1.00  0.00     0.002 C 
HETATM   20  C27 UNL     1      -5.493  -0.950  -1.549  1.00  0.00     0.007 C 
HETATM   21  C28 UNL     1      -6.658  -1.622  -0.808  1.00  0.00     0.014 C 
HETATM   22  C29 UNL     1      -7.198  -0.943   0.468  1.00  0.00     0.003 C 
HETATM   23  C30 UNL     1      -7.840  -2.083   1.319  1.00  0.00     0.020 C 
ENDROOT
BRANCH   3  24
HETATM   24  O1  UNL     1      -9.585  -0.363   0.150  1.00  0.00    -0.377 OA
HETATM   25  H2  UNL     1     -10.178   0.373  -0.083  1.00  0.00     0.211 HD
ENDBRANCH   3  24
BRANCH  13  26
HETATM   26  O2  UNL     1       1.636   0.848  -0.192  1.00  0.00    -0.271 OA
BRANCH  26  27
HETATM   27  C13 UNL     1       2.965   1.098  -0.635  1.00  0.00     0.303 C 
BRANCH  27  28
HETATM   28  C14 UNL     1       3.992   0.790   0.455  1.00  0.00     0.244 C 
HETATM   29  O3  UNL     1       3.774   0.896   1.660  1.00  0.00    -0.271 OA
HETATM   30  N2  UNL     1       5.233   0.440  -0.032  1.00  0.00    -0.350 N 
HETATM   31  H16 UNL     1       5.353   0.171  -1.008  1.00  0.00     0.163 HD
BRANCH  30  32
HETATM   32  C15 UNL     1       6.360   0.219   0.853  1.00  0.00     0.225 C 
BRANCH  32  33
HETATM   33  C16 UNL     1       7.546  -0.292   0.036  1.00  0.00     0.236 C 
HETATM   34  O4  UNL     1       7.400  -0.819  -1.067  1.00  0.00    -0.272 OA
HETATM   35  N3  UNL     1       8.772  -0.146   0.657  1.00  0.00    -0.345 N 
HETATM   36  H19 UNL     1       8.828   0.615   1.324  1.00  0.00     0.163 HD
BRANCH  35  37
HETATM   37  C17 UNL     1      10.006  -0.425  -0.087  1.00  0.00     0.185 C 
BRANCH  37  38
HETATM   38  C18 UNL     1      10.494   0.822  -0.849  1.00  0.00     0.163 C 
HETATM   39  O5  UNL     1      11.440   0.871  -1.624  1.00  0.00    -0.648 OA
BRANCH  38  40
HETATM   40  O6  UNL     1       9.818   1.952  -0.539  1.00  0.00    -0.775 OA
HETATM   41  H21 UNL     1      10.244   2.635  -1.102  1.00  0.00     0.167 HD
ENDBRANCH  38  40
ENDBRANCH  37  38
BRANCH  37  42
HETATM   42  C19 UNL     1      11.124  -0.960   0.837  1.00  0.00     0.010 C 
HETATM   43  C20 UNL     1      11.528   0.027   1.941  1.00  0.00     0.012 C 
HETATM   44  C21 UNL     1      10.727  -2.304   1.465  1.00  0.00     0.012 C 
ENDBRANCH  37  42
ENDBRANCH  35  37
ENDBRANCH  32  33
ENDBRANCH  30  32
ENDBRANCH  27  28
ENDBRANCH  26  27
ENDBRANCH  13  26
TORSDOF 10
