REMARK  6 active torsions:
REMARK  status: ('A' for Active; 'I' for Inactive)
REMARK    1  A    between atoms: C4_4  and  O1_5 
REMARK    2  A    between atoms: C5_6  and  O2_7 
REMARK    3  A    between atoms: C8_11  and  C9_12 
REMARK    4  A    between atoms: C19_23  and  C20_24 
REMARK    5  A    between atoms: C25_31  and  O7_32 
REMARK    6  A    between atoms: C26_33  and  O8_34 
ROOT
HETATM    1  C1  UNL     1       6.605  -3.084   0.829  1.00  0.00     0.040 C 
HETATM    2  C2  UNL     1       6.680  -1.620   0.414  1.00  0.00     0.123 C 
HETATM    3  C3  UNL     1       6.430  -0.704   1.610  1.00  0.00     0.069 C 
HETATM    4  C4  UNL     1       6.466   0.746   1.150  1.00  0.00     0.188 C 
HETATM    5  C5  UNL     1       5.431   0.997   0.024  1.00  0.00     0.240 C 
HETATM    6  O3  UNL     1       4.094   0.894   0.546  1.00  0.00    -0.341 OA
HETATM    7  C6  UNL     1       3.113   0.951  -0.507  1.00  0.00     0.156 C 
HETATM    8  C7  UNL     1       1.733   0.752   0.127  1.00  0.00     0.056 C 
HETATM    9  C8  UNL     1       0.567   0.728  -0.892  1.00  0.00     0.043 C 
HETATM   10  C10 UNL     1       0.912  -0.088  -2.143  1.00  0.00    -0.065 C 
HETATM   11  C11 UNL     1      -0.001  -0.848  -2.774  1.00  0.00    -0.022 C 
HETATM   12  C12 UNL     1      -1.427  -1.004  -2.344  1.00  0.00     0.035 C 
HETATM   13  C13 UNL     1      -1.878  -0.012  -1.245  1.00  0.00     0.032 C 
HETATM   14  C14 UNL     1      -0.735   0.131  -0.207  1.00  0.00     0.013 C 
HETATM   15  C15 UNL     1      -1.163   0.881   1.063  1.00  0.00     0.007 C 
HETATM   16  C16 UNL     1      -2.460   0.335   1.638  1.00  0.00     0.013 C 
HETATM   17  C17 UNL     1      -3.655   0.401   0.648  1.00  0.00    -0.003 C 
HETATM   18  C18 UNL     1      -4.023   1.879   0.414  1.00  0.00     0.019 C 
HETATM   19  C19 UNL     1      -4.825  -0.462   1.278  1.00  0.00     0.030 C 
HETATM   20  C24 UNL     1      -4.975  -1.696   0.377  1.00  0.00     0.044 C 
HETATM   21  C25 UNL     1      -3.636  -1.809  -0.354  1.00  0.00     0.154 C 
HETATM   22  C26 UNL     1      -3.299  -0.336  -0.686  1.00  0.00     0.096 C 
HETATM   23  C27 UNL     1       2.329  -0.008  -2.676  1.00  0.00     0.069 C 
HETATM   24  C28 UNL     1       3.371  -0.125  -1.567  1.00  0.00     0.158 C 
HETATM   25  O9  UNL     1       4.679   0.025  -2.132  1.00  0.00    -0.347 OA
HETATM   26  C29 UNL     1       5.680  -0.065  -1.104  1.00  0.00     0.325 C 
HETATM   27  O10 UNL     1       5.700  -1.408  -0.598  1.00  0.00    -0.351 OA
ENDROOT
BRANCH  19  28
HETATM   28  C20 UNL     1      -6.122   0.216   1.618  1.00  0.00    -0.045 A 
HETATM   29  C21 UNL     1      -6.476   0.628   2.835  1.00  0.00     0.087 A 
HETATM   30  C22 UNL     1      -7.825   1.177   2.742  1.00  0.00     0.283 A 
HETATM   31  O5  UNL     1      -8.476   1.564   3.699  1.00  0.00    -0.260 OA
HETATM   32  O6  UNL     1      -8.234   1.127   1.446  1.00  0.00    -0.314 OA
HETATM   33  C23 UNL     1      -7.205   0.527   0.651  1.00  0.00     0.213 A 
ENDBRANCH  19  28
BRANCH  22  34
HETATM   34  O8  UNL     1      -4.241   0.077  -1.703  1.00  0.00    -0.386 OA
HETATM   35  H34 UNL     1      -4.120  -0.535  -2.453  1.00  0.00     0.210 HD
ENDBRANCH  22  34
BRANCH  21  36
HETATM   36  O7  UNL     1      -3.769  -2.616  -1.516  1.00  0.00    -0.392 OA
HETATM   37  H33 UNL     1      -4.712  -2.687  -1.749  1.00  0.00     0.210 HD
ENDBRANCH  21  36
BRANCH   9  38
HETATM   38  C9  UNL     1       0.334   2.184  -1.356  1.00  0.00     0.245 C 
HETATM   39  O4  UNL     1       0.995   2.761  -2.220  1.00  0.00    -0.306 OA
ENDBRANCH   9  38
BRANCH   5  40
HETATM   40  O2  UNL     1       5.609   2.340  -0.434  1.00  0.00    -0.360 OA
HETATM   41  H9  UNL     1       5.036   2.857   0.159  1.00  0.00     0.213 HD
ENDBRANCH   5  40
BRANCH   4  42
HETATM   42  O1  UNL     1       6.257   1.599   2.284  1.00  0.00    -0.390 OA
HETATM   43  H8  UNL     1       6.260   2.512   1.935  1.00  0.00     0.210 HD
ENDBRANCH   4  42
TORSDOF 6
