REMARK  11 active torsions:
REMARK  status: ('A' for Active; 'I' for Inactive)
REMARK    1  A    between atoms: C2_2  and  O2_4 
REMARK    2  A    between atoms: O2_4  and  C3_5 
REMARK    3  A    between atoms: C4_6  and  O3_7 
REMARK    4  A    between atoms: O3_7  and  C5_8 
REMARK    5  A    between atoms: C15_18  and  C16_19 
REMARK    6  A    between atoms: C20_23  and  C21_24 
REMARK    7  A    between atoms: C21_24  and  O4_27 
REMARK    8  A    between atoms: C24_29  and  O6_30 
REMARK    9  A    between atoms: C30_36  and  O7_37 
REMARK   10  A    between atoms: C36_44  and  O9_45 
REMARK   11  A    between atoms: C37_46  and  O10_47 
ROOT
HETATM    1  C5  UNL     1       4.247   0.516  -1.428  1.00  0.00     0.133 C 
HETATM    2  C6  UNL     1       3.376  -0.515  -2.157  1.00  0.00     0.034 C 
HETATM    3  C7  UNL     1       1.877  -0.304  -2.026  1.00  0.00     0.013 C 
HETATM    4  C8  UNL     1       1.473   0.037  -0.603  1.00  0.00    -0.025 A 
HETATM    5  C9  UNL     1       1.161  -1.144   0.285  1.00  0.00     0.021 A 
HETATM    6  C10 UNL     1       0.012  -0.241  -0.129  1.00  0.00    -0.027 A 
HETATM    7  C11 UNL     1      -0.950  -0.845  -1.177  1.00  0.00     0.011 C 
HETATM    8  C12 UNL     1      -2.465  -0.806  -0.944  1.00  0.00     0.011 C 
HETATM    9  C13 UNL     1      -2.871  -0.451   0.480  1.00  0.00    -0.028 C 
HETATM   10  C14 UNL     1      -2.557  -1.670   1.376  1.00  0.00     0.016 C 
HETATM   11  C15 UNL     1      -4.368  -0.026   0.674  1.00  0.00     0.057 C 
HETATM   12  C24 UNL     1      -4.322   0.950   1.895  1.00  0.00     0.126 C 
HETATM   13  C25 UNL     1      -2.836   1.271   2.146  1.00  0.00     0.042 C 
HETATM   14  C26 UNL     1      -2.099   0.866   0.861  1.00  0.00    -0.029 C 
HETATM   15  C27 UNL     1      -2.279   2.026  -0.162  1.00  0.00     0.016 C 
HETATM   16  C28 UNL     1      -0.593   0.554   1.053  1.00  0.00     0.006 C 
HETATM   17  C29 UNL     1       0.252   1.758   1.519  1.00  0.00     0.038 C 
HETATM   18  C30 UNL     1       1.270   2.305   0.513  1.00  0.00     0.124 C 
HETATM   19  C31 UNL     1       2.244   1.210   0.030  1.00  0.00     0.034 C 
HETATM   20  C32 UNL     1       3.457   1.728  -0.834  1.00  0.00    -0.015 C 
HETATM   21  C33 UNL     1       3.065   2.694  -1.980  1.00  0.00     0.018 C 
HETATM   22  C34 UNL     1       4.417   2.537   0.090  1.00  0.00     0.018 C 
ENDROOT
BRANCH   1  23
HETATM   23  O3  UNL     1       4.945  -0.138  -0.353  1.00  0.00    -0.352 OA
BRANCH  23  24
HETATM   24  C4  UNL     1       6.230  -0.654  -0.721  1.00  0.00     0.292 C 
HETATM   25  C3  UNL     1       7.023  -0.901   0.583  1.00  0.00     0.218 C 
HETATM   26  C37 UNL     1       8.330  -1.668   0.285  1.00  0.00     0.183 C 
HETATM   27  C36 UNL     1       8.127  -2.831  -0.691  1.00  0.00     0.173 C 
HETATM   28  C35 UNL     1       7.324  -2.379  -1.903  1.00  0.00     0.205 C 
HETATM   29  O8  UNL     1       6.075  -1.837  -1.492  1.00  0.00    -0.356 OA
BRANCH  25  30
HETATM   30  O2  UNL     1       7.338   0.427   1.117  1.00  0.00    -0.309 OA
BRANCH  30  31
HETATM   31  C2  UNL     1       7.731   0.518   2.410  1.00  0.00     0.255 C 
HETATM   32  C1  UNL     1       7.977   1.948   2.770  1.00  0.00     0.126 C 
HETATM   33  O1  UNL     1       7.880  -0.432   3.167  1.00  0.00    -0.266 OA
ENDBRANCH  30  31
ENDBRANCH  25  30
BRANCH  26  34
HETATM   34  O10 UNL     1       8.949  -2.209   1.471  1.00  0.00    -0.390 OA
HETATM   35  H60 UNL     1       8.641  -1.695   2.244  1.00  0.00     0.210 HD
ENDBRANCH  26  34
BRANCH  27  36
HETATM   36  O9  UNL     1       9.404  -3.305  -1.131  1.00  0.00    -0.391 OA
HETATM   37  H58 UNL     1       9.764  -3.843  -0.392  1.00  0.00     0.210 HD
ENDBRANCH  27  36
ENDBRANCH  23  24
ENDBRANCH   1  23
BRANCH  18  38
HETATM   38  O7  UNL     1       0.596   2.943  -0.564  1.00  0.00    -0.395 OA
HETATM   39  H47 UNL     1       0.251   3.776  -0.213  1.00  0.00     0.210 HD
ENDBRANCH  18  38
BRANCH  11  40
HETATM   40  C16 UNL     1      -5.539  -1.054   0.618  1.00  0.00     0.065 C 
HETATM   41  C17 UNL     1      -5.660  -2.071   1.770  1.00  0.00     0.046 C 
HETATM   42  C18 UNL     1      -5.586  -1.791  -0.729  1.00  0.00     0.041 C 
HETATM   43  C19 UNL     1      -7.054  -2.108  -0.902  1.00  0.00     0.038 C 
HETATM   44  C20 UNL     1      -7.759  -0.919  -0.245  1.00  0.00     0.156 C 
HETATM   45  O5  UNL     1      -6.771  -0.270   0.596  1.00  0.00    -0.372 OA
BRANCH  44  46
HETATM   46  C21 UNL     1      -8.364   0.122  -1.226  1.00  0.00     0.076 C 
HETATM   47  C22 UNL     1      -9.443  -0.487  -2.133  1.00  0.00     0.048 C 
HETATM   48  C23 UNL     1      -8.960   1.315  -0.464  1.00  0.00     0.048 C 
BRANCH  46  49
HETATM   49  O4  UNL     1      -7.331   0.637  -2.078  1.00  0.00    -0.388 OA
HETATM   50  H35 UNL     1      -6.670   1.047  -1.479  1.00  0.00     0.210 HD
ENDBRANCH  46  49
ENDBRANCH  44  46
ENDBRANCH  11  40
BRANCH  12  51
HETATM   51  O6  UNL     1      -4.881   0.442   3.092  1.00  0.00    -0.395 OA
HETATM   52  H37 UNL     1      -4.999   1.180   3.719  1.00  0.00     0.210 HD
ENDBRANCH  12  51
TORSDOF 11
