REMARK  12 active torsions:
REMARK  status: ('A' for Active; 'I' for Inactive)
REMARK    1  A    between atoms: C2_2  and  C4_4 
REMARK    2  A    between atoms: C13_13  and  C14_14 
REMARK    3  A    between atoms: C14_14  and  C16_16 
REMARK    4  A    between atoms: C16_16  and  C17_17 
REMARK    5  A    between atoms: C17_17  and  C18_18 
REMARK    6  A    between atoms: C19_19  and  C21_21 
REMARK    7  A    between atoms: C21_21  and  O2_23 
REMARK    8  A    between atoms: C27_29  and  C28_30 
REMARK    9  A    between atoms: C28_30  and  C29_31 
REMARK   10  A    between atoms: C29_31  and  C30_32 
REMARK   11  A    between atoms: C30_32  and  O4_34 
REMARK   12  A    between atoms: O4_34  and  C31_35 
ROOT
HETATM    1  C4  UNL     1      -4.035  -0.899   0.985  1.00  0.00     0.022 C 
HETATM    2  C5  UNL     1      -3.225  -0.758   2.283  1.00  0.00     0.010 C 
HETATM    3  C6  UNL     1      -1.921  -1.527   2.159  1.00  0.00     0.007 C 
HETATM    4  C7  UNL     1      -0.966  -0.862   1.150  1.00  0.00     0.004 C 
HETATM    5  C8  UNL     1      -1.642  -0.581  -0.224  1.00  0.00    -0.027 A 
HETATM    6  C9  UNL     1      -0.804  -0.796  -1.517  1.00  0.00     0.011 C 
HETATM    7  C10 UNL     1       0.668  -1.228  -1.412  1.00  0.00     0.011 C 
HETATM    8  C11 UNL     1       1.286  -0.938  -0.050  1.00  0.00    -0.032 C 
HETATM    9  C12 UNL     1       1.404   0.598   0.108  1.00  0.00     0.016 C 
HETATM   10  C13 UNL     1       2.660  -1.632   0.212  1.00  0.00    -0.002 C 
HETATM   11  C22 UNL     1       2.709  -1.773   1.752  1.00  0.00     0.006 C 
HETATM   12  C23 UNL     1       1.272  -1.572   2.265  1.00  0.00     0.011 C 
HETATM   13  C24 UNL     1       0.371  -1.633   1.017  1.00  0.00    -0.032 C 
HETATM   14  C25 UNL     1       0.071  -3.141   0.731  1.00  0.00     0.016 C 
HETATM   15  C26 UNL     1      -2.431   0.721  -0.282  1.00  0.00     0.022 A 
HETATM   16  C27 UNL     1      -3.218  -0.564  -0.287  1.00  0.00    -0.024 A 
ENDROOT
BRANCH  10  17
HETATM   17  C14 UNL     1       3.964  -1.116  -0.470  1.00  0.00    -0.014 C 
HETATM   18  C15 UNL     1       4.982  -2.273  -0.500  1.00  0.00     0.010 C 
BRANCH  17  19
HETATM   19  C16 UNL     1       4.621   0.142   0.156  1.00  0.00     0.008 C 
BRANCH  19  20
HETATM   20  C17 UNL     1       5.891   0.607  -0.572  1.00  0.00     0.028 C 
BRANCH  20  21
HETATM   21  C18 UNL     1       6.301   1.988  -0.131  1.00  0.00    -0.013 C 
HETATM   22  C19 UNL     1       7.279   2.344   0.727  1.00  0.00     0.008 C 
HETATM   23  C20 UNL     1       7.619   3.785   0.980  1.00  0.00     0.055 C 
BRANCH  22  24
HETATM   24  C21 UNL     1       8.126   1.391   1.480  1.00  0.00     0.171 C 
HETATM   25  O1  UNL     1       9.285   1.580   1.803  1.00  0.00    -0.646 OA
BRANCH  24  26
HETATM   26  O2  UNL     1       7.466   0.296   1.887  1.00  0.00    -0.773 OA
HETATM   27  H32 UNL     1       8.138  -0.204   2.391  1.00  0.00     0.167 HD
ENDBRANCH  24  26
ENDBRANCH  22  24
ENDBRANCH  20  21
ENDBRANCH  19  20
ENDBRANCH  17  19
ENDBRANCH  10  17
BRANCH  16  28
HETATM   28  C28 UNL     1      -3.886  -1.126  -1.557  1.00  0.00     0.020 C 
BRANCH  28  29
HETATM   29  C29 UNL     1      -4.040  -0.181  -2.740  1.00  0.00     0.112 C 
BRANCH  29  30
HETATM   30  C30 UNL     1      -5.198   0.764  -2.544  1.00  0.00     0.258 C 
HETATM   31  O3  UNL     1      -6.372   0.421  -2.561  1.00  0.00    -0.265 OA
BRANCH  30  32
HETATM   32  O4  UNL     1      -4.753   2.039  -2.374  1.00  0.00    -0.322 OA
BRANCH  32  33
HETATM   33  C31 UNL     1      -5.768   3.026  -2.137  1.00  0.00     0.174 C 
HETATM   34  C32 UNL     1      -6.289   3.581  -3.450  1.00  0.00     0.034 C 
ENDBRANCH  32  33
ENDBRANCH  30  32
ENDBRANCH  29  30
ENDBRANCH  28  29
ENDBRANCH  16  28
BRANCH   1  35
HETATM   35  C2  UNL     1      -5.371  -0.165   1.109  1.00  0.00    -0.088 C 
HETATM   36  C1  UNL     1      -6.536  -0.836   1.102  1.00  0.00     0.014 C 
HETATM   37  C3  UNL     1      -5.360   1.333   1.250  1.00  0.00     0.043 C 
ENDBRANCH   1  35
TORSDOF 12
