REMARK  8 active torsions:
REMARK  status: ('A' for Active; 'I' for Inactive)
REMARK    1  A    between atoms: C2_2  and  C3_3 
REMARK    2  A    between atoms: C2_2  and  C11_14 
REMARK    3  A    between atoms: C3_3  and  C4_4 
REMARK    4  A    between atoms: C4_4  and  C5_5 
REMARK       I    between atoms: C5_5  and  N1_7 
REMARK    5  A    between atoms: N1_7  and  C6_8 
REMARK    6  A    between atoms: C6_8  and  C7_9 
REMARK    7  A    between atoms: C16_19  and  O3_20 
REMARK    8  A    between atoms: C20_24  and  O4_25 
ROOT
HETATM    1  C11 UNL     1       0.765  -0.856  -1.399  1.00  0.00    -0.002 C 
HETATM    2  C12 UNL     1       0.208  -1.970  -2.337  1.00  0.00     0.006 C 
HETATM    3  C13 UNL     1      -1.318  -1.970  -2.195  1.00  0.00     0.006 C 
HETATM    4  C14 UNL     1      -1.611  -0.714  -1.391  1.00  0.00     0.001 C 
HETATM    5  C15 UNL     1      -2.994  -0.589  -0.727  1.00  0.00     0.024 C 
HETATM    6  C16 UNL     1      -4.113  -0.671  -1.794  1.00  0.00     0.123 C 
HETATM    7  C17 UNL     1      -5.381   0.106  -1.420  1.00  0.00     0.037 C 
HETATM    8  C18 UNL     1      -5.591   0.095   0.100  1.00  0.00    -0.001 C 
HETATM    9  C19 UNL     1      -7.022   0.518   0.495  1.00  0.00     0.037 C 
HETATM   10  C20 UNL     1      -7.262   2.023   0.521  1.00  0.00     0.118 C 
HETATM   11  C21 UNL     1      -6.212   2.732   1.367  1.00  0.00     0.032 C 
HETATM   12  C22 UNL     1      -4.797   2.418   0.887  1.00  0.00     0.012 C 
HETATM   13  C23 UNL     1      -4.458   0.900   0.827  1.00  0.00    -0.036 C 
HETATM   14  C24 UNL     1      -4.364   0.354   2.274  1.00  0.00     0.016 C 
HETATM   15  C25 UNL     1      -3.079   0.751   0.052  1.00  0.00     0.001 C 
HETATM   16  C26 UNL     1      -1.833   1.029   0.930  1.00  0.00     0.007 C 
HETATM   17  C27 UNL     1      -0.495   0.793   0.211  1.00  0.00     0.010 C 
HETATM   18  C28 UNL     1      -0.419  -0.616  -0.407  1.00  0.00    -0.036 C 
HETATM   19  C29 UNL     1      -0.443  -1.701   0.696  1.00  0.00     0.016 C 
ENDROOT
BRANCH   1  20
HETATM   20  C2  UNL     1       2.176  -1.223  -0.846  1.00  0.00    -0.013 C 
HETATM   21  C1  UNL     1       2.704  -0.183   0.145  1.00  0.00     0.010 C 
BRANCH  20  22
HETATM   22  C3  UNL     1       3.180  -1.418  -2.019  1.00  0.00     0.014 C 
BRANCH  22  23
HETATM   23  C4  UNL     1       4.535  -2.003  -1.602  1.00  0.00     0.103 C 
BRANCH  23  24
HETATM   24  C5  UNL     1       5.594  -0.967  -1.264  1.00  0.00     0.217 C 
HETATM   25  O1  UNL     1       5.506   0.219  -1.559  1.00  0.00    -0.274 OA
HETATM   26  N1  UNL     1       6.694  -1.524  -0.636  1.00  0.00    -0.359 N 
HETATM   27  H9  UNL     1       6.618  -2.476  -0.305  1.00  0.00     0.162 HD
BRANCH  26  28
HETATM   28  C6  UNL     1       7.721  -0.687  -0.038  1.00  0.00     0.154 C 
BRANCH  28  29
HETATM   29  C7  UNL     1       7.581  -0.612   1.495  1.00  0.00     0.139 C 
HETATM   30  C8  UNL     1       8.556   0.372   2.121  1.00  0.00     0.035 C 
HETATM   31  C9  UNL     1       7.795   1.673   2.054  1.00  0.00     0.029 C 
HETATM   32  C10 UNL     1       6.366   1.226   2.282  1.00  0.00     0.168 C 
HETATM   33  O2  UNL     1       6.270  -0.142   1.860  1.00  0.00    -0.384 OA
ENDBRANCH  28  29
ENDBRANCH  26  28
ENDBRANCH  23  24
ENDBRANCH  22  23
ENDBRANCH  20  22
ENDBRANCH   1  20
BRANCH   6  34
HETATM   34  O3  UNL     1      -4.447  -2.050  -1.972  1.00  0.00    -0.395 OA
HETATM   35  H27 UNL     1      -5.099  -2.101  -2.692  1.00  0.00     0.210 HD
ENDBRANCH   6  34
BRANCH  10  36
HETATM   36  O4  UNL     1      -7.247   2.528  -0.810  1.00  0.00    -0.396 OA
HETATM   37  H34 UNL     1      -7.416   3.485  -0.763  1.00  0.00     0.210 HD
ENDBRANCH  10  36
TORSDOF 8
