REMARK  6 active torsions:
REMARK  status: ('A' for Active; 'I' for Inactive)
REMARK       I    between atoms: N1_1  and  C1_2 
REMARK       I    between atoms: C1_2  and  N2_3 
REMARK    1  A    between atoms: N3_4  and  C2_6 
REMARK    2  A    between atoms: C11_16  and  S1_17 
REMARK    3  A    between atoms: S1_17  and  O4_20 
REMARK    4  A    between atoms: C23_33  and  O6_34 
REMARK    5  A    between atoms: C29_40  and  C30_41 
REMARK    6  A    between atoms: C30_41  and  O7_42 
ROOT
HETATM    1  C2  UNL     1      -4.385   2.118  -0.234  1.00  0.00     0.263 C 
HETATM    2  O1  UNL     1      -4.643   1.462  -1.521  1.00  0.00    -0.322 OA
HETATM    3  C3  UNL     1      -4.435   0.106  -1.527  1.00  0.00     0.071 C 
HETATM    4  C4  UNL     1      -3.519  -0.378  -2.461  1.00  0.00     0.037 C 
HETATM    5  C5  UNL     1      -3.040  -1.682  -2.346  1.00  0.00     0.010 C 
HETATM    6  C6  UNL     1      -3.504  -2.516  -1.321  1.00  0.00    -0.058 C 
HETATM    7  C7  UNL     1      -4.560  -2.072  -0.514  1.00  0.00     0.010 C 
HETATM    8  C8  UNL     1      -5.021  -0.759  -0.608  1.00  0.00     0.037 C 
HETATM    9  C9  UNL     1      -2.787  -3.810  -1.004  1.00  0.00     0.040 C 
HETATM   10  C10 UNL     1      -1.339  -3.578  -0.501  1.00  0.00     0.027 C 
HETATM   11  C11 UNL     1      -1.189  -2.610   0.710  1.00  0.00     0.130 C 
HETATM   12  C12 UNL     1       0.260  -2.038   0.944  1.00  0.00     0.037 C 
HETATM   13  C13 UNL     1       1.109  -1.761  -0.290  1.00  0.00    -0.014 C 
HETATM   14  C14 UNL     1       2.321  -1.195  -0.091  1.00  0.00    -0.050 C 
HETATM   15  C15 UNL     1       2.807  -1.062   1.320  1.00  0.00     0.042 C 
HETATM   16  C16 UNL     1       1.807  -0.113   1.969  1.00  0.00     0.001 C 
HETATM   17  C17 UNL     1       2.095   1.359   1.555  1.00  0.00     0.038 C 
HETATM   18  C18 UNL     1       3.047   1.658   0.348  1.00  0.00     0.130 C 
HETATM   19  O5  UNL     1       2.656   1.006  -0.877  1.00  0.00    -0.371 OA
HETATM   20  C19 UNL     1       3.035  -0.368  -1.129  1.00  0.00     0.185 C 
HETATM   21  C20 UNL     1       4.500  -0.771  -1.398  1.00  0.00    -0.006 A 
HETATM   22  C21 UNL     1       4.830  -2.149  -1.370  1.00  0.00     0.014 A 
HETATM   23  C22 UNL     1       6.116  -2.603  -1.669  1.00  0.00     0.037 A 
HETATM   24  C23 UNL     1       7.099  -1.694  -2.030  1.00  0.00     0.067 A 
HETATM   25  C24 UNL     1       6.813  -0.337  -2.095  1.00  0.00     0.057 A 
HETATM   26  C25 UNL     1       5.523   0.119  -1.792  1.00  0.00     0.029 A 
HETATM   27  C26 UNL     1       5.285   1.522  -1.838  1.00  0.00    -0.066 C 
HETATM   28  C27 UNL     1       4.830   2.611  -1.638  1.00  0.00    -0.101 C 
HETATM   29  C28 UNL     1       3.959   3.671  -1.144  1.00  0.00     0.103 C 
HETATM   30  C29 UNL     1       3.051   3.209   0.044  1.00  0.00     0.049 C 
HETATM   31  C31 UNL     1       0.319  -0.680   1.817  1.00  0.00     0.032 C 
HETATM   32  C32 UNL     1      -0.769   0.307   1.392  1.00  0.00    -0.053 C 
HETATM   33  C33 UNL     1      -1.888   0.501   2.217  1.00  0.00     0.008 C 
HETATM   34  C34 UNL     1      -3.029   1.148   1.731  1.00  0.00     0.012 C 
HETATM   35  C35 UNL     1      -3.071   1.646   0.421  1.00  0.00    -0.010 C 
HETATM   36  C36 UNL     1      -1.893   1.600  -0.339  1.00  0.00     0.012 C 
HETATM   37  C37 UNL     1      -0.773   0.911   0.126  1.00  0.00     0.008 C 
ENDROOT
BRANCH   1  38
HETATM   38  N3  UNL     1      -5.513   2.153   0.720  1.00  0.00    -0.341 N 
HETATM   39  C1  UNL     1      -6.659   2.500   0.269  1.00  0.00     0.124 C 
HETATM   40  N1  UNL     1      -7.041   2.831  -0.986  1.00  0.00    -0.279 NA
HETATM   41  N2  UNL     1      -7.722   2.564   1.100  1.00  0.00    -0.279 NA
HETATM   42  H1  UNL     1      -7.949   2.441  -1.210  1.00  0.00     0.126 HD
HETATM   43  H2  UNL     1      -6.369   2.533  -1.690  1.00  0.00     0.126 HD
HETATM   44  H3  UNL     1      -8.281   3.400   0.966  1.00  0.00     0.126 HD
HETATM   45  H4  UNL     1      -7.433   2.466   2.071  1.00  0.00     0.126 HD
ATOM     46  H3  UNL     1      -5.383   1.909   1.702  1.00  0.00     0.164 HD
ENDBRANCH   1  38
BRANCH  11  47
HETATM   47  S1  UNL     1      -1.705  -3.467   2.255  1.00  0.00     0.099 S 
HETATM   48  O2  UNL     1      -1.538  -2.614   3.411  1.00  0.00    -0.601 OA
HETATM   49  O3  UNL     1      -1.233  -4.832   2.252  1.00  0.00    -0.601 OA
BRANCH  47  50
HETATM   50  O4  UNL     1      -3.301  -3.497   2.019  1.00  0.00    -0.295 OA
HETATM   51  H15 UNL     1      -3.698  -2.802   2.586  1.00  0.00     0.232 HD
ENDBRANCH  47  50
ENDBRANCH  11  47
BRANCH  30  52
HETATM   52  C30 UNL     1       3.364   4.072   1.278  1.00  0.00     0.172 C 
BRANCH  52  53
HETATM   53  O7  UNL     1       4.612   3.703   1.848  1.00  0.00    -0.400 OA
HETATM   54  H34 UNL     1       4.766   4.286   2.613  1.00  0.00     0.209 HD
ENDBRANCH  52  53
ENDBRANCH  30  52
BRANCH  24  55
HETATM   55  O6  UNL     1       8.338  -2.177  -2.325  1.00  0.00    -0.361 OA
HETATM   56  H27 UNL     1       8.874  -1.452  -2.687  1.00  0.00     0.217 HD
ENDBRANCH  24  55
TORSDOF 6
