REMARK  7 active torsions:
REMARK  status: ('A' for Active; 'I' for Inactive)
REMARK    1  A    between atoms: C19_20  and  O2_21 
REMARK    2  A    between atoms: O2_21  and  C20_22 
REMARK    3  A    between atoms: C20_22  and  C21_24 
REMARK    4  A    between atoms: C21_24  and  C22_25 
REMARK    5  A    between atoms: C22_25  and  C23_26 
REMARK       I    between atoms: C23_26  and  N1_28 
REMARK    6  A    between atoms: N1_28  and  C24_29 
REMARK    7  A    between atoms: C24_29  and  C25_30 
ROOT
HETATM    1  C1  UNL     1      -0.634  -1.765  -0.325  1.00  0.00     0.018 C 
HETATM    2  C2  UNL     1      -0.734  -0.296   0.159  1.00  0.00    -0.013 C 
HETATM    3  C3  UNL     1      -1.330  -0.264   1.573  1.00  0.00     0.012 C 
HETATM    4  C4  UNL     1      -2.814  -0.675   1.578  1.00  0.00     0.007 C 
HETATM    5  C5  UNL     1      -3.684   0.123   0.571  1.00  0.00     0.002 C 
HETATM    6  C6  UNL     1      -3.047   0.140  -0.854  1.00  0.00    -0.004 C 
HETATM    7  C7  UNL     1      -3.861   1.046  -1.787  1.00  0.00     0.010 C 
HETATM    8  C8  UNL     1      -5.311   0.589  -1.870  1.00  0.00     0.035 C 
HETATM    9  C9  UNL     1      -5.955   0.502  -0.507  1.00  0.00    -0.068 C 
HETATM   10  C10 UNL     1      -7.141   1.100  -0.294  1.00  0.00     0.053 C 
HETATM   11  C11 UNL     1      -7.874   0.951   0.983  1.00  0.00     0.149 C 
HETATM   12  O1  UNL     1      -8.935   1.549   1.144  1.00  0.00    -0.293 OA
HETATM   13  C12 UNL     1      -7.322  -0.004   2.008  1.00  0.00     0.084 C 
HETATM   14  C13 UNL     1      -5.801  -0.007   1.971  1.00  0.00     0.022 C 
HETATM   15  C14 UNL     1      -5.203  -0.302   0.563  1.00  0.00    -0.016 C 
HETATM   16  C15 UNL     1      -5.382  -1.805   0.248  1.00  0.00     0.020 C 
HETATM   17  C16 UNL     1      -1.596   0.617  -0.736  1.00  0.00     0.001 C 
HETATM   18  C17 UNL     1      -0.763   0.764  -2.005  1.00  0.00     0.008 C 
HETATM   19  C18 UNL     1       0.689   0.767  -1.499  1.00  0.00     0.034 C 
HETATM   20  C19 UNL     1       0.631   0.415   0.005  1.00  0.00     0.140 C 
ENDROOT
BRANCH  20  21
HETATM   21  O2  UNL     1       1.751  -0.413   0.330  1.00  0.00    -0.315 OA
BRANCH  21  22
HETATM   22  C20 UNL     1       2.191  -0.355   1.615  1.00  0.00     0.259 C 
HETATM   23  O3  UNL     1       1.659   0.283   2.515  1.00  0.00    -0.265 OA
BRANCH  22  24
HETATM   24  C21 UNL     1       3.375  -1.268   1.837  1.00  0.00     0.120 C 
BRANCH  24  25
HETATM   25  C22 UNL     1       4.249  -1.478   0.605  1.00  0.00     0.112 C 
BRANCH  25  26
HETATM   26  C23 UNL     1       4.906  -0.191   0.145  1.00  0.00     0.218 C 
HETATM   27  O4  UNL     1       4.786   0.876   0.734  1.00  0.00    -0.274 OA
HETATM   28  N1  UNL     1       5.654  -0.350  -1.000  1.00  0.00    -0.357 N 
HETATM   29  H32 UNL     1       5.834  -1.285  -1.340  1.00  0.00     0.162 HD
BRANCH  28  30
HETATM   30  C24 UNL     1       6.456   0.728  -1.537  1.00  0.00     0.162 C 
BRANCH  30  31
HETATM   31  C25 UNL     1       7.880   0.619  -1.078  1.00  0.00    -0.025 A 
HETATM   32  C26 UNL     1       8.266   1.030   0.202  1.00  0.00     0.011 A 
HETATM   33  C27 UNL     1       9.592   0.892   0.603  1.00  0.00     0.018 A 
HETATM   34  C28 UNL     1      10.492   0.340  -0.292  1.00  0.00     0.087 A 
HETATM   35  N2  UNL     1      10.159  -0.072  -1.535  1.00  0.00    -0.375 N 
HETATM   36  C29 UNL     1       8.865   0.077  -1.897  1.00  0.00     0.096 A 
ATOM     37  H2  UNL     1      10.849  -0.475  -2.168  1.00  0.00     0.164 HD
ENDBRANCH  30  31
ENDBRANCH  28  30
ENDBRANCH  25  26
ENDBRANCH  24  25
ENDBRANCH  22  24
ENDBRANCH  21  22
ENDBRANCH  20  21
TORSDOF 7
