REMARK  9 active torsions:
REMARK  status: ('A' for Active; 'I' for Inactive)
REMARK    1  A    between atoms: C2_2  and  O1_3 
REMARK    2  A    between atoms: O1_3  and  C3_4 
REMARK    3  A    between atoms: C14_15  and  O2_16 
REMARK    4  A    between atoms: O2_16  and  C15_17 
REMARK    5  A    between atoms: C21_24  and  O4_25 
REMARK    6  A    between atoms: O4_25  and  C22_26 
REMARK    7  A    between atoms: C24_29  and  O6_30 
REMARK    8  A    between atoms: C25_31  and  O7_32 
REMARK    9  A    between atoms: C26_33  and  O8_34 
ROOT
HETATM    1  C3  UNL     1       5.758  -1.401   1.806  1.00  0.00     0.260 C 
HETATM    2  C4  UNL     1       6.035   0.102   1.975  1.00  0.00     0.065 C 
HETATM    3  C5  UNL     1       4.730   0.906   1.959  1.00  0.00    -0.007 C 
HETATM    4  C6  UNL     1       5.000   2.381   2.251  1.00  0.00     0.010 C 
HETATM    5  C7  UNL     1       4.072   0.692   0.579  1.00  0.00     0.027 C 
HETATM    6  C8  UNL     1       4.266  -0.770   0.066  1.00  0.00     0.130 C 
HETATM    7  C9  UNL     1       2.946  -1.168  -0.641  1.00  0.00     0.042 C 
HETATM    8  C10 UNL     1       2.243   0.173  -0.924  1.00  0.00    -0.029 C 
HETATM    9  C11 UNL     1       2.971   0.789  -2.173  1.00  0.00     0.016 C 
HETATM   10  C12 UNL     1       0.719   0.169  -1.284  1.00  0.00     0.006 C 
HETATM   11  C13 UNL     1      -0.043  -1.138  -1.031  1.00  0.00     0.039 C 
HETATM   12  C14 UNL     1      -1.523  -1.083  -1.509  1.00  0.00     0.138 C 
HETATM   13  C17 UNL     1      -1.998   0.312  -2.035  1.00  0.00     0.035 C 
HETATM   14  C18 UNL     1      -3.544   0.453  -2.387  1.00  0.00    -0.015 C 
HETATM   15  C19 UNL     1      -4.288  -0.897  -2.508  1.00  0.00     0.018 C 
HETATM   16  C20 UNL     1      -3.695   1.112  -3.787  1.00  0.00     0.018 C 
HETATM   17  C21 UNL     1      -4.291   1.329  -1.329  1.00  0.00     0.133 C 
HETATM   18  C27 UNL     1      -3.662   2.723  -1.145  1.00  0.00     0.034 C 
HETATM   19  C28 UNL     1      -2.159   2.791  -1.421  1.00  0.00     0.013 C 
HETATM   20  C29 UNL     1      -1.501   1.471  -1.130  1.00  0.00    -0.025 A 
HETATM   21  C30 UNL     1      -1.157   1.227   0.314  1.00  0.00     0.021 A 
HETATM   22  C31 UNL     1      -0.027   1.384  -0.691  1.00  0.00    -0.027 A 
HETATM   23  C32 UNL     1       0.825   2.635  -0.542  1.00  0.00     0.011 C 
HETATM   24  C33 UNL     1       2.123   2.416   0.262  1.00  0.00     0.011 C 
HETATM   25  C34 UNL     1       2.539   0.941   0.412  1.00  0.00    -0.030 C 
HETATM   26  C35 UNL     1       1.813   0.345   1.652  1.00  0.00     0.016 C 
HETATM   27  O9  UNL     1       4.522  -1.666   1.138  1.00  0.00    -0.356 OA
ENDROOT
BRANCH  17  28
HETATM   28  O4  UNL     1      -4.335   0.596  -0.092  1.00  0.00    -0.353 OA
BRANCH  28  29
HETATM   29  C22 UNL     1      -5.430   0.929   0.778  1.00  0.00     0.291 C 
HETATM   30  O5  UNL     1      -5.152   2.035   1.633  1.00  0.00    -0.356 OA
HETATM   31  C23 UNL     1      -4.148   1.745   2.611  1.00  0.00     0.205 C 
HETATM   32  C24 UNL     1      -4.545   0.584   3.531  1.00  0.00     0.173 C 
HETATM   33  C25 UNL     1      -4.839  -0.663   2.700  1.00  0.00     0.182 C 
HETATM   34  C26 UNL     1      -5.843  -0.330   1.586  1.00  0.00     0.204 C 
BRANCH  32  35
HETATM   35  O6  UNL     1      -5.704   0.931   4.295  1.00  0.00    -0.391 OA
HETATM   36  H39 UNL     1      -5.525   1.782   4.730  1.00  0.00     0.210 HD
ENDBRANCH  32  35
BRANCH  33  37
HETATM   37  O7  UNL     1      -3.617  -1.185   2.165  1.00  0.00    -0.390 OA
HETATM   38  H41 UNL     1      -3.882  -1.887   1.539  1.00  0.00     0.210 HD
ENDBRANCH  33  37
BRANCH  34  39
HETATM   39  O8  UNL     1      -5.999  -1.479   0.737  1.00  0.00    -0.388 OA
HETATM   40  H43 UNL     1      -5.528  -1.261  -0.091  1.00  0.00     0.210 HD
ENDBRANCH  34  39
ENDBRANCH  28  29
ENDBRANCH  17  28
BRANCH  12  41
HETATM   41  O2  UNL     1      -1.642  -2.040  -2.595  1.00  0.00    -0.316 OA
BRANCH  41  42
HETATM   42  C15 UNL     1      -1.891  -3.331  -2.235  1.00  0.00     0.255 C 
HETATM   43  C16 UNL     1      -1.950  -4.202  -3.455  1.00  0.00     0.126 C 
HETATM   44  O3  UNL     1      -2.044  -3.740  -1.092  1.00  0.00    -0.266 OA
ENDBRANCH  41  42
ENDBRANCH  12  41
BRANCH   1  45
HETATM   45  O1  UNL     1       6.864  -1.986   1.119  1.00  0.00    -0.362 OA
BRANCH  45  46
HETATM   46  C2  UNL     1       6.846  -3.412   1.141  1.00  0.00     0.166 C 
HETATM   47  C1  UNL     1       7.509  -3.938   2.402  1.00  0.00     0.033 C 
ENDBRANCH  45  46
ENDBRANCH   1  45
TORSDOF 9
