REMARK  9 active torsions:
REMARK  status: ('A' for Active; 'I' for Inactive)
REMARK    1  A    between atoms: C2_2  and  C4_4 
REMARK    2  A    between atoms: C4_4  and  O1_5 
REMARK    3  A    between atoms: C4_4  and  C5_7 
REMARK    4  A    between atoms: O1_5  and  O2_6 
REMARK    5  A    between atoms: C5_7  and  O3_8 
REMARK    6  A    between atoms: C5_7  and  C6_9 
REMARK    7  A    between atoms: C6_9  and  C7_10 
REMARK    8  A    between atoms: C7_10  and  C9_12 
REMARK    9  A    between atoms: C20_23  and  O4_24 
ROOT
HETATM    1  C9  UNL     1      -1.924   0.381  -0.500  1.00  0.00    -0.002 C 
HETATM    2  C10 UNL     1      -1.767   1.218  -1.798  1.00  0.00     0.006 C 
HETATM    3  C11 UNL     1      -0.261   1.390  -2.062  1.00  0.00     0.011 C 
HETATM    4  C12 UNL     1       0.431   0.408  -1.100  1.00  0.00    -0.032 C 
HETATM    5  C13 UNL     1       0.438  -0.982  -1.811  1.00  0.00     0.016 C 
HETATM    6  C14 UNL     1       1.873   0.815  -0.697  1.00  0.00     0.004 C 
HETATM    7  C15 UNL     1       2.905   0.676  -1.826  1.00  0.00     0.006 C 
HETATM    8  C16 UNL     1       4.274   1.162  -1.359  1.00  0.00     0.006 C 
HETATM    9  C17 UNL     1       4.844   0.207  -0.305  1.00  0.00     0.001 C 
HETATM   10  C18 UNL     1       6.171   0.706   0.328  1.00  0.00     0.015 C 
HETATM   11  C19 UNL     1       7.269   0.896  -0.730  1.00  0.00     0.013 C 
HETATM   12  C20 UNL     1       6.670  -0.259   1.436  1.00  0.00     0.122 C 
HETATM   13  C21 UNL     1       5.850  -1.546   1.539  1.00  0.00     0.033 C 
HETATM   14  C22 UNL     1       4.349  -1.275   1.701  1.00  0.00     0.013 C 
HETATM   15  C23 UNL     1       3.858  -0.130   0.817  1.00  0.00    -0.027 A 
HETATM   16  C24 UNL     1       3.145   0.986   1.542  1.00  0.00     0.021 A 
HETATM   17  C25 UNL     1       2.341   0.108   0.599  1.00  0.00    -0.027 A 
HETATM   18  C26 UNL     1       1.385  -0.905   1.228  1.00  0.00     0.011 C 
HETATM   19  C27 UNL     1      -0.122  -0.614   1.137  1.00  0.00     0.011 C 
HETATM   20  C28 UNL     1      -0.508   0.503   0.160  1.00  0.00    -0.032 C 
HETATM   21  C29 UNL     1      -0.414   1.859   0.921  1.00  0.00     0.016 C 
ENDROOT
BRANCH   1  22
HETATM   22  C7  UNL     1      -3.200   0.756   0.313  1.00  0.00    -0.011 C 
HETATM   23  C8  UNL     1      -3.326  -0.066   1.593  1.00  0.00     0.010 C 
BRANCH  22  24
HETATM   24  C6  UNL     1      -4.522   0.730  -0.518  1.00  0.00     0.039 C 
BRANCH  24  25
HETATM   25  C5  UNL     1      -5.144  -0.612  -0.959  1.00  0.00     0.154 C 
BRANCH  25  26
HETATM   26  C4  UNL     1      -6.023  -1.354   0.091  1.00  0.00     0.216 C 
BRANCH  26  27
HETATM   27  C2  UNL     1      -7.238  -0.564   0.565  1.00  0.00    -0.059 C 
HETATM   28  C1  UNL     1      -8.355  -0.427  -0.174  1.00  0.00     0.016 C 
HETATM   29  C3  UNL     1      -7.161   0.028   1.946  1.00  0.00     0.045 C 
ENDBRANCH  26  27
BRANCH  26  30
HETATM   30  O1  UNL     1      -6.531  -2.566  -0.531  1.00  0.00    -0.231 OA
BRANCH  30  31
HETATM   31  O2  UNL     1      -5.486  -3.575  -0.432  1.00  0.00    -0.250 OA
HETATM   32  H7  UNL     1      -5.968  -4.169   0.174  1.00  0.00     0.253 HD
ENDBRANCH  30  31
ENDBRANCH  26  30
ENDBRANCH  25  26
BRANCH  25  33
HETATM   33  O3  UNL     1      -4.118  -1.474  -1.461  1.00  0.00    -0.393 OA
HETATM   34  H9  UNL     1      -4.511  -2.373  -1.480  1.00  0.00     0.210 HD
ENDBRANCH  25  33
ENDBRANCH  24  25
ENDBRANCH  22  24
ENDBRANCH   1  22
BRANCH  12  35
HETATM   35  O4  UNL     1       6.625   0.430   2.691  1.00  0.00    -0.395 OA
HETATM   36  H35 UNL     1       7.000  -0.164   3.363  1.00  0.00     0.210 HD
ENDBRANCH  12  35
TORSDOF 9
