REMARK  9 active torsions:
REMARK  status: ('A' for Active; 'I' for Inactive)
REMARK    1  A    between atoms: C2_2  and  C3_3 
REMARK    2  A    between atoms: C2_2  and  C9_12 
REMARK    3  A    between atoms: C3_3  and  C4_4 
REMARK    4  A    between atoms: C4_4  and  C5_5 
REMARK    5  A    between atoms: C5_5  and  O1_6 
REMARK    6  A    between atoms: C5_5  and  C6_7 
REMARK    7  A    between atoms: C6_7  and  O2_9 
REMARK    8  A    between atoms: C6_7  and  C8_10 
REMARK    9  A    between atoms: C8_10  and  O3_11 
ROOT
HETATM    1  C9  UNL     1       1.547   1.159   1.246  1.00  0.00    -0.002 C 
HETATM    2  C10 UNL     1       1.165   2.636   1.540  1.00  0.00     0.007 C 
HETATM    3  C11 UNL     1      -0.351   2.768   1.290  1.00  0.00     0.015 C 
HETATM    4  C12 UNL     1      -0.880   1.320   1.256  1.00  0.00    -0.005 C 
HETATM    5  C13 UNL     1      -1.069   0.872   2.740  1.00  0.00     0.021 C 
HETATM    6  C14 UNL     1      -2.210   0.986   0.595  1.00  0.00    -0.000 C 
HETATM    7  C15 UNL     1      -2.428  -0.236   0.038  1.00  0.00    -0.060 C 
HETATM    8  C16 UNL     1      -1.314  -1.289  -0.002  1.00  0.00     0.036 C 
HETATM    9  C17 UNL     1       0.070  -0.897   0.553  1.00  0.00     0.015 C 
HETATM   10  C18 UNL     1       0.306   0.615   0.479  1.00  0.00    -0.028 C 
HETATM   11  C19 UNL     1       0.377   1.023  -1.021  1.00  0.00     0.016 C 
HETATM   12  C20 UNL     1      -3.774  -0.624  -0.630  1.00  0.00    -0.014 C 
HETATM   13  C21 UNL     1      -3.614  -0.274  -2.127  1.00  0.00     0.020 C 
HETATM   14  C22 UNL     1      -4.075  -2.139  -0.487  1.00  0.00     0.021 C 
HETATM   15  C23 UNL     1      -5.452  -2.536  -0.994  1.00  0.00     0.080 C 
HETATM   16  C24 UNL     1      -6.522  -1.771  -0.259  1.00  0.00     0.135 C 
HETATM   17  O4  UNL     1      -7.487  -2.371   0.217  1.00  0.00    -0.297 OA
HETATM   18  C25 UNL     1      -6.399  -0.241  -0.219  1.00  0.00     0.018 C 
HETATM   19  C26 UNL     1      -7.326   0.274   0.912  1.00  0.00     0.023 C 
HETATM   20  C27 UNL     1      -6.948   0.319  -1.539  1.00  0.00     0.023 C 
HETATM   21  C28 UNL     1      -4.916   0.156   0.109  1.00  0.00     0.020 C 
HETATM   22  C29 UNL     1      -4.652   1.663   0.033  1.00  0.00     0.090 C 
HETATM   23  C30 UNL     1      -3.302   2.015   0.611  1.00  0.00     0.157 C 
HETATM   24  O5  UNL     1      -3.111   3.142   1.063  1.00  0.00    -0.293 OA
ENDROOT
BRANCH   1  25
HETATM   25  C2  UNL     1       3.013   0.976   0.746  1.00  0.00    -0.014 C 
HETATM   26  C1  UNL     1       3.402   1.733  -0.526  1.00  0.00     0.010 C 
BRANCH  25  27
HETATM   27  C3  UNL     1       3.395  -0.520   0.652  1.00  0.00     0.007 C 
BRANCH  27  28
HETATM   28  C4  UNL     1       4.910  -0.800   0.632  1.00  0.00     0.035 C 
BRANCH  28  29
HETATM   29  C5  UNL     1       5.507  -0.947  -0.775  1.00  0.00     0.154 C 
BRANCH  29  30
HETATM   30  O1  UNL     1       4.870  -2.053  -1.435  1.00  0.00    -0.392 OA
HETATM   31  H10 UNL     1       5.397  -2.182  -2.253  1.00  0.00     0.210 HD
ENDBRANCH  29  30
BRANCH  29  32
HETATM   32  C6  UNL     1       7.043  -1.168  -0.811  1.00  0.00     0.101 C 
HETATM   33  C7  UNL     1       7.481  -2.450  -0.089  1.00  0.00     0.051 C 
BRANCH  32  34
HETATM   34  O2  UNL     1       7.396  -1.346  -2.205  1.00  0.00    -0.385 OA
HETATM   35  H14 UNL     1       8.341  -1.095  -2.267  1.00  0.00     0.210 HD
ENDBRANCH  32  34
BRANCH  32  36
HETATM   36  C8  UNL     1       7.807   0.063  -0.285  1.00  0.00     0.204 C 
BRANCH  36  37
HETATM   37  O3  UNL     1       9.205  -0.080  -0.560  1.00  0.00    -0.398 OA
HETATM   38  H17 UNL     1       9.589  -0.625   0.150  1.00  0.00     0.209 HD
ENDBRANCH  36  37
ENDBRANCH  32  36
ENDBRANCH  29  32
ENDBRANCH  28  29
ENDBRANCH  27  28
ENDBRANCH  25  27
ENDBRANCH   1  25
TORSDOF 9
