REMARK  13 active torsions:
REMARK  status: ('A' for Active; 'I' for Inactive)
REMARK    1  A    between atoms: C3_3  and  O1_4 
REMARK    2  A    between atoms: N1_14  and  O2_16 
REMARK    3  A    between atoms: O2_16  and  C13_17 
REMARK    4  A    between atoms: C13_17  and  C14_18 
REMARK       I    between atoms: C14_18  and  N2_20 
REMARK    5  A    between atoms: N2_20  and  C15_21 
REMARK    6  A    between atoms: C15_21  and  C16_22 
REMARK    7  A    between atoms: C15_21  and  C21_33 
REMARK       I    between atoms: C16_22  and  N3_24 
REMARK    8  A    between atoms: N3_24  and  C17_25 
REMARK    9  A    between atoms: C17_25  and  C18_26 
REMARK   10  A    between atoms: C17_25  and  C20_30 
REMARK   11  A    between atoms: C18_26  and  C19_27 
REMARK   12  A    between atoms: C19_27  and  O6_29 
REMARK   13  A    between atoms: C20_30  and  O8_32 
ROOT
HETATM    1  C1  UNL     1      -9.132  -1.024   2.088  1.00  0.00     0.015 C 
HETATM    2  C2  UNL     1      -8.303  -1.223   1.238  1.00  0.00    -0.078 C 
HETATM    3  C3  UNL     1      -7.325  -1.456   0.152  1.00  0.00     0.128 C 
HETATM    4  C4  UNL     1      -7.181  -0.192  -0.706  1.00  0.00     0.052 C 
HETATM    5  C5  UNL     1      -6.077   0.637  -0.034  1.00  0.00     0.010 C 
HETATM    6  C6  UNL     1      -5.428  -0.266   1.040  1.00  0.00     0.002 C 
HETATM    7  C7  UNL     1      -3.911  -0.085   1.313  1.00  0.00    -0.004 C 
HETATM    8  C8  UNL     1      -3.496   1.400   1.342  1.00  0.00     0.010 C 
HETATM    9  C9  UNL     1      -2.758   1.862   0.095  1.00  0.00     0.035 C 
HETATM   10  C10 UNL     1      -1.566   1.009  -0.252  1.00  0.00    -0.069 C 
HETATM   11  C11 UNL     1      -0.600   1.532  -1.030  1.00  0.00     0.030 C 
HETATM   12  C12 UNL     1       0.590   0.748  -1.458  1.00  0.00     0.032 C 
HETATM   13  N1  UNL     1       1.487   1.360  -2.179  1.00  0.00    -0.271 N 
ATOM     14  H1  UNL     1       1.435   2.343  -2.446  1.00  0.00     0.194 HD
HETATM   15  C24 UNL     1       0.689  -0.703  -1.017  1.00  0.00     0.060 C 
HETATM   16  C25 UNL     1      -0.693  -1.279  -0.724  1.00  0.00     0.020 C 
HETATM   17  C26 UNL     1      -1.527  -0.421   0.272  1.00  0.00    -0.016 C 
HETATM   18  C27 UNL     1      -0.796  -0.439   1.644  1.00  0.00     0.020 C 
HETATM   19  C28 UNL     1      -2.978  -1.009   0.466  1.00  0.00     0.002 C 
HETATM   20  C29 UNL     1      -3.695  -1.453  -0.816  1.00  0.00     0.007 C 
HETATM   21  C30 UNL     1      -4.964  -2.260  -0.512  1.00  0.00     0.014 C 
HETATM   22  C31 UNL     1      -5.859  -1.697   0.639  1.00  0.00     0.003 C 
HETATM   23  C32 UNL     1      -5.785  -2.674   1.832  1.00  0.00     0.020 C 
ENDROOT
BRANCH   3  24
HETATM   24  O1  UNL     1      -7.801  -2.541  -0.636  1.00  0.00    -0.377 OA
HETATM   25  H2  UNL     1      -8.702  -2.311  -0.925  1.00  0.00     0.211 HD
ENDBRANCH   3  24
BRANCH  13  26
HETATM   26  O2  UNL     1       2.532   0.500  -2.541  1.00  0.00    -0.271 OA
BRANCH  26  27
HETATM   27  C13 UNL     1       3.271   1.080  -3.620  1.00  0.00     0.303 C 
BRANCH  27  28
HETATM   28  C14 UNL     1       4.692   1.356  -3.153  1.00  0.00     0.244 C 
HETATM   29  O3  UNL     1       5.673   1.133  -3.858  1.00  0.00    -0.271 OA
HETATM   30  N2  UNL     1       4.761   1.906  -1.890  1.00  0.00    -0.346 N 
HETATM   31  H16 UNL     1       3.884   1.992  -1.388  1.00  0.00     0.163 HD
BRANCH  30  32
HETATM   32  C15 UNL     1       6.032   2.076  -1.174  1.00  0.00     0.180 C 
BRANCH  32  33
HETATM   33  C16 UNL     1       6.403   0.774  -0.418  1.00  0.00     0.241 C 
HETATM   34  O4  UNL     1       7.553   0.516  -0.074  1.00  0.00    -0.271 OA
HETATM   35  N3  UNL     1       5.318   0.001  -0.037  1.00  0.00    -0.344 N 
HETATM   36  H18 UNL     1       4.539   0.062  -0.685  1.00  0.00     0.163 HD
BRANCH  35  37
HETATM   37  C17 UNL     1       5.520  -1.319   0.578  1.00  0.00     0.192 C 
BRANCH  37  38
HETATM   38  C18 UNL     1       4.476  -1.572   1.665  1.00  0.00     0.146 C 
BRANCH  38  39
HETATM   39  C19 UNL     1       5.065  -1.362   3.030  1.00  0.00     0.141 C 
HETATM   40  O5  UNL     1       5.994  -0.633   3.333  1.00  0.00    -0.650 OA
BRANCH  39  41
HETATM   41  O6  UNL     1       4.403  -2.050   3.984  1.00  0.00    -0.776 OA
HETATM   42  H22 UNL     1       4.903  -1.862   4.804  1.00  0.00     0.167 HD
ENDBRANCH  39  41
ENDBRANCH  38  39
ENDBRANCH  37  38
BRANCH  37  43
HETATM   43  C20 UNL     1       5.404  -2.417  -0.482  1.00  0.00     0.164 C 
HETATM   44  O7  UNL     1       5.643  -3.603  -0.320  1.00  0.00    -0.648 OA
BRANCH  43  45
HETATM   45  O8  UNL     1       4.904  -1.983  -1.663  1.00  0.00    -0.775 OA
HETATM   46  H23 UNL     1       4.944  -2.771  -2.245  1.00  0.00     0.167 HD
ENDBRANCH  43  45
ENDBRANCH  37  43
ENDBRANCH  35  37
ENDBRANCH  32  33
BRANCH  32  47
HETATM   47  C21 UNL     1       5.959   3.303  -0.235  1.00  0.00     0.009 C 
HETATM   48  C22 UNL     1       5.008   3.124   0.954  1.00  0.00     0.012 C 
HETATM   49  C23 UNL     1       7.346   3.706   0.272  1.00  0.00     0.012 C 
ENDBRANCH  32  47
ENDBRANCH  30  32
ENDBRANCH  27  28
ENDBRANCH  26  27
ENDBRANCH  13  26
TORSDOF 13
