REMARK  11 active torsions:
REMARK  status: ('A' for Active; 'I' for Inactive)
REMARK    1  A    between atoms: C12_13  and  O2_14 
REMARK    2  A    between atoms: C19_21  and  O3_22 
REMARK    3  A    between atoms: C19_21  and  C20_23 
REMARK    4  A    between atoms: C20_23  and  C21_25 
REMARK    5  A    between atoms: C21_25  and  O5_26 
REMARK    6  A    between atoms: O5_26  and  C22_27 
REMARK    7  A    between atoms: C22_27  and  C23_29 
REMARK    8  A    between atoms: C23_29  and  C24_30 
REMARK    9  A    between atoms: C24_30  and  C25_31 
REMARK       I    between atoms: C25_31  and  N1_33 
REMARK   10  A    between atoms: N1_33  and  C26_34 
REMARK   11  A    between atoms: C26_34  and  C27_35 
ROOT
HETATM    1  C1  UNL     1      -4.195  -0.852  -2.930  1.00  0.00     0.025 C 
HETATM    2  C2  UNL     1      -5.002  -0.646  -1.627  1.00  0.00     0.004 A 
HETATM    3  C3  UNL     1      -5.772  -1.946  -1.394  1.00  0.00    -0.009 A 
HETATM    4  C4  UNL     1      -7.106  -2.064  -1.364  1.00  0.00     0.052 A 
HETATM    5  C5  UNL     1      -7.973  -0.890  -1.565  1.00  0.00     0.172 A 
HETATM    6  O1  UNL     1      -9.193  -0.984  -1.526  1.00  0.00    -0.289 OA
HETATM    7  C6  UNL     1      -7.308   0.405  -1.813  1.00  0.00     0.058 A 
HETATM    8  C7  UNL     1      -5.969   0.523  -1.854  1.00  0.00    -0.064 A 
HETATM    9  C8  UNL     1      -5.347   1.879  -2.081  1.00  0.00     0.036 C 
HETATM   10  C9  UNL     1      -4.006   2.044  -1.365  1.00  0.00     0.010 C 
HETATM   11  C10 UNL     1      -3.932   1.212  -0.077  1.00  0.00    -0.002 C 
HETATM   12  C11 UNL     1      -4.132  -0.323  -0.341  1.00  0.00     0.035 C 
HETATM   13  C12 UNL     1      -2.821  -1.131  -0.126  1.00  0.00     0.124 C 
HETATM   14  C13 UNL     1      -1.567  -0.354  -0.528  1.00  0.00     0.045 C 
HETATM   15  C14 UNL     1      -1.331   0.960   0.265  1.00  0.00     0.001 C 
HETATM   16  C15 UNL     1      -0.594   1.941  -0.679  1.00  0.00     0.019 C 
HETATM   17  C16 UNL     1      -2.680   1.565   0.758  1.00  0.00     0.002 C 
HETATM   18  C17 UNL     1      -2.845   1.130   2.234  1.00  0.00     0.009 C 
HETATM   19  C18 UNL     1      -1.578   0.388   2.641  1.00  0.00     0.047 C 
HETATM   20  C19 UNL     1      -0.535   0.798   1.610  1.00  0.00     0.128 C 
ENDROOT
BRANCH  20  21
HETATM   21  O3  UNL     1      -0.057   2.088   2.044  1.00  0.00    -0.381 OA
HETATM   22  H25 UNL     1       0.782   2.246   1.565  1.00  0.00     0.211 HD
ENDBRANCH  20  21
BRANCH  20  23
HETATM   23  C20 UNL     1       0.716  -0.101   1.534  1.00  0.00     0.185 C 
HETATM   24  O4  UNL     1       1.759   0.356   1.049  1.00  0.00    -0.292 OA
BRANCH  23  25
HETATM   25  C21 UNL     1       0.622  -1.538   2.052  1.00  0.00     0.260 C 
BRANCH  25  26
HETATM   26  O5  UNL     1       1.825  -2.283   1.869  1.00  0.00    -0.314 OA
BRANCH  26  27
HETATM   27  C22 UNL     1       2.802  -1.987   2.768  1.00  0.00     0.259 C 
HETATM   28  O6  UNL     1       2.675  -1.215   3.710  1.00  0.00    -0.265 OA
BRANCH  27  29
HETATM   29  C23 UNL     1       4.066  -2.750   2.470  1.00  0.00     0.120 C 
BRANCH  29  30
HETATM   30  C24 UNL     1       5.219  -1.777   2.276  1.00  0.00     0.112 C 
BRANCH  30  31
HETATM   31  C25 UNL     1       5.196  -1.155   0.894  1.00  0.00     0.218 C 
HETATM   32  O7  UNL     1       4.736  -1.727  -0.087  1.00  0.00    -0.274 OA
HETATM   33  N1  UNL     1       5.796   0.081   0.845  1.00  0.00    -0.357 N 
HETATM   34  H32 UNL     1       6.220   0.465   1.678  1.00  0.00     0.162 HD
BRANCH  33  35
HETATM   35  C26 UNL     1       5.955   0.809  -0.392  1.00  0.00     0.162 C 
BRANCH  35  36
HETATM   36  C27 UNL     1       7.392   0.801  -0.825  1.00  0.00    -0.025 A 
HETATM   37  C28 UNL     1       8.263   1.847  -0.509  1.00  0.00     0.011 A 
HETATM   38  C29 UNL     1       9.596   1.779  -0.907  1.00  0.00     0.018 A 
HETATM   39  C30 UNL     1      10.015   0.659  -1.607  1.00  0.00     0.087 A 
HETATM   40  N2  UNL     1       9.206  -0.373  -1.924  1.00  0.00    -0.375 N 
HETATM   41  C31 UNL     1       7.916  -0.282  -1.525  1.00  0.00     0.096 A 
ATOM     42  H2  UNL     1       9.550  -1.183  -2.440  1.00  0.00     0.164 HD
ENDBRANCH  35  36
ENDBRANCH  33  35
ENDBRANCH  30  31
ENDBRANCH  29  30
ENDBRANCH  27  29
ENDBRANCH  26  27
ENDBRANCH  25  26
ENDBRANCH  23  25
ENDBRANCH  20  23
BRANCH  13  43
HETATM   43  O2  UNL     1      -2.840  -2.392  -0.779  1.00  0.00    -0.395 OA
HETATM   44  H14 UNL     1      -1.955  -2.795  -0.729  1.00  0.00     0.210 HD
ENDBRANCH  13  43
TORSDOF 11
