REMARK  6 active torsions:
REMARK  status: ('A' for Active; 'I' for Inactive)
REMARK    1  A    between atoms: C15_15  and  C17_17 
REMARK    2  A    between atoms: C17_17  and  O2_19 
REMARK    3  A    between atoms: C26_28  and  C27_29 
REMARK    4  A    between atoms: C27_29  and  O3_30 
REMARK    5  A    between atoms: C28_31  and  O4_32 
REMARK    6  A    between atoms: C30_34  and  O5_35 
ROOT
HETATM    1  C1  UNL     1      -6.171   0.304  -1.463  1.00  0.00     0.016 C 
HETATM    2  C2  UNL     1      -5.317   0.175  -0.183  1.00  0.00     0.055 C 
HETATM    3  C3  UNL     1      -3.893  -0.423  -0.409  1.00  0.00     0.002 C 
HETATM    4  C4  UNL     1      -3.209   0.134  -1.673  1.00  0.00     0.013 C 
HETATM    5  C5  UNL     1      -1.773  -0.334  -1.898  1.00  0.00     0.007 C 
HETATM    6  C6  UNL     1      -0.863  -0.036  -0.686  1.00  0.00     0.003 C 
HETATM    7  C7  UNL     1      -1.394  -0.780   0.609  1.00  0.00    -0.027 C 
HETATM    8  C8  UNL     1      -1.349  -2.330   0.431  1.00  0.00     0.016 C 
HETATM    9  C9  UNL     1      -0.416  -0.521   1.803  1.00  0.00     0.011 C 
HETATM   10  C10 UNL     1       1.086  -0.639   1.473  1.00  0.00     0.011 C 
HETATM   11  C11 UNL     1       1.539   0.271   0.291  1.00  0.00    -0.032 C 
HETATM   12  C12 UNL     1       1.276   1.739   0.767  1.00  0.00     0.016 C 
HETATM   13  C13 UNL     1       3.094   0.085  -0.020  1.00  0.00     0.004 C 
HETATM   14  C14 UNL     1       3.979   0.463   1.207  1.00  0.00     0.026 C 
HETATM   15  C15 UNL     1       5.509   0.460   0.975  1.00  0.00     0.042 C 
HETATM   16  C16 UNL     1       6.049  -0.981   0.910  1.00  0.00     0.026 C 
HETATM   17  C18 UNL     1       5.876   1.242  -0.309  1.00  0.00     0.021 C 
HETATM   18  C19 UNL     1       4.665   1.838  -1.030  1.00  0.00     0.011 C 
HETATM   19  C20 UNL     1       3.572   0.784  -1.355  1.00  0.00    -0.040 C 
HETATM   20  C21 UNL     1       4.210  -0.232  -2.345  1.00  0.00     0.015 C 
HETATM   21  C22 UNL     1       2.440   1.505  -2.129  1.00  0.00     0.010 C 
HETATM   22  C23 UNL     1       1.058   0.843  -2.160  1.00  0.00     0.011 C 
HETATM   23  C24 UNL     1       0.697  -0.129  -0.992  1.00  0.00    -0.032 C 
HETATM   24  C25 UNL     1       1.029  -1.560  -1.503  1.00  0.00     0.016 C 
HETATM   25  C26 UNL     1      -2.952  -0.225   0.901  1.00  0.00     0.025 C 
HETATM   26  C28 UNL     1      -3.640  -0.957   2.110  1.00  0.00     0.135 C 
HETATM   27  C29 UNL     1      -5.159  -0.760   2.181  1.00  0.00     0.101 C 
HETATM   28  C30 UNL     1      -5.852  -0.859   0.818  1.00  0.00     0.168 C 
HETATM   29  O6  UNL     1      -5.496  -2.116   0.228  1.00  0.00    -0.354 OA
HETATM   30  C31 UNL     1      -4.345  -1.895  -0.613  1.00  0.00     0.182 C 
ENDROOT
BRANCH  15  31
HETATM   31  C17 UNL     1       6.218   1.105   2.174  1.00  0.00     0.148 C 
HETATM   32  O1  UNL     1       7.275   1.718   2.157  1.00  0.00    -0.649 OA
BRANCH  31  33
HETATM   33  O2  UNL     1       5.607   0.880   3.356  1.00  0.00    -0.776 OA
HETATM   34  H26 UNL     1       6.195   1.312   4.012  1.00  0.00     0.167 HD
ENDBRANCH  31  33
ENDBRANCH  15  31
BRANCH  25  35
HETATM   35  C27 UNL     1      -2.852   1.324   1.261  1.00  0.00     0.177 C 
BRANCH  35  36
HETATM   36  O3  UNL     1      -4.037   1.900   1.799  1.00  0.00    -0.400 OA
HETATM   37  H43 UNL     1      -3.790   2.772   2.160  1.00  0.00     0.209 HD
ENDBRANCH  35  36
ENDBRANCH  25  35
BRANCH  26  38
HETATM   38  O4  UNL     1      -3.032  -0.583   3.346  1.00  0.00    -0.394 OA
HETATM   39  H45 UNL     1      -3.607  -0.904   4.068  1.00  0.00     0.210 HD
ENDBRANCH  26  38
BRANCH  28  40
HETATM   40  O5  UNL     1      -7.246  -0.815   1.056  1.00  0.00    -0.365 OA
HETATM   41  H48 UNL     1      -7.664  -0.234   0.399  1.00  0.00     0.213 HD
ENDBRANCH  28  40
TORSDOF 6
