REMARK  12 active torsions:
REMARK  status: ('A' for Active; 'I' for Inactive)
REMARK    1  A    between atoms: C3_3  and  O1_4 
REMARK    2  A    between atoms: N1_14  and  O2_16 
REMARK    3  A    between atoms: O2_16  and  C13_17 
REMARK    4  A    between atoms: C13_17  and  C14_18 
REMARK       I    between atoms: C14_18  and  N2_20 
REMARK    5  A    between atoms: N2_20  and  C15_21 
REMARK    6  A    between atoms: C15_21  and  C16_22 
REMARK    7  A    between atoms: C15_21  and  C26_36 
REMARK       I    between atoms: C16_22  and  N3_24 
REMARK    8  A    between atoms: N3_24  and  C17_25 
REMARK    9  A    between atoms: C17_25  and  C18_26 
REMARK   10  A    between atoms: C17_25  and  C25_33 
REMARK   11  A    between atoms: C18_26  and  C19_27 
REMARK   12  A    between atoms: C25_33  and  O6_35 
ROOT
HETATM    1  C1  UNL     1     -10.868   0.047  -1.715  1.00  0.00     0.015 C 
HETATM    2  C2  UNL     1      -9.832   0.590  -1.439  1.00  0.00    -0.078 C 
HETATM    3  C3  UNL     1      -8.566   1.283  -1.098  1.00  0.00     0.128 C 
HETATM    4  C4  UNL     1      -8.579   1.627   0.407  1.00  0.00     0.052 C 
HETATM    5  C5  UNL     1      -7.669   0.597   1.085  1.00  0.00     0.010 C 
HETATM    6  C6  UNL     1      -7.336  -0.468   0.015  1.00  0.00     0.002 C 
HETATM    7  C7  UNL     1      -6.093  -1.365   0.280  1.00  0.00    -0.004 C 
HETATM    8  C8  UNL     1      -5.845  -1.540   1.799  1.00  0.00     0.010 C 
HETATM    9  C9  UNL     1      -4.600  -2.347   2.140  1.00  0.00     0.035 C 
HETATM   10  C10 UNL     1      -3.427  -1.713   1.440  1.00  0.00    -0.069 C 
HETATM   11  C11 UNL     1      -2.441  -1.154   2.159  1.00  0.00     0.030 C 
HETATM   12  C12 UNL     1      -1.367  -0.352   1.529  1.00  0.00     0.032 C 
HETATM   13  N1  UNL     1      -0.429   0.113   2.306  1.00  0.00    -0.271 N 
ATOM     14  H1  UNL     1      -0.379  -0.065   3.309  1.00  0.00     0.194 HD
HETATM   15  C29 UNL     1      -1.503  -0.032   0.056  1.00  0.00     0.060 C 
HETATM   16  C30 UNL     1      -2.199  -1.149  -0.714  1.00  0.00     0.020 C 
HETATM   17  C31 UNL     1      -3.508  -1.702  -0.076  1.00  0.00    -0.016 C 
HETATM   18  C32 UNL     1      -3.596  -3.174  -0.588  1.00  0.00     0.020 C 
HETATM   19  C33 UNL     1      -4.821  -0.956  -0.537  1.00  0.00     0.002 C 
HETATM   20  C34 UNL     1      -4.742   0.570  -0.636  1.00  0.00     0.007 C 
HETATM   21  C35 UNL     1      -5.974   1.215  -1.309  1.00  0.00     0.014 C 
HETATM   22  C36 UNL     1      -7.292   0.379  -1.278  1.00  0.00     0.003 C 
HETATM   23  C37 UNL     1      -7.395  -0.461  -2.573  1.00  0.00     0.020 C 
ENDROOT
BRANCH   3  24
HETATM   24  O1  UNL     1      -8.517   2.460  -1.893  1.00  0.00    -0.377 OA
HETATM   25  H2  UNL     1      -7.829   3.044  -1.549  1.00  0.00     0.211 HD
ENDBRANCH   3  24
BRANCH  13  26
HETATM   26  O2  UNL     1       0.502   0.886   1.601  1.00  0.00    -0.271 OA
BRANCH  26  27
HETATM   27  C13 UNL     1       1.096   1.820   2.497  1.00  0.00     0.303 C 
BRANCH  27  28
HETATM   28  C14 UNL     1       2.481   2.209   2.009  1.00  0.00     0.244 C 
HETATM   29  O3  UNL     1       2.879   3.372   2.017  1.00  0.00    -0.271 OA
HETATM   30  N2  UNL     1       3.275   1.154   1.624  1.00  0.00    -0.346 N 
HETATM   31  H16 UNL     1       2.851   0.235   1.506  1.00  0.00     0.163 HD
BRANCH  30  32
HETATM   32  C15 UNL     1       4.625   1.343   1.089  1.00  0.00     0.180 C 
BRANCH  32  33
HETATM   33  C16 UNL     1       4.941   0.117   0.204  1.00  0.00     0.241 C 
HETATM   34  O4  UNL     1       4.276  -0.920   0.255  1.00  0.00    -0.271 OA
HETATM   35  N3  UNL     1       6.005   0.264  -0.652  1.00  0.00    -0.345 N 
HETATM   36  H18 UNL     1       6.393   1.191  -0.803  1.00  0.00     0.163 HD
BRANCH  35  37
HETATM   37  C17 UNL     1       6.321  -0.724  -1.688  1.00  0.00     0.186 C 
BRANCH  37  38
HETATM   38  C18 UNL     1       7.443  -1.690  -1.273  1.00  0.00     0.074 C 
BRANCH  38  39
HETATM   39  C19 UNL     1       8.768  -1.031  -0.952  1.00  0.00    -0.056 A 
HETATM   40  C20 UNL     1       9.116  -0.747   0.375  1.00  0.00     0.007 A 
HETATM   41  C21 UNL     1      10.326  -0.118   0.677  1.00  0.00     0.001 A 
HETATM   42  C22 UNL     1      11.206   0.229  -0.346  1.00  0.00     0.000 A 
HETATM   43  C23 UNL     1      10.880  -0.063  -1.668  1.00  0.00     0.001 A 
HETATM   44  C24 UNL     1       9.671  -0.695  -1.971  1.00  0.00     0.007 A 
ENDBRANCH  38  39
ENDBRANCH  37  38
BRANCH  37  45
HETATM   45  C25 UNL     1       6.646  -0.024  -3.010  1.00  0.00     0.163 C 
HETATM   46  O5  UNL     1       6.925  -0.567  -4.067  1.00  0.00    -0.648 OA
BRANCH  45  47
HETATM   47  O6  UNL     1       6.606   1.326  -2.936  1.00  0.00    -0.775 OA
HETATM   48  H27 UNL     1       6.822   1.614  -3.850  1.00  0.00     0.167 HD
ENDBRANCH  45  47
ENDBRANCH  37  45
ENDBRANCH  35  37
ENDBRANCH  32  33
BRANCH  32  49
HETATM   49  C26 UNL     1       5.641   1.599   2.227  1.00  0.00     0.009 C 
HETATM   50  C27 UNL     1       6.009   0.331   2.994  1.00  0.00     0.012 C 
HETATM   51  C28 UNL     1       6.900   2.316   1.739  1.00  0.00     0.012 C 
ENDBRANCH  32  49
ENDBRANCH  30  32
ENDBRANCH  27  28
ENDBRANCH  26  27
ENDBRANCH  13  26
TORSDOF 12
