REMARK  6 active torsions:
REMARK  status: ('A' for Active; 'I' for Inactive)
REMARK    1  A    between atoms: C2_2  and  C30_31 
REMARK    2  A    between atoms: C3_3  and  C4_4 
REMARK    3  A    between atoms: C4_4  and  C5_5 
REMARK    4  A    between atoms: C5_5  and  C6_6 
REMARK    5  A    between atoms: C6_6  and  C8_8 
REMARK    6  A    between atoms: C30_31  and  O2_32 
ROOT
HETATM    1  C8  UNL     1       1.976  -0.082   0.648  1.00  0.00    -0.002 C 
HETATM    2  C9  UNL     1       1.971  -1.603   0.305  1.00  0.00     0.007 C 
HETATM    3  C10 UNL     1       0.502  -2.039   0.141  1.00  0.00     0.015 C 
HETATM    4  C11 UNL     1      -0.317  -0.869   0.717  1.00  0.00    -0.013 C 
HETATM    5  C12 UNL     1      -0.348  -1.084   2.263  1.00  0.00     0.021 C 
HETATM    6  C13 UNL     1      -1.771  -0.728   0.277  1.00  0.00    -0.070 C 
HETATM    7  C14 UNL     1      -2.544  -1.785  -0.038  1.00  0.00    -0.022 C 
HETATM    8  C15 UNL     1      -4.001  -1.700  -0.395  1.00  0.00     0.034 C 
HETATM    9  C16 UNL     1      -4.521  -0.256  -0.581  1.00  0.00     0.013 C 
HETATM   10  C17 UNL     1      -6.064  -0.170  -0.846  1.00  0.00     0.018 C 
HETATM   11  C18 UNL     1      -6.957  -0.918   0.156  1.00  0.00     0.023 C 
HETATM   12  C19 UNL     1      -6.368  -0.769  -2.243  1.00  0.00     0.023 C 
HETATM   13  C20 UNL     1      -6.504   1.301  -0.857  1.00  0.00     0.135 C 
HETATM   14  O1  UNL     1      -7.316   1.743  -1.673  1.00  0.00    -0.297 OA
HETATM   15  C21 UNL     1      -5.982   2.190   0.241  1.00  0.00     0.080 C 
HETATM   16  C22 UNL     1      -4.464   2.135   0.282  1.00  0.00     0.017 C 
HETATM   17  C23 UNL     1      -3.910   0.707   0.507  1.00  0.00    -0.031 C 
HETATM   18  C24 UNL     1      -4.215   0.276   1.963  1.00  0.00     0.016 C 
HETATM   19  C25 UNL     1      -2.345   0.695   0.256  1.00  0.00     0.024 C 
HETATM   20  C26 UNL     1      -1.532   1.681   1.125  1.00  0.00     0.010 C 
HETATM   21  C27 UNL     1      -0.001   1.644   0.907  1.00  0.00     0.011 C 
HETATM   22  C28 UNL     1       0.533   0.360   0.233  1.00  0.00    -0.029 C 
HETATM   23  C29 UNL     1       0.509   0.550  -1.318  1.00  0.00     0.016 C 
ENDROOT
BRANCH   1  24
HETATM   24  C6  UNL     1       3.218   0.653   0.055  1.00  0.00    -0.014 C 
HETATM   25  C7  UNL     1       3.186   2.156   0.356  1.00  0.00     0.010 C 
BRANCH  24  26
HETATM   26  C5  UNL     1       4.529   0.028   0.613  1.00  0.00     0.008 C 
BRANCH  26  27
HETATM   27  C4  UNL     1       5.806   0.552  -0.057  1.00  0.00     0.028 C 
BRANCH  27  28
HETATM   28  C3  UNL     1       7.036  -0.101   0.516  1.00  0.00    -0.022 C 
HETATM   29  C2  UNL     1       7.962  -0.815  -0.156  1.00  0.00    -0.064 C 
HETATM   30  C1  UNL     1       9.183  -1.347   0.546  1.00  0.00     0.045 C 
BRANCH  29  31
HETATM   31  C30 UNL     1       7.884  -1.128  -1.627  1.00  0.00     0.197 C 
BRANCH  31  32
HETATM   32  O2  UNL     1       8.310  -0.006  -2.390  1.00  0.00    -0.397 OA
HETATM   33  H48 UNL     1       8.670   0.650  -1.769  1.00  0.00     0.209 HD
ENDBRANCH  31  32
ENDBRANCH  29  31
ENDBRANCH  27  28
ENDBRANCH  26  27
ENDBRANCH  24  26
ENDBRANCH   1  24
TORSDOF 6
