REMARK  10 active torsions:
REMARK  status: ('A' for Active; 'I' for Inactive)
REMARK    1  A    between atoms: N1_6  and  O1_8 
REMARK    2  A    between atoms: O1_8  and  C6_9 
REMARK    3  A    between atoms: C6_9  and  C7_10 
REMARK       I    between atoms: C7_10  and  N2_12 
REMARK    4  A    between atoms: N2_12  and  C8_13 
REMARK    5  A    between atoms: C8_13  and  C9_14 
REMARK    6  A    between atoms: C20_27  and  O3_28 
REMARK    7  A    between atoms: C27_35  and  O4_36 
REMARK    8  A    between atoms: C27_35  and  C28_37 
REMARK    9  A    between atoms: C28_37  and  C29_39 
REMARK   10  A    between atoms: C29_39  and  O6_40 
ROOT
HETATM    1  C1  UNL     1      -0.972  -1.928   2.131  1.00  0.00     0.020 C 
HETATM    2  C2  UNL     1      -0.818  -1.417   0.678  1.00  0.00    -0.014 C 
HETATM    3  C3  UNL     1      -0.197  -2.542  -0.191  1.00  0.00     0.020 C 
HETATM    4  C4  UNL     1       1.215  -2.922   0.244  1.00  0.00     0.060 C 
HETATM    5  C5  UNL     1       2.124  -1.717   0.401  1.00  0.00     0.032 C 
HETATM    6  N1  UNL     1       3.403  -1.954   0.398  1.00  0.00    -0.271 N 
ATOM      7  H1  UNL     1       3.813  -2.881   0.284  1.00  0.00     0.194 HD
HETATM    8  C14 UNL     1       1.487  -0.376   0.556  1.00  0.00     0.030 C 
HETATM    9  C15 UNL     1       0.154  -0.230   0.672  1.00  0.00    -0.069 C 
HETATM   10  C16 UNL     1      -0.429   1.166   0.702  1.00  0.00     0.035 C 
HETATM   11  C17 UNL     1      -1.785   1.251   1.394  1.00  0.00     0.010 C 
HETATM   12  C18 UNL     1      -2.813   0.214   0.894  1.00  0.00    -0.002 C 
HETATM   13  C19 UNL     1      -2.170  -0.923   0.051  1.00  0.00     0.031 C 
HETATM   14  C20 UNL     1      -3.220  -2.003  -0.287  1.00  0.00     0.124 C 
HETATM   15  C21 UNL     1      -4.453  -1.397  -0.979  1.00  0.00     0.045 C 
HETATM   16  C22 UNL     1      -5.092  -0.144  -0.299  1.00  0.00     0.001 C 
HETATM   17  C23 UNL     1      -5.984  -0.607   0.869  1.00  0.00     0.019 C 
HETATM   18  C24 UNL     1      -4.014   0.864   0.175  1.00  0.00     0.002 C 
HETATM   19  C25 UNL     1      -3.661   1.697  -1.072  1.00  0.00     0.009 C 
HETATM   20  C26 UNL     1      -4.795   1.493  -2.079  1.00  0.00     0.047 C 
HETATM   21  C27 UNL     1      -5.894   0.707  -1.342  1.00  0.00     0.128 C 
ENDROOT
BRANCH   6  22
HETATM   22  O1  UNL     1       4.151  -0.778   0.571  1.00  0.00    -0.271 OA
BRANCH  22  23
HETATM   23  C6  UNL     1       5.530  -1.106   0.529  1.00  0.00     0.303 C 
BRANCH  23  24
HETATM   24  C7  UNL     1       6.402   0.118   0.803  1.00  0.00     0.244 C 
HETATM   25  O2  UNL     1       5.963   1.253   0.966  1.00  0.00    -0.271 OA
HETATM   26  N2  UNL     1       7.753  -0.179   0.859  1.00  0.00    -0.355 N 
HETATM   27  H10 UNL     1       8.067  -1.089   0.552  1.00  0.00     0.162 HD
BRANCH  26  28
HETATM   28  C8  UNL     1       8.750   0.852   1.038  1.00  0.00     0.161 C 
BRANCH  28  29
HETATM   29  C9  UNL     1       9.333   1.271  -0.284  1.00  0.00    -0.038 A 
HETATM   30  C10 UNL     1       8.690   2.233  -1.068  1.00  0.00     0.025 A 
HETATM   31  C11 UNL     1       9.248   2.579  -2.288  1.00  0.00     0.088 A 
HETATM   32  N3  UNL     1      10.384   2.035  -2.775  1.00  0.00    -0.375 N 
HETATM   33  C12 UNL     1      10.985   1.101  -2.008  1.00  0.00     0.088 A 
ATOM     34  H3  UNL     1      10.769   2.316  -3.677  1.00  0.00     0.164 HD
HETATM   35  C13 UNL     1      10.504   0.687  -0.775  1.00  0.00     0.025 A 
ENDBRANCH  28  29
ENDBRANCH  26  28
ENDBRANCH  23  24
ENDBRANCH  22  23
ENDBRANCH   6  22
BRANCH  14  36
HETATM   36  O3  UNL     1      -3.607  -2.790   0.828  1.00  0.00    -0.395 OA
HETATM   37  H25 UNL     1      -3.713  -2.225   1.608  1.00  0.00     0.210 HD
ENDBRANCH  14  36
BRANCH  21  38
HETATM   38  O4  UNL     1      -6.579  -0.130  -2.268  1.00  0.00    -0.381 OA
HETATM   39  H36 UNL     1      -6.700   0.362  -3.100  1.00  0.00     0.211 HD
ENDBRANCH  21  38
BRANCH  21  40
HETATM   40  C28 UNL     1      -6.896   1.707  -0.704  1.00  0.00     0.184 C 
HETATM   41  O5  UNL     1      -6.547   2.797  -0.236  1.00  0.00    -0.292 OA
BRANCH  40  42
HETATM   42  C29 UNL     1      -8.367   1.303  -0.665  1.00  0.00     0.245 C 
BRANCH  42  43
HETATM   43  O6  UNL     1      -9.134   2.210   0.119  1.00  0.00    -0.393 OA
HETATM   44  H39 UNL     1      -8.584   3.013   0.227  1.00  0.00     0.209 HD
ENDBRANCH  42  43
ENDBRANCH  40  42
ENDBRANCH  21  40
TORSDOF 10
