REMARK  5 active torsions:
REMARK  status: ('A' for Active; 'I' for Inactive)
REMARK    1  A    between atoms: C2_2  and  C4_4 
REMARK    2  A    between atoms: C10_10  and  C11_11 
REMARK    3  A    between atoms: C11_11  and  O2_13 
REMARK    4  A    between atoms: C20_22  and  C22_24 
REMARK    5  A    between atoms: C22_24  and  O3_25 
ROOT
HETATM    1  C4  UNL     1       4.153   0.978   1.332  1.00  0.00     0.025 C 
HETATM    2  C5  UNL     1       5.439   0.165   1.597  1.00  0.00     0.037 C 
HETATM    3  C6  UNL     1       5.047  -1.227   1.229  1.00  0.00    -0.023 C 
HETATM    4  C7  UNL     1       3.901  -1.257   0.541  1.00  0.00    -0.078 C 
HETATM    5  C8  UNL     1       3.212  -2.455  -0.014  1.00  0.00     0.036 C 
HETATM    6  C9  UNL     1       1.705  -2.398   0.273  1.00  0.00     0.026 C 
HETATM    7  C10 UNL     1       1.034  -1.041  -0.148  1.00  0.00     0.057 C 
HETATM    8  C12 UNL     1       1.786   0.101   0.645  1.00  0.00     0.014 C 
HETATM    9  C13 UNL     1       1.155   1.498   0.504  1.00  0.00     0.007 C 
HETATM   10  C14 UNL     1      -0.357   1.518   0.716  1.00  0.00     0.007 C 
HETATM   11  C15 UNL     1      -1.081   0.457  -0.126  1.00  0.00     0.007 C 
HETATM   12  C16 UNL     1      -2.639   0.591  -0.125  1.00  0.00    -0.018 C 
HETATM   13  C17 UNL     1      -3.279   0.544   1.282  1.00  0.00     0.020 C 
HETATM   14  C18 UNL     1      -3.232   1.814  -0.801  1.00  0.00    -0.020 C 
HETATM   15  C19 UNL     1      -4.307   1.495  -1.547  1.00  0.00    -0.018 C 
HETATM   16  C20 UNL     1      -4.549  -0.005  -1.622  1.00  0.00    -0.001 C 
HETATM   17  C21 UNL     1      -4.783  -0.426  -3.084  1.00  0.00     0.022 C 
HETATM   18  C23 UNL     1      -3.149  -0.461  -1.149  1.00  0.00     0.012 C 
HETATM   19  C24 UNL     1      -2.876  -1.887  -0.702  1.00  0.00     0.007 C 
HETATM   20  C25 UNL     1      -1.345  -2.084  -0.646  1.00  0.00     0.011 C 
HETATM   21  C26 UNL     1      -0.547  -1.010   0.185  1.00  0.00    -0.021 C 
HETATM   22  C27 UNL     1      -0.772  -1.397   1.678  1.00  0.00     0.017 C 
HETATM   23  C28 UNL     1       3.310   0.114   0.345  1.00  0.00     0.028 C 
ENDROOT
BRANCH   7  24
HETATM   24  C11 UNL     1       1.250  -0.947  -1.679  1.00  0.00     0.149 C 
HETATM   25  O1  UNL     1       1.266  -1.886  -2.462  1.00  0.00    -0.649 OA
BRANCH  24  26
HETATM   26  O2  UNL     1       1.407   0.292  -2.169  1.00  0.00    -0.776 OA
HETATM   27  H14 UNL     1       1.512   0.152  -3.134  1.00  0.00     0.167 HD
ENDBRANCH  24  26
ENDBRANCH   7  24
BRANCH   1  28
HETATM   28  C2  UNL     1       4.450   2.407   0.895  1.00  0.00    -0.088 C 
HETATM   29  C1  UNL     1       4.273   3.439   1.739  1.00  0.00     0.014 C 
HETATM   30  C3  UNL     1       4.964   2.643  -0.500  1.00  0.00     0.043 C 
ENDBRANCH   1  28
BRANCH  16  31
HETATM   31  C22 UNL     1      -5.716  -0.481  -0.733  1.00  0.00     0.177 C 
BRANCH  31  32
HETATM   32  O3  UNL     1      -6.984  -0.049  -1.225  1.00  0.00    -0.400 OA
HETATM   33  H31 UNL     1      -7.192  -0.576  -2.014  1.00  0.00     0.209 HD
ENDBRANCH  31  32
ENDBRANCH  16  31
TORSDOF 5
