REMARK  12 active torsions:
REMARK  status: ('A' for Active; 'I' for Inactive)
REMARK    1  A    between atoms: C2_2  and  C3_3 
REMARK    2  A    between atoms: C2_2  and  C9_10 
REMARK    3  A    between atoms: C3_3  and  C4_4 
REMARK    4  A    between atoms: C5_5  and  C6_6 
REMARK    5  A    between atoms: C6_6  and  O1_9 
REMARK    6  A    between atoms: C27_29  and  O3_30 
REMARK    7  A    between atoms: O3_30  and  C28_31 
REMARK    8  A    between atoms: C29_33  and  C30_34 
REMARK    9  A    between atoms: C30_34  and  O5_35 
REMARK   10  A    between atoms: C31_36  and  O6_37 
REMARK   11  A    between atoms: C32_38  and  O7_39 
REMARK   12  A    between atoms: C33_40  and  O8_41 
ROOT
HETATM    1  C9  UNL     1       3.908   0.893   0.738  1.00  0.00    -0.002 C 
HETATM    2  C10 UNL     1       4.428   0.762  -0.722  1.00  0.00     0.006 C 
HETATM    3  C11 UNL     1       3.241   0.253  -1.582  1.00  0.00     0.011 C 
HETATM    4  C12 UNL     1       2.003   0.480  -0.696  1.00  0.00    -0.029 C 
HETATM    5  C13 UNL     1       1.670   2.004  -0.842  1.00  0.00     0.016 C 
HETATM    6  C14 UNL     1       0.750  -0.397  -1.013  1.00  0.00     0.028 C 
HETATM    7  C15 UNL     1       0.197  -0.182  -2.407  1.00  0.00    -0.021 C 
HETATM    8  C16 UNL     1      -1.112   0.053  -2.615  1.00  0.00     0.008 C 
HETATM    9  C17 UNL     1      -2.090   0.212  -1.459  1.00  0.00     0.092 C 
HETATM   10  O2  UNL     1      -2.349  -1.141  -1.013  1.00  0.00    -0.374 OA
HETATM   11  C18 UNL     1      -1.352  -1.486  -0.036  1.00  0.00     0.179 C 
HETATM   12  C19 UNL     1      -0.379  -0.286   0.113  1.00  0.00    -0.004 C 
HETATM   13  C20 UNL     1       0.219  -0.320   1.545  1.00  0.00     0.014 C 
HETATM   14  C21 UNL     1       1.538   0.439   1.780  1.00  0.00     0.011 C 
HETATM   15  C22 UNL     1       2.585   0.077   0.713  1.00  0.00    -0.032 C 
HETATM   16  C23 UNL     1       2.916  -1.438   0.854  1.00  0.00     0.016 C 
HETATM   17  C24 UNL     1      -1.346   0.873  -0.268  1.00  0.00     0.036 C 
HETATM   18  C25 UNL     1      -2.287   1.434   0.808  1.00  0.00     0.011 C 
HETATM   19  C26 UNL     1      -3.677   0.835   0.780  1.00  0.00     0.033 C 
HETATM   20  C27 UNL     1      -4.384   1.017  -0.573  1.00  0.00     0.136 C 
HETATM   21  C34 UNL     1      -3.441   0.905  -1.833  1.00  0.00     0.014 C 
HETATM   22  C35 UNL     1      -4.172   0.137  -2.969  1.00  0.00     0.021 C 
HETATM   23  C36 UNL     1      -3.174   2.338  -2.365  1.00  0.00     0.021 C 
ENDROOT
BRANCH  20  24
HETATM   24  O3  UNL     1      -5.477   0.089  -0.686  1.00  0.00    -0.352 OA
BRANCH  24  25
HETATM   25  C28 UNL     1      -6.549   0.320   0.232  1.00  0.00     0.292 C 
HETATM   26  O4  UNL     1      -6.353  -0.457   1.414  1.00  0.00    -0.348 OA
HETATM   27  C29 UNL     1      -6.872  -1.794   1.380  1.00  0.00     0.179 C 
HETATM   28  C31 UNL     1      -8.407  -1.779   1.198  1.00  0.00     0.180 C 
HETATM   29  C32 UNL     1      -8.915  -0.498   0.510  1.00  0.00     0.183 C 
HETATM   30  C33 UNL     1      -7.894   0.038  -0.486  1.00  0.00     0.204 C 
BRANCH  27  31
HETATM   31  C30 UNL     1      -6.179  -2.690   0.334  1.00  0.00     0.198 C 
BRANCH  31  32
HETATM   32  O5  UNL     1      -4.774  -2.761   0.561  1.00  0.00    -0.398 OA
HETATM   33  H46 UNL     1      -4.371  -2.034   0.041  1.00  0.00     0.209 HD
ENDBRANCH  31  32
ENDBRANCH  27  31
BRANCH  28  34
HETATM   34  O6  UNL     1      -9.047  -1.849   2.489  1.00  0.00    -0.390 OA
HETATM   35  H48 UNL     1     -10.001  -1.981   2.338  1.00  0.00     0.210 HD
ENDBRANCH  28  34
BRANCH  29  36
HETATM   36  O7  UNL     1      -9.201   0.539   1.475  1.00  0.00    -0.390 OA
HETATM   37  H50 UNL     1      -8.995   0.147   2.354  1.00  0.00     0.210 HD
ENDBRANCH  29  36
BRANCH  30  38
HETATM   38  O8  UNL     1      -8.420   1.241  -1.084  1.00  0.00    -0.388 OA
HETATM   39  H52 UNL     1      -8.697   1.792  -0.325  1.00  0.00     0.210 HD
ENDBRANCH  30  38
ENDBRANCH  24  25
ENDBRANCH  20  24
BRANCH   1  40
HETATM   40  C2  UNL     1       4.931   0.721   1.900  1.00  0.00    -0.010 C 
HETATM   41  C1  UNL     1       5.846   1.963   1.946  1.00  0.00     0.010 C 
BRANCH  40  42
HETATM   42  C3  UNL     1       5.806  -0.555   2.025  1.00  0.00     0.031 C 
BRANCH  42  43
HETATM   43  C4  UNL     1       6.809  -0.834   0.940  1.00  0.00    -0.027 C 
HETATM   44  C5  UNL     1       8.093  -0.445   0.974  1.00  0.00     0.006 C 
BRANCH  44  45
HETATM   45  C6  UNL     1       9.149  -0.672  -0.084  1.00  0.00     0.068 C 
HETATM   46  C7  UNL     1       8.653  -1.317  -1.382  1.00  0.00     0.050 C 
HETATM   47  C8  UNL     1       9.843   0.653  -0.413  1.00  0.00     0.050 C 
BRANCH  45  48
HETATM   48  O1  UNL     1      10.125  -1.556   0.464  1.00  0.00    -0.387 OA
HETATM   49  H15 UNL     1      10.323  -1.263   1.368  1.00  0.00     0.211 HD
ENDBRANCH  45  48
ENDBRANCH  44  45
ENDBRANCH  42  43
ENDBRANCH  40  42
ENDBRANCH   1  40
TORSDOF 12
