REMARK  10 active torsions:
REMARK  status: ('A' for Active; 'I' for Inactive)
REMARK    1  A    between atoms: C2_2  and  C3_3 
REMARK    2  A    between atoms: C2_2  and  C9_12 
REMARK    3  A    between atoms: C3_3  and  C4_4 
REMARK    4  A    between atoms: C4_4  and  O1_5 
REMARK    5  A    between atoms: C4_4  and  C5_6 
REMARK    6  A    between atoms: C5_6  and  O2_7 
REMARK    7  A    between atoms: C5_6  and  C6_8 
REMARK    8  A    between atoms: C6_8  and  O3_11 
REMARK    9  A    between atoms: C23_27  and  C25_29 
REMARK   10  A    between atoms: C25_29  and  O5_30 
ROOT
HETATM    1  C9  UNL     1       1.649  -1.868  -0.061  1.00  0.00    -0.002 C 
HETATM    2  C10 UNL     1       1.471  -2.224  -1.559  1.00  0.00     0.007 C 
HETATM    3  C11 UNL     1      -0.009  -1.936  -1.911  1.00  0.00     0.015 C 
HETATM    4  C12 UNL     1      -0.704  -1.672  -0.556  1.00  0.00    -0.013 C 
HETATM    5  C13 UNL     1      -1.100  -3.077   0.008  1.00  0.00     0.021 C 
HETATM    6  C14 UNL     1      -1.992  -0.856  -0.535  1.00  0.00    -0.070 C 
HETATM    7  C15 UNL     1      -2.884  -0.901  -1.542  1.00  0.00    -0.022 C 
HETATM    8  C16 UNL     1      -4.232  -0.239  -1.516  1.00  0.00     0.034 C 
HETATM    9  C17 UNL     1      -4.466   0.708  -0.316  1.00  0.00     0.015 C 
HETATM   10  C18 UNL     1      -3.828   0.122   0.998  1.00  0.00    -0.031 C 
HETATM   11  C19 UNL     1      -4.462  -1.231   1.399  1.00  0.00     0.016 C 
HETATM   12  C20 UNL     1      -4.050   1.169   2.111  1.00  0.00     0.017 C 
HETATM   13  C21 UNL     1      -5.508   1.435   2.430  1.00  0.00     0.080 C 
HETATM   14  C22 UNL     1      -6.457   1.217   1.278  1.00  0.00     0.137 C 
HETATM   15  O4  UNL     1      -7.660   1.081   1.526  1.00  0.00    -0.297 OA
HETATM   16  C23 UNL     1      -5.936   1.278  -0.165  1.00  0.00     0.043 C 
HETATM   17  C24 UNL     1      -5.927   2.780  -0.534  1.00  0.00     0.026 C 
HETATM   18  C26 UNL     1      -2.276  -0.042   0.732  1.00  0.00     0.024 C 
HETATM   19  C27 UNL     1      -1.451  -0.511   1.960  1.00  0.00     0.010 C 
HETATM   20  C28 UNL     1       0.048  -0.810   1.711  1.00  0.00     0.011 C 
HETATM   21  C29 UNL     1       0.436  -0.927   0.225  1.00  0.00    -0.029 C 
HETATM   22  C30 UNL     1       0.739   0.498  -0.323  1.00  0.00     0.016 C 
ENDROOT
BRANCH   1  23
HETATM   23  C2  UNL     1       3.077  -1.450   0.408  1.00  0.00    -0.011 C 
HETATM   24  C1  UNL     1       3.878  -2.726   0.727  1.00  0.00     0.010 C 
BRANCH  23  25
HETATM   25  C3  UNL     1       3.875  -0.543  -0.567  1.00  0.00     0.039 C 
BRANCH  25  26
HETATM   26  C4  UNL     1       5.231  -0.063  -0.004  1.00  0.00     0.150 C 
BRANCH  26  27
HETATM   27  O1  UNL     1       6.213  -1.063  -0.322  1.00  0.00    -0.393 OA
HETATM   28  H8  UNL     1       7.095  -0.648  -0.198  1.00  0.00     0.210 HD
ENDBRANCH  26  27
BRANCH  26  29
HETATM   29  C5  UNL     1       5.662   1.296  -0.623  1.00  0.00     0.180 C 
BRANCH  29  30
HETATM   30  O2  UNL     1       5.759   1.128  -2.049  1.00  0.00    -0.390 OA
HETATM   31  H10 UNL     1       6.270   0.302  -2.178  1.00  0.00     0.210 HD
ENDBRANCH  29  30
BRANCH  29  32
HETATM   32  C6  UNL     1       7.020   1.843  -0.082  1.00  0.00     0.079 C 
HETATM   33  C7  UNL     1       6.963   2.127   1.422  1.00  0.00     0.048 C 
HETATM   34  C8  UNL     1       7.431   3.117  -0.834  1.00  0.00     0.048 C 
BRANCH  32  35
HETATM   35  O3  UNL     1       8.036   0.846  -0.292  1.00  0.00    -0.388 OA
HETATM   36  H17 UNL     1       8.899   1.273  -0.147  1.00  0.00     0.210 HD
ENDBRANCH  32  35
ENDBRANCH  29  32
ENDBRANCH  26  29
ENDBRANCH  25  26
ENDBRANCH  23  25
ENDBRANCH   1  23
BRANCH  16  37
HETATM   37  C25 UNL     1      -6.999   0.569  -1.046  1.00  0.00     0.181 C 
BRANCH  37  38
HETATM   38  O5  UNL     1      -6.768   0.758  -2.438  1.00  0.00    -0.400 OA
HETATM   39  H42 UNL     1      -7.242   1.564  -2.706  1.00  0.00     0.209 HD
ENDBRANCH  37  38
ENDBRANCH  16  37
TORSDOF 10
