REMARK  10 active torsions:
REMARK  status: ('A' for Active; 'I' for Inactive)
REMARK    1  A    between atoms: C2_2  and  C3_3 
REMARK    2  A    between atoms: C5_5  and  S1_6 
REMARK    3  A    between atoms: C14_18  and  C15_19 
REMARK    4  A    between atoms: C15_19  and  O4_20 
REMARK    5  A    between atoms: C21_26  and  O5_27 
REMARK    6  A    between atoms: C33_40  and  C34_41 
REMARK    7  A    between atoms: C33_40  and  N1_50 
REMARK    8  A    between atoms: C34_41  and  C35_42 
REMARK    9  A    between atoms: C35_42  and  C36_43 
REMARK   10  A    between atoms: C36_43  and  O7_44 
REMARK       I    between atoms: N1_50  and  C42_52 
REMARK       I    between atoms: C42_52  and  N2_53 
ROOT
HETATM    1  C3  UNL     1      -0.364  -3.797  -0.769  1.00  0.00     0.019 C 
HETATM    2  C4  UNL     1      -0.532  -3.236   0.673  1.00  0.00     0.034 C 
HETATM    3  C5  UNL     1      -1.883  -2.578   1.028  1.00  0.00     0.153 C 
HETATM    4  C6  UNL     1      -2.320  -1.329   0.185  1.00  0.00     0.119 A 
HETATM    5  C7  UNL     1      -3.808  -1.047   0.394  1.00  0.00     0.001 C 
HETATM    6  C8  UNL     1      -4.366  -0.005  -0.247  1.00  0.00    -0.049 C 
HETATM    7  C9  UNL     1      -3.527   0.712  -1.259  1.00  0.00     0.043 C 
HETATM    8  C10 UNL     1      -2.319   1.241  -0.484  1.00  0.00     0.016 C 
HETATM    9  C11 UNL     1      -2.703   2.451   0.422  1.00  0.00     0.039 C 
HETATM   10  C12 UNL     1      -4.051   2.431   1.204  1.00  0.00     0.123 C 
HETATM   11  C13 UNL     1      -4.267   3.853   1.793  1.00  0.00     0.039 C 
HETATM   12  C14 UNL     1      -5.591   4.204   2.525  1.00  0.00     0.023 C 
HETATM   13  C16 UNL     1      -6.713   4.741   1.606  1.00  0.00     0.101 C 
HETATM   14  C17 UNL     1      -7.419   3.691   0.869  1.00  0.00    -0.101 C 
HETATM   15  C18 UNL     1      -7.785   2.713   0.275  1.00  0.00    -0.066 C 
HETATM   16  C19 UNL     1      -7.937   1.454  -0.387  1.00  0.00     0.029 A 
HETATM   17  C20 UNL     1      -9.167   1.172  -0.991  1.00  0.00     0.057 A 
HETATM   18  C21 UNL     1      -9.385  -0.078  -1.570  1.00  0.00     0.067 A 
HETATM   19  C22 UNL     1      -8.379  -1.033  -1.573  1.00  0.00     0.037 A 
HETATM   20  C23 UNL     1      -7.142  -0.741  -0.994  1.00  0.00     0.014 A 
HETATM   21  C24 UNL     1      -6.879   0.518  -0.407  1.00  0.00    -0.006 A 
HETATM   22  C25 UNL     1      -5.543   0.744   0.320  1.00  0.00     0.185 C 
HETATM   23  O6  UNL     1      -5.150   2.133   0.337  1.00  0.00    -0.371 OA
HETATM   24  C26 UNL     1      -1.564   0.071   0.308  1.00  0.00     0.113 A 
HETATM   25  C27 UNL     1      -0.087   0.038  -0.090  1.00  0.00    -0.039 A 
HETATM   26  C28 UNL     1       0.899  -0.054   0.903  1.00  0.00     0.009 A 
HETATM   27  C29 UNL     1       2.261  -0.137   0.574  1.00  0.00     0.012 A 
HETATM   28  C30 UNL     1       2.693  -0.072  -0.764  1.00  0.00    -0.003 A 
HETATM   29  C31 UNL     1       1.697   0.110  -1.745  1.00  0.00     0.012 A 
HETATM   30  C32 UNL     1       0.337   0.115  -1.422  1.00  0.00     0.009 A 
HETATM   31  C33 UNL     1       4.187  -0.240  -1.206  1.00  0.00     0.171 C 
HETATM   32  O8  UNL     1       4.468  -1.523  -1.910  1.00  0.00    -0.316 OA
HETATM   33  C43 UNL     1       3.517  -2.497  -1.781  1.00  0.00     0.072 C 
HETATM   34  C44 UNL     1       2.599  -2.654  -2.819  1.00  0.00     0.037 C 
HETATM   35  C45 UNL     1       1.364  -3.233  -2.531  1.00  0.00     0.010 C 
HETATM   36  C46 UNL     1       1.093  -3.683  -1.230  1.00  0.00    -0.054 C 
HETATM   37  C47 UNL     1       2.156  -3.812  -0.322  1.00  0.00     0.010 C 
HETATM   38  C48 UNL     1       3.376  -3.203  -0.595  1.00  0.00     0.037 C 
HETATM   39 NA1  UNL     1       0.000   0.000   0.000  1.00  0.00    -0.230 Na
ENDROOT
BRANCH  31  40
HETATM   40  C34 UNL     1       5.185  -0.237   0.007  1.00  0.00     0.070 C 
BRANCH  40  41
HETATM   41  C35 UNL     1       6.673  -0.562  -0.280  1.00  0.00     0.043 C 
BRANCH  41  42
HETATM   42  C36 UNL     1       7.599   0.555  -0.839  1.00  0.00     0.058 C 
HETATM   43  C37 UNL     1       9.062   0.060  -0.877  1.00  0.00     0.038 C 
HETATM   44  C38 UNL     1       9.711  -0.046   0.502  1.00  0.00     0.003 C 
HETATM   45  C39 UNL     1       9.588   1.255   1.288  1.00  0.00     0.000 C 
HETATM   46  C40 UNL     1       8.150   1.756   1.347  1.00  0.00     0.003 C 
HETATM   47  C41 UNL     1       7.545   1.873  -0.049  1.00  0.00     0.038 C 
BRANCH  42  48
HETATM   48  O7  UNL     1       7.265   0.845  -2.205  1.00  0.00    -0.390 OA
HETATM   49  H40 UNL     1       6.349   0.534  -2.349  1.00  0.00     0.210 HD
ENDBRANCH  42  48
ENDBRANCH  41  42
ENDBRANCH  40  41
ENDBRANCH  31  40
BRANCH  31  50
HETATM   50  N1  UNL     1       4.599   0.888  -2.078  1.00  0.00    -0.331 N 
HETATM   51  C42 UNL     1       4.325   2.116  -1.867  1.00  0.00     0.146 C 
HETATM   52  N2  UNL     1       4.758   3.044  -2.752  1.00  0.00    -0.274 NA
HETATM   53  N3  UNL     1       3.642   2.741  -0.889  1.00  0.00    -0.376 N 
HETATM   54  H51 UNL     1       5.185   2.598  -3.560  1.00  0.00     0.127 HD
HETATM   55  H52 UNL     1       4.031   3.688  -3.026  1.00  0.00     0.127 HD
HETATM   56  H53 UNL     1       3.950   3.686  -0.693  1.00  0.00     0.158 HD
HETATM   57  H54 UNL     1       3.424   2.209  -0.055  1.00  0.00     0.158 HD
ATOM     58  H1  UNL     1       5.144   0.664  -2.911  1.00  0.00     0.165 HD
ENDBRANCH  31  50
BRANCH   1  59
HETATM   59  C2  UNL     1      -0.953  -5.203  -0.997  1.00  0.00     0.005 C 
HETATM   60  C1  UNL     1      -0.345  -6.331  -0.173  1.00  0.00     0.006 C 
ENDBRANCH   1  59
BRANCH   3  61
HETATM   61  S1  UNL     1      -2.033  -2.348   2.845  1.00  0.00     0.108 S 
HETATM   62  O1  UNL     1      -0.838  -2.975   3.410  1.00  0.00    -0.595 OA
HETATM   63  O2  UNL     1      -3.275  -3.056   3.154  1.00  0.00    -0.595 OA
HETATM   64  O3  UNL     1      -2.100  -0.910   3.077  1.00  0.00    -0.595 OA
ENDBRANCH   3  61
BRANCH  12  65
HETATM   65  C15 UNL     1      -6.070   3.108   3.479  1.00  0.00     0.169 C 
BRANCH  65  66
HETATM   66  O4  UNL     1      -5.082   2.896   4.486  1.00  0.00    -0.400 OA
HETATM   67  H23 UNL     1      -4.730   1.990   4.372  1.00  0.00     0.209 HD
ENDBRANCH  65  66
ENDBRANCH  12  65
BRANCH  18  68
HETATM   68  O5  UNL     1     -10.584  -0.417  -2.123  1.00  0.00    -0.361 OA
HETATM   69  H27 UNL     1     -11.174   0.350  -2.066  1.00  0.00     0.217 HD
ENDBRANCH  18  68
TORSDOF 10
