REMARK  7 active torsions:
REMARK  status: ('A' for Active; 'I' for Inactive)
REMARK    1  A    between atoms: C2_2  and  O2_4 
REMARK    2  A    between atoms: O2_4  and  C3_5 
REMARK    3  A    between atoms: C3_5  and  C4_6 
REMARK    4  A    between atoms: C3_5  and  C9_12 
REMARK    5  A    between atoms: C5_7  and  C6_8 
REMARK    6  A    between atoms: C6_8  and  O3_11 
REMARK    7  A    between atoms: C9_12  and  C11_14 
ROOT
HETATM    1  C11 UNL     1       1.873  -0.492   0.466  1.00  0.00     0.001 C 
HETATM    2  C12 UNL     1       2.048   0.964  -0.062  1.00  0.00     0.007 C 
HETATM    3  C13 UNL     1       0.647   1.565  -0.277  1.00  0.00     0.015 C 
HETATM    4  C14 UNL     1      -0.303   0.618   0.470  1.00  0.00    -0.013 C 
HETATM    5  C15 UNL     1      -0.273   1.034   1.974  1.00  0.00     0.021 C 
HETATM    6  C16 UNL     1      -1.783   0.606   0.094  1.00  0.00    -0.068 C 
HETATM    7  C17 UNL     1      -2.521  -0.521   0.272  1.00  0.00    -0.068 C 
HETATM    8  C18 UNL     1      -1.871  -1.828   0.754  1.00  0.00     0.036 C 
HETATM    9  C19 UNL     1      -0.349  -1.819   1.008  1.00  0.00     0.015 C 
HETATM   10  C20 UNL     1       0.365  -0.773   0.142  1.00  0.00    -0.029 C 
HETATM   11  C21 UNL     1       0.224  -1.175  -1.362  1.00  0.00     0.016 C 
HETATM   12  C22 UNL     1      -4.047  -0.569  -0.023  1.00  0.00    -0.015 C 
HETATM   13  C23 UNL     1      -4.227  -1.368  -1.338  1.00  0.00     0.020 C 
HETATM   14  C24 UNL     1      -4.798  -1.304   1.127  1.00  0.00     0.021 C 
HETATM   15  C25 UNL     1      -6.276  -0.958   1.286  1.00  0.00     0.080 C 
HETATM   16  C26 UNL     1      -6.875  -0.305   0.065  1.00  0.00     0.135 C 
HETATM   17  O4  UNL     1      -7.927  -0.727  -0.414  1.00  0.00    -0.297 OA
HETATM   18  C27 UNL     1      -6.170   0.945  -0.472  1.00  0.00     0.018 C 
HETATM   19  C28 UNL     1      -6.455   1.084  -1.982  1.00  0.00     0.023 C 
HETATM   20  C29 UNL     1      -6.821   2.157   0.231  1.00  0.00     0.023 C 
HETATM   21  C30 UNL     1      -4.646   0.883  -0.109  1.00  0.00     0.013 C 
HETATM   22  C31 UNL     1      -3.770   1.785  -0.985  1.00  0.00     0.011 C 
HETATM   23  C32 UNL     1      -2.364   1.905  -0.407  1.00  0.00     0.036 C 
ENDROOT
BRANCH   1  24
HETATM   24  C9  UNL     1       2.972  -1.472  -0.067  1.00  0.00     0.020 C 
HETATM   25  C10 UNL     1       2.692  -2.924   0.363  1.00  0.00     0.013 C 
BRANCH  24  26
HETATM   26  C3  UNL     1       4.434  -1.133   0.384  1.00  0.00     0.158 C 
BRANCH  26  27
HETATM   27  O2  UNL     1       4.484  -1.001   1.820  1.00  0.00    -0.312 OA
BRANCH  27  28
HETATM   28  C2  UNL     1       5.140  -1.977   2.504  1.00  0.00     0.255 C 
HETATM   29  C1  UNL     1       5.108  -1.682   3.973  1.00  0.00     0.126 C 
HETATM   30  O1  UNL     1       5.653  -2.975   2.019  1.00  0.00    -0.266 OA
ENDBRANCH  27  28
ENDBRANCH  26  27
BRANCH  26  31
HETATM   31  C4  UNL     1       5.002   0.145  -0.180  1.00  0.00     0.005 C 
HETATM   32  C5  UNL     1       5.577   0.239  -1.393  1.00  0.00     0.008 C 
BRANCH  32  33
HETATM   33  C6  UNL     1       6.178   1.468  -2.035  1.00  0.00     0.068 C 
HETATM   34  C7  UNL     1       7.582   1.147  -2.555  1.00  0.00     0.050 C 
HETATM   35  C8  UNL     1       6.226   2.721  -1.153  1.00  0.00     0.050 C 
BRANCH  33  36
HETATM   36  O3  UNL     1       5.363   1.765  -3.171  1.00  0.00    -0.387 OA
HETATM   37  H13 UNL     1       4.458   1.902  -2.839  1.00  0.00     0.211 HD
ENDBRANCH  33  36
ENDBRANCH  32  33
ENDBRANCH  26  31
ENDBRANCH  24  26
ENDBRANCH   1  24
TORSDOF 7
