REMARK  10 active torsions:
REMARK  status: ('A' for Active; 'I' for Inactive)
REMARK    1  A    between atoms: C2_2  and  O1_3 
REMARK    2  A    between atoms: O1_3  and  C3_4 
REMARK    3  A    between atoms: C3_4  and  C4_6 
REMARK    4  A    between atoms: C4_6  and  C5_7 
REMARK    5  A    between atoms: C5_7  and  C6_8 
REMARK    6  A    between atoms: C6_8  and  C8_10 
REMARK    7  A    between atoms: C13_15  and  O3_16 
REMARK    8  A    between atoms: C17_21  and  O4_22 
REMARK    9  A    between atoms: C24_29  and  O5_30 
REMARK   10  A    between atoms: O5_30  and  C25_31 
ROOT
HETATM    1  C8  UNL     1       1.735   0.007   1.438  1.00  0.00     0.000 C 
HETATM    2  C9  UNL     1       1.814   1.452   2.025  1.00  0.00     0.006 C 
HETATM    3  C10 UNL     1       0.486   2.149   1.738  1.00  0.00     0.006 C 
HETATM    4  C11 UNL     1      -0.428   1.012   1.316  1.00  0.00     0.003 C 
HETATM    5  C12 UNL     1      -1.802   1.371   0.704  1.00  0.00     0.025 C 
HETATM    6  C13 UNL     1      -1.808   2.550  -0.299  1.00  0.00     0.137 C 
HETATM    7  C14 UNL     1      -2.861   2.489  -1.415  1.00  0.00     0.092 C 
HETATM    8 BR1  UNL     1      -3.484   4.276  -1.962  1.00  0.00    -0.088 Br
HETATM    9  C15 UNL     1      -4.029   1.525  -1.190  1.00  0.00     0.013 C 
HETATM   10  C16 UNL     1      -5.025   2.002  -0.101  1.00  0.00     0.038 C 
HETATM   11  C17 UNL     1      -6.039   0.935   0.333  1.00  0.00     0.118 C 
HETATM   12  C18 UNL     1      -6.071  -0.242  -0.629  1.00  0.00     0.032 C 
HETATM   13  C19 UNL     1      -4.696  -0.911  -0.758  1.00  0.00     0.012 C 
HETATM   14  C20 UNL     1      -3.491   0.082  -0.929  1.00  0.00    -0.035 C 
HETATM   15  C21 UNL     1      -2.695  -0.430  -2.155  1.00  0.00     0.016 C 
HETATM   16  C22 UNL     1      -2.595   0.077   0.361  1.00  0.00     0.003 C 
HETATM   17  C23 UNL     1      -1.800  -1.223   0.631  1.00  0.00     0.039 C 
HETATM   18  C24 UNL     1      -0.304  -1.275   0.233  1.00  0.00     0.141 C 
HETATM   19  C27 UNL     1       0.478   0.059   0.487  1.00  0.00    -0.009 C 
HETATM   20  C28 UNL     1       0.889   0.655  -0.880  1.00  0.00     0.018 C 
ENDROOT
BRANCH   1  21
HETATM   21  C6  UNL     1       3.131  -0.420   0.878  1.00  0.00    -0.013 C 
HETATM   22  C7  UNL     1       4.185  -0.381   2.002  1.00  0.00     0.010 C 
BRANCH  21  23
HETATM   23  C5  UNL     1       3.138  -1.812   0.210  1.00  0.00     0.014 C 
BRANCH  23  24
HETATM   24  C4  UNL     1       4.451  -2.201  -0.474  1.00  0.00     0.111 C 
BRANCH  24  25
HETATM   25  C3  UNL     1       4.841  -1.206  -1.539  1.00  0.00     0.258 C 
HETATM   26  O2  UNL     1       4.222  -1.027  -2.578  1.00  0.00    -0.265 OA
BRANCH  25  27
HETATM   27  O1  UNL     1       5.949  -0.513  -1.152  1.00  0.00    -0.322 OA
BRANCH  27  28
HETATM   28  C2  UNL     1       6.348   0.519  -2.060  1.00  0.00     0.174 C 
HETATM   29  C1  UNL     1       7.537   1.243  -1.459  1.00  0.00     0.034 C 
ENDBRANCH  27  28
ENDBRANCH  25  27
ENDBRANCH  24  25
ENDBRANCH  23  24
ENDBRANCH  21  23
ENDBRANCH   1  21
BRANCH  18  30
HETATM   30  O5  UNL     1       0.281  -2.356   0.997  1.00  0.00    -0.316 OA
BRANCH  30  31
HETATM   31  C25 UNL     1       0.020  -3.620   0.563  1.00  0.00     0.255 C 
HETATM   32  C26 UNL     1       0.631  -4.623   1.495  1.00  0.00     0.126 C 
HETATM   33  O6  UNL     1      -0.612  -3.913  -0.443  1.00  0.00    -0.266 OA
ENDBRANCH  30  31
ENDBRANCH  18  30
BRANCH   6  34
HETATM   34  O3  UNL     1      -1.889   3.752   0.491  1.00  0.00    -0.394 OA
HETATM   35  H22 UNL     1      -2.443   4.393   0.013  1.00  0.00     0.210 HD
ENDBRANCH   6  34
BRANCH  11  36
HETATM   36  O4  UNL     1      -5.694   0.490   1.640  1.00  0.00    -0.396 OA
HETATM   37  H28 UNL     1      -6.239  -0.293   1.852  1.00  0.00     0.210 HD
ENDBRANCH  11  36
TORSDOF 10
