REMARK  12 active torsions:
REMARK  status: ('A' for Active; 'I' for Inactive)
REMARK    1  A    between atoms: C2_2  and  C3_3 
REMARK    2  A    between atoms: C6_6  and  C7_7 
REMARK    3  A    between atoms: C7_7  and  C8_8 
REMARK    4  A    between atoms: C15_19  and  C16_20 
REMARK    5  A    between atoms: C16_20  and  C17_21 
REMARK    6  A    between atoms: C18_22  and  C19_23 
REMARK    7  A    between atoms: C21_25  and  C22_26 
REMARK    8  A    between atoms: C23_28  and  C24_29 
REMARK    9  A    between atoms: C27_34  and  C28_35 
REMARK   10  A    between atoms: C28_35  and  C29_36 
REMARK   11  A    between atoms: C29_36  and  C30_37 
REMARK   12  A    between atoms: C30_37  and  O5_39 
ROOT
HETATM    1  C8  UNL     1       2.613  -1.038   1.488  1.00  0.00     0.016 C 
HETATM    2  N1  UNL     1       1.337  -1.112   1.249  1.00  0.00    -0.362 N 
ATOM      3  H1  UNL     1       0.660  -0.354   1.332  1.00  0.00     0.165 HD
HETATM    4  C9  UNL     1       1.072  -2.406   0.863  1.00  0.00     0.023 C 
HETATM    5  C10 UNL     1      -0.053  -2.783   0.236  1.00  0.00    -0.000 A 
HETATM    6  C11 UNL     1      -0.365  -4.186  -0.334  1.00  0.00     0.127 A 
HETATM    7  C12 UNL     1      -1.730  -3.917  -1.048  1.00  0.00     0.166 A 
HETATM    8  O1  UNL     1      -2.378  -4.748  -1.672  1.00  0.00    -0.292 OA
HETATM    9  C13 UNL     1      -2.104  -2.534  -0.824  1.00  0.00     0.045 A 
HETATM   10  C14 UNL     1      -1.133  -1.936  -0.082  1.00  0.00     0.055 A 
HETATM   11  N2  UNL     1      -1.480  -0.667   0.211  1.00  0.00    -0.357 N 
HETATM   12  C15 UNL     1      -2.698  -0.410  -0.413  1.00  0.00     0.022 A 
HETATM   13  C25 UNL     1      -3.104  -1.579  -1.078  1.00  0.00    -0.023 A 
HETATM   14  C26 UNL     1      -4.340  -1.796  -1.872  1.00  0.00     0.051 C 
HETATM   15  C27 UNL     1       2.245  -3.325   1.151  1.00  0.00     0.046 C 
HETATM   16  C31 UNL     1       3.395  -2.313   1.272  1.00  0.00     0.041 C 
HETATM   17  C32 UNL     1       4.223  -2.216  -0.006  1.00  0.00     0.017 C 
HETATM   18  H10 UNL     1      -0.978  -0.042   0.822  1.00  0.00     0.166 HD
ENDROOT
BRANCH  15  19
HETATM   19  C28 UNL     1       2.004  -4.117   2.451  1.00  0.00     0.022 C 
BRANCH  19  20
HETATM   20  C29 UNL     1       3.106  -5.129   2.769  1.00  0.00     0.110 C 
BRANCH  20  21
HETATM   21  C30 UNL     1       3.269  -6.215   1.740  1.00  0.00     0.139 C 
HETATM   22  O4  UNL     1       4.329  -6.724   1.413  1.00  0.00    -0.650 OA
BRANCH  21  23
HETATM   23  O5  UNL     1       2.109  -6.659   1.226  1.00  0.00    -0.776 OA
HETATM   24  H29 UNL     1       2.371  -7.407   0.644  1.00  0.00     0.167 HD
ENDBRANCH  21  23
ENDBRANCH  20  21
ENDBRANCH  19  20
ENDBRANCH  15  19
BRANCH   1  25
HETATM   25  C7  UNL     1       3.320   0.198   1.920  1.00  0.00     0.055 C 
BRANCH  25  26
HETATM   26  C6  UNL     1       2.773   1.400   1.716  1.00  0.00     0.043 A 
HETATM   27  C4  UNL     1       3.267   2.725   2.032  1.00  0.00    -0.019 A 
HETATM   28  C3  UNL     1       2.361   3.669   1.679  1.00  0.00     0.039 A 
HETATM   29  C5  UNL     1       4.601   2.919   2.680  1.00  0.00     0.052 C 
HETATM   30  C33 UNL     1       1.212   2.913   1.070  1.00  0.00     0.256 A 
HETATM   31  N4  UNL     1       1.564   1.593   1.131  1.00  0.00    -0.322 N 
HETATM   32  O6  UNL     1       0.170   3.347   0.604  1.00  0.00    -0.267 OA
HETATM   33  H34 UNL     1       0.985   0.823   0.818  1.00  0.00     0.169 HD
BRANCH  28  34
HETATM   34  C2  UNL     1       2.471   5.103   1.789  1.00  0.00     0.007 C 
HETATM   35  C1  UNL     1       1.470   5.981   1.635  1.00  0.00     0.012 C 
ENDBRANCH  28  34
ENDBRANCH  25  26
ENDBRANCH   1  25
BRANCH  12  36
HETATM   36  C16 UNL     1      -3.378   0.923  -0.260  1.00  0.00     0.115 C 
BRANCH  36  37
HETATM   37  C17 UNL     1      -3.002   1.899  -1.333  1.00  0.00     0.022 A 
HETATM   38  C18 UNL     1      -3.685   2.326  -2.466  1.00  0.00    -0.020 A 
HETATM   39  C21 UNL     1      -2.835   3.270  -3.146  1.00  0.00     0.040 A 
HETATM   40  C23 UNL     1      -1.689   3.417  -2.376  1.00  0.00     0.084 A 
HETATM   41  N3  UNL     1      -1.824   2.600  -1.276  1.00  0.00    -0.356 N 
HETATM   42  H20 UNL     1      -1.158   2.562  -0.510  1.00  0.00     0.166 HD
BRANCH  38  43
HETATM   43  C19 UNL     1      -5.055   1.893  -2.905  1.00  0.00     0.037 C 
HETATM   44  C20 UNL     1      -6.142   2.834  -2.405  1.00  0.00     0.010 C 
ENDBRANCH  38  43
BRANCH  39  45
HETATM   45  C22 UNL     1      -3.104   3.984  -4.394  1.00  0.00     0.273 C 
HETATM   46  O2  UNL     1      -4.210   4.037  -4.928  1.00  0.00    -0.301 OA
ENDBRANCH  39  45
BRANCH  40  47
HETATM   47  C24 UNL     1      -0.531   4.259  -2.574  1.00  0.00     0.288 C 
HETATM   48  O3  UNL     1      -0.355   5.014  -3.525  1.00  0.00    -0.300 OA
ENDBRANCH  40  47
ENDBRANCH  36  37
ENDBRANCH  12  36
TORSDOF 12
