REMARK  13 active torsions:
REMARK  status: ('A' for Active; 'I' for Inactive)
REMARK    1  A    between atoms: O1_2  and  C2_3 
REMARK    2  A    between atoms: C2_3  and  C3_5 
REMARK    3  A    between atoms: C3_5  and  C4_6 
REMARK    4  A    between atoms: C3_5  and  N2_16 
REMARK    5  A    between atoms: C4_6  and  C5_7 
REMARK       I    between atoms: N2_16  and  C13_17 
REMARK    6  A    between atoms: C13_17  and  C14_19 
REMARK    7  A    between atoms: C14_19  and  C15_20 
REMARK    8  A    between atoms: C15_20  and  C16_21 
REMARK    9  A    between atoms: C16_21  and  O5_23 
REMARK   10  A    between atoms: O5_23  and  C17_24 
REMARK   11  A    between atoms: C17_24  and  C18_25 
REMARK   12  A    between atoms: C18_25  and  C19_27 
REMARK   13  A    between atoms: C19_27  and  O7_28 
ROOT
HETATM    1  C17 UNL     1      -0.737   2.255  -0.497  1.00  0.00     0.260 C 
ENDROOT
BRANCH   1   2
HETATM    2  O5  UNL     1       0.419   3.086  -0.612  1.00  0.00    -0.314 OA
BRANCH   2   3
HETATM    3  C16 UNL     1       1.604   2.414  -0.524  1.00  0.00     0.259 C 
HETATM    4  O4  UNL     1       1.711   1.198  -0.422  1.00  0.00    -0.265 OA
BRANCH   3   5
HETATM    5  C15 UNL     1       2.758   3.381  -0.615  1.00  0.00     0.120 C 
BRANCH   5   6
HETATM    6  C14 UNL     1       3.771   2.884  -1.639  1.00  0.00     0.112 C 
BRANCH   6   7
HETATM    7  C13 UNL     1       4.877   2.071  -0.999  1.00  0.00     0.218 C 
HETATM    8  N2  UNL     1       5.379   1.088  -1.813  1.00  0.00    -0.347 N 
HETATM    9  H13 UNL     1       4.967   0.910  -2.725  1.00  0.00     0.163 HD
HETATM   10  O3  UNL     1       5.336   2.316   0.110  1.00  0.00    -0.274 OA
BRANCH   8  11
HETATM   11  C3  UNL     1       6.458   0.190  -1.380  1.00  0.00     0.188 C 
BRANCH  11  12
HETATM   12  C2  UNL     1       6.298  -1.107  -2.170  1.00  0.00     0.281 C 
HETATM   13  O2  UNL     1       5.884  -1.153  -3.326  1.00  0.00    -0.263 OA
BRANCH  12  14
HETATM   14  O1  UNL     1       6.656  -2.187  -1.425  1.00  0.00    -0.325 OA
HETATM   15  C1  UNL     1       6.533  -3.435  -2.107  1.00  0.00     0.213 C 
ENDBRANCH  12  14
ENDBRANCH  11  12
BRANCH  11  16
HETATM   16  C4  UNL     1       7.836   0.807  -1.650  1.00  0.00     0.076 C 
BRANCH  16  17
HETATM   17  C5  UNL     1       8.961   0.043  -1.024  1.00  0.00    -0.028 A 
HETATM   18  C6  UNL     1       9.859  -0.784  -1.670  1.00  0.00     0.096 A 
HETATM   19  N1  UNL     1      10.713  -1.301  -0.734  1.00  0.00    -0.365 N 
HETATM   20  C7  UNL     1      10.395  -0.830   0.517  1.00  0.00     0.042 A 
HETATM   21  H8  UNL     1      11.470  -1.941  -0.928  1.00  0.00     0.165 HD
HETATM   22  C8  UNL     1      10.987  -1.094   1.758  1.00  0.00     0.030 A 
HETATM   23  C12 UNL     1       9.305   0.026   0.367  1.00  0.00    -0.002 A 
HETATM   24  C9  UNL     1      10.447  -0.458   2.879  1.00  0.00     0.002 A 
HETATM   25  C10 UNL     1       9.363   0.408   2.760  1.00  0.00     0.001 A 
HETATM   26  C11 UNL     1       8.782   0.659   1.512  1.00  0.00     0.014 A 
ENDBRANCH  16  17
ENDBRANCH  11  16
ENDBRANCH   8  11
ENDBRANCH   6   7
ENDBRANCH   5   6
ENDBRANCH   3   5
ENDBRANCH   2   3
ENDBRANCH   1   2
BRANCH   1  27
HETATM   27  C18 UNL     1      -0.982   1.771   0.932  1.00  0.00     0.185 C 
HETATM   28  O6  UNL     1      -0.485   2.358   1.896  1.00  0.00    -0.292 OA
BRANCH  27  29
HETATM   29  C19 UNL     1      -1.903   0.540   1.106  1.00  0.00     0.128 C 
HETATM   30  C20 UNL     1      -1.926   0.012   2.570  1.00  0.00     0.047 C 
HETATM   31  C21 UNL     1      -3.356  -0.493   2.846  1.00  0.00     0.009 C 
HETATM   32  C22 UNL     1      -4.041  -0.456   1.485  1.00  0.00     0.002 C 
HETATM   33  C23 UNL     1      -5.580  -0.448   1.422  1.00  0.00     0.003 C 
HETATM   34  C36 UNL     1      -3.409   0.796   0.799  1.00  0.00     0.005 C 
HETATM   35  C24 UNL     1      -6.266  -1.541   2.263  1.00  0.00     0.010 C 
HETATM   36  C33 UNL     1      -5.991  -0.502  -0.083  1.00  0.00     0.072 C 
HETATM   37  C25 UNL     1      -6.980  -2.603   1.434  1.00  0.00     0.035 C 
HETATM   38  C26 UNL     1      -7.896  -2.044   0.368  1.00  0.00    -0.067 C 
HETATM   39  C27 UNL     1      -8.942  -2.779  -0.050  1.00  0.00     0.053 C 
HETATM   40  C31 UNL     1      -7.523  -0.699  -0.276  1.00  0.00    -0.009 C 
HETATM   41  C28 UNL     1      -9.785  -2.362  -1.195  1.00  0.00     0.149 C 
HETATM   42  O8  UNL     1     -10.815  -2.989  -1.437  1.00  0.00    -0.293 OA
HETATM   43  C29 UNL     1      -9.359  -1.170  -2.018  1.00  0.00     0.084 C 
HETATM   44  C30 UNL     1      -7.896  -0.792  -1.782  1.00  0.00     0.022 C 
HETATM   45  C32 UNL     1      -8.337   0.429   0.399  1.00  0.00     0.021 C 
HETATM   46  C34 UNL     1      -5.340   0.694  -0.793  1.00  0.00     0.133 C 
HETATM   47  O9  UNL     1      -5.963   1.530  -1.439  1.00  0.00    -0.297 OA
HETATM   48  C35 UNL     1      -3.820   0.775  -0.683  1.00  0.00     0.091 C 
HETATM   49  C37 UNL     1      -3.865   2.141   1.430  1.00  0.00     0.019 C 
BRANCH  29  50
HETATM   50  O7  UNL     1      -1.419  -0.517   0.270  1.00  0.00    -0.381 OA
HETATM   51  H20 UNL     1      -0.507  -0.725   0.553  1.00  0.00     0.211 HD
ENDBRANCH  29  50
ENDBRANCH  27  29
ENDBRANCH   1  27
TORSDOF 13
