REMARK  15 active torsions:
REMARK  status: ('A' for Active; 'I' for Inactive)
REMARK    1  A    between atoms: C2_2  and  C3_3 
REMARK    2  A    between atoms: C2_2  and  C35_44 
REMARK    3  A    between atoms: C3_3  and  C4_4 
REMARK    4  A    between atoms: C4_4  and  C5_5 
REMARK    5  A    between atoms: C5_5  and  C7_7 
REMARK    6  A    between atoms: C9_9  and  O1_10 
REMARK    7  A    between atoms: C10_11  and  C11_12 
REMARK    8  A    between atoms: C11_12  and  O3_14 
REMARK    9  A    between atoms: C22_25  and  O4_26 
REMARK   10  A    between atoms: O4_26  and  C23_27 
REMARK   11  A    between atoms: C24_29  and  C25_30 
REMARK   12  A    between atoms: C25_30  and  O6_31 
REMARK   13  A    between atoms: C26_32  and  O7_33 
REMARK   14  A    between atoms: C28_35  and  O8_36 
REMARK   15  A    between atoms: C29_37  and  O9_38 
ROOT
HETATM    1  C7  UNL     1      -4.142  -0.101  -1.036  1.00  0.00     0.001 C 
HETATM    2  C8  UNL     1      -4.286   1.449  -1.129  1.00  0.00     0.039 C 
HETATM    3  C9  UNL     1      -2.856   2.025  -1.313  1.00  0.00     0.142 C 
HETATM    4  C10 UNL     1      -1.979   0.777  -1.620  1.00  0.00     0.102 C 
HETATM    5  C12 UNL     1      -0.454   0.815  -1.460  1.00  0.00    -0.054 C 
HETATM    6  C13 UNL     1       0.231  -0.311  -1.126  1.00  0.00    -0.067 C 
HETATM    7  C14 UNL     1      -0.488  -1.630  -0.807  1.00  0.00     0.036 C 
HETATM    8  C15 UNL     1      -2.023  -1.664  -0.968  1.00  0.00     0.015 C 
HETATM    9  C16 UNL     1      -2.643  -0.297  -0.665  1.00  0.00    -0.016 C 
HETATM   10  C17 UNL     1      -2.401  -0.022   0.850  1.00  0.00     0.017 C 
HETATM   11  C18 UNL     1       1.780  -0.313  -0.993  1.00  0.00    -0.013 C 
HETATM   12  C19 UNL     1       2.036  -0.182   0.534  1.00  0.00     0.021 C 
HETATM   13  C20 UNL     1       2.398  -1.634  -1.557  1.00  0.00     0.017 C 
HETATM   14  C21 UNL     1       3.779  -1.509  -2.223  1.00  0.00     0.037 C 
HETATM   15  C22 UNL     1       4.668  -0.434  -1.602  1.00  0.00     0.153 C 
HETATM   16  C30 UNL     1       3.965   0.911  -1.686  1.00  0.00    -0.055 C 
HETATM   17  C31 UNL     1       4.698   2.034  -1.807  1.00  0.00     0.017 C 
HETATM   18  C32 UNL     1       2.429   0.878  -1.783  1.00  0.00     0.029 C 
HETATM   19  C33 UNL     1       1.716   2.191  -1.444  1.00  0.00     0.014 C 
HETATM   20  C34 UNL     1       0.231   2.116  -1.796  1.00  0.00     0.036 C 
ENDROOT
BRANCH  15  21
HETATM   21  O4  UNL     1       4.899  -0.840  -0.255  1.00  0.00    -0.349 OA
BRANCH  21  22
HETATM   22  C23 UNL     1       6.155  -0.447   0.302  1.00  0.00     0.292 C 
HETATM   23  O5  UNL     1       6.086   0.866   0.842  1.00  0.00    -0.348 OA
HETATM   24  C24 UNL     1       7.312   1.313   1.451  1.00  0.00     0.179 C 
HETATM   25  C26 UNL     1       8.331   0.203   1.801  1.00  0.00     0.183 C 
HETATM   26  C28 UNL     1       7.553  -0.988   2.387  1.00  0.00     0.183 C 
HETATM   27  C29 UNL     1       6.451  -1.464   1.429  1.00  0.00     0.204 C 
BRANCH  24  28
HETATM   28  C25 UNL     1       7.935   2.373   0.534  1.00  0.00     0.198 C 
BRANCH  28  29
HETATM   29  O6  UNL     1       7.003   3.436   0.315  1.00  0.00    -0.398 OA
HETATM   30  H36 UNL     1       6.117   3.022   0.319  1.00  0.00     0.209 HD
ENDBRANCH  28  29
ENDBRANCH  24  28
BRANCH  25  31
HETATM   31  O7  UNL     1       9.285   0.790   2.702  1.00  0.00    -0.385 OA
HETATM   32  C27 UNL     1      10.366  -0.059   3.058  1.00  0.00     0.202 C 
ENDBRANCH  25  31
BRANCH  26  33
HETATM   33  O8  UNL     1       8.419  -2.107   2.638  1.00  0.00    -0.390 OA
HETATM   34  H42 UNL     1       7.878  -2.748   3.141  1.00  0.00     0.210 HD
ENDBRANCH  26  33
BRANCH  27  35
HETATM   35  O9  UNL     1       5.271  -1.733   2.218  1.00  0.00    -0.388 OA
HETATM   36  H44 UNL     1       4.518  -1.564   1.612  1.00  0.00     0.210 HD
ENDBRANCH  27  35
ENDBRANCH  21  22
ENDBRANCH  15  21
BRANCH   4  37
HETATM   37  C11 UNL     1      -2.130   0.425  -3.141  1.00  0.00     0.156 C 
HETATM   38  O2  UNL     1      -1.614  -0.506  -3.747  1.00  0.00    -0.649 OA
BRANCH  37  39
HETATM   39  O3  UNL     1      -2.901   1.271  -3.855  1.00  0.00    -0.775 OA
HETATM   40  H16 UNL     1      -2.850   0.905  -4.765  1.00  0.00     0.167 HD
ENDBRANCH  37  39
ENDBRANCH   4  37
BRANCH   3  41
HETATM   41  O1  UNL     1      -2.507   2.691  -0.096  1.00  0.00    -0.394 OA
HETATM   42  H15 UNL     1      -1.949   3.455  -0.316  1.00  0.00     0.210 HD
ENDBRANCH   3  41
BRANCH   1  43
HETATM   43  C5  UNL     1      -5.315  -0.794  -0.284  1.00  0.00    -0.013 C 
HETATM   44  C6  UNL     1      -5.255  -2.318  -0.450  1.00  0.00     0.010 C 
BRANCH  43  45
HETATM   45  C4  UNL     1      -5.522  -0.417   1.201  1.00  0.00     0.009 C 
BRANCH  45  46
HETATM   46  C3  UNL     1      -6.902  -0.800   1.773  1.00  0.00     0.034 C 
BRANCH  46  47
HETATM   47  C2  UNL     1      -8.141  -0.123   1.193  1.00  0.00    -0.086 C 
HETATM   48  C1  UNL     1      -8.096   1.101   0.635  1.00  0.00     0.014 C 
BRANCH  47  49
HETATM   49  C35 UNL     1      -9.430  -0.942   1.317  1.00  0.00     0.005 C 
HETATM   50  C36 UNL     1     -10.604  -0.465   0.450  1.00  0.00     0.014 C 
HETATM   51  C37 UNL     1      -9.881  -1.016   2.781  1.00  0.00     0.014 C 
ENDBRANCH  47  49
ENDBRANCH  46  47
ENDBRANCH  45  46
ENDBRANCH  43  45
ENDBRANCH   1  43
TORSDOF 15
