REMARK  8 active torsions:
REMARK  status: ('A' for Active; 'I' for Inactive)
REMARK    1  A    between atoms: O1_2  and  C2_3 
REMARK    2  A    between atoms: C2_3  and  C3_4 
REMARK    3  A    between atoms: C7_8  and  C8_9 
REMARK    4  A    between atoms: C8_9  and  C9_10 
REMARK    5  A    between atoms: C8_9  and  C10_12 
REMARK    6  A    between atoms: C9_10  and  O2_11 
REMARK    7  A    between atoms: C19_21  and  S1_22 
REMARK    8  A    between atoms: S1_22  and  O5_25 
ROOT
HETATM    1  C10 UNL     1       1.317   0.480  -0.205  1.00  0.00     0.003 C 
HETATM    2  C11 UNL     1       1.306  -0.985   0.262  1.00  0.00     0.006 C 
HETATM    3  C12 UNL     1      -0.165  -1.373   0.274  1.00  0.00     0.006 C 
HETATM    4  C13 UNL     1      -0.780  -0.172   0.989  1.00  0.00    -0.001 C 
HETATM    5  C14 UNL     1      -2.324  -0.117   1.089  1.00  0.00    -0.001 C 
HETATM    6  C15 UNL     1      -2.900  -1.461   1.565  1.00  0.00     0.033 C 
HETATM    7  C16 UNL     1      -4.390  -1.539   1.500  1.00  0.00    -0.022 C 
HETATM    8  C17 UNL     1      -5.168  -0.673   0.829  1.00  0.00    -0.066 C 
HETATM    9  C18 UNL     1      -6.668  -0.893   0.767  1.00  0.00     0.057 C 
HETATM   10  C19 UNL     1      -7.203  -0.888  -0.674  1.00  0.00     0.132 C 
HETATM   11  C20 UNL     1      -6.101  -0.738  -1.713  1.00  0.00     0.101 C 
HETATM   12  C21 UNL     1      -5.283   0.481  -1.359  1.00  0.00     0.141 C 
HETATM   13  O6  UNL     1      -5.181   1.408  -2.164  1.00  0.00    -0.297 OA
HETATM   14  C22 UNL     1      -4.599   0.508   0.030  1.00  0.00     0.044 C 
HETATM   15  C23 UNL     1      -5.004   1.814   0.740  1.00  0.00     0.029 C 
HETATM   16  C24 UNL     1      -3.042   0.379  -0.186  1.00  0.00     0.010 C 
HETATM   17  C25 UNL     1      -2.386   1.689  -0.665  1.00  0.00     0.007 C 
HETATM   18  C26 UNL     1      -0.898   1.507  -0.935  1.00  0.00     0.010 C 
HETATM   19  C27 UNL     1      -0.086   1.047   0.301  1.00  0.00    -0.036 C 
HETATM   20  C28 UNL     1       0.008   2.184   1.335  1.00  0.00     0.016 C 
ENDROOT
BRANCH   1  21
HETATM   21  C8  UNL     1       2.609   1.303   0.127  1.00  0.00     0.044 C 
BRANCH  21  22
HETATM   22  C7  UNL     1       3.936   0.490  -0.064  1.00  0.00     0.142 C 
HETATM   23  C6  UNL     1       5.213   1.326   0.028  1.00  0.00     0.067 C 
HETATM   24  C4  UNL     1       6.432   0.440   0.043  1.00  0.00    -0.067 C 
HETATM   25  C3  UNL     1       6.348  -0.838   0.474  1.00  0.00     0.043 C 
HETATM   26  C5  UNL     1       7.696   1.109  -0.422  1.00  0.00     0.044 C 
HETATM   27  C29 UNL     1       5.076  -1.319   1.083  1.00  0.00     0.292 C 
HETATM   28  O7  UNL     1       3.991  -0.518   0.968  1.00  0.00    -0.311 OA
HETATM   29  O8  UNL     1       5.021  -2.374   1.704  1.00  0.00    -0.260 OA
BRANCH  25  30
HETATM   30  C2  UNL     1       7.420  -1.902   0.494  1.00  0.00     0.212 C 
BRANCH  30  31
HETATM   31  O1  UNL     1       8.493  -1.610  -0.406  1.00  0.00    -0.391 OA
HETATM   32  C1  UNL     1       9.470  -2.640  -0.400  1.00  0.00     0.201 C 
ENDBRANCH  30  31
ENDBRANCH  25  30
ENDBRANCH  21  22
BRANCH  21  33
HETATM   33  C9  UNL     1       2.628   2.576  -0.743  1.00  0.00     0.171 C 
BRANCH  33  34
HETATM   34  O2  UNL     1       3.414   3.593  -0.135  1.00  0.00    -0.400 OA
HETATM   35  H15 UNL     1       2.950   3.873   0.673  1.00  0.00     0.209 HD
ENDBRANCH  33  34
ENDBRANCH  21  33
ENDBRANCH   1  21
BRANCH  10  36
HETATM   36  S1  UNL     1      -8.167  -2.369  -0.974  1.00  0.00     0.099 S 
HETATM   37  O3  UNL     1      -7.296  -3.516  -1.078  1.00  0.00    -0.601 OA
HETATM   38  O4  UNL     1      -9.342  -2.361  -0.131  1.00  0.00    -0.601 OA
BRANCH  36  39
HETATM   39  O5  UNL     1      -8.703  -2.016  -2.455  1.00  0.00    -0.295 OA
HETATM   40  H29 UNL     1      -9.670  -2.186  -2.475  1.00  0.00     0.232 HD
ENDBRANCH  36  39
ENDBRANCH  10  36
TORSDOF 8
