REMARK  7 active torsions:
REMARK  status: ('A' for Active; 'I' for Inactive)
REMARK    1  A    between atoms: C2_2  and  C30_32 
REMARK    2  A    between atoms: C3_3  and  C4_4 
REMARK    3  A    between atoms: C4_4  and  O1_5 
REMARK    4  A    between atoms: C4_4  and  C5_6 
REMARK    5  A    between atoms: C5_6  and  C6_7 
REMARK    6  A    between atoms: C6_7  and  C8_9 
REMARK    7  A    between atoms: C30_32  and  O4_34 
ROOT
HETATM    1  C8  UNL     1       2.022  -0.766  -1.864  1.00  0.00    -0.002 C 
HETATM    2  C9  UNL     1       2.058  -2.176  -1.233  1.00  0.00     0.006 C 
HETATM    3  C10 UNL     1       0.706  -2.377  -0.514  1.00  0.00     0.011 C 
HETATM    4  C11 UNL     1      -0.203  -1.237  -1.022  1.00  0.00    -0.032 C 
HETATM    5  C12 UNL     1      -0.817  -1.715  -2.375  1.00  0.00     0.016 C 
HETATM    6  C13 UNL     1      -1.341  -0.822  -0.049  1.00  0.00     0.004 C 
HETATM    7  C14 UNL     1      -2.501  -1.826   0.032  1.00  0.00     0.007 C 
HETATM    8  C15 UNL     1      -3.507  -1.380   1.091  1.00  0.00     0.007 C 
HETATM    9  C16 UNL     1      -4.246  -0.115   0.634  1.00  0.00     0.010 C 
HETATM   10  C17 UNL     1      -5.243   0.476   1.685  1.00  0.00     0.018 C 
HETATM   11  C18 UNL     1      -6.544  -0.348   1.706  1.00  0.00     0.023 C 
HETATM   12  C19 UNL     1      -4.680   0.521   3.115  1.00  0.00     0.023 C 
HETATM   13  C20 UNL     1      -5.628   1.906   1.270  1.00  0.00     0.135 C 
HETATM   14  O2  UNL     1      -6.121   2.710   2.062  1.00  0.00    -0.297 OA
HETATM   15  C21 UNL     1      -5.488   2.264  -0.189  1.00  0.00     0.080 C 
HETATM   16  C22 UNL     1      -4.071   2.029  -0.699  1.00  0.00     0.018 C 
HETATM   17  C23 UNL     1      -3.314   0.970   0.092  1.00  0.00    -0.026 A 
HETATM   18  C24 UNL     1      -2.147   1.444   0.920  1.00  0.00     0.021 A 
HETATM   19  C25 UNL     1      -1.859   0.615  -0.325  1.00  0.00    -0.027 A 
HETATM   20  C26 UNL     1      -1.269   1.371  -1.525  1.00  0.00     0.011 C 
HETATM   21  C27 UNL     1       0.188   1.078  -1.925  1.00  0.00     0.011 C 
HETATM   22  C28 UNL     1       0.837  -0.061  -1.138  1.00  0.00    -0.032 C 
HETATM   23  C29 UNL     1       1.288   0.504   0.234  1.00  0.00     0.016 C 
ENDROOT
BRANCH   1  24
HETATM   24  C6  UNL     1       3.375  -0.052  -2.137  1.00  0.00    -0.011 C 
HETATM   25  C7  UNL     1       4.208  -0.898  -3.122  1.00  0.00     0.010 C 
BRANCH  24  26
HETATM   26  C5  UNL     1       4.280   0.476  -0.996  1.00  0.00     0.040 C 
BRANCH  26  27
HETATM   27  C4  UNL     1       4.755  -0.475   0.108  1.00  0.00     0.142 C 
BRANCH  27  28
HETATM   28  C3  UNL     1       5.704   0.241   1.032  1.00  0.00     0.018 C 
HETATM   29  C2  UNL     1       5.556   0.503   2.348  1.00  0.00     0.010 C 
HETATM   30  C1  UNL     1       4.376   0.134   3.200  1.00  0.00     0.055 C 
BRANCH  29  31
HETATM   31  C30 UNL     1       6.621   1.226   3.099  1.00  0.00     0.171 C 
HETATM   32  O3  UNL     1       6.566   1.526   4.279  1.00  0.00    -0.646 OA
BRANCH  31  33
HETATM   33  O4  UNL     1       7.699   1.533   2.361  1.00  0.00    -0.773 OA
HETATM   34  H46 UNL     1       8.293   1.987   2.994  1.00  0.00     0.167 HD
ENDBRANCH  31  33
ENDBRANCH  29  31
ENDBRANCH  27  28
BRANCH  27  35
HETATM   35  O1  UNL     1       5.479  -1.562  -0.454  1.00  0.00    -0.392 OA
HETATM   36  H6  UNL     1       5.897  -2.045   0.278  1.00  0.00     0.210 HD
ENDBRANCH  27  35
ENDBRANCH  26  27
ENDBRANCH  24  26
ENDBRANCH   1  24
TORSDOF 7
