REMARK  12 active torsions:
REMARK  status: ('A' for Active; 'I' for Inactive)
REMARK    1  A    between atoms: C5_5  and  C6_6 
REMARK    2  A    between atoms: C6_6  and  C8_8 
REMARK    3  A    between atoms: C8_8  and  O1_9 
REMARK    4  A    between atoms: C15_17  and  O3_18 
REMARK    5  A    between atoms: C18_21  and  O4_23 
REMARK    6  A    between atoms: O4_23  and  C20_24 
REMARK    7  A    between atoms: C20_24  and  C21_26 
REMARK    8  A    between atoms: C21_26  and  C22_27 
REMARK    9  A    between atoms: C21_26  and  O6_29 
REMARK   10  A    between atoms: O6_29  and  C24_30 
REMARK   11  A    between atoms: C24_30  and  C25_32 
REMARK   12  A    between atoms: C25_32  and  C26_33 
ROOT
HETATM    1  C1  UNL     1      -5.200  -0.072  -0.210  1.00  0.00     0.015 C 
HETATM    2  C2  UNL     1      -4.170   0.199  -1.027  1.00  0.00    -0.082 C 
HETATM    3  C3  UNL     1      -4.162   1.477  -1.834  1.00  0.00     0.034 C 
HETATM    4  C4  UNL     1      -2.865   2.262  -1.590  1.00  0.00     0.010 C 
HETATM    5  C5  UNL     1      -2.116   1.783  -0.323  1.00  0.00    -0.001 C 
HETATM    6  C9  UNL     1      -1.679   0.283  -0.541  1.00  0.00     0.033 C 
HETATM    7  C10 UNL     1      -1.315  -0.459   0.790  1.00  0.00     0.162 C 
HETATM    8  O2  UNL     1      -2.359  -1.443   0.925  1.00  0.00    -0.376 OA
HETATM    9  C11 UNL     1      -2.643  -1.872  -0.414  1.00  0.00     0.134 C 
HETATM   10  C12 UNL     1      -3.614  -3.041  -0.447  1.00  0.00     0.068 C 
HETATM   11  C13 UNL     1      -3.257  -4.115   0.581  1.00  0.00    -0.059 C 
HETATM   12  C14 UNL     1      -4.224  -4.638   1.360  1.00  0.00     0.017 C 
HETATM   13  C15 UNL     1      -1.817  -4.593   0.717  1.00  0.00     0.146 C 
HETATM   14  C16 UNL     1      -0.840  -3.683   1.513  1.00  0.00     0.039 C 
HETATM   15  C17 UNL     1       0.096  -2.758   0.704  1.00  0.00     0.044 C 
HETATM   16  C18 UNL     1       0.082  -1.201   0.957  1.00  0.00     0.093 C 
HETATM   17  C19 UNL     1       0.595  -0.994   2.400  1.00  0.00     0.049 C 
HETATM   18  C28 UNL     1      -2.859  -0.562  -1.148  1.00  0.00     0.050 C 
ENDROOT
BRANCH  16  19
HETATM   19  O4  UNL     1       1.071  -0.771  -0.036  1.00  0.00    -0.306 OA
BRANCH  19  20
HETATM   20  C20 UNL     1       1.884   0.303   0.078  1.00  0.00     0.289 C 
HETATM   21  O5  UNL     1       1.782   1.178   0.926  1.00  0.00    -0.262 OA
BRANCH  20  22
HETATM   22  C21 UNL     1       3.002   0.226  -0.978  1.00  0.00     0.231 C 
BRANCH  22  23
HETATM   23  C22 UNL     1       2.494   0.204  -2.425  1.00  0.00     0.038 C 
HETATM   24  C23 UNL     1       1.990  -1.156  -2.889  1.00  0.00     0.008 C 
ENDBRANCH  22  23
BRANCH  22  25
HETATM   25  O6  UNL     1       3.843   1.394  -0.865  1.00  0.00    -0.306 OA
BRANCH  25  26
HETATM   26  C24 UNL     1       4.739   1.361   0.164  1.00  0.00     0.259 C 
HETATM   27  O7  UNL     1       4.895   0.415   0.924  1.00  0.00    -0.265 OA
BRANCH  26  28
HETATM   28  C25 UNL     1       5.498   2.667   0.210  1.00  0.00     0.111 C 
BRANCH  28  29
HETATM   29  C26 UNL     1       6.654   2.657   1.210  1.00  0.00     0.005 C 
HETATM   30  C27 UNL     1       7.830   1.814   0.737  1.00  0.00     0.005 C 
ENDBRANCH  28  29
ENDBRANCH  26  28
ENDBRANCH  25  26
ENDBRANCH  22  25
ENDBRANCH  20  22
ENDBRANCH  19  20
ENDBRANCH  16  19
BRANCH   5  31
HETATM   31  C6  UNL     1      -0.955   2.717   0.117  1.00  0.00     0.010 C 
HETATM   32  C7  UNL     1      -0.059   3.164  -1.038  1.00  0.00     0.012 C 
BRANCH  31  33
HETATM   33  C8  UNL     1      -1.448   3.937   0.919  1.00  0.00     0.168 C 
BRANCH  33  34
HETATM   34  O1  UNL     1      -2.195   4.839   0.119  1.00  0.00    -0.400 OA
HETATM   35  H14 UNL     1      -2.564   5.508   0.719  1.00  0.00     0.209 HD
ENDBRANCH  33  34
ENDBRANCH  31  33
ENDBRANCH   5  31
BRANCH  13  36
HETATM   36  O3  UNL     1      -1.312  -4.919  -0.573  1.00  0.00    -0.391 OA
HETATM   37  H23 UNL     1      -1.954  -5.536  -0.967  1.00  0.00     0.210 HD
ENDBRANCH  13  36
TORSDOF 12
