REMARK  6 active torsions:
REMARK  status: ('A' for Active; 'I' for Inactive)
REMARK    1  A    between atoms: C2_2  and  O2_4 
REMARK    2  A    between atoms: O2_4  and  C3_5 
REMARK    3  A    between atoms: C13_15  and  C14_16 
REMARK    4  A    between atoms: C14_16  and  C16_18 
REMARK    5  A    between atoms: C16_18  and  C17_19 
REMARK    6  A    between atoms: C17_19  and  C18_20 
ROOT
HETATM    1  C3  UNL     1       6.028   0.369  -0.202  1.00  0.00     0.136 C 
HETATM    2  C4  UNL     1       5.220   1.668  -0.069  1.00  0.00     0.034 C 
HETATM    3  C5  UNL     1       3.786   1.553  -0.585  1.00  0.00     0.013 C 
HETATM    4  C6  UNL     1       3.052   0.310  -0.069  1.00  0.00    -0.027 A 
HETATM    5  C7  UNL     1       2.166  -0.335  -1.112  1.00  0.00     0.021 A 
HETATM    6  C8  UNL     1       1.508   0.270   0.110  1.00  0.00    -0.027 A 
HETATM    7  C9  UNL     1       0.751   1.586  -0.079  1.00  0.00     0.011 C 
HETATM    8  C10 UNL     1      -0.788   1.548  -0.014  1.00  0.00     0.011 C 
HETATM    9  C11 UNL     1      -1.384   0.231   0.502  1.00  0.00    -0.032 C 
HETATM   10  C12 UNL     1      -1.502  -0.744  -0.712  1.00  0.00     0.016 C 
HETATM   11  C13 UNL     1      -2.778   0.328   1.215  1.00  0.00    -0.002 C 
HETATM   12  C22 UNL     1      -2.784  -0.946   2.113  1.00  0.00     0.006 C 
HETATM   13  C23 UNL     1      -1.336  -1.440   2.237  1.00  0.00     0.011 C 
HETATM   14  C24 UNL     1      -0.469  -0.304   1.663  1.00  0.00    -0.032 C 
HETATM   15  C25 UNL     1      -0.236   0.709   2.827  1.00  0.00     0.016 C 
HETATM   16  C26 UNL     1       0.886  -0.777   1.071  1.00  0.00     0.004 C 
HETATM   17  C27 UNL     1       1.891  -1.278   2.116  1.00  0.00     0.006 C 
HETATM   18  C28 UNL     1       3.174  -1.759   1.440  1.00  0.00     0.006 C 
HETATM   19  C29 UNL     1       3.923  -0.563   0.845  1.00  0.00     0.001 C 
HETATM   20  C30 UNL     1       5.201  -0.918   0.055  1.00  0.00     0.016 C 
HETATM   21  C31 UNL     1       6.081  -1.972   0.729  1.00  0.00     0.013 C 
ENDROOT
BRANCH  11  22
HETATM   22  C14 UNL     1      -4.075   0.450   0.358  1.00  0.00    -0.014 C 
HETATM   23  C15 UNL     1      -4.063   1.718  -0.506  1.00  0.00     0.010 C 
BRANCH  22  24
HETATM   24  C16 UNL     1      -5.351   0.455   1.247  1.00  0.00     0.008 C 
BRANCH  24  25
HETATM   25  C17 UNL     1      -6.503  -0.390   0.678  1.00  0.00     0.028 C 
BRANCH  25  26
HETATM   26  C18 UNL     1      -7.140   0.195  -0.551  1.00  0.00    -0.025 C 
HETATM   27  C19 UNL     1      -7.128  -0.292  -1.808  1.00  0.00    -0.091 C 
HETATM   28  C20 UNL     1      -6.422  -1.542  -2.252  1.00  0.00     0.042 C 
HETATM   29  C21 UNL     1      -7.854   0.431  -2.915  1.00  0.00     0.042 C 
ENDBRANCH  25  26
ENDBRANCH  24  25
ENDBRANCH  22  24
ENDBRANCH  11  22
BRANCH   1  30
HETATM   30  O2  UNL     1       6.577   0.271  -1.537  1.00  0.00    -0.316 OA
BRANCH  30  31
HETATM   31  C2  UNL     1       7.797   0.845  -1.730  1.00  0.00     0.255 C 
HETATM   32  C1  UNL     1       8.236   0.645  -3.147  1.00  0.00     0.126 C 
HETATM   33  O1  UNL     1       8.446   1.450  -0.888  1.00  0.00    -0.266 OA
ENDBRANCH  30  31
ENDBRANCH   1  30
TORSDOF 6
