REMARK  12 active torsions:
REMARK  status: ('A' for Active; 'I' for Inactive)
REMARK    1  A    between atoms: C4_4  and  C5_5 
REMARK    2  A    between atoms: C5_5  and  O1_6 
REMARK    3  A    between atoms: C5_5  and  C6_7 
REMARK    4  A    between atoms: C6_7  and  C7_8 
REMARK    5  A    between atoms: C9_11  and  C10_12 
REMARK    6  A    between atoms: C18_20  and  O3_21 
REMARK    7  A    between atoms: O3_21  and  C19_22 
REMARK    8  A    between atoms: C20_24  and  C21_25 
REMARK    9  A    between atoms: C21_25  and  O5_26 
REMARK   10  A    between atoms: C22_27  and  O6_28 
REMARK   11  A    between atoms: C23_29  and  O7_30 
REMARK   12  A    between atoms: C24_31  and  O8_32 
ROOT
HETATM    1  C10 UNL     1       3.469  -0.752   0.957  1.00  0.00     0.029 C 
HETATM    2  C11 UNL     1       2.841   0.332   1.892  1.00  0.00     0.009 C 
HETATM    3  C12 UNL     1       1.383   0.059   2.310  1.00  0.00     0.007 C 
HETATM    4  C13 UNL     1       0.673  -0.796   1.256  1.00  0.00     0.003 C 
HETATM    5  C14 UNL     1      -0.900  -0.669   1.138  1.00  0.00    -0.035 C 
HETATM    6  C15 UNL     1      -1.609  -1.194   2.403  1.00  0.00     0.016 C 
HETATM    7  C16 UNL     1      -1.295   0.831   0.970  1.00  0.00     0.012 C 
HETATM    8  C17 UNL     1      -2.744   1.059   0.533  1.00  0.00     0.034 C 
HETATM    9  C18 UNL     1      -3.105   0.307  -0.752  1.00  0.00     0.133 C 
HETATM   10  C25 UNL     1      -2.788  -1.223  -0.668  1.00  0.00    -0.017 C 
HETATM   11  C26 UNL     1      -2.976  -1.808  -2.097  1.00  0.00     0.018 C 
HETATM   12  C27 UNL     1      -3.806  -1.960   0.227  1.00  0.00     0.018 C 
HETATM   13  C28 UNL     1      -1.296  -1.397  -0.207  1.00  0.00     0.004 C 
HETATM   14  C29 UNL     1      -0.751  -2.839  -0.275  1.00  0.00     0.007 C 
HETATM   15  C30 UNL     1       0.777  -2.903  -0.081  1.00  0.00     0.011 C 
HETATM   16  C31 UNL     1       1.281  -2.254   1.241  1.00  0.00    -0.029 C 
HETATM   17  C32 UNL     1       0.762  -3.156   2.393  1.00  0.00     0.016 C 
HETATM   18  C33 UNL     1       2.901  -2.187   1.325  1.00  0.00     0.004 C 
HETATM   19  C34 UNL     1       3.597  -3.341   0.581  1.00  0.00     0.190 C 
HETATM   20  O9  UNL     1       4.922  -3.429   1.113  1.00  0.00    -0.321 OA
HETATM   21  C35 UNL     1       4.892  -2.983   2.400  1.00  0.00     0.259 C 
HETATM   22  O10 UNL     1       5.843  -2.996   3.162  1.00  0.00    -0.265 OA
HETATM   23  C36 UNL     1       3.502  -2.516   2.731  1.00  0.00     0.124 C 
ENDROOT
BRANCH   9  24
HETATM   24  O3  UNL     1      -4.490   0.468  -1.078  1.00  0.00    -0.352 OA
BRANCH  24  25
HETATM   25  C19 UNL     1      -4.870   1.784  -1.466  1.00  0.00     0.292 C 
HETATM   26  O4  UNL     1      -5.447   2.490  -0.362  1.00  0.00    -0.348 OA
HETATM   27  C20 UNL     1      -6.750   2.045   0.038  1.00  0.00     0.179 C 
HETATM   28  C22 UNL     1      -7.748   2.088  -1.136  1.00  0.00     0.180 C 
HETATM   29  C23 UNL     1      -7.231   1.317  -2.361  1.00  0.00     0.183 C 
HETATM   30  C24 UNL     1      -5.797   1.755  -2.704  1.00  0.00     0.204 C 
BRANCH  27  31
HETATM   31  C21 UNL     1      -6.730   0.706   0.786  1.00  0.00     0.198 C 
BRANCH  31  32
HETATM   32  O5  UNL     1      -8.015   0.444   1.354  1.00  0.00    -0.398 OA
HETATM   33  H34 UNL     1      -7.931  -0.396   1.841  1.00  0.00     0.209 HD
ENDBRANCH  31  32
ENDBRANCH  27  31
BRANCH  28  34
HETATM   34  O6  UNL     1      -7.939   3.461  -1.539  1.00  0.00    -0.390 OA
HETATM   35  H36 UNL     1      -8.296   3.939  -0.766  1.00  0.00     0.210 HD
ENDBRANCH  28  34
BRANCH  29  36
HETATM   36  O7  UNL     1      -7.319  -0.093  -2.169  1.00  0.00    -0.390 OA
HETATM   37  H38 UNL     1      -8.265  -0.318  -2.093  1.00  0.00     0.210 HD
ENDBRANCH  29  36
BRANCH  30  38
HETATM   38  O8  UNL     1      -5.834   3.069  -3.302  1.00  0.00    -0.388 OA
HETATM   39  H40 UNL     1      -6.421   3.608  -2.729  1.00  0.00     0.210 HD
ENDBRANCH  30  38
ENDBRANCH  24  25
ENDBRANCH   9  24
BRANCH   1  40
HETATM   40  C9  UNL     1       3.348  -0.293  -0.489  1.00  0.00     0.162 A 
HETATM   41  C7  UNL     1       4.566  -0.176  -1.415  1.00  0.00     0.087 A 
HETATM   42  C8  UNL     1       5.923  -0.707  -1.045  1.00  0.00     0.049 C 
HETATM   43  O2  UNL     1       3.597  -1.231  -1.531  1.00  0.00    -0.369 OA
BRANCH  41  44
HETATM   44  C6  UNL     1       4.500   0.822  -2.553  1.00  0.00     0.076 C 
BRANCH  44  45
HETATM   45  C5  UNL     1       4.835   2.271  -2.158  1.00  0.00     0.144 C 
BRANCH  45  46
HETATM   46  C4  UNL     1       6.264   2.495  -1.726  1.00  0.00     0.006 C 
HETATM   47  C2  UNL     1       6.805   2.715  -0.509  1.00  0.00    -0.089 C 
HETATM   48  C1  UNL     1       8.288   2.957  -0.371  1.00  0.00     0.042 C 
HETATM   49  C3  UNL     1       6.067   2.697   0.800  1.00  0.00     0.042 C 
ENDBRANCH  45  46
BRANCH  45  50
HETATM   50  O1  UNL     1       3.896   2.761  -1.210  1.00  0.00    -0.392 OA
HETATM   51  H9  UNL     1       4.192   3.657  -0.975  1.00  0.00     0.210 HD
ENDBRANCH  45  50
ENDBRANCH  44  45
ENDBRANCH  41  44
ENDBRANCH   1  40
TORSDOF 12
