REMARK  8 active torsions:
REMARK  status: ('A' for Active; 'I' for Inactive)
REMARK    1  A    between atoms: C2_2  and  C30_33 
REMARK    2  A    between atoms: C3_3  and  C4_4 
REMARK    3  A    between atoms: C4_4  and  C5_5 
REMARK    4  A    between atoms: C5_5  and  C6_6 
REMARK    5  A    between atoms: C6_6  and  C8_8 
REMARK    6  A    between atoms: C15_15  and  O1_16 
REMARK    7  A    between atoms: C23_24  and  O2_25 
REMARK    8  A    between atoms: C30_33  and  O4_34 
ROOT
HETATM    1  C8  UNL     1       2.263   0.401   1.015  1.00  0.00    -0.002 C 
HETATM    2  C9  UNL     1       2.431   1.607   0.064  1.00  0.00     0.007 C 
HETATM    3  C10 UNL     1       1.020   1.947  -0.470  1.00  0.00     0.015 C 
HETATM    4  C11 UNL     1       0.039   1.200   0.461  1.00  0.00    -0.005 C 
HETATM    5  C12 UNL     1      -0.146   2.086   1.732  1.00  0.00     0.021 C 
HETATM    6  C13 UNL     1      -1.384   0.871   0.026  1.00  0.00     0.002 C 
HETATM    7  C14 UNL     1      -2.026  -0.234   0.499  1.00  0.00    -0.032 C 
HETATM    8  C15 UNL     1      -1.324  -1.208   1.451  1.00  0.00     0.149 C 
HETATM    9  C16 UNL     1       0.166  -0.943   1.772  1.00  0.00     0.047 C 
HETATM   10  C17 UNL     1       0.849  -0.142   0.663  1.00  0.00    -0.026 C 
HETATM   11  C18 UNL     1       0.887  -1.016  -0.625  1.00  0.00     0.016 C 
HETATM   12  C19 UNL     1      -3.446  -0.615  -0.017  1.00  0.00    -0.013 C 
HETATM   13  C20 UNL     1      -3.173  -1.401  -1.325  1.00  0.00     0.021 C 
HETATM   14  C21 UNL     1      -4.273  -1.495   0.943  1.00  0.00     0.017 C 
HETATM   15  C22 UNL     1      -5.674  -1.852   0.441  1.00  0.00     0.033 C 
HETATM   16  C23 UNL     1      -6.353  -0.799  -0.440  1.00  0.00     0.126 C 
HETATM   17  C24 UNL     1      -5.815   0.645  -0.271  1.00  0.00    -0.017 C 
HETATM   18  C25 UNL     1      -6.410   1.548  -1.377  1.00  0.00     0.018 C 
HETATM   19  C26 UNL     1      -6.392   1.189   1.069  1.00  0.00     0.018 C 
HETATM   20  C27 UNL     1      -4.231   0.729  -0.190  1.00  0.00     0.015 C 
HETATM   21  C28 UNL     1      -3.543   1.592  -1.249  1.00  0.00     0.090 C 
HETATM   22  C29 UNL     1      -2.078   1.803  -0.928  1.00  0.00     0.157 C 
HETATM   23  O3  UNL     1      -1.471   2.732  -1.461  1.00  0.00    -0.293 OA
ENDROOT
BRANCH   1  24
HETATM   24  C6  UNL     1       3.478  -0.548   1.215  1.00  0.00    -0.014 C 
HETATM   25  C7  UNL     1       4.629   0.224   1.887  1.00  0.00     0.010 C 
BRANCH  24  26
HETATM   26  C5  UNL     1       4.008  -1.446   0.071  1.00  0.00     0.008 C 
BRANCH  26  27
HETATM   27  C4  UNL     1       4.542  -0.848  -1.235  1.00  0.00     0.028 C 
BRANCH  27  28
HETATM   28  C3  UNL     1       5.763   0.016  -1.097  1.00  0.00    -0.022 C 
HETATM   29  C2  UNL     1       7.052  -0.380  -1.122  1.00  0.00    -0.064 C 
HETATM   30  C1  UNL     1       7.501  -1.811  -1.248  1.00  0.00     0.045 C 
BRANCH  29  31
HETATM   31  C30 UNL     1       8.169   0.623  -0.990  1.00  0.00     0.197 C 
BRANCH  31  32
HETATM   32  O4  UNL     1       8.994   0.547  -2.141  1.00  0.00    -0.397 OA
HETATM   33  H48 UNL     1       9.640   1.269  -2.069  1.00  0.00     0.209 HD
ENDBRANCH  31  32
ENDBRANCH  29  31
ENDBRANCH  27  28
ENDBRANCH  26  27
ENDBRANCH  24  26
ENDBRANCH   1  24
BRANCH   8  34
HETATM   34  O1  UNL     1      -2.024  -1.207   2.691  1.00  0.00    -0.391 OA
HETATM   35  H22 UNL     1      -1.632  -1.905   3.243  1.00  0.00     0.210 HD
ENDBRANCH   8  34
BRANCH  16  36
HETATM   36  O2  UNL     1      -6.260  -1.225  -1.799  1.00  0.00    -0.395 OA
HETATM   37  H36 UNL     1      -6.982  -0.804  -2.296  1.00  0.00     0.210 HD
ENDBRANCH  16  36
TORSDOF 8
