REMARK  10 active torsions:
REMARK  status: ('A' for Active; 'I' for Inactive)
REMARK    1  A    between atoms: C9_9  and  O1_10 
REMARK    2  A    between atoms: C11_12  and  O2_13 
REMARK    3  A    between atoms: O2_13  and  C12_14 
REMARK    4  A    between atoms: C14_16  and  O3_17 
REMARK    5  A    between atoms: C15_18  and  O4_19 
REMARK    6  A    between atoms: C16_20  and  C17_21 
REMARK    7  A    between atoms: C17_21  and  O5_22 
REMARK    8  A    between atoms: C20_26  and  C21_27 
REMARK    9  A    between atoms: C22_29  and  O8_30 
REMARK   10  A    between atoms: C25_33  and  C26_34 
ROOT
HETATM    1  C1  UNL     1      -4.687  -1.912  -0.556  1.00  0.00     0.019 C 
HETATM    2  C2  UNL     1      -4.219  -0.447  -0.437  1.00  0.00    -0.005 C 
HETATM    3  C3  UNL     1      -3.514  -0.053  -1.766  1.00  0.00     0.013 C 
HETATM    4  C4  UNL     1      -2.136  -0.693  -1.947  1.00  0.00     0.007 C 
HETATM    5  C5  UNL     1      -1.210  -0.311  -0.781  1.00  0.00     0.011 C 
HETATM    6  C6  UNL     1      -1.833  -0.758   0.572  1.00  0.00     0.026 C 
HETATM    7  C7  UNL     1      -0.874  -0.491   1.755  1.00  0.00     0.011 C 
HETATM    8  C8  UNL     1       0.273   0.447   1.399  1.00  0.00     0.039 C 
HETATM    9  C9  UNL     1       1.137  -0.066   0.227  1.00  0.00     0.074 C 
HETATM   10  C10 UNL     1       1.940   1.139  -0.319  1.00  0.00     0.071 C 
HETATM   11  C11 UNL     1       2.948   0.724  -1.394  1.00  0.00     0.127 C 
HETATM   12  C18 UNL     1       2.370  -0.302  -2.373  1.00  0.00     0.033 C 
HETATM   13  C19 UNL     1       0.845  -0.370  -2.321  1.00  0.00     0.022 C 
HETATM   14  C20 UNL     1       0.291  -0.758  -0.915  1.00  0.00     0.048 C 
HETATM   15  C22 UNL     1      -3.277  -0.218   0.786  1.00  0.00     0.070 C 
HETATM   16  C23 UNL     1      -3.359   1.294   1.056  1.00  0.00     0.040 C 
HETATM   17  C24 UNL     1      -4.675   1.785   0.441  1.00  0.00     0.013 C 
HETATM   18  C25 UNL     1      -5.392   0.561  -0.172  1.00  0.00     0.028 C 
ENDROOT
BRANCH  11  19
HETATM   19  O2  UNL     1       4.058   0.110  -0.723  1.00  0.00    -0.356 OA
BRANCH  19  20
HETATM   20  C12 UNL     1       5.328   0.638  -1.090  1.00  0.00     0.263 C 
HETATM   21  C13 UNL     1       5.614   1.972  -0.412  1.00  0.00     0.095 C 
HETATM   22  C14 UNL     1       5.841   1.781   1.081  1.00  0.00     0.154 C 
HETATM   23  C15 UNL     1       6.910   0.711   1.344  1.00  0.00     0.178 C 
HETATM   24  C16 UNL     1       6.644  -0.583   0.566  1.00  0.00     0.179 C 
HETATM   25  O6  UNL     1       6.367  -0.307  -0.822  1.00  0.00    -0.351 OA
BRANCH  22  26
HETATM   26  O3  UNL     1       6.266   3.034   1.632  1.00  0.00    -0.393 OA
HETATM   27  H22 UNL     1       7.245   3.028   1.586  1.00  0.00     0.210 HD
ENDBRANCH  22  26
BRANCH  23  28
HETATM   28  O4  UNL     1       8.179   1.266   0.920  1.00  0.00    -0.390 OA
HETATM   29  H24 UNL     1       8.268   1.083  -0.036  1.00  0.00     0.210 HD
ENDBRANCH  23  28
BRANCH  24  30
HETATM   30  C17 UNL     1       5.621  -1.539   1.205  1.00  0.00     0.198 C 
BRANCH  30  31
HETATM   31  O5  UNL     1       4.572  -0.863   1.888  1.00  0.00    -0.398 OA
HETATM   32  H28 UNL     1       3.931  -1.544   2.171  1.00  0.00     0.209 HD
ENDBRANCH  30  31
ENDBRANCH  24  30
ENDBRANCH  19  20
ENDBRANCH  11  19
BRANCH   9  33
HETATM   33  O1  UNL     1       2.059  -1.007   0.802  1.00  0.00    -0.389 OA
HETATM   34  H14 UNL     1       2.972  -0.672   0.650  1.00  0.00     0.210 HD
ENDBRANCH   9  33
BRANCH  14  35
HETATM   35  C21 UNL     1       0.443  -2.289  -0.832  1.00  0.00     0.244 C 
HETATM   36  O7  UNL     1      -0.474  -3.104  -0.894  1.00  0.00    -0.306 OA
ENDBRANCH  14  35
BRANCH  15  37
HETATM   37  O8  UNL     1      -3.860  -0.883   1.916  1.00  0.00    -0.389 OA
HETATM   38  H34 UNL     1      -3.229  -0.895   2.652  1.00  0.00     0.210 HD
ENDBRANCH  15  37
BRANCH  18  39
HETATM   39  C26 UNL     1      -6.560   0.083   0.659  1.00  0.00    -0.045 A 
HETATM   40  C27 UNL     1      -6.767   0.199   1.973  1.00  0.00     0.087 A 
HETATM   41  C28 UNL     1      -8.065  -0.398   2.267  1.00  0.00     0.283 A 
HETATM   42  O9  UNL     1      -8.558  -0.479   3.376  1.00  0.00    -0.260 OA
HETATM   43  O10 UNL     1      -8.630  -0.830   1.108  1.00  0.00    -0.314 OA
HETATM   44  C29 UNL     1      -7.733  -0.571   0.029  1.00  0.00     0.213 A 
ENDBRANCH  18  39
TORSDOF 10
