REMARK  12 active torsions:
REMARK  status: ('A' for Active; 'I' for Inactive)
REMARK    1  A    between atoms: O1_2  and  C2_3 
REMARK    2  A    between atoms: C2_3  and  C5_6 
REMARK    3  A    between atoms: C6_7  and  C7_8 
REMARK    4  A    between atoms: C7_8  and  C8_9 
REMARK    5  A    between atoms: C8_9  and  C10_11 
REMARK    6  A    between atoms: C28_30  and  O3_31 
REMARK    7  A    between atoms: O3_31  and  C29_32 
REMARK    8  A    between atoms: C30_34  and  C31_35 
REMARK    9  A    between atoms: C31_35  and  O5_36 
REMARK   10  A    between atoms: C32_37  and  O6_38 
REMARK   11  A    between atoms: C33_39  and  O7_40 
REMARK   12  A    between atoms: C34_41  and  O8_42 
ROOT
HETATM    1  C10 UNL     1      -3.487   0.474  -0.702  1.00  0.00    -0.002 C 
HETATM    2  C11 UNL     1      -3.434   2.014  -0.966  1.00  0.00     0.006 C 
HETATM    3  C12 UNL     1      -2.104   2.540  -0.390  1.00  0.00     0.011 C 
HETATM    4  C13 UNL     1      -1.267   1.273  -0.124  1.00  0.00    -0.029 C 
HETATM    5  C14 UNL     1      -0.654   0.886  -1.503  1.00  0.00     0.016 C 
HETATM    6  C15 UNL     1      -0.160   1.430   0.960  1.00  0.00     0.028 C 
HETATM    7  C16 UNL     1       0.941   2.407   0.610  1.00  0.00    -0.021 C 
HETATM    8  C17 UNL     1       2.227   2.149   0.899  1.00  0.00     0.008 C 
HETATM    9  C18 UNL     1       2.658   0.837   1.550  1.00  0.00     0.092 C 
HETATM   10  O2  UNL     1       2.213   0.933   2.918  1.00  0.00    -0.374 OA
HETATM   11  C19 UNL     1       0.899   0.330   2.986  1.00  0.00     0.179 C 
HETATM   12  C20 UNL     1       0.411   0.062   1.517  1.00  0.00    -0.004 C 
HETATM   13  C21 UNL     1      -0.590  -1.124   1.527  1.00  0.00     0.014 C 
HETATM   14  C22 UNL     1      -1.744  -1.104   0.511  1.00  0.00     0.011 C 
HETATM   15  C23 UNL     1      -2.386   0.286   0.391  1.00  0.00    -0.032 C 
HETATM   16  C24 UNL     1      -2.988   0.676   1.779  1.00  0.00     0.016 C 
HETATM   17  C25 UNL     1       1.812  -0.319   0.984  1.00  0.00     0.036 C 
HETATM   18  C26 UNL     1       2.117  -0.582  -0.483  1.00  0.00     0.011 C 
HETATM   19  C27 UNL     1       3.612  -0.868  -0.670  1.00  0.00     0.033 C 
HETATM   20  C28 UNL     1       4.510   0.234  -0.067  1.00  0.00     0.136 C 
HETATM   21  C35 UNL     1       4.187   0.521   1.436  1.00  0.00     0.014 C 
HETATM   22  C36 UNL     1       4.581  -0.684   2.333  1.00  0.00     0.021 C 
HETATM   23  C37 UNL     1       5.063   1.695   1.942  1.00  0.00     0.021 C 
ENDROOT
BRANCH  20  24
HETATM   24  O3  UNL     1       5.892  -0.126  -0.184  1.00  0.00    -0.352 OA
BRANCH  24  25
HETATM   25  C29 UNL     1       6.417   0.006  -1.506  1.00  0.00     0.292 C 
HETATM   26  O4  UNL     1       6.685  -1.290  -2.049  1.00  0.00    -0.348 OA
HETATM   27  C30 UNL     1       7.666  -2.064  -1.330  1.00  0.00     0.179 C 
HETATM   28  C32 UNL     1       8.751  -1.219  -0.638  1.00  0.00     0.180 C 
HETATM   29  C33 UNL     1       8.960   0.067  -1.435  1.00  0.00     0.183 C 
HETATM   30  C34 UNL     1       7.679   0.901  -1.454  1.00  0.00     0.204 C 
BRANCH  27  31
HETATM   31  C31 UNL     1       6.974  -3.022  -0.352  1.00  0.00     0.198 C 
BRANCH  31  32
HETATM   32  O5  UNL     1       6.023  -3.824  -1.057  1.00  0.00    -0.398 OA
HETATM   33  H48 UNL     1       5.541  -3.202  -1.639  1.00  0.00     0.209 HD
ENDBRANCH  31  32
ENDBRANCH  27  31
BRANCH  28  34
HETATM   34  O6  UNL     1      10.000  -1.924  -0.546  1.00  0.00    -0.390 OA
HETATM   35  H50 UNL     1      10.212  -2.291  -1.423  1.00  0.00     0.210 HD
ENDBRANCH  28  34
BRANCH  29  36
HETATM   36  O7  UNL     1      10.024   0.850  -0.868  1.00  0.00    -0.390 OA
HETATM   37  H52 UNL     1      10.714   0.208  -0.604  1.00  0.00     0.210 HD
ENDBRANCH  29  36
BRANCH  30  38
HETATM   38  O8  UNL     1       7.741   1.781  -2.594  1.00  0.00    -0.388 OA
HETATM   39  H54 UNL     1       8.565   2.293  -2.480  1.00  0.00     0.210 HD
ENDBRANCH  30  38
ENDBRANCH  24  25
ENDBRANCH  20  24
BRANCH   1  40
HETATM   40  C8  UNL     1      -4.950  -0.007  -0.439  1.00  0.00    -0.010 C 
HETATM   41  C9  UNL     1      -5.023  -1.505  -0.111  1.00  0.00     0.010 C 
BRANCH  40  42
HETATM   42  C7  UNL     1      -5.844   0.283  -1.681  1.00  0.00     0.031 C 
BRANCH  42  43
HETATM   43  C6  UNL     1      -7.341   0.149  -1.536  1.00  0.00    -0.027 C 
HETATM   44  C5  UNL     1      -8.050   0.210  -0.395  1.00  0.00     0.006 C 
BRANCH  44  45
HETATM   45  C2  UNL     1      -9.555   0.094  -0.228  1.00  0.00     0.070 C 
HETATM   46  C3  UNL     1     -10.340  -0.260  -1.503  1.00  0.00     0.050 C 
HETATM   47  C4  UNL     1     -10.069   1.445   0.293  1.00  0.00     0.050 C 
BRANCH  45  48
HETATM   48  O1  UNL     1      -9.821  -0.840   0.834  1.00  0.00    -0.382 OA
HETATM   49  C1  UNL     1      -9.592  -2.211   0.529  1.00  0.00     0.202 C 
ENDBRANCH  45  48
ENDBRANCH  44  45
ENDBRANCH  42  43
ENDBRANCH  40  42
ENDBRANCH   1  40
TORSDOF 12
