REMARK  4 active torsions:
REMARK  status: ('A' for Active; 'I' for Inactive)
REMARK    1  A    between atoms: C2_2  and  C4_4 
REMARK    2  A    between atoms: C13_13  and  C15_15 
REMARK    3  A    between atoms: C15_15  and  O1_16 
REMARK    4  A    between atoms: C18_19  and  O2_20 
ROOT
HETATM    1  C4  UNL     1       3.250   0.175   0.134  1.00  0.00     0.021 C 
HETATM    2  C5  UNL     1       2.960  -1.336   0.009  1.00  0.00     0.008 C 
HETATM    3  C6  UNL     1       1.466  -1.725  -0.024  1.00  0.00     0.009 C 
HETATM    4  C7  UNL     1       0.495  -0.570   0.302  1.00  0.00     0.034 C 
HETATM    5  C8  UNL     1      -1.044  -0.954   0.312  1.00  0.00    -0.033 C 
HETATM    6  C9  UNL     1      -1.372  -1.997  -0.784  1.00  0.00     0.016 C 
HETATM    7  C10 UNL     1      -1.363  -1.600   1.688  1.00  0.00     0.010 C 
HETATM    8  C11 UNL     1      -2.855  -1.726   1.972  1.00  0.00     0.002 C 
HETATM    9  C12 UNL     1      -3.530  -0.362   1.942  1.00  0.00     0.012 C 
HETATM   10  C13 UNL     1      -3.370   0.389   0.595  1.00  0.00    -0.018 C 
HETATM   11  C14 UNL     1      -4.329  -0.230  -0.446  1.00  0.00     0.018 C 
HETATM   12  C16 UNL     1      -1.852   0.387   0.159  1.00  0.00     0.007 C 
HETATM   13  C17 UNL     1      -1.590   1.056  -1.213  1.00  0.00     0.041 C 
HETATM   14  C18 UNL     1      -0.155   0.894  -1.733  1.00  0.00     0.156 C 
HETATM   15  C19 UNL     1       0.809   0.586  -0.628  1.00  0.00     0.118 A 
HETATM   16  O3  UNL     1       1.359   1.756   0.006  1.00  0.00    -0.366 OA
HETATM   17  C20 UNL     1       2.276   0.938  -0.734  1.00  0.00     0.165 A 
ENDROOT
BRANCH  10  18
HETATM   18  C15 UNL     1      -3.821   1.868   0.816  1.00  0.00     0.173 C 
BRANCH  18  19
HETATM   19  O1  UNL     1      -5.129   1.960   1.371  1.00  0.00    -0.400 OA
HETATM   20  H28 UNL     1      -5.766   1.764   0.663  1.00  0.00     0.209 HD
ENDBRANCH  18  19
ENDBRANCH  10  18
BRANCH  14  21
HETATM   21  O2  UNL     1       0.216   2.092  -2.421  1.00  0.00    -0.392 OA
HETATM   22  H33 UNL     1       0.473   2.727  -1.724  1.00  0.00     0.210 HD
ENDBRANCH  14  21
BRANCH   1  23
HETATM   23  C2  UNL     1       4.721   0.542  -0.202  1.00  0.00    -0.016 C 
HETATM   24  C1  UNL     1       5.728  -0.289   0.600  1.00  0.00     0.010 C 
HETATM   25  C3  UNL     1       4.992   2.031   0.056  1.00  0.00     0.010 C 
ENDBRANCH   1  23
TORSDOF 4
