REMARK  3 active torsions:
REMARK  status: ('A' for Active; 'I' for Inactive)
REMARK    1  A    between atoms: C2_2  and  C3_3 
REMARK    2  A    between atoms: C3_3  and  N1_4 
REMARK    3  A    between atoms: C10_13  and  N3_14 
ROOT
HETATM    1  N1  UNL     1      -1.383  -0.124   0.815  1.00  0.00     0.093 N 
HETATM    2  C4  UNL     1      -1.643   0.825   1.906  1.00  0.00     0.273 C 
HETATM    3  C5  UNL     1      -1.292   2.264   1.548  1.00  0.00     0.031 C 
HETATM    4  C6  UNL     1       0.185   2.417   1.203  1.00  0.00     0.009 C 
HETATM    5  C7  UNL     1       0.843   1.091   0.791  1.00  0.00     0.025 C 
HETATM    6  C8  UNL     1       2.082   1.368  -0.075  1.00  0.00     0.064 C 
HETATM    7  C9  UNL     1       2.670   0.133  -0.701  1.00  0.00     0.019 A 
HETATM    8  N2  UNL     1       3.931   0.244  -1.173  1.00  0.00    -0.336 N 
ATOM      9  H2  UNL     1       4.463   1.108  -1.070  1.00  0.00     0.168 HD
HETATM   10  C10 UNL     1       4.452  -0.826  -1.781  1.00  0.00     0.154 A 
HETATM   11  N4  UNL     1       3.833  -1.998  -1.927  1.00  0.00    -0.342 N 
ATOM     12  H4  UNL     1       4.286  -2.795  -2.375  1.00  0.00     0.167 HD
HETATM   13  C11 UNL     1       2.577  -2.071  -1.451  1.00  0.00     0.099 A 
HETATM   14  C12 UNL     1       1.926  -1.023  -0.834  1.00  0.00    -0.018 A 
HETATM   15  C13 UNL     1       0.541  -1.172  -0.287  1.00  0.00     0.078 C 
HETATM   16  C14 UNL     1      -0.150   0.173   0.045  1.00  0.00     0.231 C 
ENDROOT
BRANCH   1  17
HETATM   17  C3  UNL     1      -2.542  -0.307  -0.076  1.00  0.00     0.272 C 
BRANCH  17  18
HETATM   18  C2  UNL     1      -3.634  -1.172   0.567  1.00  0.00     0.026 C 
HETATM   19  C1  UNL     1      -4.781  -1.422  -0.402  1.00  0.00     0.007 C 
ENDBRANCH  17  18
ENDBRANCH   1  17
BRANCH  10  20
HETATM   20  N3  UNL     1       5.747  -0.726  -2.245  1.00  0.00    -0.274 NA
HETATM   21  H17 UNL     1       6.234  -0.012  -1.722  1.00  0.00     0.127 HD
HETATM   22  H18 UNL     1       6.162  -1.646  -2.275  1.00  0.00     0.127 HD
ENDBRANCH  10  20
TORSDOF 3
