REMARK  13 active torsions:
REMARK  status: ('A' for Active; 'I' for Inactive)
REMARK    1  A    between atoms: C2_2  and  C3_3 
REMARK    2  A    between atoms: C3_3  and  O1_5 
REMARK    3  A    between atoms: C3_3  and  C5_6 
REMARK    4  A    between atoms: C5_6  and  C6_7 
REMARK    5  A    between atoms: C6_7  and  C7_8 
REMARK    6  A    between atoms: C13_14  and  C15_16 
REMARK    7  A    between atoms: C15_16  and  O2_17 
REMARK    8  A    between atoms: O2_17  and  C16_18 
REMARK    9  A    between atoms: C17_20  and  C18_21 
REMARK   10  A    between atoms: C18_21  and  O4_22 
REMARK   11  A    between atoms: C19_23  and  O5_24 
REMARK   12  A    between atoms: C20_25  and  O6_26 
REMARK   13  A    between atoms: C21_27  and  O7_28 
ROOT
HETATM    1  C7  UNL     1      -2.713   0.289  -0.673  1.00  0.00     0.022 C 
HETATM    2  C8  UNL     1      -2.905  -0.525  -1.947  1.00  0.00    -0.084 C 
HETATM    3  C9  UNL     1      -3.869  -1.433  -2.174  1.00  0.00     0.014 C 
HETATM    4  C10 UNL     1      -1.828  -0.260  -2.974  1.00  0.00     0.034 C 
HETATM    5  C11 UNL     1      -0.418  -0.478  -2.404  1.00  0.00     0.010 C 
HETATM    6  C12 UNL     1      -0.447  -0.997  -0.950  1.00  0.00     0.005 C 
HETATM    7  C13 UNL     1       0.929  -1.524  -0.404  1.00  0.00    -0.018 C 
HETATM    8  C14 UNL     1       1.399  -2.729  -1.273  1.00  0.00     0.018 C 
HETATM    9  C22 UNL     1       0.713  -2.094   1.024  1.00  0.00     0.012 C 
HETATM   10  C23 UNL     1      -0.047  -1.166   1.961  1.00  0.00     0.002 C 
HETATM   11  C24 UNL     1      -1.393  -0.735   1.373  1.00  0.00     0.010 C 
HETATM   12  C25 UNL     1      -1.283  -0.033  -0.008  1.00  0.00    -0.032 C 
HETATM   13  C26 UNL     1      -0.625   1.354   0.212  1.00  0.00     0.016 C 
ENDROOT
BRANCH   7  14
HETATM   14  C15 UNL     1       2.070  -0.478  -0.444  1.00  0.00     0.180 C 
BRANCH  14  15
HETATM   15  O2  UNL     1       3.289  -1.076   0.019  1.00  0.00    -0.358 OA
BRANCH  15  16
HETATM   16  C16 UNL     1       4.454  -0.445  -0.520  1.00  0.00     0.291 C 
HETATM   17  O3  UNL     1       4.553   0.932  -0.141  1.00  0.00    -0.348 OA
HETATM   18  C17 UNL     1       5.211   1.123   1.122  1.00  0.00     0.179 C 
HETATM   19  C19 UNL     1       6.706   0.715   1.033  1.00  0.00     0.180 C 
HETATM   20  C20 UNL     1       6.926  -0.385  -0.025  1.00  0.00     0.183 C 
HETATM   21  C21 UNL     1       5.684  -1.280  -0.090  1.00  0.00     0.204 C 
BRANCH  18  22
HETATM   22  C18 UNL     1       5.008   2.576   1.559  1.00  0.00     0.198 C 
BRANCH  22  23
HETATM   23  O4  UNL     1       5.774   2.890   2.715  1.00  0.00    -0.398 OA
HETATM   24  H29 UNL     1       6.702   2.936   2.403  1.00  0.00     0.209 HD
ENDBRANCH  22  23
ENDBRANCH  18  22
BRANCH  19  25
HETATM   25  O5  UNL     1       7.552   1.839   0.731  1.00  0.00    -0.390 OA
HETATM   26  H31 UNL     1       7.962   1.651  -0.142  1.00  0.00     0.210 HD
ENDBRANCH  19  25
BRANCH  20  27
HETATM   27  O6  UNL     1       7.221   0.246  -1.291  1.00  0.00    -0.390 OA
HETATM   28  H33 UNL     1       6.437   0.756  -1.566  1.00  0.00     0.210 HD
ENDBRANCH  20  27
BRANCH  21  29
HETATM   29  O7  UNL     1       5.883  -2.393  -0.973  1.00  0.00    -0.388 OA
HETATM   30  H35 UNL     1       5.046  -2.891  -0.986  1.00  0.00     0.210 HD
ENDBRANCH  21  29
ENDBRANCH  15  16
ENDBRANCH  14  15
ENDBRANCH   7  14
BRANCH   1  31
HETATM   31  C6  UNL     1      -3.897   0.280   0.327  1.00  0.00     0.013 C 
BRANCH  31  32
HETATM   32  C5  UNL     1      -5.161   0.998  -0.190  1.00  0.00     0.042 C 
BRANCH  32  33
HETATM   33  C3  UNL     1      -6.435   0.717   0.645  1.00  0.00     0.071 C 
HETATM   34  C4  UNL     1      -6.207   0.909   2.153  1.00  0.00     0.050 C 
BRANCH  33  35
HETATM   35  C2  UNL     1      -7.575   1.540   0.088  1.00  0.00    -0.000 C 
HETATM   36  C1  UNL     1      -8.288   2.492   0.704  1.00  0.00     0.010 C 
ENDBRANCH  33  35
BRANCH  33  37
HETATM   37  O1  UNL     1      -6.831  -0.644   0.422  1.00  0.00    -0.386 OA
HETATM   38  H7  UNL     1      -6.261  -1.218   0.962  1.00  0.00     0.211 HD
ENDBRANCH  33  37
ENDBRANCH  32  33
ENDBRANCH  31  32
ENDBRANCH   1  31
TORSDOF 13
