REMARK  11 active torsions:
REMARK  status: ('A' for Active; 'I' for Inactive)
REMARK    1  A    between atoms: C2_2  and  C27_32 
REMARK    2  A    between atoms: C3_3  and  C4_4 
REMARK    3  A    between atoms: C4_4  and  C5_5 
REMARK    4  A    between atoms: C5_5  and  C6_6 
REMARK    5  A    between atoms: C6_6  and  C8_8 
REMARK    6  A    between atoms: C10_10  and  O1_11 
REMARK    7  A    between atoms: C11_12  and  O2_13 
REMARK    8  A    between atoms: C21_23  and  O3_24 
REMARK    9  A    between atoms: C24_27  and  O4_28 
REMARK   10  A    between atoms: C26_30  and  O5_31 
REMARK   11  A    between atoms: C27_32  and  O6_33 
ROOT
HETATM    1  C8  UNL     1       1.248   0.255  -1.023  1.00  0.00     0.003 C 
HETATM    2  C9  UNL     1       0.491   0.195  -2.353  1.00  0.00     0.041 C 
HETATM    3  C10 UNL     1      -0.921  -0.165  -1.917  1.00  0.00     0.156 C 
HETATM    4  C11 UNL     1      -0.700  -1.333  -0.929  1.00  0.00     0.122 C 
HETATM    5  C12 UNL     1       0.683  -0.979  -0.203  1.00  0.00    -0.003 C 
HETATM    6  C13 UNL     1       1.618  -2.200  -0.197  1.00  0.00     0.019 C 
HETATM    7  C14 UNL     1       0.454  -0.542   1.267  1.00  0.00     0.013 C 
HETATM    8  C15 UNL     1      -0.836   0.249   1.458  1.00  0.00     0.009 C 
HETATM    9  C16 UNL     1      -2.115  -0.565   1.158  1.00  0.00     0.032 C 
HETATM   10  C17 UNL     1      -3.437   0.327   1.125  1.00  0.00    -0.031 C 
HETATM   11  C18 UNL     1      -4.149   0.074   2.493  1.00  0.00     0.016 C 
HETATM   12  C19 UNL     1      -3.191   1.863   1.019  1.00  0.00     0.012 C 
HETATM   13  C20 UNL     1      -4.477   2.695   0.963  1.00  0.00     0.032 C 
HETATM   14  C21 UNL     1      -5.446   2.218  -0.115  1.00  0.00     0.118 C 
HETATM   15  C22 UNL     1      -5.687   0.709  -0.068  1.00  0.00     0.039 C 
HETATM   16  C23 UNL     1      -4.352  -0.052  -0.072  1.00  0.00     0.025 C 
HETATM   17  C24 UNL     1      -4.490  -1.568  -0.188  1.00  0.00     0.126 C 
HETATM   18  C25 UNL     1      -3.173  -2.118  -0.718  1.00  0.00     0.073 C 
HETATM   19  C26 UNL     1      -1.904  -1.646   0.036  1.00  0.00     0.099 C 
ENDROOT
BRANCH   1  20
HETATM   20  C6  UNL     1       2.761   0.578  -1.227  1.00  0.00    -0.013 C 
HETATM   21  C7  UNL     1       3.603  -0.465  -1.956  1.00  0.00     0.010 C 
BRANCH  20  22
HETATM   22  C5  UNL     1       3.449   1.222   0.007  1.00  0.00     0.008 C 
BRANCH  22  23
HETATM   23  C4  UNL     1       4.159   0.345   1.044  1.00  0.00     0.028 C 
BRANCH  23  24
HETATM   24  C3  UNL     1       5.491  -0.198   0.607  1.00  0.00    -0.022 C 
HETATM   25  C2  UNL     1       6.682   0.435   0.641  1.00  0.00    -0.064 C 
HETATM   26  C1  UNL     1       7.934  -0.268   0.181  1.00  0.00     0.045 C 
BRANCH  25  27
HETATM   27  C27 UNL     1       6.897   1.844   1.125  1.00  0.00     0.197 C 
BRANCH  27  28
HETATM   28  O6  UNL     1       7.347   2.641   0.040  1.00  0.00    -0.397 OA
HETATM   29  H46 UNL     1       6.676   2.558  -0.660  1.00  0.00     0.209 HD
ENDBRANCH  27  28
ENDBRANCH  25  27
ENDBRANCH  23  24
ENDBRANCH  22  23
ENDBRANCH  20  22
ENDBRANCH   1  20
BRANCH   3  30
HETATM   30  O1  UNL     1      -1.675  -0.535  -3.060  1.00  0.00    -0.392 OA
HETATM   31  H17 UNL     1      -1.374  -1.444  -3.272  1.00  0.00     0.210 HD
ENDBRANCH   3  30
BRANCH   4  32
HETATM   32  O2  UNL     1      -0.515  -2.510  -1.766  1.00  0.00    -0.383 OA
HETATM   33  H18 UNL     1      -0.689  -3.270  -1.170  1.00  0.00     0.210 HD
ENDBRANCH   4  32
BRANCH  19  34
HETATM   34  O5  UNL     1      -1.500  -2.895   0.699  1.00  0.00    -0.386 OA
HETATM   35  H43 UNL     1      -1.002  -2.699   1.508  1.00  0.00     0.210 HD
ENDBRANCH  19  34
BRANCH  17  36
HETATM   36  O4  UNL     1      -5.526  -1.901  -1.109  1.00  0.00    -0.395 OA
HETATM   37  H40 UNL     1      -5.529  -2.868  -1.214  1.00  0.00     0.210 HD
ENDBRANCH  17  36
BRANCH  14  38
HETATM   38  O3  UNL     1      -6.680   2.908   0.047  1.00  0.00    -0.396 OA
HETATM   39  H35 UNL     1      -7.275   2.604  -0.662  1.00  0.00     0.210 HD
ENDBRANCH  14  38
TORSDOF 11
