REMARK  11 active torsions:
REMARK  status: ('A' for Active; 'I' for Inactive)
REMARK    1  A    between atoms: C2_2  and  C4_4 
REMARK    2  A    between atoms: C4_4  and  C6_6 
REMARK    3  A    between atoms: C7_7  and  C8_8 
REMARK    4  A    between atoms: C8_8  and  C10_10 
REMARK    5  A    between atoms: C24_24  and  O1_25 
REMARK    6  A    between atoms: O1_25  and  C25_26 
REMARK    7  A    between atoms: C26_28  and  C27_29 
REMARK    8  A    between atoms: C27_29  and  O3_30 
REMARK    9  A    between atoms: C28_31  and  O4_32 
REMARK   10  A    between atoms: C29_33  and  O5_34 
REMARK   11  A    between atoms: C30_35  and  O6_36 
ROOT
HETATM    1  C10 UNL     1       3.644  -0.010   1.812  1.00  0.00     0.001 C 
HETATM    2  C11 UNL     1       3.902   1.504   1.590  1.00  0.00     0.006 C 
HETATM    3  C12 UNL     1       2.611   2.092   0.994  1.00  0.00     0.009 C 
HETATM    4  C13 UNL     1       1.610   0.946   1.079  1.00  0.00     0.036 C 
HETATM    5  C14 UNL     1       2.455  -0.326   0.851  1.00  0.00    -0.033 C 
HETATM    6  C15 UNL     1       2.915  -0.525  -0.606  1.00  0.00     0.016 C 
HETATM    7  C16 UNL     1       1.589  -1.522   1.291  1.00  0.00     0.010 C 
HETATM    8  C17 UNL     1       0.272  -1.590   0.500  1.00  0.00     0.010 C 
HETATM    9  C18 UNL     1      -0.541  -0.277   0.529  1.00  0.00     0.039 C 
HETATM   10  C19 UNL     1       0.304   1.026   0.279  1.00  0.00     0.123 C 
HETATM   11  C20 UNL     1       0.399   1.422  -1.175  1.00  0.00     0.014 C 
HETATM   12  C21 UNL     1      -0.795   1.599  -1.765  1.00  0.00     0.014 C 
HETATM   13  C22 UNL     1      -1.958   1.245  -0.865  1.00  0.00     0.124 C 
HETATM   14  C23 UNL     1      -3.331   1.513  -1.472  1.00  0.00     0.078 C 
HETATM   15  C24 UNL     1      -4.478   1.236  -0.477  1.00  0.00     0.128 C 
HETATM   16  C31 UNL     1      -4.075   0.346   0.715  1.00  0.00     0.033 C 
HETATM   17  C32 UNL     1      -3.089  -0.756   0.334  1.00  0.00     0.015 C 
HETATM   18  C33 UNL     1      -1.816  -0.250  -0.413  1.00  0.00     0.001 C 
HETATM   19  C34 UNL     1      -1.654  -1.189  -1.643  1.00  0.00     0.019 C 
HETATM   20  O7  UNL     1      -1.859   2.096   0.311  1.00  0.00    -0.223 OA
HETATM   21  O8  UNL     1      -0.470   2.112   0.857  1.00  0.00    -0.224 OA
ENDROOT
BRANCH  15  22
HETATM   22  O1  UNL     1      -5.541   0.664  -1.254  1.00  0.00    -0.353 OA
BRANCH  22  23
HETATM   23  C25 UNL     1      -6.806   0.632  -0.582  1.00  0.00     0.292 C 
HETATM   24  O2  UNL     1      -7.105  -0.701  -0.179  1.00  0.00    -0.348 OA
HETATM   25  C26 UNL     1      -8.371  -0.809   0.495  1.00  0.00     0.179 C 
HETATM   26  C28 UNL     1      -9.530  -0.329  -0.403  1.00  0.00     0.180 C 
HETATM   27  C29 UNL     1      -9.232   1.080  -0.939  1.00  0.00     0.183 C 
HETATM   28  C30 UNL     1      -7.853   1.115  -1.595  1.00  0.00     0.204 C 
BRANCH  25  29
HETATM   29  C27 UNL     1      -8.583  -2.275   0.917  1.00  0.00     0.198 C 
BRANCH  29  30
HETATM   30  O3  UNL     1      -7.627  -2.675   1.907  1.00  0.00    -0.398 OA
HETATM   31  H41 UNL     1      -7.732  -2.082   2.672  1.00  0.00     0.209 HD
ENDBRANCH  29  30
ENDBRANCH  25  29
BRANCH  26  32
HETATM   32  O4  UNL     1     -10.762  -0.350   0.331  1.00  0.00    -0.390 OA
HETATM   33  H43 UNL     1     -10.932   0.539   0.687  1.00  0.00     0.210 HD
ENDBRANCH  26  32
BRANCH  27  34
HETATM   34  O5  UNL     1     -10.236   1.482  -1.882  1.00  0.00    -0.390 OA
HETATM   35  H45 UNL     1      -9.838   2.224  -2.384  1.00  0.00     0.210 HD
ENDBRANCH  27  34
BRANCH  28  36
HETATM   36  O6  UNL     1      -7.579   2.457  -2.033  1.00  0.00    -0.388 OA
HETATM   37  H47 UNL     1      -6.659   2.429  -2.365  1.00  0.00     0.210 HD
ENDBRANCH  28  36
ENDBRANCH  22  23
ENDBRANCH  15  22
BRANCH   1  38
HETATM   38  C8  UNL     1       4.906  -0.920   1.784  1.00  0.00     0.008 C 
HETATM   39  C9  UNL     1       5.681  -0.782   3.102  1.00  0.00     0.014 C 
BRANCH  38  40
HETATM   40  C7  UNL     1       5.808  -0.755   0.576  1.00  0.00    -0.026 C 
HETATM   41  C6  UNL     1       6.871   0.057   0.468  1.00  0.00    -0.026 C 
BRANCH  41  42
HETATM   42  C4  UNL     1       7.748   0.263  -0.756  1.00  0.00     0.007 C 
HETATM   43  C5  UNL     1       7.164  -0.315  -2.053  1.00  0.00     0.014 C 
BRANCH  42  44
HETATM   44  C2  UNL     1       9.204  -0.193  -0.472  1.00  0.00    -0.015 C 
HETATM   45  C1  UNL     1       9.340  -1.705  -0.269  1.00  0.00     0.010 C 
HETATM   46  C3  UNL     1      10.175   0.269  -1.565  1.00  0.00     0.010 C 
ENDBRANCH  42  44
ENDBRANCH  41  42
ENDBRANCH  38  40
ENDBRANCH   1  38
TORSDOF 11
