REMARK  4 active torsions:
REMARK  status: ('A' for Active; 'I' for Inactive)
REMARK    1  A    between atoms: C4_4  and  C5_5 
REMARK    2  A    between atoms: C5_5  and  C6_6 
REMARK    3  A    between atoms: C6_6  and  C7_7 
REMARK    4  A    between atoms: C7_7  and  C9_9 
ROOT
HETATM    1  C9  UNL     1      -1.799  -0.607  -1.229  1.00  0.00    -0.002 C 
HETATM    2  C10 UNL     1      -1.432  -1.952  -1.916  1.00  0.00     0.006 C 
HETATM    3  C11 UNL     1       0.116  -2.006  -2.011  1.00  0.00     0.011 C 
HETATM    4  C12 UNL     1       0.609  -0.859  -1.106  1.00  0.00    -0.032 C 
HETATM    5  C13 UNL     1       0.593  -1.426   0.351  1.00  0.00     0.016 C 
HETATM    6  C14 UNL     1       2.029  -0.261  -1.397  1.00  0.00     0.004 C 
HETATM    7  C15 UNL     1       3.149  -1.316  -1.389  1.00  0.00     0.007 C 
HETATM    8  C16 UNL     1       4.218  -1.254  -0.295  1.00  0.00     0.007 C 
HETATM    9  C17 UNL     1       3.834  -0.514   0.996  1.00  0.00     0.010 C 
HETATM   10  C18 UNL     1       5.035  -0.413   2.002  1.00  0.00     0.018 C 
HETATM   11  C19 UNL     1       5.460  -1.815   2.485  1.00  0.00     0.023 C 
HETATM   12  C20 UNL     1       6.281   0.279   1.419  1.00  0.00     0.023 C 
HETATM   13  C21 UNL     1       4.567   0.403   3.216  1.00  0.00     0.135 C 
HETATM   14  O1  UNL     1       4.663   0.003   4.372  1.00  0.00    -0.297 OA
HETATM   15  C22 UNL     1       3.983   1.761   2.923  1.00  0.00     0.080 C 
HETATM   16  C23 UNL     1       2.796   1.592   1.991  1.00  0.00     0.018 C 
HETATM   17  C24 UNL     1       3.184   0.854   0.718  1.00  0.00    -0.026 A 
HETATM   18  C25 UNL     1       3.622   1.648  -0.490  1.00  0.00     0.021 A 
HETATM   19  C26 UNL     1       2.257   0.986  -0.507  1.00  0.00    -0.027 A 
HETATM   20  C27 UNL     1       1.099   2.004  -0.559  1.00  0.00     0.011 C 
HETATM   21  C28 UNL     1      -0.304   1.391  -0.419  1.00  0.00     0.011 C 
HETATM   22  C29 UNL     1      -0.495   0.229  -1.404  1.00  0.00    -0.032 C 
HETATM   23  C30 UNL     1      -0.448   0.809  -2.851  1.00  0.00     0.016 C 
ENDROOT
BRANCH   1  24
HETATM   24  C7  UNL     1      -3.155   0.049  -1.633  1.00  0.00    -0.014 C 
HETATM   25  C8  UNL     1      -3.607  -0.213  -3.074  1.00  0.00     0.010 C 
BRANCH  24  26
HETATM   26  C6  UNL     1      -4.263  -0.401  -0.643  1.00  0.00     0.008 C 
BRANCH  26  27
HETATM   27  C5  UNL     1      -5.602   0.319  -0.843  1.00  0.00     0.028 C 
BRANCH  27  28
HETATM   28  C4  UNL     1      -6.583  -0.035   0.241  1.00  0.00    -0.025 C 
HETATM   29  C2  UNL     1      -6.883   0.688   1.339  1.00  0.00    -0.091 C 
HETATM   30  C1  UNL     1      -6.246   2.001   1.725  1.00  0.00     0.042 C 
HETATM   31  C3  UNL     1      -7.925   0.201   2.311  1.00  0.00     0.042 C 
ENDBRANCH  27  28
ENDBRANCH  26  27
ENDBRANCH  24  26
ENDBRANCH   1  24
TORSDOF 4
