REMARK  10 active torsions:
REMARK  status: ('A' for Active; 'I' for Inactive)
REMARK    1  A    between atoms: C2_2  and  N1_3 
REMARK    2  A    between atoms: N1_3  and  C3_4 
REMARK    3  A    between atoms: C3_4  and  C4_5 
REMARK    4  A    between atoms: C4_5  and  C5_6 
REMARK    5  A    between atoms: C8_9  and  C9_10 
REMARK    6  A    between atoms: C13_14  and  C14_15 
REMARK    7  A    between atoms: C14_15  and  O1_16 
REMARK    8  A    between atoms: C23_27  and  O4_28 
REMARK    9  A    between atoms: C28_33  and  C29_34 
REMARK   10  A    between atoms: C29_34  and  O5_35 
ROOT
HETATM    1  C5  UNL     1      -2.283   2.001   0.094  1.00  0.00    -0.012 C 
HETATM    2  C6  UNL     1      -1.273   1.113  -0.074  1.00  0.00     0.015 C 
HETATM    3  C7  UNL     1      -1.256  -0.143   0.790  1.00  0.00     0.066 C 
HETATM    4  C8  UNL     1      -2.375  -1.172   0.466  1.00  0.00     0.102 C 
HETATM    5  C16 UNL     1      -1.974  -2.078  -0.632  1.00  0.00    -0.096 C 
HETATM    6  C17 UNL     1      -1.585  -2.797  -1.514  1.00  0.00    -0.096 C 
HETATM    7  C18 UNL     1      -0.960  -3.582  -2.603  1.00  0.00     0.110 C 
HETATM    8  C19 UNL     1      -0.682  -4.995  -2.112  1.00  0.00     0.133 C 
HETATM    9  C20 UNL     1       0.049  -5.788  -3.158  1.00  0.00     0.265 C 
HETATM   10  O2  UNL     1      -0.222  -6.955  -3.414  1.00  0.00    -0.265 OA
HETATM   11  O3  UNL     1       1.133  -5.151  -3.747  1.00  0.00    -0.278 OA
HETATM   12  C21 UNL     1       1.344  -3.774  -3.562  1.00  0.00     0.089 A 
HETATM   13  C22 UNL     1       2.578  -3.256  -3.952  1.00  0.00     0.075 A 
HETATM   14  C23 UNL     1       2.825  -1.893  -3.783  1.00  0.00     0.074 A 
HETATM   15  C24 UNL     1       1.845  -1.044  -3.260  1.00  0.00    -0.022 A 
HETATM   16  C25 UNL     1       0.590  -1.587  -2.957  1.00  0.00     0.021 A 
HETATM   17  C26 UNL     1       0.342  -2.962  -3.044  1.00  0.00    -0.007 A 
HETATM   18  C27 UNL     1       2.086   0.421  -2.985  1.00  0.00     0.077 C 
HETATM   19  C28 UNL     1       2.148   0.852  -1.487  1.00  0.00     0.171 C 
HETATM   20  O7  UNL     1       0.904   0.569  -0.789  1.00  0.00    -0.309 OA
HETATM   21  C39 UNL     1      -0.127   1.427  -0.990  1.00  0.00     0.289 C 
HETATM   22  O8  UNL     1      -0.089   2.368  -1.769  1.00  0.00    -0.260 OA
ENDROOT
BRANCH  19  23
HETATM   23  C29 UNL     1       3.362   0.301  -0.645  1.00  0.00     0.089 C 
HETATM   24  C30 UNL     1       3.104  -1.121  -0.093  1.00  0.00     0.041 C 
HETATM   25  C31 UNL     1       4.271  -1.663   0.736  1.00  0.00     0.004 C 
HETATM   26  C32 UNL     1       4.653  -0.720   1.870  1.00  0.00     0.005 C 
HETATM   27  C33 UNL     1       4.943   0.696   1.349  1.00  0.00    -0.001 C 
HETATM   28  C34 UNL     1       5.367   1.625   2.489  1.00  0.00     0.083 C 
HETATM   29  C38 UNL     1       3.747   1.269   0.535  1.00  0.00     0.027 C 
HETATM   30  C35 UNL     1       4.187   2.024   3.339  1.00  0.00     0.127 C 
HETATM   31  O6  UNL     1       4.233   1.993   4.567  1.00  0.00    -0.298 OA
HETATM   32  C36 UNL     1       2.995   2.578   2.603  1.00  0.00     0.079 C 
HETATM   33  C37 UNL     1       2.576   1.658   1.463  1.00  0.00     0.015 C 
BRANCH  23  34
HETATM   34  O5  UNL     1       4.534   0.225  -1.477  1.00  0.00    -0.387 OA
HETATM   35  H31 UNL     1       4.642   1.068  -1.950  1.00  0.00     0.210 HD
ENDBRANCH  23  34
ENDBRANCH  19  23
BRANCH  14  36
HETATM   36  O4  UNL     1       4.036  -1.369  -4.136  1.00  0.00    -0.360 OA
HETATM   37  H26 UNL     1       4.650  -2.100  -4.318  1.00  0.00     0.217 HD
ENDBRANCH  14  36
BRANCH   1  38
HETATM   38  C4  UNL     1      -2.510   3.323  -0.601  1.00  0.00     0.058 C 
BRANCH  38  39
HETATM   39  C3  UNL     1      -3.959   3.818  -0.417  1.00  0.00     0.273 C 
BRANCH  39  40
HETATM   40  N1  UNL     1      -4.282   5.035  -1.168  1.00  0.00     0.083 N 
HETATM   41  H6  UNL     1      -5.291   5.176  -1.134  1.00  0.00     0.315 HD
BRANCH  40  42
HETATM   42  C2  UNL     1      -3.619   6.224  -0.629  1.00  0.00     0.265 C 
HETATM   43  C1  UNL     1      -4.088   7.463  -1.379  1.00  0.00     0.037 C 
ENDBRANCH  40  42
ENDBRANCH  39  40
ENDBRANCH  38  39
ENDBRANCH   1  38
BRANCH   4  44
HETATM   44  C9  UNL     1      -2.756  -1.986   1.697  1.00  0.00    -0.042 A 
HETATM   45  C10 UNL     1      -1.804  -2.723   2.420  1.00  0.00     0.008 A 
HETATM   46  C11 UNL     1      -2.178  -3.455   3.547  1.00  0.00     0.001 A 
HETATM   47  C12 UNL     1      -3.510  -3.474   3.961  1.00  0.00     0.009 A 
HETATM   48  C13 UNL     1      -4.484  -2.761   3.252  1.00  0.00    -0.034 A 
HETATM   49  C15 UNL     1      -4.095  -2.022   2.123  1.00  0.00     0.017 A 
BRANCH  48  50
HETATM   50  C14 UNL     1      -5.928  -2.796   3.669  1.00  0.00     0.202 C 
BRANCH  50  51
HETATM   51  O1  UNL     1      -6.365  -1.476   3.962  1.00  0.00    -0.396 OA
HETATM   52  H20 UNL     1      -7.323  -1.529   4.124  1.00  0.00     0.209 HD
ENDBRANCH  50  51
ENDBRANCH  48  50
ENDBRANCH   4  44
TORSDOF 10
