REMARK  4 active torsions:
REMARK  status: ('A' for Active; 'I' for Inactive)
REMARK    1  A    between atoms: C4_4  and  C5_5 
REMARK    2  A    between atoms: C5_5  and  C6_6 
REMARK    3  A    between atoms: C6_6  and  C7_7 
REMARK    4  A    between atoms: C7_7  and  C9_9 
ROOT
HETATM    1  C9  UNL     1       2.089  -1.227   0.004  1.00  0.00    -0.002 C 
HETATM    2  C10 UNL     1       2.381  -0.788  -1.468  1.00  0.00     0.007 C 
HETATM    3  C11 UNL     1       1.039  -0.384  -2.109  1.00  0.00     0.015 C 
HETATM    4  C12 UNL     1      -0.026  -0.947  -1.149  1.00  0.00    -0.013 C 
HETATM    5  C13 UNL     1      -0.172  -2.456  -1.523  1.00  0.00     0.021 C 
HETATM    6  C14 UNL     1      -1.430  -0.345  -1.122  1.00  0.00    -0.070 C 
HETATM    7  C15 UNL     1      -1.827   0.666  -1.915  1.00  0.00    -0.022 C 
HETATM    8  C16 UNL     1      -3.136   1.387  -1.773  1.00  0.00     0.034 C 
HETATM    9  C17 UNL     1      -3.822   1.120  -0.415  1.00  0.00     0.013 C 
HETATM   10  C18 UNL     1      -5.199   1.858  -0.190  1.00  0.00     0.018 C 
HETATM   11  C19 UNL     1      -5.654   2.690  -1.408  1.00  0.00     0.023 C 
HETATM   12  C20 UNL     1      -5.067   2.836   1.000  1.00  0.00     0.023 C 
HETATM   13  C21 UNL     1      -6.339   0.896   0.183  1.00  0.00     0.135 C 
HETATM   14  O1  UNL     1      -7.495   1.069  -0.215  1.00  0.00    -0.297 OA
HETATM   15  C22 UNL     1      -6.060  -0.243   1.137  1.00  0.00     0.080 C 
HETATM   16  C23 UNL     1      -4.594  -0.638   1.204  1.00  0.00     0.017 C 
HETATM   17  C24 UNL     1      -3.833  -0.414  -0.119  1.00  0.00    -0.031 C 
HETATM   18  C25 UNL     1      -4.538  -1.215  -1.256  1.00  0.00     0.016 C 
HETATM   19  C26 UNL     1      -2.343  -0.943  -0.038  1.00  0.00     0.024 C 
HETATM   20  C27 UNL     1      -1.657  -0.822   1.344  1.00  0.00     0.010 C 
HETATM   21  C28 UNL     1      -0.188  -1.310   1.359  1.00  0.00     0.011 C 
HETATM   22  C29 UNL     1       0.658  -0.653   0.246  1.00  0.00    -0.029 C 
HETATM   23  C30 UNL     1       0.765   0.873   0.565  1.00  0.00     0.016 C 
ENDROOT
BRANCH   1  24
HETATM   24  C7  UNL     1       3.267  -0.852   0.957  1.00  0.00    -0.014 C 
HETATM   25  C8  UNL     1       2.970  -1.205   2.417  1.00  0.00     0.010 C 
BRANCH  24  26
HETATM   26  C6  UNL     1       4.569  -1.564   0.487  1.00  0.00     0.008 C 
BRANCH  26  27
HETATM   27  C5  UNL     1       5.854  -1.227   1.256  1.00  0.00     0.028 C 
BRANCH  27  28
HETATM   28  C4  UNL     1       6.180   0.241   1.265  1.00  0.00    -0.025 C 
HETATM   29  C2  UNL     1       7.034   0.895   0.454  1.00  0.00    -0.091 C 
HETATM   30  C1  UNL     1       7.281   2.371   0.627  1.00  0.00     0.042 C 
HETATM   31  C3  UNL     1       7.800   0.266  -0.677  1.00  0.00     0.042 C 
ENDBRANCH  27  28
ENDBRANCH  26  27
ENDBRANCH  24  26
ENDBRANCH   1  24
TORSDOF 4
