REMARK  15 active torsions:
REMARK  status: ('A' for Active; 'I' for Inactive)
REMARK    1  A    between atoms: C19_20  and  O2_21 
REMARK    2  A    between atoms: C19_20  and  C20_22 
REMARK    3  A    between atoms: C20_22  and  C21_24 
REMARK    4  A    between atoms: C21_24  and  O4_25 
REMARK    5  A    between atoms: O4_25  and  C22_26 
REMARK    6  A    between atoms: C22_26  and  C23_28 
REMARK    7  A    between atoms: C23_28  and  C24_29 
REMARK    8  A    between atoms: C24_29  and  C25_30 
REMARK       I    between atoms: C25_30  and  N1_32 
REMARK    9  A    between atoms: N1_32  and  C26_33 
REMARK   10  A    between atoms: C26_33  and  C27_34 
REMARK       I    between atoms: C27_34  and  N2_36 
REMARK   11  A    between atoms: N2_36  and  C28_37 
REMARK   12  A    between atoms: C28_37  and  C29_38 
REMARK   13  A    between atoms: C28_37  and  C38_48 
REMARK   14  A    between atoms: C29_38  and  C30_39 
REMARK   15  A    between atoms: C38_48  and  O9_50 
ROOT
HETATM    1  C22 UNL     1       1.045  -0.618  -0.291  1.00  0.00     0.259 C 
HETATM    2  O5  UNL     1       0.968  -1.696  -0.870  1.00  0.00    -0.265 OA
ENDROOT
BRANCH   1   3
HETATM    3  O4  UNL     1       0.108   0.369  -0.333  1.00  0.00    -0.314 OA
BRANCH   3   4
HETATM    4  C21 UNL     1      -1.122   0.044  -0.990  1.00  0.00     0.260 C 
BRANCH   4   5
HETATM    5  C20 UNL     1      -2.214  -0.236   0.046  1.00  0.00     0.185 C 
HETATM    6  O3  UNL     1      -1.954  -0.349   1.249  1.00  0.00    -0.292 OA
BRANCH   5   7
HETATM    7  C19 UNL     1      -3.668  -0.341  -0.489  1.00  0.00     0.128 C 
HETATM    8  C14 UNL     1      -4.482   1.005  -0.431  1.00  0.00    -0.002 C 
HETATM    9  C13 UNL     1      -5.401   1.224  -1.669  1.00  0.00     0.013 C 
HETATM   10  C15 UNL     1      -3.577   2.259  -0.365  1.00  0.00     0.019 C 
HETATM   11  C16 UNL     1      -5.315   0.928   0.896  1.00  0.00     0.002 C 
HETATM   12  C12 UNL     1      -6.669   0.373  -1.718  1.00  0.00     0.007 C 
HETATM   13  C11 UNL     1      -7.446   0.312  -0.385  1.00  0.00     0.002 C 
HETATM   14  C2  UNL     1      -8.996   0.529  -0.502  1.00  0.00    -0.016 C 
HETATM   15  C10 UNL     1      -6.813   1.253   0.671  1.00  0.00    -0.004 C 
HETATM   16  C1  UNL     1      -9.329   1.990  -0.893  1.00  0.00     0.020 C 
HETATM   17  C3  UNL     1      -9.610  -0.442  -1.548  1.00  0.00     0.022 C 
HETATM   18  C7  UNL     1      -9.627   0.212   0.859  1.00  0.00    -0.068 C 
HETATM   19  C4  UNL     1     -11.137  -0.411  -1.579  1.00  0.00     0.084 C 
HETATM   20  C5  UNL     1     -11.738  -0.526  -0.200  1.00  0.00     0.149 C 
HETATM   21  O1  UNL     1     -12.913  -0.839  -0.029  1.00  0.00    -0.293 OA
HETATM   22  C6  UNL     1     -10.885  -0.249   0.981  1.00  0.00     0.053 C 
HETATM   23  C8  UNL     1      -8.758   0.319   2.091  1.00  0.00     0.035 C 
HETATM   24  C9  UNL     1      -7.629   1.339   1.978  1.00  0.00     0.010 C 
HETATM   25  C17 UNL     1      -5.053  -0.462   1.496  1.00  0.00     0.009 C 
HETATM   26  C18 UNL     1      -4.487  -1.311   0.371  1.00  0.00     0.047 C 
BRANCH   7  27
HETATM   27  O2  UNL     1      -3.608  -0.864  -1.816  1.00  0.00    -0.381 OA
HETATM   28  H27 UNL     1      -3.492  -1.833  -1.764  1.00  0.00     0.211 HD
ENDBRANCH   7  27
ENDBRANCH   5   7
ENDBRANCH   4   5
ENDBRANCH   3   4
ENDBRANCH   1   3
BRANCH   1  29
HETATM   29  C23 UNL     1       2.207  -0.170   0.555  1.00  0.00     0.120 C 
BRANCH  29  30
HETATM   30  C24 UNL     1       3.248  -1.276   0.680  1.00  0.00     0.112 C 
BRANCH  30  31
HETATM   31  C25 UNL     1       4.410  -0.845   1.546  1.00  0.00     0.218 C 
HETATM   32  O6  UNL     1       4.614   0.311   1.895  1.00  0.00    -0.274 OA
HETATM   33  N1  UNL     1       5.254  -1.877   1.876  1.00  0.00    -0.352 N 
HETATM   34  H34 UNL     1       5.145  -2.781   1.426  1.00  0.00     0.162 HD
BRANCH  33  35
HETATM   35  C26 UNL     1       6.421  -1.681   2.724  1.00  0.00     0.225 C 
BRANCH  35  36
HETATM   36  C27 UNL     1       7.682  -1.290   1.945  1.00  0.00     0.236 C 
HETATM   37  O7  UNL     1       8.786  -1.745   2.236  1.00  0.00    -0.272 OA
HETATM   38  N2  UNL     1       7.502  -0.325   0.983  1.00  0.00    -0.345 N 
HETATM   39  H37 UNL     1       6.653   0.240   1.049  1.00  0.00     0.163 HD
BRANCH  38  40
HETATM   40  C28 UNL     1       8.638   0.302   0.284  1.00  0.00     0.186 C 
BRANCH  40  41
HETATM   41  C29 UNL     1       9.221  -0.636  -0.785  1.00  0.00     0.077 C 
BRANCH  41  42
HETATM   42  C30 UNL     1      10.649  -0.335  -1.127  1.00  0.00    -0.028 A 
HETATM   43  C31 UNL     1      11.102   0.336  -2.245  1.00  0.00     0.096 A 
HETATM   44  N3  UNL     1      12.466   0.427  -2.174  1.00  0.00    -0.365 N 
HETATM   45  C32 UNL     1      12.923  -0.186  -1.032  1.00  0.00     0.042 A 
HETATM   46  H42 UNL     1      13.054   0.889  -2.853  1.00  0.00     0.165 HD
HETATM   47  C33 UNL     1      14.228  -0.326  -0.543  1.00  0.00     0.030 A 
HETATM   48  C37 UNL     1      11.806  -0.685  -0.358  1.00  0.00    -0.002 A 
HETATM   49  C34 UNL     1      14.397  -1.007   0.665  1.00  0.00     0.002 A 
HETATM   50  C35 UNL     1      13.304  -1.525   1.357  1.00  0.00     0.001 A 
HETATM   51  C36 UNL     1      12.006  -1.369   0.858  1.00  0.00     0.014 A 
ENDBRANCH  41  42
ENDBRANCH  40  41
BRANCH  40  52
HETATM   52  C38 UNL     1       8.175   1.619  -0.359  1.00  0.00     0.163 C 
HETATM   53  O8  UNL     1       8.824   2.379  -1.057  1.00  0.00    -0.648 OA
BRANCH  52  54
HETATM   54  O9  UNL     1       6.893   1.934  -0.056  1.00  0.00    -0.775 OA
HETATM   55  H47 UNL     1       6.763   2.820  -0.463  1.00  0.00     0.167 HD
ENDBRANCH  52  54
ENDBRANCH  40  52
ENDBRANCH  38  40
ENDBRANCH  35  36
ENDBRANCH  33  35
ENDBRANCH  30  31
ENDBRANCH  29  30
ENDBRANCH   1  29
TORSDOF 15
