REMARK  9 active torsions:
REMARK  status: ('A' for Active; 'I' for Inactive)
REMARK    1  A    between atoms: C2_2  and  C3_3 
REMARK    2  A    between atoms: C2_2  and  C9_11 
REMARK    3  A    between atoms: C3_3  and  C4_4 
REMARK    4  A    between atoms: C4_4  and  C5_5 
REMARK    5  A    between atoms: C5_5  and  O1_6 
REMARK    6  A    between atoms: C5_5  and  C6_7 
REMARK    7  A    between atoms: C6_7  and  O2_10 
REMARK    8  A    between atoms: C12_14  and  C13_15 
REMARK    9  A    between atoms: C13_15  and  O4_17 
ROOT
HETATM    1  C9  UNL     1       1.686   0.988   0.107  1.00  0.00    -0.001 C 
HETATM    2  C10 UNL     1       1.506   1.596   1.519  1.00  0.00     0.007 C 
HETATM    3  C11 UNL     1      -0.005   1.788   1.723  1.00  0.00     0.022 C 
HETATM    4  C12 UNL     1      -0.634   0.637   0.909  1.00  0.00     0.057 C 
HETATM    5  C14 UNL     1      -2.127   0.842   0.556  1.00  0.00     0.014 C 
HETATM    6  C15 UNL     1      -3.067   0.702   1.765  1.00  0.00     0.007 C 
HETATM    7  C16 UNL     1      -4.517   0.954   1.359  1.00  0.00     0.007 C 
HETATM    8  C17 UNL     1      -5.012  -0.176   0.444  1.00  0.00     0.010 C 
HETATM    9  C18 UNL     1      -6.498  -0.035  -0.020  1.00  0.00     0.018 C 
HETATM   10  C19 UNL     1      -6.802   1.302  -0.717  1.00  0.00     0.023 C 
HETATM   11  C20 UNL     1      -7.450  -0.201   1.178  1.00  0.00     0.023 C 
HETATM   12  C21 UNL     1      -6.827  -1.160  -1.014  1.00  0.00     0.135 C 
HETATM   13  O5  UNL     1      -7.892  -1.196  -1.633  1.00  0.00    -0.297 OA
HETATM   14  C22 UNL     1      -5.822  -2.275  -1.153  1.00  0.00     0.080 C 
HETATM   15  C23 UNL     1      -4.455  -1.715  -1.519  1.00  0.00     0.018 C 
HETATM   16  C24 UNL     1      -4.082  -0.447  -0.746  1.00  0.00    -0.026 A 
HETATM   17  C25 UNL     1      -3.570   0.702  -1.578  1.00  0.00     0.021 A 
HETATM   18  C26 UNL     1      -2.589  -0.007  -0.661  1.00  0.00    -0.027 A 
HETATM   19  C27 UNL     1      -1.545  -0.904  -1.357  1.00  0.00     0.011 C 
HETATM   20  C28 UNL     1      -0.055  -0.519  -1.270  1.00  0.00     0.012 C 
HETATM   21  C29 UNL     1       0.226   0.703  -0.397  1.00  0.00    -0.022 C 
HETATM   22  C30 UNL     1      -0.120   1.941  -1.310  1.00  0.00     0.017 C 
ENDROOT
BRANCH   1  23
HETATM   23  C2  UNL     1       2.792  -0.101  -0.026  1.00  0.00    -0.014 C 
HETATM   24  C1  UNL     1       2.651  -1.309   0.903  1.00  0.00     0.010 C 
BRANCH  23  25
HETATM   25  C3  UNL     1       4.187   0.556   0.171  1.00  0.00     0.007 C 
BRANCH  25  26
HETATM   26  C4  UNL     1       5.360  -0.348  -0.242  1.00  0.00     0.035 C 
BRANCH  26  27
HETATM   27  C5  UNL     1       6.701   0.399  -0.189  1.00  0.00     0.151 C 
BRANCH  27  28
HETATM   28  O1  UNL     1       6.966   0.754   1.178  1.00  0.00    -0.393 OA
HETATM   29  H10 UNL     1       7.635   1.462   1.138  1.00  0.00     0.210 HD
ENDBRANCH  27  28
BRANCH  27  30
HETATM   30  C6  UNL     1       7.913  -0.399  -0.742  1.00  0.00     0.076 C 
HETATM   31  C7  UNL     1       7.831  -0.566  -2.261  1.00  0.00     0.048 C 
HETATM   32  C8  UNL     1       8.095  -1.767  -0.075  1.00  0.00     0.048 C 
BRANCH  30  33
HETATM   33  O2  UNL     1       9.096   0.382  -0.477  1.00  0.00    -0.388 OA
HETATM   34  H17 UNL     1       9.328   0.231   0.458  1.00  0.00     0.210 HD
ENDBRANCH  30  33
ENDBRANCH  27  30
ENDBRANCH  26  27
ENDBRANCH  25  26
ENDBRANCH  23  25
ENDBRANCH   1  23
BRANCH   4  35
HETATM   35  C13 UNL     1      -0.511  -0.691   1.699  1.00  0.00     0.149 C 
HETATM   36  O3  UNL     1      -0.774  -1.816   1.304  1.00  0.00    -0.649 OA
BRANCH  35  37
HETATM   37  O4  UNL     1      -0.123  -0.556   2.981  1.00  0.00    -0.776 OA
HETATM   38  H23 UNL     1      -0.118  -1.477   3.318  1.00  0.00     0.167 HD
ENDBRANCH  35  37
ENDBRANCH   4  35
TORSDOF 9
