REMARK  9 active torsions:
REMARK  status: ('A' for Active; 'I' for Inactive)
REMARK    1  A    between atoms: C4_4  and  C5_5 
REMARK    2  A    between atoms: C5_5  and  C6_6 
REMARK    3  A    between atoms: C6_6  and  C7_7 
REMARK    4  A    between atoms: C7_7  and  C9_9 
REMARK    5  A    between atoms: C16_16  and  O1_17 
REMARK    6  A    between atoms: C25_27  and  C27_29 
REMARK    7  A    between atoms: C27_29  and  O4_31 
REMARK    8  A    between atoms: C28_32  and  O5_33 
REMARK    9  A    between atoms: C30_35  and  O6_36 
ROOT
HETATM    1  C9  UNL     1       2.558  -0.214  -1.150  1.00  0.00    -0.002 C 
HETATM    2  C10 UNL     1       2.805  -1.321  -0.101  1.00  0.00     0.007 C 
HETATM    3  C11 UNL     1       1.420  -1.700   0.474  1.00  0.00     0.015 C 
HETATM    4  C12 UNL     1       0.391  -1.077  -0.497  1.00  0.00    -0.005 C 
HETATM    5  C13 UNL     1       0.230  -2.068  -1.691  1.00  0.00     0.021 C 
HETATM    6  C14 UNL     1      -1.036  -0.784  -0.054  1.00  0.00     0.003 C 
HETATM    7  C15 UNL     1      -1.773   0.224  -0.604  1.00  0.00    -0.030 C 
HETATM    8  C16 UNL     1      -1.104   1.200  -1.606  1.00  0.00     0.149 C 
HETATM    9  C17 UNL     1       0.379   0.954  -1.964  1.00  0.00     0.047 C 
HETATM   10  C18 UNL     1       1.126   0.283  -0.814  1.00  0.00    -0.026 C 
HETATM   11  C19 UNL     1       1.132   1.249   0.409  1.00  0.00     0.016 C 
HETATM   12  C20 UNL     1      -3.261   0.534  -0.164  1.00  0.00     0.014 C 
HETATM   13  C21 UNL     1      -3.171   1.858   0.631  1.00  0.00     0.023 C 
HETATM   14  C22 UNL     1      -3.824  -0.645   0.704  1.00  0.00     0.029 C 
HETATM   15  C23 UNL     1      -2.817  -1.107   1.755  1.00  0.00     0.090 C 
HETATM   16  C24 UNL     1      -1.610  -1.637   1.033  1.00  0.00     0.157 C 
HETATM   17  O2  UNL     1      -1.105  -2.710   1.348  1.00  0.00    -0.293 OA
HETATM   18  C25 UNL     1      -5.310  -0.504   1.215  1.00  0.00     0.072 C 
HETATM   19  C26 UNL     1      -5.891  -1.950   1.293  1.00  0.00     0.030 C 
HETATM   20  C28 UNL     1      -6.187   0.304   0.218  1.00  0.00     0.139 C 
HETATM   21  C29 UNL     1      -5.679   0.185  -1.215  1.00  0.00     0.065 C 
HETATM   22  C30 UNL     1      -4.215   0.630  -1.417  1.00  0.00     0.133 C 
ENDROOT
BRANCH   1  23
HETATM   23  C7  UNL     1       3.723   0.768  -1.460  1.00  0.00    -0.014 C 
HETATM   24  C8  UNL     1       4.925  -0.018  -2.012  1.00  0.00     0.010 C 
BRANCH  23  25
HETATM   25  C6  UNL     1       4.181   1.833  -0.436  1.00  0.00     0.008 C 
BRANCH  25  26
HETATM   26  C5  UNL     1       4.779   1.422   0.918  1.00  0.00     0.028 C 
BRANCH  26  27
HETATM   27  C4  UNL     1       6.140   0.790   0.831  1.00  0.00    -0.025 C 
HETATM   28  C2  UNL     1       6.594  -0.299   1.482  1.00  0.00    -0.091 C 
HETATM   29  C1  UNL     1       5.814  -1.108   2.481  1.00  0.00     0.042 C 
HETATM   30  C3  UNL     1       7.996  -0.801   1.245  1.00  0.00     0.042 C 
ENDBRANCH  26  27
ENDBRANCH  25  26
ENDBRANCH  23  25
ENDBRANCH   1  23
BRANCH   8  31
HETATM   31  O1  UNL     1      -1.803   1.221  -2.842  1.00  0.00    -0.391 OA
HETATM   32  H25 UNL     1      -2.561   1.825  -2.697  1.00  0.00     0.210 HD
ENDBRANCH   8  31
BRANCH  22  33
HETATM   33  O6  UNL     1      -4.187   1.945  -1.993  1.00  0.00    -0.394 OA
HETATM   34  H46 UNL     1      -4.790   1.944  -2.758  1.00  0.00     0.210 HD
ENDBRANCH  22  33
BRANCH  18  35
HETATM   35  C27 UNL     1      -5.530   0.076   2.613  1.00  0.00     0.151 C 
HETATM   36  O3  UNL     1      -6.562  -0.019   3.264  1.00  0.00    -0.649 OA
BRANCH  35  37
HETATM   37  O4  UNL     1      -4.492   0.743   3.137  1.00  0.00    -0.776 OA
HETATM   38  H40 UNL     1      -4.846   1.093   3.982  1.00  0.00     0.167 HD
ENDBRANCH  35  37
ENDBRANCH  18  35
BRANCH  20  39
HETATM   39  O5  UNL     1      -6.259   1.686   0.552  1.00  0.00    -0.394 OA
HETATM   40  H42 UNL     1      -6.875   2.122  -0.063  1.00  0.00     0.210 HD
ENDBRANCH  20  39
TORSDOF 9
