REMARK  14 active torsions:
REMARK  status: ('A' for Active; 'I' for Inactive)
REMARK    1  A    between atoms: O1_2  and  C2_3 
REMARK    2  A    between atoms: C6_8  and  C7_9 
REMARK    3  A    between atoms: C7_9  and  O3_11 
REMARK    4  A    between atoms: C8_12  and  C9_13 
REMARK    5  A    between atoms: C9_13  and  C10_14 
REMARK    6  A    between atoms: C10_14  and  N2_15 
REMARK       I    between atoms: N2_15  and  C11_16 
REMARK    7  A    between atoms: C11_16  and  C12_18 
REMARK    8  A    between atoms: C12_18  and  C13_19 
REMARK    9  A    between atoms: C13_19  and  C14_20 
REMARK   10  A    between atoms: C14_20  and  O6_22 
REMARK   11  A    between atoms: O6_22  and  C15_23 
REMARK   12  A    between atoms: C15_23  and  C16_24 
REMARK   13  A    between atoms: C16_24  and  C17_26 
REMARK   14  A    between atoms: C17_26  and  O8_27 
ROOT
HETATM    1  C14 UNL     1       0.828   1.853   0.216  1.00  0.00     0.259 C 
HETATM    2  O5  UNL     1       0.984   2.567   1.197  1.00  0.00    -0.265 OA
ENDROOT
BRANCH   1   3
HETATM    3  C13 UNL     1       1.403   2.146  -1.148  1.00  0.00     0.120 C 
BRANCH   3   4
HETATM    4  C12 UNL     1       2.861   2.576  -1.023  1.00  0.00     0.112 C 
BRANCH   4   5
HETATM    5  C11 UNL     1       3.719   1.463  -0.453  1.00  0.00     0.218 C 
HETATM    6  N2  UNL     1       5.010   1.854  -0.182  1.00  0.00    -0.361 N 
HETATM    7  H12 UNL     1       5.268   2.827  -0.292  1.00  0.00     0.162 HD
HETATM    8  O4  UNL     1       3.294   0.330  -0.260  1.00  0.00    -0.274 OA
BRANCH   6   9
HETATM    9  C10 UNL     1       5.952   0.962   0.473  1.00  0.00     0.127 C 
BRANCH   9  10
HETATM   10  C9  UNL     1       6.574  -0.060  -0.482  1.00  0.00     0.061 C 
BRANCH  10  11
HETATM   11  C8  UNL     1       7.625  -0.899   0.190  1.00  0.00    -0.011 A 
HETATM   12  C6  UNL     1       7.442  -2.074   0.919  1.00  0.00     0.114 A 
HETATM   13  N1  UNL     1       8.689  -2.482   1.337  1.00  0.00    -0.350 N 
HETATM   14  C5  UNL     1       9.664  -1.610   0.929  1.00  0.00     0.043 A 
HETATM   15  H6  UNL     1       8.851  -3.315   1.888  1.00  0.00     0.166 HD
HETATM   16  C4  UNL     1      11.043  -1.636   1.150  1.00  0.00     0.033 A 
HETATM   17  C36 UNL     1       9.033  -0.605   0.204  1.00  0.00     0.002 A 
HETATM   18  C3  UNL     1      11.800  -0.593   0.610  1.00  0.00     0.039 A 
HETATM   19  C2  UNL     1      11.209   0.434  -0.126  1.00  0.00     0.069 A 
HETATM   20  C37 UNL     1       9.824   0.437  -0.335  1.00  0.00     0.051 A 
BRANCH  12  21
HETATM   21  C7  UNL     1       6.276  -2.840   1.272  1.00  0.00     0.194 C 
HETATM   22  O2  UNL     1       6.261  -3.882   1.909  1.00  0.00    -0.645 OA
BRANCH  21  23
HETATM   23  O3  UNL     1       5.141  -2.274   0.836  1.00  0.00    -0.772 OA
HETATM   24  H7  UNL     1       4.422  -2.863   1.140  1.00  0.00     0.167 HD
ENDBRANCH  21  23
ENDBRANCH  12  21
BRANCH  19  25
HETATM   25  O1  UNL     1      12.087   1.379  -0.587  1.00  0.00    -0.356 OA
HETATM   26  C1  UNL     1      11.546   2.430  -1.377  1.00  0.00     0.210 C 
ENDBRANCH  19  25
ENDBRANCH  10  11
ENDBRANCH   9  10
ENDBRANCH   6   9
ENDBRANCH   4   5
ENDBRANCH   3   4
ENDBRANCH   1   3
BRANCH   1  27
HETATM   27  O6  UNL     1       0.114   0.690   0.203  1.00  0.00    -0.314 OA
BRANCH  27  28
HETATM   28  C15 UNL     1      -0.218   0.223   1.508  1.00  0.00     0.260 C 
BRANCH  28  29
HETATM   29  C16 UNL     1      -0.812  -1.178   1.464  1.00  0.00     0.185 C 
HETATM   30  O7  UNL     1      -0.466  -2.015   2.304  1.00  0.00    -0.292 OA
BRANCH  29  31
HETATM   31  C17 UNL     1      -1.919  -1.469   0.411  1.00  0.00     0.128 C 
HETATM   32  C18 UNL     1      -2.316  -2.977   0.415  1.00  0.00     0.047 C 
HETATM   33  C19 UNL     1      -3.827  -3.046   0.132  1.00  0.00     0.009 C 
HETATM   34  C20 UNL     1      -4.223  -1.613  -0.201  1.00  0.00     0.002 C 
HETATM   35  C21 UNL     1      -5.702  -1.226  -0.072  1.00  0.00    -0.004 C 
HETATM   36  C34 UNL     1      -3.283  -0.756   0.685  1.00  0.00    -0.002 C 
HETATM   37  C22 UNL     1      -6.595  -2.116  -0.948  1.00  0.00     0.010 C 
HETATM   38  C31 UNL     1      -5.881   0.268  -0.480  1.00  0.00     0.002 C 
HETATM   39  C23 UNL     1      -8.060  -1.716  -0.826  1.00  0.00     0.035 C 
HETATM   40  C24 UNL     1      -8.283  -0.250  -1.121  1.00  0.00    -0.068 C 
HETATM   41  C25 UNL     1      -9.254   0.113  -1.978  1.00  0.00     0.053 C 
HETATM   42  C29 UNL     1      -7.381   0.749  -0.383  1.00  0.00    -0.016 C 
HETATM   43  C26 UNL     1      -9.603   1.533  -2.205  1.00  0.00     0.149 C 
HETATM   44  O9  UNL     1     -10.490   1.818  -3.008  1.00  0.00    -0.293 OA
HETATM   45  C27 UNL     1      -8.917   2.577  -1.362  1.00  0.00     0.084 C 
HETATM   46  C28 UNL     1      -7.490   2.156  -1.043  1.00  0.00     0.022 C 
HETATM   47  C30 UNL     1      -7.870   0.844   1.081  1.00  0.00     0.020 C 
HETATM   48  C32 UNL     1      -4.875   1.195   0.250  1.00  0.00     0.007 C 
HETATM   49  C33 UNL     1      -3.419   0.695   0.189  1.00  0.00     0.013 C 
HETATM   50  C35 UNL     1      -3.636  -0.830   2.196  1.00  0.00     0.019 C 
BRANCH  31  51
HETATM   51  O8  UNL     1      -1.469  -1.199  -0.921  1.00  0.00    -0.381 OA
HETATM   52  H19 UNL     1      -0.965  -0.366  -0.918  1.00  0.00     0.211 HD
ENDBRANCH  31  51
ENDBRANCH  29  31
ENDBRANCH  28  29
ENDBRANCH  27  28
ENDBRANCH   1  27
TORSDOF 14
