REMARK  19 active torsions:
REMARK  status: ('A' for Active; 'I' for Inactive)
REMARK    1  A    between atoms: C2_2  and  C3_3 
REMARK    2  A    between atoms: C3_3  and  C5_5 
REMARK    3  A    between atoms: C5_5  and  N1_6 
REMARK    4  A    between atoms: C5_5  and  C37_46 
REMARK       I    between atoms: N1_6  and  C6_7 
REMARK    5  A    between atoms: C6_7  and  C7_9 
REMARK    6  A    between atoms: C7_9  and  C8_10 
REMARK    7  A    between atoms: C8_10  and  C9_11 
REMARK    8  A    between atoms: C9_11  and  C10_12 
REMARK    9  A    between atoms: C10_12  and  C11_13 
REMARK   10  A    between atoms: C11_13  and  N2_14 
REMARK       I    between atoms: N2_14  and  C12_15 
REMARK   11  A    between atoms: C12_15  and  C13_17 
REMARK   12  A    between atoms: C13_17  and  C14_18 
REMARK   13  A    between atoms: C14_18  and  C15_19 
REMARK   14  A    between atoms: C15_19  and  O4_21 
REMARK   15  A    between atoms: O4_21  and  C16_22 
REMARK   16  A    between atoms: C16_22  and  C17_23 
REMARK   17  A    between atoms: C17_23  and  C18_25 
REMARK   18  A    between atoms: C18_25  and  O6_26 
REMARK   19  A    between atoms: C37_46  and  O9_48 
ROOT
HETATM    1  C15 UNL     1      -1.217  -1.795  -1.902  1.00  0.00     0.259 C 
HETATM    2  O3  UNL     1      -1.911  -1.961  -2.896  1.00  0.00    -0.265 OA
ENDROOT
BRANCH   1   3
HETATM    3  C14 UNL     1      -1.119  -2.787  -0.766  1.00  0.00     0.120 C 
BRANCH   3   4
HETATM    4  C13 UNL     1       0.237  -2.801  -0.068  1.00  0.00     0.112 C 
BRANCH   4   5
HETATM    5  C12 UNL     1       1.344  -3.270  -0.990  1.00  0.00     0.217 C 
HETATM    6  N2  UNL     1       2.573  -3.365  -0.364  1.00  0.00    -0.361 N 
HETATM    7  H22 UNL     1       2.685  -2.849   0.498  1.00  0.00     0.162 HD
HETATM    8  O2  UNL     1       1.161  -3.544  -2.172  1.00  0.00    -0.274 OA
BRANCH   6   9
HETATM    9  C11 UNL     1       3.759  -3.673  -1.139  1.00  0.00     0.122 C 
BRANCH   9  10
HETATM   10  C10 UNL     1       4.901  -4.236  -0.292  1.00  0.00     0.020 C 
BRANCH  10  11
HETATM   11  C9  UNL     1       5.846  -3.181   0.293  1.00  0.00     0.002 C 
BRANCH  11  12
HETATM   12  C8  UNL     1       5.270  -2.409   1.482  1.00  0.00     0.009 C 
BRANCH  12  13
HETATM   13  C7  UNL     1       6.319  -1.495   2.121  1.00  0.00     0.103 C 
BRANCH  13  14
HETATM   14  C6  UNL     1       6.612  -0.266   1.280  1.00  0.00     0.218 C 
HETATM   15  N1  UNL     1       7.880   0.232   1.470  1.00  0.00    -0.346 N 
HETATM   16  H11 UNL     1       8.337  -0.016   2.342  1.00  0.00     0.163 HD
HETATM   17  O1  UNL     1       5.786   0.246   0.535  1.00  0.00    -0.274 OA
BRANCH  15  18
HETATM   18  C5  UNL     1       8.280   1.537   0.919  1.00  0.00     0.186 C 
BRANCH  18  19
HETATM   19  C3  UNL     1       9.723   1.464   0.352  1.00  0.00     0.014 C 
HETATM   20  C4  UNL     1      10.170   2.812  -0.236  1.00  0.00     0.012 C 
BRANCH  19  21
HETATM   21  C2  UNL     1       9.835   0.345  -0.716  1.00  0.00     0.002 C 
HETATM   22  C1  UNL     1      11.250   0.115  -1.235  1.00  0.00     0.005 C 
ENDBRANCH  19  21
ENDBRANCH  18  19
BRANCH  18  23
HETATM   23  C37 UNL     1       8.164   2.572   2.056  1.00  0.00     0.163 C 
HETATM   24  O8  UNL     1       8.141   3.787   1.945  1.00  0.00    -0.648 OA
BRANCH  23  25
HETATM   25  O9  UNL     1       8.176   2.021   3.297  1.00  0.00    -0.775 OA
HETATM   26  H56 UNL     1       8.123   2.806   3.886  1.00  0.00     0.167 HD
ENDBRANCH  23  25
ENDBRANCH  18  23
ENDBRANCH  15  18
ENDBRANCH  13  14
ENDBRANCH  12  13
ENDBRANCH  11  12
ENDBRANCH  10  11
ENDBRANCH   9  10
ENDBRANCH   6   9
ENDBRANCH   4   5
ENDBRANCH   3   4
ENDBRANCH   1   3
BRANCH   1  27
HETATM   27  O4  UNL     1      -0.527  -0.657  -1.626  1.00  0.00    -0.314 OA
BRANCH  27  28
HETATM   28  C16 UNL     1      -0.516   0.305  -2.669  1.00  0.00     0.260 C 
BRANCH  28  29
HETATM   29  C17 UNL     1      -1.815   1.038  -3.024  1.00  0.00     0.185 C 
HETATM   30  O5  UNL     1      -2.118   1.211  -4.211  1.00  0.00    -0.292 OA
BRANCH  29  31
HETATM   31  C18 UNL     1      -2.655   1.653  -1.873  1.00  0.00     0.128 C 
HETATM   32  C19 UNL     1      -3.122   3.087  -2.278  1.00  0.00     0.047 C 
HETATM   33  C20 UNL     1      -4.492   3.309  -1.620  1.00  0.00     0.009 C 
HETATM   34  C21 UNL     1      -4.754   2.052  -0.792  1.00  0.00     0.002 C 
HETATM   35  C22 UNL     1      -6.230   1.729  -0.475  1.00  0.00    -0.004 C 
HETATM   36  C35 UNL     1      -4.011   0.930  -1.554  1.00  0.00    -0.002 C 
HETATM   37  C23 UNL     1      -6.809   2.786   0.491  1.00  0.00     0.010 C 
HETATM   38  C32 UNL     1      -6.393   0.244   0.029  1.00  0.00     0.002 C 
HETATM   39  C24 UNL     1      -6.715   2.363   1.949  1.00  0.00     0.035 C 
HETATM   40  C25 UNL     1      -7.448   1.073   2.215  1.00  0.00    -0.068 C 
HETATM   41  C26 UNL     1      -7.952   0.834   3.441  1.00  0.00     0.053 C 
HETATM   42  C30 UNL     1      -7.567   0.074   1.068  1.00  0.00    -0.016 C 
HETATM   43  C27 UNL     1      -8.650  -0.435   3.768  1.00  0.00     0.149 C 
HETATM   44  O7  UNL     1      -9.202  -0.551   4.861  1.00  0.00    -0.293 OA
HETATM   45  C28 UNL     1      -8.693  -1.534   2.731  1.00  0.00     0.084 C 
HETATM   46  C29 UNL     1      -7.598  -1.355   1.680  1.00  0.00     0.022 C 
HETATM   47  C31 UNL     1      -8.911   0.293   0.317  1.00  0.00     0.020 C 
HETATM   48  C33 UNL     1      -5.031  -0.348   0.470  1.00  0.00     0.007 C 
HETATM   49  C34 UNL     1      -3.926  -0.285  -0.608  1.00  0.00     0.013 C 
HETATM   50  C36 UNL     1      -4.738   0.511  -2.860  1.00  0.00     0.019 C 
BRANCH  31  51
HETATM   51  O6  UNL     1      -1.882   1.753  -0.671  1.00  0.00    -0.381 OA
HETATM   52  H29 UNL     1      -1.585   2.675  -0.534  1.00  0.00     0.211 HD
ENDBRANCH  31  51
ENDBRANCH  29  31
ENDBRANCH  28  29
ENDBRANCH  27  28
ENDBRANCH   1  27
TORSDOF 19
