REMARK  7 active torsions:
REMARK  status: ('A' for Active; 'I' for Inactive)
REMARK    1  A    between atoms: C2_2  and  C30_32 
REMARK    2  A    between atoms: C3_3  and  C4_4 
REMARK    3  A    between atoms: C4_4  and  O1_5 
REMARK    4  A    between atoms: C4_4  and  C5_6 
REMARK    5  A    between atoms: C5_6  and  C6_7 
REMARK    6  A    between atoms: C6_7  and  C8_9 
REMARK    7  A    between atoms: C30_32  and  O4_34 
ROOT
HETATM    1  C8  UNL     1       2.102  -0.705  -0.730  1.00  0.00    -0.002 C 
HETATM    2  C9  UNL     1       2.107  -1.787   0.389  1.00  0.00     0.006 C 
HETATM    3  C10 UNL     1       0.663  -1.945   0.894  1.00  0.00     0.011 C 
HETATM    4  C11 UNL     1      -0.205  -1.194  -0.134  1.00  0.00    -0.032 C 
HETATM    5  C12 UNL     1      -0.461  -2.192  -1.307  1.00  0.00     0.016 C 
HETATM    6  C13 UNL     1      -1.549  -0.667   0.438  1.00  0.00     0.004 C 
HETATM    7  C14 UNL     1      -2.589  -1.767   0.703  1.00  0.00     0.007 C 
HETATM    8  C15 UNL     1      -3.828  -1.164   1.358  1.00  0.00     0.007 C 
HETATM    9  C16 UNL     1      -4.581  -0.263   0.368  1.00  0.00     0.010 C 
HETATM   10  C17 UNL     1      -5.863   0.433   0.938  1.00  0.00     0.018 C 
HETATM   11  C18 UNL     1      -7.114  -0.380   0.542  1.00  0.00     0.023 C 
HETATM   12  C19 UNL     1      -5.847   0.564   2.477  1.00  0.00     0.023 C 
HETATM   13  C20 UNL     1      -6.057   1.845   0.352  1.00  0.00     0.135 C 
HETATM   14  O2  UNL     1      -6.650   2.728   0.983  1.00  0.00    -0.297 OA
HETATM   15  C21 UNL     1      -5.631   2.127  -1.074  1.00  0.00     0.080 C 
HETATM   16  C22 UNL     1      -4.415   1.335  -1.535  1.00  0.00     0.018 C 
HETATM   17  C23 UNL     1      -3.676   0.730  -0.361  1.00  0.00    -0.026 A 
HETATM   18  C24 UNL     1      -2.741   1.636   0.392  1.00  0.00     0.021 A 
HETATM   19  C25 UNL     1      -2.145   0.485  -0.412  1.00  0.00    -0.027 A 
HETATM   20  C26 UNL     1      -1.412   0.830  -1.712  1.00  0.00     0.011 C 
HETATM   21  C27 UNL     1       0.123   0.745  -1.706  1.00  0.00     0.011 C 
HETATM   22  C28 UNL     1       0.731   0.017  -0.498  1.00  0.00    -0.032 C 
HETATM   23  C29 UNL     1       0.899   1.059   0.649  1.00  0.00     0.016 C 
ENDROOT
BRANCH   1  24
HETATM   24  C6  UNL     1       3.429   0.116  -0.766  1.00  0.00    -0.011 C 
HETATM   25  C7  UNL     1       3.427   1.155  -1.895  1.00  0.00     0.010 C 
BRANCH  24  26
HETATM   26  C5  UNL     1       4.645  -0.838  -0.929  1.00  0.00     0.040 C 
BRANCH  26  27
HETATM   27  C4  UNL     1       6.038  -0.184  -0.902  1.00  0.00     0.142 C 
BRANCH  27  28
HETATM   28  C3  UNL     1       6.309   0.607   0.346  1.00  0.00     0.018 C 
HETATM   29  C2  UNL     1       6.747   0.174   1.550  1.00  0.00     0.010 C 
HETATM   30  C1  UNL     1       7.004  -1.257   1.922  1.00  0.00     0.055 C 
BRANCH  29  31
HETATM   31  C30 UNL     1       7.000   1.136   2.656  1.00  0.00     0.171 C 
HETATM   32  O3  UNL     1       7.459   0.854   3.749  1.00  0.00    -0.646 OA
BRANCH  31  33
HETATM   33  O4  UNL     1       6.670   2.406   2.363  1.00  0.00    -0.773 OA
HETATM   34  H46 UNL     1       6.902   2.894   3.180  1.00  0.00     0.167 HD
ENDBRANCH  31  33
ENDBRANCH  29  31
ENDBRANCH  27  28
BRANCH  27  35
HETATM   35  O1  UNL     1       7.034  -1.193  -1.047  1.00  0.00    -0.392 OA
HETATM   36  H6  UNL     1       6.866  -1.645  -1.891  1.00  0.00     0.210 HD
ENDBRANCH  27  35
ENDBRANCH  26  27
ENDBRANCH  24  26
ENDBRANCH   1  24
TORSDOF 7
