REMARK  12 active torsions:
REMARK  status: ('A' for Active; 'I' for Inactive)
REMARK    1  A    between atoms: C2_2  and  C34_40 
REMARK    2  A    between atoms: C3_3  and  C4_4 
REMARK    3  A    between atoms: C4_4  and  O1_5 
REMARK    4  A    between atoms: C4_4  and  C5_6 
REMARK    5  A    between atoms: C5_6  and  C6_7 
REMARK    6  A    between atoms: C6_7  and  C8_9 
REMARK    7  A    between atoms: C10_11  and  O2_12 
REMARK    8  A    between atoms: C11_13  and  C12_14 
REMARK    9  A    between atoms: C12_14  and  C13_15 
REMARK   10  A    between atoms: C13_15  and  O3_16 
REMARK   11  A    between atoms: C33_38  and  O6_39 
REMARK   12  A    between atoms: C34_40  and  O8_42 
ROOT
HETATM    1  C8  UNL     1       2.161   0.215   0.184  1.00  0.00     0.002 C 
HETATM    2  C9  UNL     1       2.176  -0.189  -1.326  1.00  0.00     0.038 C 
HETATM    3  C10 UNL     1       0.708  -0.188  -1.801  1.00  0.00     0.132 C 
HETATM    4  C11 UNL     1      -0.073   0.569  -0.692  1.00  0.00     0.022 C 
HETATM    5  C14 UNL     1      -1.588   0.330  -0.558  1.00  0.00    -0.029 C 
HETATM    6  C15 UNL     1      -2.200   0.397   0.656  1.00  0.00     0.003 C 
HETATM    7  C16 UNL     1      -1.353   0.779   1.867  1.00  0.00     0.157 C 
HETATM    8  O4  UNL     1      -1.877   1.193   2.901  1.00  0.00    -0.293 OA
HETATM    9  C17 UNL     1       0.158   0.631   1.830  1.00  0.00     0.094 C 
HETATM   10  C18 UNL     1       0.662  -0.077   0.572  1.00  0.00    -0.015 C 
HETATM   11  C19 UNL     1       0.563  -1.658   0.788  1.00  0.00     0.011 C 
HETATM   12  C20 UNL     1      -0.769  -2.411   0.704  1.00  0.00     0.001 C 
HETATM   13  C21 UNL     1      -1.582  -2.433   2.000  1.00  0.00     0.000 C 
HETATM   14  C22 UNL     1      -3.088  -2.438   1.742  1.00  0.00     0.001 C 
HETATM   15  C23 UNL     1      -3.807  -1.094   1.979  1.00  0.00     0.015 C 
HETATM   16  C24 UNL     1      -3.698   0.061   0.911  1.00  0.00    -0.004 C 
HETATM   17  C25 UNL     1      -4.450   1.329   1.427  1.00  0.00     0.022 C 
HETATM   18  C26 UNL     1      -5.894   1.061   1.853  1.00  0.00     0.080 C 
HETATM   19  C27 UNL     1      -6.561  -0.016   1.032  1.00  0.00     0.135 C 
HETATM   20  O5  UNL     1      -7.533  -0.621   1.481  1.00  0.00    -0.297 OA
HETATM   21  C28 UNL     1      -6.037  -0.236  -0.387  1.00  0.00     0.018 C 
HETATM   22  C29 UNL     1      -6.651  -1.524  -0.976  1.00  0.00     0.023 C 
HETATM   23  C30 UNL     1      -6.605   0.950  -1.199  1.00  0.00     0.023 C 
HETATM   24  C31 UNL     1      -4.456  -0.386  -0.416  1.00  0.00     0.017 C 
HETATM   25  C32 UNL     1      -3.865   0.310  -1.649  1.00  0.00     0.043 C 
HETATM   26  C33 UNL     1      -2.380   0.043  -1.816  1.00  0.00     0.149 C 
ENDROOT
BRANCH   1  27
HETATM   27  C6  UNL     1       3.345  -0.399   1.000  1.00  0.00    -0.011 C 
HETATM   28  C7  UNL     1       3.350   0.105   2.449  1.00  0.00     0.010 C 
BRANCH  27  29
HETATM   29  C5  UNL     1       4.690  -0.090   0.266  1.00  0.00     0.040 C 
BRANCH  29  30
HETATM   30  C4  UNL     1       5.977  -0.432   1.041  1.00  0.00     0.142 C 
BRANCH  30  31
HETATM   31  C3  UNL     1       7.146  -0.729   0.140  1.00  0.00     0.018 C 
HETATM   32  C2  UNL     1       7.763   0.094  -0.733  1.00  0.00     0.010 C 
HETATM   33  C1  UNL     1       7.427   1.537  -0.977  1.00  0.00     0.055 C 
BRANCH  32  34
HETATM   34  C34 UNL     1       8.881  -0.401  -1.581  1.00  0.00     0.171 C 
HETATM   35  O7  UNL     1       9.347   0.175  -2.544  1.00  0.00    -0.646 OA
BRANCH  34  36
HETATM   36  O8  UNL     1       9.365  -1.593  -1.191  1.00  0.00    -0.773 OA
HETATM   37  H50 UNL     1      10.069  -1.776  -1.846  1.00  0.00     0.167 HD
ENDBRANCH  34  36
ENDBRANCH  32  34
ENDBRANCH  30  31
BRANCH  30  38
HETATM   38  O1  UNL     1       6.315   0.657   1.891  1.00  0.00    -0.392 OA
HETATM   39  H6  UNL     1       7.218   0.512   2.221  1.00  0.00     0.210 HD
ENDBRANCH  30  38
ENDBRANCH  29  30
ENDBRANCH  27  29
ENDBRANCH   1  27
BRANCH   3  40
HETATM   40  O2  UNL     1       0.570   0.362  -3.104  1.00  0.00    -0.394 OA
HETATM   41  H17 UNL     1       1.262  -0.037  -3.670  1.00  0.00     0.210 HD
ENDBRANCH   3  40
BRANCH   4  42
HETATM   42  C12 UNL     1       0.026   2.168  -0.811  1.00  0.00     0.043 C 
BRANCH  42  43
HETATM   43  C13 UNL     1       1.155   2.884  -1.565  1.00  0.00     0.165 C 
BRANCH  43  44
HETATM   44  O3  UNL     1       0.959   2.906  -2.968  1.00  0.00    -0.401 OA
HETATM   45  H22 UNL     1       0.602   2.035  -3.226  1.00  0.00     0.209 HD
ENDBRANCH  43  44
ENDBRANCH  42  43
ENDBRANCH   4  42
BRANCH  26  46
HETATM   46  O6  UNL     1      -1.993   0.888  -2.889  1.00  0.00    -0.391 OA
HETATM   47  H49 UNL     1      -1.089   0.632  -3.157  1.00  0.00     0.210 HD
ENDBRANCH  26  46
TORSDOF 12
