REMARK  6 active torsions:
REMARK  status: ('A' for Active; 'I' for Inactive)
REMARK    1  A    between atoms: C2_2  and  C30_31 
REMARK    2  A    between atoms: C3_3  and  C4_4 
REMARK    3  A    between atoms: C4_4  and  C5_5 
REMARK    4  A    between atoms: C5_5  and  C6_6 
REMARK    5  A    between atoms: C6_6  and  C8_8 
REMARK    6  A    between atoms: C30_31  and  O3_33 
ROOT
HETATM    1  C8  UNL     1       2.218   0.779   0.397  1.00  0.00    -0.002 C 
HETATM    2  C9  UNL     1       2.473  -0.438   1.340  1.00  0.00     0.007 C 
HETATM    3  C10 UNL     1       1.112  -1.126   1.586  1.00  0.00     0.015 C 
HETATM    4  C11 UNL     1       0.176  -0.511   0.531  1.00  0.00    -0.013 C 
HETATM    5  C12 UNL     1       0.459  -1.286  -0.805  1.00  0.00     0.021 C 
HETATM    6  C13 UNL     1      -1.339  -0.608   0.739  1.00  0.00    -0.070 C 
HETATM    7  C14 UNL     1      -1.900  -1.766   1.130  1.00  0.00    -0.022 C 
HETATM    8  C15 UNL     1      -3.358  -2.061   1.003  1.00  0.00     0.034 C 
HETATM    9  C16 UNL     1      -4.023  -1.194  -0.089  1.00  0.00     0.013 C 
HETATM   10  C17 UNL     1      -5.519  -1.584  -0.391  1.00  0.00     0.018 C 
HETATM   11  C18 UNL     1      -5.543  -2.505  -1.634  1.00  0.00     0.023 C 
HETATM   12  C19 UNL     1      -6.194  -2.353   0.772  1.00  0.00     0.023 C 
HETATM   13  C20 UNL     1      -6.443  -0.402  -0.737  1.00  0.00     0.135 C 
HETATM   14  O1  UNL     1      -7.675  -0.535  -0.731  1.00  0.00    -0.297 OA
HETATM   15  C21 UNL     1      -5.878   0.932  -1.149  1.00  0.00     0.080 C 
HETATM   16  C22 UNL     1      -4.377   1.086  -1.017  1.00  0.00     0.017 C 
HETATM   17  C23 UNL     1      -3.752   0.319   0.165  1.00  0.00    -0.031 C 
HETATM   18  C24 UNL     1      -4.411   0.785   1.492  1.00  0.00     0.016 C 
HETATM   19  C25 UNL     1      -2.182   0.600   0.297  1.00  0.00     0.024 C 
HETATM   20  C26 UNL     1      -1.496   1.318  -0.890  1.00  0.00     0.010 C 
HETATM   21  C27 UNL     1      -0.018   1.723  -0.639  1.00  0.00     0.011 C 
HETATM   22  C28 UNL     1       0.671   0.979   0.527  1.00  0.00    -0.029 C 
HETATM   23  C29 UNL     1       0.406   1.735   1.870  1.00  0.00     0.016 C 
ENDROOT
BRANCH   1  24
HETATM   24  C6  UNL     1       3.180   1.967   0.680  1.00  0.00    -0.014 C 
HETATM   25  C7  UNL     1       2.907   3.172  -0.227  1.00  0.00     0.010 C 
BRANCH  24  26
HETATM   26  C5  UNL     1       4.675   1.564   0.588  1.00  0.00     0.008 C 
BRANCH  26  27
HETATM   27  C4  UNL     1       5.140   1.060  -0.785  1.00  0.00     0.028 C 
BRANCH  27  28
HETATM   28  C3  UNL     1       6.625   0.813  -0.789  1.00  0.00    -0.013 C 
HETATM   29  C2  UNL     1       7.288  -0.362  -0.822  1.00  0.00     0.008 C 
HETATM   30  C1  UNL     1       8.791  -0.406  -0.835  1.00  0.00     0.055 C 
BRANCH  29  31
HETATM   31  C30 UNL     1       6.589  -1.669  -0.795  1.00  0.00     0.171 C 
HETATM   32  O2  UNL     1       5.482  -1.911  -0.354  1.00  0.00    -0.646 OA
BRANCH  31  33
HETATM   33  O3  UNL     1       7.345  -2.646  -1.328  1.00  0.00    -0.773 OA
HETATM   34  H46 UNL     1       6.771  -3.436  -1.257  1.00  0.00     0.167 HD
ENDBRANCH  31  33
ENDBRANCH  29  31
ENDBRANCH  27  28
ENDBRANCH  26  27
ENDBRANCH  24  26
ENDBRANCH   1  24
TORSDOF 6
