REMARK  10 active torsions:
REMARK  status: ('A' for Active; 'I' for Inactive)
REMARK    1  A    between atoms: O1_2  and  C2_3 
REMARK    2  A    between atoms: C4_5  and  O2_6 
REMARK    3  A    between atoms: O2_6  and  C5_7 
REMARK    4  A    between atoms: C19_21  and  C20_22 
REMARK    5  A    between atoms: C24_28  and  O5_29 
REMARK    6  A    between atoms: O5_29  and  C25_30 
REMARK    7  A    between atoms: C25_30  and  C26_32 
REMARK    8  A    between atoms: C26_32  and  C27_33 
REMARK    9  A    between atoms: C31_37  and  O7_38 
REMARK   10  A    between atoms: C35_43  and  O9_44 
ROOT
HETATM    1  C5  UNL     1       3.600   0.135   0.455  1.00  0.00     0.125 C 
HETATM    2  C6  UNL     1       2.583   1.116   1.000  1.00  0.00     0.033 C 
HETATM    3  C7  UNL     1       1.513   1.433  -0.038  1.00  0.00     0.012 C 
HETATM    4  C8  UNL     1       1.005   0.220  -0.891  1.00  0.00    -0.036 C 
HETATM    5  C9  UNL     1       1.638   0.321  -2.310  1.00  0.00     0.016 C 
HETATM    6  C10 UNL     1       1.469  -1.156  -0.317  1.00  0.00    -0.004 C 
HETATM    7  C11 UNL     1       0.517  -1.624   0.782  1.00  0.00     0.006 C 
HETATM    8  C12 UNL     1      -0.862  -1.942   0.209  1.00  0.00     0.008 C 
HETATM    9  C13 UNL     1      -1.279  -1.067  -1.002  1.00  0.00     0.026 C 
HETATM   10  C14 UNL     1      -0.585   0.310  -0.944  1.00  0.00     0.001 C 
HETATM   11  C15 UNL     1      -1.081   1.225  -2.074  1.00  0.00     0.007 C 
HETATM   12  C16 UNL     1      -2.588   1.396  -2.029  1.00  0.00     0.013 C 
HETATM   13  C17 UNL     1      -3.366   0.063  -2.182  1.00  0.00    -0.003 C 
HETATM   14  C18 UNL     1      -3.226  -0.460  -3.624  1.00  0.00     0.019 C 
HETATM   15  C19 UNL     1      -4.857   0.361  -1.711  1.00  0.00     0.058 C 
HETATM   16  C24 UNL     1      -5.061  -0.532  -0.463  1.00  0.00     0.144 C 
HETATM   17  C30 UNL     1      -3.648  -0.724   0.089  1.00  0.00     0.072 C 
HETATM   18  C31 UNL     1      -2.833  -1.013  -1.168  1.00  0.00     0.072 C 
HETATM   19  C32 UNL     1       2.942  -1.210   0.142  1.00  0.00     0.037 C 
ENDROOT
BRANCH   1  20
HETATM   20  O2  UNL     1       4.603  -0.078   1.454  1.00  0.00    -0.356 OA
BRANCH  20  21
HETATM   21  C4  UNL     1       5.923   0.220   1.002  1.00  0.00     0.263 C 
HETATM   22  C3  UNL     1       6.877  -0.066   2.157  1.00  0.00     0.095 C 
HETATM   23  C2  UNL     1       8.341   0.148   1.758  1.00  0.00     0.156 C 
HETATM   24  C35 UNL     1       8.483   0.493   0.266  1.00  0.00     0.175 C 
HETATM   25  C33 UNL     1       7.599  -0.423  -0.601  1.00  0.00     0.151 C 
HETATM   26  O8  UNL     1       6.264  -0.592  -0.115  1.00  0.00    -0.354 OA
HETATM   27  C34 UNL     1       8.173  -1.830  -0.776  1.00  0.00     0.042 C 
BRANCH  23  28
HETATM   28  O1  UNL     1       8.883   1.247   2.516  1.00  0.00    -0.388 OA
HETATM   29  C1  UNL     1       9.379   0.843   3.787  1.00  0.00     0.202 C 
ENDBRANCH  23  28
BRANCH  24  30
HETATM   30  O9  UNL     1       9.855   0.418  -0.132  1.00  0.00    -0.390 OA
HETATM   31  H54 UNL     1      10.009   1.130  -0.778  1.00  0.00     0.210 HD
ENDBRANCH  24  30
ENDBRANCH  20  21
ENDBRANCH   1  20
BRANCH  18  32
HETATM   32  O7  UNL     1      -3.250  -2.316  -1.620  1.00  0.00    -0.389 OA
HETATM   33  H46 UNL     1      -2.994  -2.979  -0.952  1.00  0.00     0.210 HD
ENDBRANCH  18  32
BRANCH  15  34
HETATM   34  C20 UNL     1      -6.002   0.361  -2.700  1.00  0.00    -0.043 A 
HETATM   35  C21 UNL     1      -6.038   0.930  -3.906  1.00  0.00     0.087 A 
HETATM   36  C22 UNL     1      -7.394   0.761  -4.432  1.00  0.00     0.283 A 
HETATM   37  O3  UNL     1      -7.771   1.155  -5.520  1.00  0.00    -0.260 OA
HETATM   38  O4  UNL     1      -8.155   0.118  -3.506  1.00  0.00    -0.314 OA
HETATM   39  C23 UNL     1      -7.350  -0.175  -2.364  1.00  0.00     0.214 A 
ENDBRANCH  15  34
BRANCH  16  40
HETATM   40  O5  UNL     1      -5.888   0.148   0.496  1.00  0.00    -0.315 OA
BRANCH  40  41
HETATM   41  C25 UNL     1      -6.358  -0.624   1.515  1.00  0.00     0.259 C 
HETATM   42  O6  UNL     1      -6.168  -1.827   1.637  1.00  0.00    -0.265 OA
BRANCH  41  43
HETATM   43  C26 UNL     1      -7.147   0.210   2.495  1.00  0.00     0.115 C 
BRANCH  43  44
HETATM   44  C27 UNL     1      -6.287   0.942   3.537  1.00  0.00    -0.013 C 
HETATM   45  C28 UNL     1      -5.460   2.076   2.925  1.00  0.00     0.010 C 
HETATM   46  C29 UNL     1      -5.387  -0.019   4.320  1.00  0.00     0.010 C 
ENDBRANCH  43  44
ENDBRANCH  41  43
ENDBRANCH  40  41
ENDBRANCH  16  40
TORSDOF 10
