REMARK  6 active torsions:
REMARK  status: ('A' for Active; 'I' for Inactive)
REMARK    1  A    between atoms: C4_4  and  C5_5 
REMARK    2  A    between atoms: C5_5  and  C6_6 
REMARK    3  A    between atoms: C6_6  and  C7_7 
REMARK    4  A    between atoms: C7_7  and  C9_9 
REMARK    5  A    between atoms: C16_16  and  O1_17 
REMARK    6  A    between atoms: C19_20  and  O2_21 
ROOT
HETATM    1  C9  UNL     1       1.983  -0.318   0.203  1.00  0.00    -0.002 C 
HETATM    2  C10 UNL     1       2.123   1.228   0.148  1.00  0.00     0.006 C 
HETATM    3  C11 UNL     1       0.729   1.822   0.447  1.00  0.00     0.011 C 
HETATM    4  C12 UNL     1      -0.237   0.764  -0.100  1.00  0.00    -0.032 C 
HETATM    5  C13 UNL     1      -0.248   0.943  -1.648  1.00  0.00     0.016 C 
HETATM    6  C14 UNL     1      -1.703   0.796   0.413  1.00  0.00     0.006 C 
HETATM    7  C15 UNL     1      -2.438   2.125   0.216  1.00  0.00     0.038 C 
HETATM    8  C16 UNL     1      -3.814   2.043   0.876  1.00  0.00     0.123 C 
HETATM    9  C17 UNL     1      -4.732   0.988   0.227  1.00  0.00     0.026 C 
HETATM   10  C18 UNL     1      -5.932   0.726   1.154  1.00  0.00     0.039 C 
HETATM   11  C19 UNL     1      -6.943  -0.235   0.529  1.00  0.00     0.118 C 
HETATM   12  C20 UNL     1      -6.290  -1.383  -0.244  1.00  0.00     0.032 C 
HETATM   13  C21 UNL     1      -4.830  -1.581   0.160  1.00  0.00     0.013 C 
HETATM   14  C22 UNL     1      -4.017  -0.328  -0.137  1.00  0.00    -0.025 A 
HETATM   15  C23 UNL     1      -3.263  -0.299  -1.450  1.00  0.00     0.021 A 
HETATM   16  C24 UNL     1      -2.474  -0.412  -0.162  1.00  0.00    -0.027 A 
HETATM   17  C25 UNL     1      -1.780  -1.766   0.073  1.00  0.00     0.011 C 
HETATM   18  C26 UNL     1      -0.260  -1.763  -0.219  1.00  0.00     0.011 C 
HETATM   19  C27 UNL     1       0.445  -0.557   0.424  1.00  0.00    -0.032 C 
HETATM   20  C28 UNL     1       0.325  -0.764   1.983  1.00  0.00     0.016 C 
ENDROOT
BRANCH   1  21
HETATM   21  C7  UNL     1       2.737  -1.178  -0.851  1.00  0.00    -0.014 C 
HETATM   22  C8  UNL     1       2.518  -0.832  -2.323  1.00  0.00     0.010 C 
BRANCH  21  23
HETATM   23  C6  UNL     1       4.258  -1.289  -0.549  1.00  0.00     0.008 C 
BRANCH  23  24
HETATM   24  C5  UNL     1       5.094  -0.031  -0.797  1.00  0.00     0.028 C 
BRANCH  24  25
HETATM   25  C4  UNL     1       6.555  -0.298  -0.550  1.00  0.00    -0.025 C 
HETATM   26  C2  UNL     1       7.289   0.076   0.516  1.00  0.00    -0.091 C 
HETATM   27  C1  UNL     1       6.757   0.808   1.718  1.00  0.00     0.042 C 
HETATM   28  C3  UNL     1       8.761  -0.240   0.584  1.00  0.00     0.042 C 
ENDBRANCH  24  25
ENDBRANCH  23  24
ENDBRANCH  21  23
ENDBRANCH   1  21
BRANCH   8  29
HETATM   29  O1  UNL     1      -4.432   3.331   0.798  1.00  0.00    -0.395 OA
HETATM   30  H28 UNL     1      -4.479   3.584  -0.140  1.00  0.00     0.210 HD
ENDBRANCH   8  29
BRANCH  11  31
HETATM   31  O2  UNL     1      -7.755  -0.759   1.580  1.00  0.00    -0.396 OA
HETATM   32  H33 UNL     1      -8.432  -1.327   1.175  1.00  0.00     0.210 HD
ENDBRANCH  11  31
TORSDOF 6
