REMARK  8 active torsions:
REMARK  status: ('A' for Active; 'I' for Inactive)
REMARK    1  A    between atoms: C2_2  and  C3_3 
REMARK    2  A    between atoms: C2_2  and  C9_12 
REMARK    3  A    between atoms: C3_3  and  C4_4 
REMARK    4  A    between atoms: C4_4  and  C5_5 
REMARK    5  A    between atoms: C6_6  and  C7_7 
REMARK    6  A    between atoms: C6_6  and  C8_9 
REMARK    7  A    between atoms: C7_7  and  O1_8 
REMARK    8  A    between atoms: C8_9  and  O3_11 
ROOT
HETATM    1  C9  UNL     1       1.269  -0.949  -0.689  1.00  0.00    -0.002 C 
HETATM    2  C10 UNL     1       1.454  -1.851   0.553  1.00  0.00     0.006 C 
HETATM    3  C11 UNL     1       0.250  -1.564   1.469  1.00  0.00     0.006 C 
HETATM    4  C12 UNL     1      -0.637  -0.614   0.662  1.00  0.00    -0.001 C 
HETATM    5  C13 UNL     1      -1.668   0.229   1.428  1.00  0.00    -0.000 C 
HETATM    6  C14 UNL     1      -2.632  -0.737   2.148  1.00  0.00     0.006 C 
HETATM    7  C15 UNL     1      -4.024  -0.206   2.453  1.00  0.00     0.007 C 
HETATM    8  C16 UNL     1      -4.760   0.391   1.241  1.00  0.00     0.010 C 
HETATM    9  C17 UNL     1      -5.429  -0.643   0.264  1.00  0.00     0.018 C 
HETATM   10  C18 UNL     1      -6.541  -1.425   0.997  1.00  0.00     0.023 C 
HETATM   11  C19 UNL     1      -4.474  -1.661  -0.376  1.00  0.00     0.023 C 
HETATM   12  C20 UNL     1      -6.073   0.136  -0.901  1.00  0.00     0.135 C 
HETATM   13  O4  UNL     1      -7.231  -0.055  -1.276  1.00  0.00    -0.297 OA
HETATM   14  C21 UNL     1      -5.190   1.122  -1.628  1.00  0.00     0.080 C 
HETATM   15  C22 UNL     1      -4.671   2.119  -0.617  1.00  0.00     0.018 C 
HETATM   16  C23 UNL     1      -3.900   1.422   0.497  1.00  0.00    -0.026 A 
HETATM   17  C24 UNL     1      -3.051   2.372   1.298  1.00  0.00     0.021 A 
HETATM   18  C25 UNL     1      -2.357   1.270   0.505  1.00  0.00    -0.028 A 
HETATM   19  C26 UNL     1      -1.519   1.827  -0.663  1.00  0.00     0.011 C 
HETATM   20  C27 UNL     1      -0.466   0.890  -1.257  1.00  0.00     0.011 C 
HETATM   21  C28 UNL     1       0.365   0.207  -0.168  1.00  0.00    -0.036 C 
HETATM   22  C29 UNL     1       1.142   1.251   0.657  1.00  0.00     0.016 C 
ENDROOT
BRANCH   1  23
HETATM   23  C2  UNL     1       2.554  -0.588  -1.485  1.00  0.00    -0.014 C 
HETATM   24  C1  UNL     1       2.876  -1.739  -2.457  1.00  0.00     0.010 C 
BRANCH  23  25
HETATM   25  C3  UNL     1       3.802  -0.278  -0.628  1.00  0.00     0.008 C 
BRANCH  25  26
HETATM   26  C4  UNL     1       4.929   0.396  -1.422  1.00  0.00     0.028 C 
BRANCH  26  27
HETATM   27  C5  UNL     1       6.062   0.802  -0.514  1.00  0.00    -0.011 C 
HETATM   28  C6  UNL     1       7.251   0.183  -0.354  1.00  0.00     0.035 C 
BRANCH  28  29
HETATM   29  C7  UNL     1       8.318   0.703   0.560  1.00  0.00     0.209 C 
BRANCH  29  30
HETATM   30  O1  UNL     1       8.341  -0.060   1.762  1.00  0.00    -0.396 OA
HETATM   31  H12 UNL     1       7.425  -0.124   2.083  1.00  0.00     0.209 HD
ENDBRANCH  29  30
ENDBRANCH  28  29
BRANCH  28  32
HETATM   32  C8  UNL     1       7.554  -1.068  -1.078  1.00  0.00     0.173 C 
HETATM   33  O2  UNL     1       6.817  -2.029  -1.209  1.00  0.00    -0.646 OA
BRANCH  32  34
HETATM   34  O3  UNL     1       8.778  -1.040  -1.630  1.00  0.00    -0.773 OA
HETATM   35  H13 UNL     1       8.856  -1.916  -2.062  1.00  0.00     0.167 HD
ENDBRANCH  32  34
ENDBRANCH  28  32
ENDBRANCH  26  27
ENDBRANCH  25  26
ENDBRANCH  23  25
ENDBRANCH   1  23
TORSDOF 8
