REMARK  5 active torsions:
REMARK  status: ('A' for Active; 'I' for Inactive)
REMARK    1  A    between atoms: C2_2  and  C3_3 
REMARK    2  A    between atoms: C8_8  and  C9_9 
REMARK    3  A    between atoms: C9_9  and  C11_11 
REMARK    4  A    between atoms: C11_11  and  C12_12 
REMARK    5  A    between atoms: C12_12  and  C13_13 
ROOT
HETATM    1  C3  UNL     1      -2.180   0.252   0.912  1.00  0.00    -0.032 C 
HETATM    2  C4  UNL     1      -1.301   1.544   1.140  1.00  0.00     0.011 C 
HETATM    3  C5  UNL     1      -0.085   1.728   0.206  1.00  0.00     0.011 C 
HETATM    4  C6  UNL     1       0.804   0.477   0.216  1.00  0.00    -0.032 C 
HETATM    5  C7  UNL     1       1.325   0.281   1.675  1.00  0.00     0.016 C 
HETATM    6  C8  UNL     1       2.008   0.444  -0.768  1.00  0.00    -0.002 C 
HETATM    7  C17 UNL     1       2.321  -1.075  -0.871  1.00  0.00     0.006 C 
HETATM    8  C18 UNL     1       1.052  -1.826  -0.372  1.00  0.00     0.011 C 
HETATM    9  C19 UNL     1      -0.050  -0.740  -0.334  1.00  0.00    -0.032 C 
HETATM   10  C20 UNL     1      -0.512  -0.604  -1.823  1.00  0.00     0.016 C 
HETATM   11  C21 UNL     1      -1.260  -1.001   0.628  1.00  0.00     0.003 C 
HETATM   12  C22 UNL     1      -2.079  -2.256   0.330  1.00  0.00     0.006 C 
HETATM   13  C23 UNL     1      -3.277  -2.137  -0.598  1.00  0.00     0.006 C 
HETATM   14  C24 UNL     1      -3.878  -0.751  -0.918  1.00  0.00     0.005 C 
HETATM   15  C25 UNL     1      -3.175   0.500  -0.292  1.00  0.00    -0.000 C 
HETATM   16  C26 UNL     1      -4.160   1.681  -0.116  1.00  0.00     0.013 C 
HETATM   17  C27 UNL     1      -5.092   1.802  -1.309  1.00  0.00     0.079 C 
HETATM   18  C28 UNL     1      -6.003   0.606  -1.383  1.00  0.00     0.135 C 
HETATM   19  O1  UNL     1      -7.149   0.735  -1.818  1.00  0.00    -0.297 OA
HETATM   20  C29 UNL     1      -5.456  -0.752  -0.914  1.00  0.00     0.017 C 
HETATM   21  C30 UNL     1      -5.986  -1.812  -1.912  1.00  0.00     0.023 C 
HETATM   22  C31 UNL     1      -6.076  -1.035   0.464  1.00  0.00     0.023 C 
ENDROOT
BRANCH   6  23
HETATM   23  C9  UNL     1       3.201   1.434  -0.651  1.00  0.00    -0.014 C 
HETATM   24  C10 UNL     1       4.028   1.392  -1.951  1.00  0.00     0.010 C 
BRANCH  23  25
HETATM   25  C11 UNL     1       4.128   1.466   0.587  1.00  0.00     0.008 C 
BRANCH  25  26
HETATM   26  C12 UNL     1       4.951   0.244   1.007  1.00  0.00     0.028 C 
BRANCH  26  27
HETATM   27  C13 UNL     1       5.963  -0.231   0.005  1.00  0.00    -0.025 C 
HETATM   28  C14 UNL     1       7.233   0.195  -0.138  1.00  0.00    -0.091 C 
HETATM   29  C15 UNL     1       7.873   1.281   0.681  1.00  0.00     0.042 C 
HETATM   30  C16 UNL     1       8.132  -0.406  -1.186  1.00  0.00     0.042 C 
ENDBRANCH  26  27
ENDBRANCH  25  26
ENDBRANCH  23  25
ENDBRANCH   6  23
BRANCH   1  31
HETATM   31  C2  UNL     1      -3.039   0.019   2.210  1.00  0.00     0.006 C 
HETATM   32  C1  UNL     1      -2.312  -0.405   3.486  1.00  0.00     0.006 C 
ENDBRANCH   1  31
TORSDOF 5
