REMARK  15 active torsions:
REMARK  status: ('A' for Active; 'I' for Inactive)
REMARK    1  A    between atoms: C4_5  and  O2_6 
REMARK    2  A    between atoms: C7_10  and  O4_11 
REMARK    3  A    between atoms: O4_11  and  C8_12 
REMARK    4  A    between atoms: C8_12  and  C9_14 
REMARK    5  A    between atoms: C9_14  and  C11_16 
REMARK    6  A    between atoms: C11_16  and  O6_17 
REMARK    7  A    between atoms: C11_16  and  C12_18 
REMARK    8  A    between atoms: C14_20  and  C15_21 
REMARK    9  A    between atoms: C15_21  and  C16_22 
REMARK   10  A    between atoms: C15_21  and  C17_24 
REMARK   11  A    between atoms: C16_22  and  O7_23 
REMARK   12  A    between atoms: C17_24  and  C18_25 
REMARK   13  A    between atoms: C18_25  and  C19_26 
REMARK   14  A    between atoms: C19_26  and  C20_27 
REMARK   15  A    between atoms: C20_27  and  C21_28 
ROOT
HETATM    1  O4  UNL     1      -1.712  -0.455   0.136  1.00  0.00    -0.312 OA
ENDROOT
BRANCH   1   2
HETATM    2  C7  UNL     1      -2.355  -0.266   1.407  1.00  0.00     0.170 C 
HETATM    3  C6  UNL     1      -3.760   0.254   1.169  1.00  0.00     0.127 A 
HETATM    4  C5  UNL     1      -4.012   1.751   1.133  1.00  0.00     0.223 A 
HETATM    5  O3  UNL     1      -4.260   0.970   2.315  1.00  0.00    -0.360 OA
HETATM    6  C27 UNL     1      -4.782  -0.700   0.541  1.00  0.00    -0.003 C 
HETATM    7  C4  UNL     1      -5.235   2.352   0.505  1.00  0.00     0.199 C 
HETATM    8  O1  UNL     1      -5.938   3.132   1.477  1.00  0.00    -0.348 OA
HETATM    9  C30 UNL     1      -6.244   1.340  -0.065  1.00  0.00     0.082 C 
HETATM   10  C3  UNL     1      -7.300   3.229   1.045  1.00  0.00     0.205 C 
HETATM   11  C2  UNL     1      -7.557   2.027   0.203  1.00  0.00    -0.056 C 
HETATM   12  C1  UNL     1      -8.761   1.623  -0.227  1.00  0.00     0.017 C 
HETATM   13  C29 UNL     1      -6.197  -0.048   0.600  1.00  0.00     0.027 C 
HETATM   14  C25 UNL     1      -4.778  -2.033   1.369  1.00  0.00    -0.007 C 
HETATM   15  C28 UNL     1      -4.432  -0.948  -0.945  1.00  0.00     0.019 C 
HETATM   16  C24 UNL     1      -3.353  -2.600   1.557  1.00  0.00     0.007 C 
HETATM   17  C26 UNL     1      -5.689  -3.129   0.806  1.00  0.00     0.011 C 
HETATM   18  C23 UNL     1      -2.418  -1.577   2.200  1.00  0.00     0.036 C 
BRANCH   7  19
HETATM   19  O2  UNL     1      -4.823   3.239  -0.533  1.00  0.00    -0.363 OA
HETATM   20  H5  UNL     1      -4.385   3.966  -0.059  1.00  0.00     0.213 HD
ENDBRANCH   7  19
ENDBRANCH   1   2
BRANCH   1  21
HETATM   21  C8  UNL     1      -0.354  -0.563   0.160  1.00  0.00     0.266 C 
HETATM   22  O5  UNL     1       0.335  -0.474   1.165  1.00  0.00    -0.265 OA
BRANCH  21  23
HETATM   23  C9  UNL     1       0.172  -0.859  -1.228  1.00  0.00     0.114 C 
HETATM   24  C10 UNL     1       0.966  -2.166  -1.203  1.00  0.00     0.023 C 
BRANCH  23  25
HETATM   25  C11 UNL     1       0.931   0.355  -1.799  1.00  0.00     0.159 C 
BRANCH  25  26
HETATM   26  O6  UNL     1       0.859   0.312  -3.232  1.00  0.00    -0.390 OA
HETATM   27  H13 UNL     1       1.122  -0.580  -3.513  1.00  0.00     0.210 HD
ENDBRANCH  25  26
BRANCH  25  28
HETATM   28  C12 UNL     1       2.387   0.508  -1.367  1.00  0.00    -0.058 C 
HETATM   29  C13 UNL     1       2.598   1.190  -0.038  1.00  0.00     0.046 C 
HETATM   30  C14 UNL     1       3.432   0.073  -2.107  1.00  0.00    -0.015 C 
BRANCH  30  31
HETATM   31  C15 UNL     1       4.904   0.116  -1.721  1.00  0.00     0.032 C 
BRANCH  31  32
HETATM   32  C16 UNL     1       5.707   0.954  -2.734  1.00  0.00     0.172 C 
BRANCH  32  33
HETATM   33  O7  UNL     1       5.731   0.354  -4.025  1.00  0.00    -0.400 OA
HETATM   34  H21 UNL     1       4.908   0.615  -4.473  1.00  0.00     0.209 HD
ENDBRANCH  32  33
ENDBRANCH  31  32
BRANCH  31  35
HETATM   35  C17 UNL     1       5.416  -1.334  -1.590  1.00  0.00     0.010 C 
BRANCH  35  36
HETATM   36  C18 UNL     1       6.835  -1.494  -1.026  1.00  0.00     0.001 C 
BRANCH  36  37
HETATM   37  C19 UNL     1       6.991  -1.033   0.430  1.00  0.00     0.000 C 
BRANCH  37  38
HETATM   38  C20 UNL     1       7.619   0.359   0.560  1.00  0.00    -0.000 C 
BRANCH  38  39
HETATM   39  C21 UNL     1       7.744   0.773   2.027  1.00  0.00    -0.005 C 
HETATM   40  C22 UNL     1       8.378   2.149   2.164  1.00  0.00     0.005 C 
ENDBRANCH  38  39
ENDBRANCH  37  38
ENDBRANCH  36  37
ENDBRANCH  35  36
ENDBRANCH  31  35
ENDBRANCH  30  31
ENDBRANCH  25  28
ENDBRANCH  23  25
ENDBRANCH  21  23
ENDBRANCH   1  21
TORSDOF 15
