REMARK  11 active torsions:
REMARK  status: ('A' for Active; 'I' for Inactive)
REMARK    1  A    between atoms: C3_3  and  O1_4 
REMARK    2  A    between atoms: N1_14  and  O2_16 
REMARK    3  A    between atoms: O2_16  and  C13_17 
REMARK    4  A    between atoms: C13_17  and  C14_18 
REMARK       I    between atoms: C14_18  and  N2_20 
REMARK    5  A    between atoms: N2_20  and  C15_21 
REMARK    6  A    between atoms: C15_21  and  C16_22 
REMARK    7  A    between atoms: C15_21  and  C17_25 
REMARK    8  A    between atoms: C16_22  and  O5_24 
REMARK    9  A    between atoms: C17_25  and  O6_26 
REMARK   10  A    between atoms: C17_25  and  C18_27 
REMARK   11  A    between atoms: C22_31  and  N3_32 
ROOT
HETATM    1  C1  UNL     1       8.637  -0.279   3.044  1.00  0.00     0.015 C 
HETATM    2  C2  UNL     1       8.198   0.121   2.000  1.00  0.00    -0.078 C 
HETATM    3  C3  UNL     1       7.682   0.611   0.713  1.00  0.00     0.128 C 
HETATM    4  C4  UNL     1       6.992   1.977   0.856  1.00  0.00     0.052 C 
HETATM    5  C5  UNL     1       5.899   2.014  -0.221  1.00  0.00     0.010 C 
HETATM    6  C6  UNL     1       5.952   0.662  -0.958  1.00  0.00     0.002 C 
HETATM    7  C7  UNL     1       4.615   0.173  -1.558  1.00  0.00    -0.004 C 
HETATM    8  C8  UNL     1       4.002   1.238  -2.478  1.00  0.00     0.010 C 
HETATM    9  C9  UNL     1       2.750   0.716  -3.166  1.00  0.00     0.035 C 
HETATM   10  C10 UNL     1       1.729   0.215  -2.172  1.00  0.00    -0.069 C 
HETATM   11  C11 UNL     1       0.450   0.613  -2.285  1.00  0.00     0.030 C 
HETATM   12  C12 UNL     1      -0.633   0.033  -1.452  1.00  0.00     0.032 C 
HETATM   13  N1  UNL     1      -1.851   0.430  -1.688  1.00  0.00    -0.271 N 
ATOM     14  H1  UNL     1      -2.097   1.148  -2.370  1.00  0.00     0.194 HD
HETATM   15  C24 UNL     1      -0.263  -1.040  -0.451  1.00  0.00     0.060 C 
HETATM   16  C25 UNL     1       1.173  -0.875   0.032  1.00  0.00     0.020 C 
HETATM   17  C26 UNL     1       2.222  -0.777  -1.114  1.00  0.00    -0.016 C 
HETATM   18  C27 UNL     1       2.363  -2.161  -1.791  1.00  0.00     0.020 C 
HETATM   19  C28 UNL     1       3.587  -0.278  -0.490  1.00  0.00     0.002 C 
HETATM   20  C29 UNL     1       4.239  -1.300   0.462  1.00  0.00     0.007 C 
HETATM   21  C30 UNL     1       5.522  -0.764   1.100  1.00  0.00     0.014 C 
HETATM   22  C31 UNL     1       6.589  -0.303   0.071  1.00  0.00     0.003 C 
HETATM   23  C32 UNL     1       7.206  -1.530  -0.627  1.00  0.00     0.020 C 
ENDROOT
BRANCH   3  24
HETATM   24  O1  UNL     1       8.803   0.760  -0.163  1.00  0.00    -0.377 OA
HETATM   25  H2  UNL     1       8.542   1.323  -0.907  1.00  0.00     0.211 HD
ENDBRANCH   3  24
BRANCH  13  26
HETATM   26  O2  UNL     1      -2.784  -0.250  -0.891  1.00  0.00    -0.271 OA
BRANCH  26  27
HETATM   27  C13 UNL     1      -4.087   0.008  -1.401  1.00  0.00     0.303 C 
BRANCH  27  28
HETATM   28  C14 UNL     1      -5.127  -0.533  -0.434  1.00  0.00     0.244 C 
HETATM   29  O3  UNL     1      -6.045  -1.270  -0.788  1.00  0.00    -0.271 OA
HETATM   30  N2  UNL     1      -4.987  -0.081   0.856  1.00  0.00    -0.342 N 
HETATM   31  H16 UNL     1      -4.142   0.417   1.121  1.00  0.00     0.163 HD
BRANCH  30  32
HETATM   32  C15 UNL     1      -5.903  -0.466   1.934  1.00  0.00     0.216 C 
BRANCH  32  33
HETATM   33  C16 UNL     1      -5.147  -0.684   3.242  1.00  0.00     0.166 C 
HETATM   34  O4  UNL     1      -5.638  -1.051   4.300  1.00  0.00    -0.648 OA
BRANCH  33  35
HETATM   35  O5  UNL     1      -3.819  -0.429   3.170  1.00  0.00    -0.775 OA
HETATM   36  H18 UNL     1      -3.499  -0.596   4.083  1.00  0.00     0.167 HD
ENDBRANCH  33  35
ENDBRANCH  32  33
BRANCH  32  37
HETATM   37  C17 UNL     1      -7.010   0.584   2.196  1.00  0.00     0.184 C 
BRANCH  37  38
HETATM   38  O6  UNL     1      -6.431   1.867   2.480  1.00  0.00    -0.388 OA
HETATM   39  H20 UNL     1      -7.174   2.480   2.622  1.00  0.00     0.210 HD
ENDBRANCH  37  38
BRANCH  37  40
HETATM   40  C18 UNL     1      -8.007   0.708   1.053  1.00  0.00    -0.025 A 
HETATM   41  C19 UNL     1      -7.861   1.679   0.048  1.00  0.00     0.010 A 
HETATM   42  C20 UNL     1      -8.766   1.759  -1.014  1.00  0.00     0.003 A 
HETATM   43  C21 UNL     1      -9.831   0.863  -1.096  1.00  0.00     0.036 A 
HETATM   44  C22 UNL     1      -9.981  -0.114  -0.106  1.00  0.00     0.103 A 
HETATM   45  C23 UNL     1      -9.079  -0.195   0.966  1.00  0.00     0.045 A 
BRANCH  44  46
HETATM   46  N3  UNL     1     -11.099  -1.063  -0.188  1.00  0.00    -0.116 N 
HETATM   47  O7  UNL     1     -11.244  -1.866   0.746  1.00  0.00    -0.532 OA
HETATM   48  O8  UNL     1     -11.841  -0.998  -1.178  1.00  0.00    -0.532 OA
ENDBRANCH  44  46
ENDBRANCH  37  40
ENDBRANCH  32  37
ENDBRANCH  30  32
ENDBRANCH  27  28
ENDBRANCH  26  27
ENDBRANCH  13  26
TORSDOF 11
