REMARK  6 active torsions:
REMARK  status: ('A' for Active; 'I' for Inactive)
REMARK    1  A    between atoms: C2_2  and  C30_31 
REMARK    2  A    between atoms: C3_3  and  C4_4 
REMARK    3  A    between atoms: C4_4  and  C5_5 
REMARK    4  A    between atoms: C5_5  and  C6_6 
REMARK    5  A    between atoms: C6_6  and  C8_8 
REMARK    6  A    between atoms: C30_31  and  O3_33 
ROOT
HETATM    1  C8  UNL     1       2.109   0.472   0.446  1.00  0.00    -0.002 C 
HETATM    2  C9  UNL     1       2.279  -1.046   0.763  1.00  0.00     0.007 C 
HETATM    3  C10 UNL     1       0.871  -1.665   0.844  1.00  0.00     0.015 C 
HETATM    4  C11 UNL     1      -0.083  -0.456   0.906  1.00  0.00    -0.013 C 
HETATM    5  C12 UNL     1      -0.108  -0.004   2.402  1.00  0.00     0.021 C 
HETATM    6  C13 UNL     1      -1.540  -0.667   0.503  1.00  0.00    -0.070 C 
HETATM    7  C14 UNL     1      -2.182  -1.829   0.715  1.00  0.00    -0.022 C 
HETATM    8  C15 UNL     1      -3.636  -2.058   0.448  1.00  0.00     0.034 C 
HETATM    9  C16 UNL     1      -4.342  -0.927  -0.336  1.00  0.00     0.013 C 
HETATM   10  C17 UNL     1      -5.905  -1.104  -0.386  1.00  0.00     0.018 C 
HETATM   11  C18 UNL     1      -6.537  -1.653   0.909  1.00  0.00     0.023 C 
HETATM   12  C19 UNL     1      -6.276  -2.082  -1.522  1.00  0.00     0.023 C 
HETATM   13  C20 UNL     1      -6.562   0.236  -0.730  1.00  0.00     0.135 C 
HETATM   14  O1  UNL     1      -7.724   0.508  -0.426  1.00  0.00    -0.297 OA
HETATM   15  C21 UNL     1      -5.741   1.194  -1.547  1.00  0.00     0.080 C 
HETATM   16  C22 UNL     1      -4.477   1.603  -0.807  1.00  0.00     0.017 C 
HETATM   17  C23 UNL     1      -3.832   0.500   0.095  1.00  0.00    -0.031 C 
HETATM   18  C24 UNL     1      -4.195   0.810   1.567  1.00  0.00     0.016 C 
HETATM   19  C25 UNL     1      -2.263   0.530  -0.117  1.00  0.00     0.024 C 
HETATM   20  C26 UNL     1      -1.584   1.874   0.243  1.00  0.00     0.010 C 
HETATM   21  C27 UNL     1      -0.054   1.922   0.013  1.00  0.00     0.011 C 
HETATM   22  C28 UNL     1       0.634   0.541  -0.076  1.00  0.00    -0.029 C 
HETATM   23  C29 UNL     1       0.625   0.064  -1.564  1.00  0.00     0.016 C 
ENDROOT
BRANCH   1  24
HETATM   24  C6  UNL     1       3.275   1.026  -0.429  1.00  0.00    -0.014 C 
HETATM   25  C7  UNL     1       3.082   2.506  -0.776  1.00  0.00     0.010 C 
BRANCH  24  26
HETATM   26  C5  UNL     1       4.632   0.821   0.298  1.00  0.00     0.008 C 
BRANCH  26  27
HETATM   27  C4  UNL     1       5.856   1.165  -0.559  1.00  0.00     0.028 C 
BRANCH  27  28
HETATM   28  C3  UNL     1       7.134   0.774   0.136  1.00  0.00    -0.013 C 
HETATM   29  C2  UNL     1       7.896  -0.318  -0.077  1.00  0.00     0.008 C 
HETATM   30  C1  UNL     1       9.170  -0.546   0.685  1.00  0.00     0.055 C 
BRANCH  29  31
HETATM   31  C30 UNL     1       7.492  -1.377  -1.033  1.00  0.00     0.171 C 
HETATM   32  O2  UNL     1       6.365  -1.654  -1.399  1.00  0.00    -0.646 OA
BRANCH  31  33
HETATM   33  O3  UNL     1       8.553  -2.070  -1.483  1.00  0.00    -0.773 OA
HETATM   34  H46 UNL     1       8.153  -2.723  -2.093  1.00  0.00     0.167 HD
ENDBRANCH  31  33
ENDBRANCH  29  31
ENDBRANCH  27  28
ENDBRANCH  26  27
ENDBRANCH  24  26
ENDBRANCH   1  24
TORSDOF 6
