REMARK  8 active torsions:
REMARK  status: ('A' for Active; 'I' for Inactive)
REMARK    1  A    between atoms: C3_3  and  O1_4 
REMARK    2  A    between atoms: N1_14  and  O2_16 
REMARK    3  A    between atoms: O2_16  and  C13_17 
REMARK    4  A    between atoms: C13_17  and  C14_18 
REMARK       I    between atoms: C14_18  and  N2_20 
REMARK    5  A    between atoms: N2_20  and  C15_21 
REMARK    6  A    between atoms: C15_21  and  C16_22 
REMARK    7  A    between atoms: C16_22  and  O4_23 
REMARK    8  A    between atoms: C16_22  and  C17_24 
ROOT
HETATM    1  C1  UNL     1      -6.625   4.473  -0.429  1.00  0.00     0.015 C 
HETATM    2  C2  UNL     1      -6.312   3.320  -0.303  1.00  0.00    -0.078 C 
HETATM    3  C3  UNL     1      -5.938   1.907  -0.132  1.00  0.00     0.128 C 
HETATM    4  C4  UNL     1      -6.816   0.975  -0.973  1.00  0.00     0.052 C 
HETATM    5  C5  UNL     1      -6.059  -0.346  -0.900  1.00  0.00     0.010 C 
HETATM    6  C6  UNL     1      -4.595   0.064  -1.095  1.00  0.00     0.002 C 
HETATM    7  C7  UNL     1      -3.522  -0.937  -0.600  1.00  0.00    -0.004 C 
HETATM    8  C8  UNL     1      -3.787  -1.616   0.755  1.00  0.00     0.010 C 
HETATM    9  C9  UNL     1      -2.675  -2.595   1.134  1.00  0.00     0.035 C 
HETATM   10  C10 UNL     1      -1.282  -2.018   1.015  1.00  0.00    -0.069 C 
HETATM   11  C11 UNL     1      -0.393  -2.188   2.010  1.00  0.00     0.030 C 
HETATM   12  C12 UNL     1       1.026  -1.769   1.872  1.00  0.00     0.032 C 
HETATM   13  N1  UNL     1       1.787  -1.848   2.927  1.00  0.00    -0.271 N 
ATOM     14  H1  UNL     1       1.463  -2.144   3.847  1.00  0.00     0.194 HD
HETATM   15  C23 UNL     1       1.496  -1.340   0.497  1.00  0.00     0.060 C 
HETATM   16  C24 UNL     1       0.404  -0.532  -0.194  1.00  0.00     0.020 C 
HETATM   17  C25 UNL     1      -0.960  -1.281  -0.285  1.00  0.00    -0.016 C 
HETATM   18  C26 UNL     1      -0.834  -2.330  -1.421  1.00  0.00     0.020 C 
HETATM   19  C27 UNL     1      -2.123  -0.266  -0.616  1.00  0.00     0.002 C 
HETATM   20  C28 UNL     1      -2.104   1.007   0.278  1.00  0.00     0.007 C 
HETATM   21  C29 UNL     1      -3.457   1.660   0.563  1.00  0.00     0.014 C 
HETATM   22  C30 UNL     1      -4.476   1.541  -0.579  1.00  0.00     0.003 C 
HETATM   23  C31 UNL     1      -3.997   2.427  -1.763  1.00  0.00     0.020 C 
ENDROOT
BRANCH   3  24
HETATM   24  O1  UNL     1      -6.153   1.555   1.238  1.00  0.00    -0.377 OA
HETATM   25  H2  UNL     1      -7.007   1.934   1.503  1.00  0.00     0.211 HD
ENDBRANCH   3  24
BRANCH  13  26
HETATM   26  O2  UNL     1       3.106  -1.475   2.639  1.00  0.00    -0.271 OA
BRANCH  26  27
HETATM   27  C13 UNL     1       3.818  -1.307   3.861  1.00  0.00     0.303 C 
BRANCH  27  28
HETATM   28  C14 UNL     1       5.230  -0.809   3.568  1.00  0.00     0.243 C 
HETATM   29  O3  UNL     1       5.848  -0.088   4.347  1.00  0.00    -0.271 OA
HETATM   30  N2  UNL     1       5.761  -1.250   2.374  1.00  0.00    -0.356 N 
HETATM   31  H16 UNL     1       5.112  -1.669   1.716  1.00  0.00     0.162 HD
BRANCH  30  32
HETATM   32  C15 UNL     1       7.036  -0.755   1.881  1.00  0.00     0.159 C 
BRANCH  32  33
HETATM   33  C16 UNL     1       6.964   0.674   1.304  1.00  0.00     0.170 C 
BRANCH  33  34
HETATM   34  O4  UNL     1       8.288   1.142   1.029  1.00  0.00    -0.389 OA
HETATM   35  H20 UNL     1       8.194   2.034   0.651  1.00  0.00     0.210 HD
ENDBRANCH  33  34
BRANCH  33  36
HETATM   36  C17 UNL     1       6.147   0.728   0.034  1.00  0.00    -0.013 A 
HETATM   37  C18 UNL     1       6.680   0.378  -1.211  1.00  0.00     0.013 A 
HETATM   38  C19 UNL     1       5.875   0.415  -2.345  1.00  0.00     0.025 A 
HETATM   39  C20 UNL     1       4.542   0.788  -2.211  1.00  0.00     0.005 A 
HETATM   40  C21 UNL     1       3.651   0.838  -3.418  1.00  0.00     0.068 C 
HETATM   41  N3  UNL     1       3.997   1.120  -1.018  1.00  0.00    -0.369 N 
HETATM   42  C22 UNL     1       4.805   1.087   0.068  1.00  0.00     0.097 A 
ATOM     43  H3  UNL     1       3.015   1.385  -0.940  1.00  0.00     0.165 HD
ENDBRANCH  33  36
ENDBRANCH  32  33
ENDBRANCH  30  32
ENDBRANCH  27  28
ENDBRANCH  26  27
ENDBRANCH  13  26
TORSDOF 8
