REMARK  6 active torsions:
REMARK  status: ('A' for Active; 'I' for Inactive)
REMARK    1  A    between atoms: C2_2  and  C3_3 
REMARK    2  A    between atoms: C7_8  and  C8_9 
REMARK    3  A    between atoms: C21_24  and  C22_25 
REMARK    4  A    between atoms: C22_25  and  O1_26 
REMARK    5  A    between atoms: C23_27  and  C26_30 
REMARK    6  A    between atoms: C27_31  and  O2_32 
ROOT
HETATM    1  C8  UNL     1      -0.077  -1.006  -0.358  1.00  0.00    -0.003 C 
HETATM    2  C9  UNL     1      -0.850  -2.058  -0.026  1.00  0.00     0.102 C 
HETATM    3  N2  UNL     1      -2.210  -1.950   0.180  1.00  0.00    -0.349 N 
HETATM    4  C10 UNL     1      -3.187  -2.736  -0.494  1.00  0.00     0.041 A 
HETATM    5  C11 UNL     1      -3.005  -3.974  -1.090  1.00  0.00     0.030 A 
HETATM    6  C12 UNL     1      -4.088  -4.575  -1.740  1.00  0.00     0.002 A 
HETATM    7  C13 UNL     1      -5.336  -3.938  -1.787  1.00  0.00     0.001 A 
HETATM    8  C14 UNL     1      -5.523  -2.695  -1.181  1.00  0.00     0.010 A 
HETATM    9  C15 UNL     1      -4.443  -2.105  -0.541  1.00  0.00    -0.018 A 
HETATM   10  C16 UNL     1      -4.381  -0.812   0.217  1.00  0.00     0.043 C 
HETATM   11  C17 UNL     1      -4.995  -0.966   1.613  1.00  0.00     0.049 C 
HETATM   12  C18 UNL     1      -5.099   0.472   2.092  1.00  0.00     0.274 C 
HETATM   13  N3  UNL     1      -5.320   1.267   0.882  1.00  0.00     0.098 N 
HETATM   14  C19 UNL     1      -4.600   2.534   0.865  1.00  0.00     0.307 C 
HETATM   15  C20 UNL     1      -3.191   2.480   0.275  1.00  0.00    -0.049 C 
HETATM   16  C21 UNL     1      -2.260   3.317   0.787  1.00  0.00     0.004 C 
HETATM   17  C23 UNL     1      -3.026   1.600  -0.968  1.00  0.00     0.027 C 
HETATM   18  C24 UNL     1      -4.427   1.170  -1.449  1.00  0.00     0.046 C 
HETATM   19  C25 UNL     1      -5.134   0.420  -0.315  1.00  0.00     0.239 C 
HETATM   20  C26 UNL     1      -2.248   0.271  -0.802  1.00  0.00     0.052 C 
HETATM   21  C27 UNL     1      -0.725   0.358  -0.588  1.00  0.00     0.160 C 
HETATM   22  C28 UNL     1      -2.843  -0.612   0.309  1.00  0.00     0.112 C 
ENDROOT
BRANCH   1  23
HETATM   23  C7  UNL     1       1.395  -1.114  -0.454  1.00  0.00    -0.016 A 
HETATM   24  C3  UNL     1       2.069  -2.030  -1.285  1.00  0.00    -0.032 A 
HETATM   25  C4  UNL     1       3.467  -2.055  -1.235  1.00  0.00     0.099 A 
HETATM   26  N1  UNL     1       4.173  -1.187  -0.474  1.00  0.00    -0.354 N 
HETATM   27  C5  UNL     1       3.534  -0.248   0.276  1.00  0.00     0.062 A 
HETATM   28  C32 UNL     1       5.667  -1.351  -0.386  1.00  0.00     0.133 C 
HETATM   29  C6  UNL     1       2.147  -0.213   0.311  1.00  0.00     0.044 A 
HETATM   30  C29 UNL     1       4.379   0.705   0.972  1.00  0.00     0.067 A 
HETATM   31  C30 UNL     1       5.733   0.836   0.748  1.00  0.00    -0.015 A 
HETATM   32  N4  UNL     1       4.018   1.653   1.894  1.00  0.00    -0.353 N 
HETATM   33  C31 UNL     1       6.410  -0.017  -0.258  1.00  0.00     0.062 C 
HETATM   34  C33 UNL     1       6.228   1.865   1.589  1.00  0.00    -0.001 A 
HETATM   35  C34 UNL     1       7.496   2.435   1.811  1.00  0.00     0.014 A 
HETATM   36  C38 UNL     1       5.132   2.360   2.299  1.00  0.00     0.043 A 
HETATM   37  C35 UNL     1       7.623   3.475   2.739  1.00  0.00     0.001 A 
HETATM   38  C36 UNL     1       6.513   3.950   3.434  1.00  0.00     0.002 A 
HETATM   39  C37 UNL     1       5.244   3.402   3.226  1.00  0.00     0.030 A 
HETATM   40  H39 UNL     1       3.084   1.836   2.241  1.00  0.00     0.166 HD
BRANCH  24  41
HETATM   41  C2  UNL     1       1.311  -2.982  -2.195  1.00  0.00     0.036 C 
HETATM   42  C1  UNL     1       2.068  -3.511  -3.410  1.00  0.00     0.010 C 
ENDBRANCH  24  41
ENDBRANCH   1  23
BRANCH  21  43
HETATM   43  O2  UNL     1      -0.120   0.954  -1.739  1.00  0.00    -0.390 OA
HETATM   44  H29 UNL     1      -0.408   0.440  -2.513  1.00  0.00     0.210 HD
ENDBRANCH  21  43
BRANCH  16  45
HETATM   45  C22 UNL     1      -0.892   3.639   0.284  1.00  0.00     0.191 C 
BRANCH  45  46
HETATM   46  O1  UNL     1       0.053   3.240   1.272  1.00  0.00    -0.397 OA
HETATM   47  H22 UNL     1       0.016   3.923   1.964  1.00  0.00     0.209 HD
ENDBRANCH  45  46
ENDBRANCH  16  45
TORSDOF 6
