REMARK  12 active torsions:
REMARK  status: ('A' for Active; 'I' for Inactive)
REMARK    1  A    between atoms: C2_2  and  C3_4 
REMARK    2  A    between atoms: C3_4  and  O2_5 
REMARK    3  A    between atoms: N1_15  and  O3_17 
REMARK    4  A    between atoms: O3_17  and  C13_18 
REMARK    5  A    between atoms: C13_18  and  C14_19 
REMARK       I    between atoms: C14_19  and  N2_21 
REMARK    6  A    between atoms: N2_21  and  C15_22 
REMARK    7  A    between atoms: C15_22  and  C16_23 
REMARK       I    between atoms: C16_23  and  N3_25 
REMARK    8  A    between atoms: N3_25  and  C17_26 
REMARK    9  A    between atoms: C17_26  and  C18_27 
REMARK   10  A    between atoms: C17_26  and  C27_37 
REMARK   11  A    between atoms: C18_27  and  C19_28 
REMARK   12  A    between atoms: C27_37  and  O7_39 
ROOT
HETATM    1  O3  UNL     1       1.468   0.601   0.669  1.00  0.00    -0.271 OA
ENDROOT
BRANCH   1   2
HETATM    2  N1  UNL     1       0.770   1.812   0.557  1.00  0.00    -0.271 N 
HETATM    3  C12 UNL     1      -0.405   1.672   0.022  1.00  0.00     0.032 C 
HETATM    4  C11 UNL     1      -0.998   0.406  -0.490  1.00  0.00     0.030 C 
HETATM    5  C28 UNL     1      -1.231   2.929  -0.141  1.00  0.00     0.060 C 
HETATM    6  C10 UNL     1      -2.277   0.347  -0.912  1.00  0.00    -0.069 C 
HETATM    7  C9  UNL     1      -2.805  -0.928  -1.529  1.00  0.00     0.035 C 
HETATM    8  C30 UNL     1      -3.264   1.521  -0.836  1.00  0.00    -0.016 C 
HETATM    9  C8  UNL     1      -4.112  -1.369  -0.883  1.00  0.00     0.010 C 
HETATM   10  C7  UNL     1      -5.171  -0.258  -0.935  1.00  0.00    -0.004 C 
HETATM   11  C6  UNL     1      -6.525  -0.749  -0.375  1.00  0.00     0.002 C 
HETATM   12  C32 UNL     1      -4.643   1.025  -0.243  1.00  0.00     0.002 C 
HETATM   13  C5  UNL     1      -6.481  -1.351   1.040  1.00  0.00     0.009 C 
HETATM   14  C35 UNL     1      -7.614   0.344  -0.286  1.00  0.00    -0.002 C 
HETATM   15  C4  UNL     1      -7.855  -1.100   1.671  1.00  0.00     0.047 C 
HETATM   16  C3  UNL     1      -8.690  -0.338   0.621  1.00  0.00     0.125 C 
HETATM   17  C34 UNL     1      -7.043   1.624   0.385  1.00  0.00     0.013 C 
HETATM   18  C36 UNL     1      -8.158   0.715  -1.678  1.00  0.00     0.019 C 
HETATM   19  C33 UNL     1      -5.734   2.114  -0.238  1.00  0.00     0.007 C 
HETATM   20  C29 UNL     1      -2.700   2.626   0.103  1.00  0.00     0.020 C 
HETATM   21  C31 UNL     1      -3.421   2.110  -2.258  1.00  0.00     0.020 C 
ATOM     22  H1  UNL     1       1.146   2.709   0.864  1.00  0.00     0.194 HD
BRANCH  16  23
HETATM   23  C2  UNL     1      -9.597  -1.343  -0.143  1.00  0.00     0.158 C 
HETATM   24  C1  UNL     1     -10.990  -0.889  -0.506  1.00  0.00     0.094 C 
HETATM   25  O1  UNL     1      -9.212  -2.472  -0.458  1.00  0.00    -0.295 OA
ENDBRANCH  16  23
BRANCH  16  26
HETATM   26  O2  UNL     1      -9.492   0.640   1.276  1.00  0.00    -0.381 OA
HETATM   27  H4  UNL     1      -9.926   0.214   2.038  1.00  0.00     0.211 HD
ENDBRANCH  16  26
ENDBRANCH   1   2
BRANCH   1  28
HETATM   28  C13 UNL     1       2.665   0.859   1.398  1.00  0.00     0.303 C 
BRANCH  28  29
HETATM   29  C14 UNL     1       3.521  -0.393   1.541  1.00  0.00     0.244 C 
HETATM   30  O4  UNL     1       4.358  -0.515   2.431  1.00  0.00    -0.271 OA
HETATM   31  N2  UNL     1       3.350  -1.338   0.549  1.00  0.00    -0.350 N 
HETATM   32  H18 UNL     1       2.488  -1.270   0.021  1.00  0.00     0.163 HD
BRANCH  31  33
HETATM   33  C15 UNL     1       3.968  -2.654   0.684  1.00  0.00     0.225 C 
BRANCH  33  34
HETATM   34  C16 UNL     1       5.467  -2.692   0.353  1.00  0.00     0.236 C 
HETATM   35  O5  UNL     1       6.162  -3.678   0.584  1.00  0.00    -0.272 OA
HETATM   36  N3  UNL     1       5.943  -1.580  -0.295  1.00  0.00    -0.345 N 
HETATM   37  H21 UNL     1       5.320  -0.787  -0.404  1.00  0.00     0.163 HD
BRANCH  36  38
HETATM   38  C17 UNL     1       7.369  -1.358  -0.561  1.00  0.00     0.186 C 
BRANCH  38  39
HETATM   39  C18 UNL     1       8.090  -0.912   0.721  1.00  0.00     0.077 C 
BRANCH  39  40
HETATM   40  C19 UNL     1       9.569  -1.151   0.699  1.00  0.00    -0.028 A 
HETATM   41  C20 UNL     1      10.192  -2.371   0.885  1.00  0.00     0.096 A 
HETATM   42  N4  UNL     1      11.544  -2.180   0.820  1.00  0.00    -0.365 N 
HETATM   43  C21 UNL     1      11.827  -0.852   0.603  1.00  0.00     0.042 A 
HETATM   44  H26 UNL     1      12.242  -2.904   0.924  1.00  0.00     0.165 HD
HETATM   45  C22 UNL     1      13.062  -0.203   0.480  1.00  0.00     0.030 A 
HETATM   46  C26 UNL     1      10.607  -0.180   0.517  1.00  0.00    -0.002 A 
HETATM   47  C23 UNL     1      13.049   1.177   0.257  1.00  0.00     0.002 A 
HETATM   48  C24 UNL     1      11.849   1.877   0.165  1.00  0.00     0.001 A 
HETATM   49  C25 UNL     1      10.623   1.213   0.294  1.00  0.00     0.014 A 
ENDBRANCH  39  40
ENDBRANCH  38  39
BRANCH  38  50
HETATM   50  C27 UNL     1       7.504  -0.276  -1.637  1.00  0.00     0.163 C 
HETATM   51  O6  UNL     1       8.513   0.055  -2.238  1.00  0.00    -0.648 OA
BRANCH  50  52
HETATM   52  O7  UNL     1       6.350   0.400  -1.876  1.00  0.00    -0.775 OA
HETATM   53  H31 UNL     1       6.613   1.045  -2.567  1.00  0.00     0.167 HD
ENDBRANCH  50  52
ENDBRANCH  38  50
ENDBRANCH  36  38
ENDBRANCH  33  34
ENDBRANCH  31  33
ENDBRANCH  28  29
ENDBRANCH   1  28
TORSDOF 12
