REMARK  6 active torsions:
REMARK  status: ('A' for Active; 'I' for Inactive)
REMARK    1  A    between atoms: O1_2  and  C2_3 
REMARK    2  A    between atoms: C17_20  and  C18_21 
REMARK    3  A    between atoms: C22_27  and  O6_28 
REMARK    4  A    between atoms: O6_28  and  C23_29 
REMARK    5  A    between atoms: C26_33  and  O8_34 
REMARK    6  A    between atoms: C31_40  and  O10_41 
ROOT
HETATM    1  C2  UNL     1       3.695  -3.688   4.076  1.00  0.00     0.190 C 
HETATM    2  C3  UNL     1       5.025  -4.304   4.530  1.00  0.00     0.064 C 
HETATM    3  C4  UNL     1       6.232  -3.637   3.890  1.00  0.00     0.174 C 
HETATM    4  O2  UNL     1       5.925  -3.274   2.556  1.00  0.00    -0.356 OA
HETATM    5  C5  UNL     1       5.004  -2.172   2.477  1.00  0.00     0.325 C 
HETATM    6  O3  UNL     1       4.567  -2.120   1.111  1.00  0.00    -0.344 OA
HETATM    7  C6  UNL     1       3.212  -1.727   0.927  1.00  0.00     0.177 C 
HETATM    8  C7  UNL     1       3.089  -1.039  -0.397  1.00  0.00     0.011 C 
HETATM    9  C8  UNL     1       2.302   0.033  -0.618  1.00  0.00    -0.072 C 
HETATM   10  C9  UNL     1       2.262   0.688  -1.974  1.00  0.00     0.035 C 
HETATM   11  C10 UNL     1       0.834   0.774  -2.499  1.00  0.00     0.012 C 
HETATM   12  C11 UNL     1      -0.110   1.491  -1.509  1.00  0.00     0.026 C 
HETATM   13  C12 UNL     1      -0.062   0.790  -0.120  1.00  0.00     0.005 C 
HETATM   14  C13 UNL     1      -1.033   1.471   0.858  1.00  0.00     0.007 C 
HETATM   15  C14 UNL     1      -2.454   1.504   0.305  1.00  0.00     0.013 C 
HETATM   16  C15 UNL     1      -2.573   2.237  -1.062  1.00  0.00    -0.003 C 
HETATM   17  C16 UNL     1      -2.399   3.749  -0.817  1.00  0.00     0.019 C 
HETATM   18  C17 UNL     1      -3.964   1.881  -1.694  1.00  0.00     0.058 C 
HETATM   19  C22 UNL     1      -3.723   0.481  -2.328  1.00  0.00     0.143 C 
HETATM   20  C25 UNL     1      -2.209   0.343  -2.569  1.00  0.00     0.072 C 
HETATM   21  C26 UNL     1      -1.553   1.647  -2.077  1.00  0.00     0.072 C 
HETATM   22  C27 UNL     1       1.399   0.651   0.459  1.00  0.00    -0.014 C 
HETATM   23  C28 UNL     1       1.998   2.020   0.866  1.00  0.00     0.020 C 
HETATM   24  C29 UNL     1       1.355  -0.255   1.730  1.00  0.00     0.049 C 
HETATM   25  C30 UNL     1       2.721  -0.842   2.073  1.00  0.00     0.159 C 
HETATM   26  O9  UNL     1       2.605  -1.675   3.225  1.00  0.00    -0.341 OA
HETATM   27  C31 UNL     1       3.876  -2.225   3.599  1.00  0.00     0.240 C 
ENDROOT
BRANCH  18  28
HETATM   28  C18 UNL     1      -4.654   2.882  -2.595  1.00  0.00    -0.043 A 
HETATM   29  C19 UNL     1      -5.857   3.409  -2.357  1.00  0.00     0.087 A 
HETATM   30  C20 UNL     1      -6.208   4.240  -3.506  1.00  0.00     0.283 A 
HETATM   31  O4  UNL     1      -7.247   4.864  -3.620  1.00  0.00    -0.260 OA
HETATM   32  O5  UNL     1      -5.207   4.180  -4.419  1.00  0.00    -0.314 OA
HETATM   33  C21 UNL     1      -4.145   3.371  -3.900  1.00  0.00     0.214 A 
ENDBRANCH  18  28
BRANCH  19  34
HETATM   34  O6  UNL     1      -4.483   0.288  -3.529  1.00  0.00    -0.316 OA
BRANCH  34  35
HETATM   35  C23 UNL     1      -4.608  -1.000  -3.950  1.00  0.00     0.255 C 
HETATM   36  C24 UNL     1      -5.415  -1.053  -5.211  1.00  0.00     0.126 C 
HETATM   37  O7  UNL     1      -4.108  -1.974  -3.406  1.00  0.00    -0.266 OA
ENDBRANCH  34  35
ENDBRANCH  19  34
BRANCH  21  38
HETATM   38  O8  UNL     1      -1.475   2.527  -3.207  1.00  0.00    -0.389 OA
HETATM   39  H35 UNL     1      -0.950   2.100  -3.906  1.00  0.00     0.210 HD
ENDBRANCH  21  38
BRANCH  27  40
HETATM   40  O10 UNL     1       4.302  -1.450   4.733  1.00  0.00    -0.360 OA
HETATM   41  H42 UNL     1       3.677  -1.731   5.432  1.00  0.00     0.213 HD
ENDBRANCH  27  40
BRANCH   1  42
HETATM   42  O1  UNL     1       2.776  -3.694   5.194  1.00  0.00    -0.385 OA
HETATM   43  C1  UNL     1       2.180  -4.967   5.412  1.00  0.00     0.202 C 
ENDBRANCH   1  42
TORSDOF 6
