REMARK  8 active torsions:
REMARK  status: ('A' for Active; 'I' for Inactive)
REMARK    1  A    between atoms: C2_2  and  C3_3 
REMARK    2  A    between atoms: C2_2  and  C29_30 
REMARK    3  A    between atoms: C3_3  and  C4_4 
REMARK    4  A    between atoms: C4_4  and  C5_5 
REMARK    5  A    between atoms: C5_5  and  C7_7 
REMARK    6  A    between atoms: C29_30  and  C31_32 
REMARK    7  A    between atoms: C31_32  and  O2_33 
REMARK    8  A    between atoms: O2_33  and  C32_34 
ROOT
HETATM    1  C7  UNL     1       1.140  -0.244   0.349  1.00  0.00    -0.002 C 
HETATM    2  C8  UNL     1       1.456   0.005  -1.161  1.00  0.00     0.006 C 
HETATM    3  C9  UNL     1       0.119   0.305  -1.877  1.00  0.00     0.011 C 
HETATM    4  C10 UNL     1      -0.873   0.533  -0.732  1.00  0.00    -0.032 C 
HETATM    5  C11 UNL     1      -0.639   2.022  -0.262  1.00  0.00     0.016 C 
HETATM    6  C12 UNL     1      -2.388   0.461  -1.051  1.00  0.00     0.004 C 
HETATM    7  C13 UNL     1      -2.928  -0.759  -1.872  1.00  0.00     0.007 C 
HETATM    8  C14 UNL     1      -4.194  -1.454  -1.269  1.00  0.00     0.007 C 
HETATM    9  C15 UNL     1      -5.249  -0.415  -0.864  1.00  0.00     0.010 C 
HETATM   10  C16 UNL     1      -6.552  -0.752  -0.138  1.00  0.00     0.018 C 
HETATM   11  C17 UNL     1      -6.307  -1.341   1.256  1.00  0.00     0.023 C 
HETATM   12  C18 UNL     1      -7.406  -1.728  -0.960  1.00  0.00     0.023 C 
HETATM   13  C19 UNL     1      -7.333   0.587  -0.012  1.00  0.00     0.135 C 
HETATM   14  O1  UNL     1      -8.332   0.670   0.708  1.00  0.00    -0.297 OA
HETATM   15  C20 UNL     1      -6.913   1.786  -0.891  1.00  0.00     0.080 C 
HETATM   16  C21 UNL     1      -5.384   1.995  -1.045  1.00  0.00     0.018 C 
HETATM   17  C22 UNL     1      -4.679   0.873  -0.304  1.00  0.00    -0.026 A 
HETATM   18  C23 UNL     1      -4.082   1.529   0.900  1.00  0.00     0.021 A 
HETATM   19  C24 UNL     1      -3.199   0.550   0.234  1.00  0.00    -0.027 A 
HETATM   20  C25 UNL     1      -2.724  -0.425   1.341  1.00  0.00     0.011 C 
HETATM   21  C26 UNL     1      -1.202  -0.335   1.609  1.00  0.00     0.011 C 
HETATM   22  C27 UNL     1      -0.394  -0.549   0.318  1.00  0.00    -0.032 C 
HETATM   23  C28 UNL     1      -0.569  -2.037  -0.103  1.00  0.00     0.016 C 
ENDROOT
BRANCH   1  24
HETATM   24  C5  UNL     1       2.137  -1.247   0.997  1.00  0.00    -0.014 C 
HETATM   25  C6  UNL     1       1.848  -1.479   2.484  1.00  0.00     0.010 C 
BRANCH  24  26
HETATM   26  C4  UNL     1       3.622  -0.829   0.809  1.00  0.00     0.009 C 
BRANCH  26  27
HETATM   27  C3  UNL     1       3.983   0.554   1.369  1.00  0.00     0.034 C 
BRANCH  27  28
HETATM   28  C2  UNL     1       5.468   0.869   1.251  1.00  0.00    -0.083 C 
HETATM   29  C1  UNL     1       6.230   0.862   2.361  1.00  0.00     0.015 C 
BRANCH  28  30
HETATM   30  C29 UNL     1       5.996   1.193  -0.154  1.00  0.00     0.034 C 
HETATM   31  C30 UNL     1       5.539   2.594  -0.580  1.00  0.00     0.017 C 
BRANCH  30  32
HETATM   32  C31 UNL     1       7.526   1.094  -0.344  1.00  0.00     0.187 C 
BRANCH  32  33
HETATM   33  O2  UNL     1       7.957  -0.260  -0.127  1.00  0.00    -0.321 OA
BRANCH  33  34
HETATM   34  C32 UNL     1       9.308  -0.418  -0.089  1.00  0.00     0.254 C 
HETATM   35  C33 UNL     1       9.651  -1.852   0.175  1.00  0.00     0.126 C 
HETATM   36  O3  UNL     1      10.132   0.473  -0.245  1.00  0.00    -0.266 OA
ENDBRANCH  33  34
ENDBRANCH  32  33
ENDBRANCH  30  32
ENDBRANCH  28  30
ENDBRANCH  27  28
ENDBRANCH  26  27
ENDBRANCH  24  26
ENDBRANCH   1  24
TORSDOF 8
