REMARK  13 active torsions:
REMARK  status: ('A' for Active; 'I' for Inactive)
REMARK    1  A    between atoms: O1_2  and  C2_3 
REMARK    2  A    between atoms: C12_14  and  C13_15 
REMARK    3  A    between atoms: C13_15  and  C15_17 
REMARK    4  A    between atoms: C15_17  and  C16_18 
REMARK    5  A    between atoms: C17_19  and  C18_20 
REMARK    6  A    between atoms: C18_20  and  O3_23 
REMARK    7  A    between atoms: C29_32  and  O4_33 
REMARK    8  A    between atoms: O4_33  and  C30_34 
REMARK    9  A    between atoms: C31_36  and  C32_37 
REMARK   10  A    between atoms: C32_37  and  O6_38 
REMARK   11  A    between atoms: C33_39  and  O7_40 
REMARK   12  A    between atoms: C34_41  and  O8_42 
REMARK   13  A    between atoms: C35_43  and  O9_44 
ROOT
HETATM    1  C2  UNL     1      -1.951   1.523   0.505  1.00  0.00     0.270 C 
HETATM    2  O2  UNL     1      -2.855   1.137   1.572  1.00  0.00    -0.344 OA
HETATM    3  C3  UNL     1      -2.401  -0.128   2.104  1.00  0.00     0.095 C 
HETATM    4  C4  UNL     1      -1.382   0.261   3.170  1.00  0.00     0.008 C 
HETATM    5  C5  UNL     1      -0.124   0.608   2.862  1.00  0.00    -0.021 C 
HETATM    6  C6  UNL     1       0.337   0.694   1.424  1.00  0.00     0.030 C 
HETATM    7  C7  UNL     1      -0.846   0.416   0.399  1.00  0.00     0.024 C 
HETATM    8  C8  UNL     1      -0.326   0.345  -1.065  1.00  0.00     0.016 C 
HETATM    9  C9  UNL     1       1.010  -0.388  -1.297  1.00  0.00     0.011 C 
HETATM   10  C10 UNL     1       2.113   0.097  -0.340  1.00  0.00    -0.032 C 
HETATM   11  C11 UNL     1       2.416   1.598  -0.659  1.00  0.00     0.016 C 
HETATM   12  C12 UNL     1       3.467  -0.687  -0.324  1.00  0.00    -0.002 C 
HETATM   13  C22 UNL     1       4.039  -0.322   1.091  1.00  0.00     0.006 C 
HETATM   14  C23 UNL     1       2.870   0.222   1.936  1.00  0.00     0.011 C 
HETATM   15  C24 UNL     1       1.613  -0.160   1.136  1.00  0.00    -0.029 C 
HETATM   16  C25 UNL     1       1.371  -1.673   1.473  1.00  0.00     0.016 C 
HETATM   17  C26 UNL     1      -1.702  -0.780   0.888  1.00  0.00     0.039 C 
HETATM   18  C27 UNL     1      -2.684  -1.326  -0.166  1.00  0.00     0.011 C 
HETATM   19  C28 UNL     1      -3.755  -2.217   0.444  1.00  0.00     0.033 C 
HETATM   20  C29 UNL     1      -4.522  -1.506   1.560  1.00  0.00     0.136 C 
HETATM   21  C36 UNL     1      -3.577  -0.988   2.688  1.00  0.00     0.014 C 
HETATM   22  C37 UNL     1      -4.414  -0.164   3.702  1.00  0.00     0.021 C 
HETATM   23  C38 UNL     1      -3.020  -2.226   3.446  1.00  0.00     0.021 C 
ENDROOT
BRANCH  20  24
HETATM   24  O4  UNL     1      -5.220  -0.410   0.964  1.00  0.00    -0.352 OA
BRANCH  24  25
HETATM   25  C30 UNL     1      -6.634  -0.444   1.194  1.00  0.00     0.292 C 
HETATM   26  O5  UNL     1      -7.228  -1.334   0.253  1.00  0.00    -0.348 OA
HETATM   27  C31 UNL     1      -7.790  -0.720  -0.912  1.00  0.00     0.179 C 
HETATM   28  C33 UNL     1      -6.962   0.486  -1.385  1.00  0.00     0.180 C 
HETATM   29  C34 UNL     1      -6.888   1.567  -0.292  1.00  0.00     0.183 C 
HETATM   30  C35 UNL     1      -7.142   1.006   1.110  1.00  0.00     0.204 C 
BRANCH  27  31
HETATM   31  C32 UNL     1      -7.893  -1.789  -2.013  1.00  0.00     0.198 C 
BRANCH  31  32
HETATM   32  O6  UNL     1      -8.572  -1.334  -3.175  1.00  0.00    -0.398 OA
HETATM   33  H50 UNL     1      -8.459  -0.358  -3.195  1.00  0.00     0.209 HD
ENDBRANCH  31  32
ENDBRANCH  27  31
BRANCH  28  34
HETATM   34  O7  UNL     1      -7.514   1.067  -2.569  1.00  0.00    -0.390 OA
HETATM   35  H52 UNL     1      -6.874   1.752  -2.848  1.00  0.00     0.210 HD
ENDBRANCH  28  34
BRANCH  29  36
HETATM   36  O8  UNL     1      -5.589   2.192  -0.354  1.00  0.00    -0.390 OA
HETATM   37  H54 UNL     1      -4.956   1.490  -0.096  1.00  0.00     0.210 HD
ENDBRANCH  29  36
BRANCH  30  38
HETATM   38  O9  UNL     1      -8.534   1.064   1.437  1.00  0.00    -0.388 OA
HETATM   39  H56 UNL     1      -8.815   1.993   1.364  1.00  0.00     0.210 HD
ENDBRANCH  30  38
ENDBRANCH  24  25
ENDBRANCH  20  24
BRANCH   1  40
HETATM   40  O1  UNL     1      -1.396   2.820   0.680  1.00  0.00    -0.365 OA
HETATM   41  C1  UNL     1      -2.408   3.818   0.831  1.00  0.00     0.204 C 
ENDBRANCH   1  40
BRANCH  12  42
HETATM   42  C13 UNL     1       4.529  -0.472  -1.442  1.00  0.00    -0.010 C 
HETATM   43  C14 UNL     1       3.968  -0.747  -2.840  1.00  0.00     0.010 C 
BRANCH  42  44
HETATM   44  C15 UNL     1       5.761  -1.381  -1.177  1.00  0.00     0.031 C 
BRANCH  44  45
HETATM   45  C16 UNL     1       6.957  -1.029  -2.022  1.00  0.00    -0.027 C 
HETATM   46  C17 UNL     1       7.946  -0.224  -1.596  1.00  0.00     0.006 C 
BRANCH  46  47
HETATM   47  C18 UNL     1       9.188   0.219  -2.348  1.00  0.00     0.070 C 
HETATM   48  C19 UNL     1      10.428   0.024  -1.458  1.00  0.00     0.050 C 
HETATM   49  C20 UNL     1       9.413  -0.551  -3.659  1.00  0.00     0.050 C 
BRANCH  47  50
HETATM   50  O3  UNL     1       9.031   1.588  -2.755  1.00  0.00    -0.382 OA
HETATM   51  C21 UNL     1       9.007   2.574  -1.739  1.00  0.00     0.202 C 
ENDBRANCH  47  50
ENDBRANCH  46  47
ENDBRANCH  44  45
ENDBRANCH  42  44
ENDBRANCH  12  42
TORSDOF 13
