REMARK  6 active torsions:
REMARK  status: ('A' for Active; 'I' for Inactive)
REMARK    1  A    between atoms: C2_2  and  C30_32 
REMARK    2  A    between atoms: C3_3  and  C4_4 
REMARK    3  A    between atoms: C4_4  and  C5_5 
REMARK    4  A    between atoms: C5_5  and  C6_6 
REMARK    5  A    between atoms: C6_6  and  C8_8 
REMARK    6  A    between atoms: C30_32  and  O3_33 
ROOT
HETATM    1  C8  UNL     1       1.735  -1.374   0.350  1.00  0.00    -0.002 C 
HETATM    2  C9  UNL     1       1.419  -1.922   1.770  1.00  0.00     0.007 C 
HETATM    3  C10 UNL     1      -0.038  -1.532   2.089  1.00  0.00     0.015 C 
HETATM    4  C11 UNL     1      -0.653  -1.138   0.730  1.00  0.00    -0.005 C 
HETATM    5  C12 UNL     1      -1.069  -2.461   0.015  1.00  0.00     0.021 C 
HETATM    6  C13 UNL     1      -1.897  -0.264   0.664  1.00  0.00    -0.000 C 
HETATM    7  C14 UNL     1      -2.138   0.548  -0.396  1.00  0.00    -0.060 C 
HETATM    8  C15 UNL     1      -1.098   0.680  -1.523  1.00  0.00     0.036 C 
HETATM    9  C16 UNL     1       0.225  -0.104  -1.383  1.00  0.00     0.015 C 
HETATM   10  C17 UNL     1       0.572  -0.373   0.086  1.00  0.00    -0.028 C 
HETATM   11  C18 UNL     1       0.864   0.994   0.771  1.00  0.00     0.016 C 
HETATM   12  C19 UNL     1      -3.416   1.409  -0.545  1.00  0.00    -0.014 C 
HETATM   13  C20 UNL     1      -3.017   2.884  -0.261  1.00  0.00     0.020 C 
HETATM   14  C21 UNL     1      -3.963   1.326  -1.999  1.00  0.00     0.021 C 
HETATM   15  C22 UNL     1      -5.454   1.600  -2.089  1.00  0.00     0.080 C 
HETATM   16  C23 UNL     1      -6.192   0.489  -1.383  1.00  0.00     0.135 C 
HETATM   17  O1  UNL     1      -7.227   0.032  -1.867  1.00  0.00    -0.297 OA
HETATM   18  C24 UNL     1      -5.600  -0.032  -0.059  1.00  0.00     0.018 C 
HETATM   19  C25 UNL     1      -5.033  -1.434  -0.325  1.00  0.00     0.023 C 
HETATM   20  C26 UNL     1      -6.778  -0.170   0.932  1.00  0.00     0.023 C 
HETATM   21  C27 UNL     1      -4.554   1.017   0.474  1.00  0.00     0.020 C 
HETATM   22  C28 UNL     1      -3.957   0.706   1.849  1.00  0.00     0.090 C 
HETATM   23  C29 UNL     1      -2.886  -0.347   1.779  1.00  0.00     0.157 C 
HETATM   24  O2  UNL     1      -2.815  -1.221   2.638  1.00  0.00    -0.293 OA
ENDROOT
BRANCH   1  25
HETATM   25  C6  UNL     1       3.238  -1.017   0.134  1.00  0.00    -0.014 C 
HETATM   26  C7  UNL     1       3.827   0.040   1.072  1.00  0.00     0.010 C 
BRANCH  25  27
HETATM   27  C5  UNL     1       3.530  -0.689  -1.351  1.00  0.00     0.008 C 
BRANCH  27  28
HETATM   28  C4  UNL     1       4.996  -0.872  -1.782  1.00  0.00     0.028 C 
BRANCH  28  29
HETATM   29  C3  UNL     1       5.883   0.291  -1.435  1.00  0.00    -0.022 C 
HETATM   30  C2  UNL     1       7.070   0.260  -0.788  1.00  0.00    -0.064 C 
HETATM   31  C1  UNL     1       7.728  -1.012  -0.321  1.00  0.00     0.045 C 
BRANCH  30  32
HETATM   32  C30 UNL     1       7.859   1.504  -0.435  1.00  0.00     0.197 C 
BRANCH  32  33
HETATM   33  O3  UNL     1       7.347   2.665  -1.073  1.00  0.00    -0.397 OA
HETATM   34  H46 UNL     1       7.409   2.496  -2.029  1.00  0.00     0.209 HD
ENDBRANCH  32  33
ENDBRANCH  30  32
ENDBRANCH  28  29
ENDBRANCH  27  28
ENDBRANCH  25  27
ENDBRANCH   1  25
TORSDOF 6
