REMARK  8 active torsions:
REMARK  status: ('A' for Active; 'I' for Inactive)
REMARK    1  A    between atoms: C4_4  and  C5_5 
REMARK    2  A    between atoms: C5_5  and  C6_6 
REMARK    3  A    between atoms: C6_6  and  C7_7 
REMARK    4  A    between atoms: C7_7  and  C9_9 
REMARK    5  A    between atoms: C25_26  and  C27_28 
REMARK    6  A    between atoms: C27_28  and  O3_30 
REMARK    7  A    between atoms: C28_31  and  O4_32 
REMARK    8  A    between atoms: C30_34  and  O5_35 
ROOT
HETATM    1  C9  UNL     1       2.768  -0.561  -1.067  1.00  0.00    -0.002 C 
HETATM    2  C10 UNL     1       2.608  -1.057  -2.535  1.00  0.00     0.007 C 
HETATM    3  C11 UNL     1       1.112  -0.978  -2.891  1.00  0.00     0.015 C 
HETATM    4  C12 UNL     1       0.471  -0.140  -1.769  1.00  0.00    -0.005 C 
HETATM    5  C13 UNL     1       0.691   1.361  -2.139  1.00  0.00     0.021 C 
HETATM    6  C14 UNL     1      -1.024  -0.244  -1.480  1.00  0.00    -0.000 C 
HETATM    7  C15 UNL     1      -1.517  -0.066  -0.222  1.00  0.00    -0.058 C 
HETATM    8  C16 UNL     1      -0.570   0.201   0.950  1.00  0.00     0.036 C 
HETATM    9  C17 UNL     1       0.943   0.238   0.659  1.00  0.00     0.015 C 
HETATM   10  C18 UNL     1       1.307  -0.656  -0.530  1.00  0.00    -0.028 C 
HETATM   11  C19 UNL     1       0.996  -2.140  -0.150  1.00  0.00     0.016 C 
HETATM   12  C20 UNL     1      -3.047  -0.181   0.112  1.00  0.00     0.011 C 
HETATM   13  C21 UNL     1      -3.257  -1.682   0.412  1.00  0.00     0.023 C 
HETATM   14  C22 UNL     1      -3.804   0.349  -1.155  1.00  0.00     0.029 C 
HETATM   15  C23 UNL     1      -3.447  -0.477  -2.392  1.00  0.00     0.090 C 
HETATM   16  C24 UNL     1      -1.955  -0.486  -2.633  1.00  0.00     0.157 C 
HETATM   17  O1  UNL     1      -1.526  -0.695  -3.767  1.00  0.00    -0.293 OA
HETATM   18  C25 UNL     1      -5.322   0.750  -0.988  1.00  0.00     0.072 C 
HETATM   19  C26 UNL     1      -5.391   2.301  -1.172  1.00  0.00     0.030 C 
HETATM   20  C28 UNL     1      -5.922   0.447   0.401  1.00  0.00     0.139 C 
HETATM   21  C29 UNL     1      -5.016   0.809   1.572  1.00  0.00     0.065 C 
HETATM   22  C30 UNL     1      -3.502   0.714   1.317  1.00  0.00     0.133 C 
ENDROOT
BRANCH   1  23
HETATM   23  C7  UNL     1       3.918  -1.308  -0.331  1.00  0.00    -0.014 C 
HETATM   24  C8  UNL     1       5.246  -1.161  -1.097  1.00  0.00     0.010 C 
BRANCH  23  25
HETATM   25  C6  UNL     1       4.128  -0.902   1.146  1.00  0.00     0.008 C 
BRANCH  25  26
HETATM   26  C5  UNL     1       4.467   0.575   1.375  1.00  0.00     0.028 C 
BRANCH  26  27
HETATM   27  C4  UNL     1       4.551   0.894   2.843  1.00  0.00    -0.025 C 
HETATM   28  C2  UNL     1       5.657   1.149   3.570  1.00  0.00    -0.091 C 
HETATM   29  C1  UNL     1       7.066   1.099   3.045  1.00  0.00     0.042 C 
HETATM   30  C3  UNL     1       5.551   1.519   5.027  1.00  0.00     0.042 C 
ENDBRANCH  26  27
ENDBRANCH  25  26
ENDBRANCH  23  25
ENDBRANCH   1  23
BRANCH  22  31
HETATM   31  O5  UNL     1      -2.906   0.336   2.561  1.00  0.00    -0.394 OA
HETATM   32  H46 UNL     1      -3.220  -0.555   2.793  1.00  0.00     0.210 HD
ENDBRANCH  22  31
BRANCH  18  33
HETATM   33  C27 UNL     1      -6.287   0.182  -2.039  1.00  0.00     0.151 C 
HETATM   34  O2  UNL     1      -7.153   0.816  -2.631  1.00  0.00    -0.649 OA
BRANCH  33  35
HETATM   35  O3  UNL     1      -6.163  -1.134  -2.286  1.00  0.00    -0.776 OA
HETATM   36  H40 UNL     1      -6.871  -1.320  -2.939  1.00  0.00     0.167 HD
ENDBRANCH  33  35
ENDBRANCH  18  33
BRANCH  20  37
HETATM   37  O4  UNL     1      -6.273  -0.929   0.535  1.00  0.00    -0.394 OA
HETATM   38  H42 UNL     1      -6.900  -1.008   1.276  1.00  0.00     0.210 HD
ENDBRANCH  20  37
TORSDOF 8
