REMARK  12 active torsions:
REMARK  status: ('A' for Active; 'I' for Inactive)
REMARK    1  A    between atoms: C2_2  and  O1_3 
REMARK    2  A    between atoms: C2_2  and  C3_4 
REMARK    3  A    between atoms: C4_5  and  C5_6 
REMARK    4  A    between atoms: C5_6  and  O2_7 
REMARK    5  A    between atoms: C8_10  and  O3_11 
REMARK    6  A    between atoms: O3_11  and  C9_12 
REMARK    7  A    between atoms: C10_14  and  C11_15 
REMARK    8  A    between atoms: C11_15  and  O5_16 
REMARK    9  A    between atoms: C12_17  and  O6_18 
REMARK   10  A    between atoms: C13_19  and  O7_20 
REMARK   11  A    between atoms: C14_21  and  O8_22 
REMARK   12  A    between atoms: C15_23  and  O9_24 
ROOT
HETATM    1  C5  UNL     1       2.001  -0.583   0.487  1.00  0.00     0.088 C 
HETATM    2  C6  UNL     1       0.788   0.262  -0.018  1.00  0.00     0.052 C 
HETATM    3  C7  UNL     1       1.139   1.611  -0.671  1.00  0.00     0.016 C 
HETATM    4  C8  UNL     1      -0.164  -0.520  -0.966  1.00  0.00     0.160 C 
HETATM    5  C15 UNL     1      -0.074  -2.045  -0.761  1.00  0.00     0.148 C 
HETATM    6  C16 UNL     1       1.351  -2.594  -0.949  1.00  0.00     0.046 C 
HETATM    7  C17 UNL     1       2.510  -1.622  -0.575  1.00  0.00    -0.010 C 
HETATM    8  C18 UNL     1       3.675  -2.484  -0.020  1.00  0.00     0.018 C 
HETATM    9  C19 UNL     1       3.039  -0.961  -1.869  1.00  0.00     0.018 C 
ENDROOT
BRANCH   4  10
HETATM   10  O3  UNL     1      -1.484  -0.006  -0.690  1.00  0.00    -0.350 OA
BRANCH  10  11
HETATM   11  C9  UNL     1      -2.460  -0.279  -1.694  1.00  0.00     0.292 C 
HETATM   12  O4  UNL     1      -3.082   0.946  -2.083  1.00  0.00    -0.348 OA
HETATM   13  C10 UNL     1      -3.879   1.579  -1.076  1.00  0.00     0.179 C 
HETATM   14  C12 UNL     1      -4.581   0.617  -0.095  1.00  0.00     0.180 C 
HETATM   15  C13 UNL     1      -4.820  -0.718  -0.798  1.00  0.00     0.183 C 
HETATM   16  C14 UNL     1      -3.469  -1.331  -1.173  1.00  0.00     0.204 C 
BRANCH  13  17
HETATM   17  C11 UNL     1      -3.078   2.652  -0.324  1.00  0.00     0.198 C 
BRANCH  17  18
HETATM   18  O5  UNL     1      -3.939   3.415   0.525  1.00  0.00    -0.398 OA
HETATM   19  H18 UNL     1      -4.042   4.291   0.111  1.00  0.00     0.209 HD
ENDBRANCH  17  18
ENDBRANCH  13  17
BRANCH  14  20
HETATM   20  O6  UNL     1      -5.812   1.210   0.343  1.00  0.00    -0.390 OA
HETATM   21  H20 UNL     1      -5.554   2.026   0.817  1.00  0.00     0.210 HD
ENDBRANCH  14  20
BRANCH  15  22
HETATM   22  O7  UNL     1      -5.504  -1.645   0.062  1.00  0.00    -0.390 OA
HETATM   23  H22 UNL     1      -5.659  -2.438  -0.488  1.00  0.00     0.210 HD
ENDBRANCH  15  22
BRANCH  16  24
HETATM   24  O8  UNL     1      -3.694  -2.376  -2.140  1.00  0.00    -0.388 OA
HETATM   25  H24 UNL     1      -2.801  -2.739  -2.322  1.00  0.00     0.210 HD
ENDBRANCH  16  24
ENDBRANCH  10  11
ENDBRANCH   4  10
BRANCH   5  26
HETATM   26  O9  UNL     1      -0.924  -2.751  -1.686  1.00  0.00    -0.393 OA
HETATM   27  H26 UNL     1      -0.790  -3.702  -1.502  1.00  0.00     0.210 HD
ENDBRANCH   5  26
BRANCH   1  28
HETATM   28  C4  UNL     1       3.087   0.293   1.093  1.00  0.00     0.010 C 
HETATM   29  C3  UNL     1       3.053   0.811   2.336  1.00  0.00     0.003 C 
BRANCH  29  30
HETATM   30  C2  UNL     1       4.120   1.680   2.930  1.00  0.00     0.136 C 
HETATM   31  C1  UNL     1       3.613   3.090   3.192  1.00  0.00     0.043 C 
BRANCH  30  32
HETATM   32  O1  UNL     1       4.519   1.086   4.161  1.00  0.00    -0.392 OA
HETATM   33  H5  UNL     1       3.776   1.163   4.783  1.00  0.00     0.210 HD
ENDBRANCH  30  32
ENDBRANCH  29  30
ENDBRANCH   1  28
BRANCH   1  34
HETATM   34  O2  UNL     1       1.474  -1.376   1.578  1.00  0.00    -0.385 OA
HETATM   35  H8  UNL     1       2.228  -1.661   2.124  1.00  0.00     0.211 HD
ENDBRANCH   1  34
TORSDOF 12
