REMARK  9 active torsions:
REMARK  status: ('A' for Active; 'I' for Inactive)
REMARK    1  A    between atoms: C11_11  and  C13_13 
REMARK    2  A    between atoms: C13_13  and  O2_15 
REMARK    3  A    between atoms: C15_17  and  C16_18 
REMARK    4  A    between atoms: C16_18  and  C17_19 
REMARK    5  A    between atoms: C17_19  and  C18_20 
REMARK    6  A    between atoms: C19_21  and  C20_22 
REMARK    7  A    between atoms: C20_22  and  O3_23 
REMARK    8  A    between atoms: O3_23  and  C21_24 
REMARK    9  A    between atoms: C21_24  and  C22_26 
ROOT
HETATM    1  C16 UNL     1      -0.005   0.008  -1.596  1.00  0.00     0.014 C 
ENDROOT
BRANCH   1   2
HETATM    2  C15 UNL     1      -0.967   0.534  -0.498  1.00  0.00     0.022 C 
HETATM    3  C2  UNL     1      -1.309   2.004  -0.685  1.00  0.00    -0.084 C 
HETATM    4  C1  UNL     1      -0.525   2.995  -0.225  1.00  0.00     0.014 C 
HETATM    5  C3  UNL     1      -2.640   2.299  -1.298  1.00  0.00     0.034 C 
HETATM    6  C4  UNL     1      -3.743   1.788  -0.378  1.00  0.00     0.011 C 
HETATM    7  C5  UNL     1      -3.500   0.394   0.266  1.00  0.00     0.012 C 
HETATM    8  C6  UNL     1      -2.255  -0.384  -0.319  1.00  0.00    -0.032 C 
HETATM    9  C11 UNL     1      -3.607   0.393   1.836  1.00  0.00     0.049 C 
HETATM   10  C7  UNL     1      -2.721  -1.005  -1.675  1.00  0.00     0.016 C 
HETATM   11  C8  UNL     1      -1.873  -1.586   0.602  1.00  0.00     0.010 C 
HETATM   12  C9  UNL     1      -3.053  -2.103   1.412  1.00  0.00     0.002 C 
HETATM   13  C10 UNL     1      -3.523  -1.052   2.414  1.00  0.00     0.020 C 
HETATM   14  C12 UNL     1      -2.508   1.251   2.499  1.00  0.00     0.026 C 
BRANCH   9  15
HETATM   15  C13 UNL     1      -4.973   0.973   2.264  1.00  0.00     0.267 C 
HETATM   16  O1  UNL     1      -5.127   1.894   3.057  1.00  0.00    -0.264 OA
BRANCH  15  17
HETATM   17  O2  UNL     1      -6.001   0.315   1.652  1.00  0.00    -0.326 OA
HETATM   18  C14 UNL     1      -7.297   0.806   1.997  1.00  0.00     0.213 C 
ENDBRANCH  15  17
ENDBRANCH   9  15
ENDBRANCH   1   2
BRANCH   1  19
HETATM   19  C17 UNL     1       1.386   0.657  -1.589  1.00  0.00     0.042 C 
BRANCH  19  20
HETATM   20  C18 UNL     1       2.329  -0.033  -2.523  1.00  0.00    -0.024 A 
HETATM   21  C19 UNL     1       3.063  -1.186  -2.290  1.00  0.00     0.083 A 
HETATM   22  O5  UNL     1       3.805  -1.503  -3.391  1.00  0.00    -0.324 OA
HETATM   23  C28 UNL     1       3.557  -0.554  -4.327  1.00  0.00     0.143 A 
HETATM   24  C29 UNL     1       2.659   0.369  -3.849  1.00  0.00     0.034 A 
BRANCH  21  25
HETATM   25  C20 UNL     1       3.184  -2.107  -1.131  1.00  0.00     0.244 C 
BRANCH  25  26
HETATM   26  O3  UNL     1       4.475  -1.895  -0.545  1.00  0.00    -0.311 OA
BRANCH  26  27
HETATM   27  C21 UNL     1       4.509  -1.083   0.535  1.00  0.00     0.293 C 
HETATM   28  O4  UNL     1       3.549  -0.560   1.079  1.00  0.00    -0.259 OA
BRANCH  27  29
HETATM   29  C22 UNL     1       5.913  -0.900   0.999  1.00  0.00     0.039 A 
HETATM   30  C23 UNL     1       6.141  -0.081   2.115  1.00  0.00     0.019 A 
HETATM   31  C24 UNL     1       7.440   0.121   2.590  1.00  0.00     0.025 A 
HETATM   32  C25 UNL     1       8.515  -0.497   1.951  1.00  0.00     0.034 A 
HETATM   33 CL1  UNL     1      10.114  -0.250   2.535  1.00  0.00    -0.084 Cl
HETATM   34  C26 UNL     1       8.302  -1.312   0.840  1.00  0.00     0.025 A 
HETATM   35  C27 UNL     1       7.003  -1.514   0.362  1.00  0.00     0.019 A 
ENDBRANCH  27  29
ENDBRANCH  26  27
ENDBRANCH  25  26
ENDBRANCH  21  25
ENDBRANCH  19  20
ENDBRANCH   1  19
TORSDOF 9
