REMARK  7 active torsions:
REMARK  status: ('A' for Active; 'I' for Inactive)
REMARK    1  A    between atoms: C3_3  and  C5_5 
REMARK    2  A    between atoms: C24_26  and  O3_27 
REMARK    3  A    between atoms: C30_35  and  O6_36 
REMARK    4  A    between atoms: C31_38  and  O8_39 
REMARK    5  A    between atoms: C32_40  and  O9_41 
REMARK    6  A    between atoms: O9_41  and  C33_42 
REMARK    7  A    between atoms: C33_42  and  C34_44 
ROOT
HETATM    1  C5  UNL     1       3.361  -1.557  -0.700  1.00  0.00     0.160 C 
HETATM    2  O1  UNL     1       2.675  -1.345   0.537  1.00  0.00    -0.342 OA
HETATM    3  C6  UNL     1       1.403  -0.693   0.369  1.00  0.00     0.196 C 
HETATM    4  C7  UNL     1       1.047  -0.147   1.779  1.00  0.00     0.104 C 
HETATM    5  C8  UNL     1      -0.451  -0.182   2.069  1.00  0.00     0.139 C 
HETATM    6  C9  UNL     1      -1.059  -1.565   1.799  1.00  0.00     0.065 C 
HETATM    7  C10 UNL     1      -0.099  -2.446   0.992  1.00  0.00     0.131 C 
HETATM    8  C11 UNL     1      -0.717  -3.742   0.435  1.00  0.00     0.059 C 
HETATM    9  C12 UNL     1      -2.001  -3.595  -0.344  1.00  0.00    -0.022 C 
HETATM   10  C13 UNL     1      -2.178  -3.652  -1.680  1.00  0.00    -0.087 C 
HETATM   11  C14 UNL     1      -1.022  -3.795  -2.644  1.00  0.00     0.043 C 
HETATM   12  C15 UNL     1      -3.525  -3.543  -2.398  1.00  0.00     0.041 C 
HETATM   13  C16 UNL     1      -4.859  -3.343  -1.623  1.00  0.00     0.008 C 
HETATM   14  C17 UNL     1      -5.285  -4.622  -0.889  1.00  0.00     0.014 C 
HETATM   15  C18 UNL     1      -4.878  -2.139  -0.702  1.00  0.00    -0.022 C 
HETATM   16  C19 UNL     1      -4.512  -0.902  -1.075  1.00  0.00    -0.003 C 
HETATM   17  C20 UNL     1      -4.393   0.187  -0.138  1.00  0.00     0.008 C 
HETATM   18  C21 UNL     1      -4.049   1.442  -0.466  1.00  0.00    -0.019 C 
HETATM   19  C22 UNL     1      -3.892   2.015  -1.848  1.00  0.00     0.206 C 
HETATM   20  O2  UNL     1      -3.811   3.453  -1.675  1.00  0.00    -0.375 OA
HETATM   21  C23 UNL     1      -4.383   3.704  -0.365  1.00  0.00     0.194 C 
HETATM   22  C24 UNL     1      -4.044   5.112   0.157  1.00  0.00     0.179 C 
HETATM   23  C25 UNL     1      -2.735   5.238   0.906  1.00  0.00    -0.056 C 
HETATM   24  C26 UNL     1      -2.364   6.624   1.360  1.00  0.00     0.046 C 
HETATM   25  C27 UNL     1      -1.962   4.172   1.188  1.00  0.00    -0.004 C 
HETATM   26  C28 UNL     1      -2.319   2.765   0.766  1.00  0.00     0.150 C 
HETATM   27  C29 UNL     1      -1.842   1.764   1.808  1.00  0.00     0.270 C 
HETATM   28  O4  UNL     1      -2.095   1.847   3.002  1.00  0.00    -0.264 OA
HETATM   29  O5  UNL     1      -1.084   0.799   1.218  1.00  0.00    -0.315 OA
HETATM   30  C30 UNL     1      -3.835   2.574   0.504  1.00  0.00     0.128 C 
HETATM   31  O7  UNL     1       0.436  -1.661  -0.070  1.00  0.00    -0.347 OA
HETATM   32  C31 UNL     1       1.500   0.465  -0.692  1.00  0.00     0.210 C 
HETATM   33  C32 UNL     1       2.952   0.965  -0.821  1.00  0.00     0.172 C 
HETATM   34  C37 UNL     1       3.919  -0.195  -1.183  1.00  0.00     0.047 C 
HETATM   35  C38 UNL     1       4.217  -0.201  -2.686  1.00  0.00     0.015 C 
ENDROOT
BRANCH  32  36
HETATM   36  O8  UNL     1       1.067   0.044  -2.003  1.00  0.00    -0.387 OA
HETATM   37  H42 UNL     1       0.946   0.843  -2.543  1.00  0.00     0.210 HD
ENDBRANCH  32  36
BRANCH   1  38
HETATM   38  C3  UNL     1       4.459  -2.602  -0.469  1.00  0.00    -0.059 C 
HETATM   39  C2  UNL     1       5.030  -2.795   0.741  1.00  0.00    -0.026 C 
HETATM   40  C1  UNL     1       6.108  -3.770   1.092  1.00  0.00     0.036 C 
HETATM   41  C4  UNL     1       4.814  -3.443  -1.668  1.00  0.00     0.046 C 
ENDBRANCH   1  38
BRANCH  33  42
HETATM   42  O9  UNL     1       3.353   1.569   0.429  1.00  0.00    -0.312 OA
BRANCH  42  43
HETATM   43  C33 UNL     1       4.361   2.482   0.354  1.00  0.00     0.262 C 
HETATM   44  O10 UNL     1       4.872   2.876  -0.687  1.00  0.00    -0.265 OA
BRANCH  43  45
HETATM   45  C34 UNL     1       4.822   2.918   1.730  1.00  0.00     0.077 C 
HETATM   46  C35 UNL     1       3.653   3.354   2.608  1.00  0.00     0.020 C 
HETATM   47  C36 UNL     1       5.630   1.802   2.381  1.00  0.00     0.020 C 
ENDBRANCH  43  45
ENDBRANCH  42  43
ENDBRANCH  33  42
BRANCH  30  48
HETATM   48  O6  UNL     1      -4.637   2.428   1.671  1.00  0.00    -0.381 OA
HETATM   49  H40 UNL     1      -4.087   2.580   2.464  1.00  0.00     0.211 HD
ENDBRANCH  30  48
BRANCH  22  50
HETATM   50  O3  UNL     1      -4.034   6.032  -0.937  1.00  0.00    -0.389 OA
HETATM   51  H34 UNL     1      -3.743   5.507  -1.709  1.00  0.00     0.210 HD
ENDBRANCH  22  50
TORSDOF 7
