REMARK  11 active torsions:
REMARK  status: ('A' for Active; 'I' for Inactive)
REMARK    1  A    between atoms: O1_2  and  C2_3 
REMARK    2  A    between atoms: C16_18  and  C17_19 
REMARK    3  A    between atoms: C17_19  and  C19_21 
REMARK    4  A    between atoms: C23_25  and  C24_26 
REMARK    5  A    between atoms: C24_26  and  O3_27 
REMARK    6  A    between atoms: O3_27  and  C25_28 
REMARK    7  A    between atoms: C26_30  and  C27_31 
REMARK    8  A    between atoms: C27_31  and  O5_32 
REMARK    9  A    between atoms: C28_33  and  O6_34 
REMARK   10  A    between atoms: C29_35  and  O7_36 
REMARK   11  A    between atoms: C30_37  and  O8_38 
ROOT
HETATM    1  C19 UNL     1       1.271  -1.484   0.275  1.00  0.00     0.140 C 
HETATM    2  C20 UNL     1       2.325  -1.862   1.323  1.00  0.00     0.067 C 
HETATM    3  C21 UNL     1       3.724  -1.750   0.783  1.00  0.00    -0.067 C 
HETATM    4  C22 UNL     1       4.758  -2.520   1.560  1.00  0.00     0.044 C 
HETATM    5  C23 UNL     1       3.988  -0.953  -0.275  1.00  0.00     0.043 C 
HETATM    6  C31 UNL     1       2.907  -0.145  -0.896  1.00  0.00     0.292 C 
HETATM    7  O9  UNL     1       3.130   0.623  -1.823  1.00  0.00    -0.260 OA
HETATM    8  O10 UNL     1       1.673  -0.250  -0.347  1.00  0.00    -0.311 OA
ENDROOT
BRANCH   1   9
HETATM    9  C17 UNL     1      -0.147  -1.267   0.883  1.00  0.00     0.016 C 
HETATM   10  C18 UNL     1      -0.443  -2.283   2.009  1.00  0.00     0.013 C 
BRANCH   9  11
HETATM   11  C16 UNL     1      -1.367  -1.276  -0.090  1.00  0.00     0.000 C 
HETATM   12  C14 UNL     1      -1.587  -0.218  -1.211  1.00  0.00    -0.036 C 
HETATM   13  C13 UNL     1      -1.751   1.227  -0.725  1.00  0.00     0.010 C 
HETATM   14  C15 UNL     1      -0.479  -0.207  -2.297  1.00  0.00     0.016 C 
HETATM   15  C34 UNL     1      -2.897  -0.782  -1.846  1.00  0.00     0.001 C 
HETATM   16  C12 UNL     1      -3.024   1.491   0.057  1.00  0.00     0.007 C 
HETATM   17  C11 UNL     1      -4.290   1.105  -0.731  1.00  0.00     0.008 C 
HETATM   18  C9  UNL     1      -5.620   1.543   0.022  1.00  0.00     0.025 C 
HETATM   19  C35 UNL     1      -4.257  -0.409  -1.147  1.00  0.00     0.024 C 
HETATM   20  C4  UNL     1      -6.727   0.516  -0.320  1.00  0.00     0.004 C 
HETATM   21  C8  UNL     1      -6.082   2.930  -0.483  1.00  0.00     0.136 C 
HETATM   22  C10 UNL     1      -5.442   1.696   1.554  1.00  0.00     0.024 C 
HETATM   23  C3  UNL     1      -6.358  -0.883   0.203  1.00  0.00     0.038 C 
HETATM   24  C5  UNL     1      -8.133   0.933   0.137  1.00  0.00     0.006 C 
HETATM   25  C2  UNL     1      -4.865  -1.257   0.003  1.00  0.00     0.126 C 
HETATM   26  C6  UNL     1      -8.511   2.281  -0.472  1.00  0.00     0.008 C 
HETATM   27  C7  UNL     1      -7.496   3.361  -0.138  1.00  0.00     0.079 C 
HETATM   28  O2  UNL     1      -5.321   3.717  -1.050  1.00  0.00    -0.297 OA
HETATM   29  C33 UNL     1      -2.575  -2.279  -1.977  1.00  0.00     0.006 C 
HETATM   30  C32 UNL     1      -1.656  -2.620  -0.795  1.00  0.00     0.006 C 
BRANCH  25  31
HETATM   31  O1  UNL     1      -4.801  -2.658  -0.258  1.00  0.00    -0.390 OA
HETATM   32  C1  UNL     1      -4.966  -3.465   0.904  1.00  0.00     0.202 C 
ENDBRANCH  25  31
ENDBRANCH   9  11
ENDBRANCH   1   9
BRANCH   5  33
HETATM   33  C24 UNL     1       5.356  -0.713  -0.852  1.00  0.00     0.216 C 
BRANCH  33  34
HETATM   34  O3  UNL     1       6.043   0.188   0.015  1.00  0.00    -0.354 OA
BRANCH  34  35
HETATM   35  C25 UNL     1       6.204   1.491  -0.548  1.00  0.00     0.291 C 
HETATM   36  O4  UNL     1       7.385   1.566  -1.343  1.00  0.00    -0.348 OA
HETATM   37  C26 UNL     1       8.632   1.433  -0.633  1.00  0.00     0.179 C 
HETATM   38  C28 UNL     1       8.542   1.671   0.895  1.00  0.00     0.180 C 
HETATM   39  C29 UNL     1       7.585   2.835   1.164  1.00  0.00     0.183 C 
HETATM   40  C30 UNL     1       6.185   2.555   0.579  1.00  0.00     0.204 C 
BRANCH  37  41
HETATM   41  C27 UNL     1       9.326   0.112  -1.005  1.00  0.00     0.198 C 
BRANCH  41  42
HETATM   42  O5  UNL     1       8.637  -1.021  -0.481  1.00  0.00    -0.398 OA
HETATM   43  H42 UNL     1       9.221  -1.790  -0.598  1.00  0.00     0.209 HD
ENDBRANCH  41  42
ENDBRANCH  37  41
BRANCH  38  44
HETATM   44  O6  UNL     1       8.120   0.527   1.643  1.00  0.00    -0.390 OA
HETATM   45  H44 UNL     1       7.890  -0.183   0.994  1.00  0.00     0.210 HD
ENDBRANCH  38  44
BRANCH  39  46
HETATM   46  O7  UNL     1       8.142   4.046   0.619  1.00  0.00    -0.390 OA
HETATM   47  H46 UNL     1       7.902   4.102  -0.324  1.00  0.00     0.210 HD
ENDBRANCH  39  46
BRANCH  40  48
HETATM   48  O8  UNL     1       5.276   2.150   1.614  1.00  0.00    -0.388 OA
HETATM   49  H48 UNL     1       5.496   1.209   1.785  1.00  0.00     0.210 HD
ENDBRANCH  40  48
ENDBRANCH  34  35
ENDBRANCH  33  34
ENDBRANCH   5  33
TORSDOF 11
