REMARK  4 active torsions:
REMARK  status: ('A' for Active; 'I' for Inactive)
REMARK    1  A    between atoms: C4_4  and  C5_5 
REMARK    2  A    between atoms: C5_5  and  C6_6 
REMARK    3  A    between atoms: C6_6  and  C7_7 
REMARK    4  A    between atoms: C9_9  and  O1_10 
ROOT
HETATM    1  C7  UNL     1       2.911  -0.619   1.382  1.00  0.00    -0.007 C 
HETATM    2  C8  UNL     1       2.191   0.469   2.181  1.00  0.00     0.038 C 
HETATM    3  C9  UNL     1       0.659   0.438   2.096  1.00  0.00     0.131 C 
HETATM    4  C10 UNL     1       0.104   0.385   0.615  1.00  0.00     0.013 C 
HETATM    5  C11 UNL     1       0.434   1.761  -0.045  1.00  0.00     0.023 C 
HETATM    6  C12 UNL     1      -1.453   0.233   0.508  1.00  0.00    -0.067 C 
HETATM    7  C13 UNL     1      -2.307   0.685   1.451  1.00  0.00    -0.022 C 
HETATM    8  C14 UNL     1      -3.806   0.634   1.383  1.00  0.00     0.034 C 
HETATM    9  C15 UNL     1      -4.361  -0.183   0.201  1.00  0.00     0.013 C 
HETATM   10  C16 UNL     1      -5.924  -0.124   0.072  1.00  0.00     0.018 C 
HETATM   11  C17 UNL     1      -6.555  -0.868   1.276  1.00  0.00     0.023 C 
HETATM   12  C18 UNL     1      -6.542   1.283   0.045  1.00  0.00     0.023 C 
HETATM   13  C19 UNL     1      -6.360  -0.845  -1.210  1.00  0.00     0.135 C 
HETATM   14  O2  UNL     1      -7.367  -1.556  -1.258  1.00  0.00    -0.297 OA
HETATM   15  C20 UNL     1      -5.580  -0.565  -2.471  1.00  0.00     0.080 C 
HETATM   16  C21 UNL     1      -4.095  -0.786  -2.246  1.00  0.00     0.017 C 
HETATM   17  C22 UNL     1      -3.507   0.071  -1.095  1.00  0.00    -0.031 C 
HETATM   18  C23 UNL     1      -3.473   1.554  -1.537  1.00  0.00     0.016 C 
HETATM   19  C24 UNL     1      -2.035  -0.427  -0.752  1.00  0.00     0.024 C 
HETATM   20  C25 UNL     1      -1.068  -0.386  -1.940  1.00  0.00     0.010 C 
HETATM   21  C26 UNL     1       0.353  -0.871  -1.630  1.00  0.00     0.011 C 
HETATM   22  C27 UNL     1       0.802  -0.836  -0.135  1.00  0.00    -0.027 C 
HETATM   23  C28 UNL     1       0.408  -2.205   0.513  1.00  0.00     0.016 C 
HETATM   24  C29 UNL     1       2.384  -0.701  -0.079  1.00  0.00    -0.005 C 
HETATM   25  C30 UNL     1       3.124  -1.810  -0.854  1.00  0.00     0.011 C 
ENDROOT
BRANCH   1  26
HETATM   26  C6  UNL     1       4.449  -0.460   1.513  1.00  0.00     0.009 C 
BRANCH  26  27
HETATM   27  C5  UNL     1       5.051   0.779   0.839  1.00  0.00     0.028 C 
BRANCH  27  28
HETATM   28  C4  UNL     1       6.552   0.784   0.970  1.00  0.00    -0.025 C 
HETATM   29  C2  UNL     1       7.464   0.619  -0.008  1.00  0.00    -0.091 C 
HETATM   30  C1  UNL     1       8.938   0.700   0.295  1.00  0.00     0.042 C 
HETATM   31  C3  UNL     1       7.144   0.349  -1.453  1.00  0.00     0.042 C 
ENDBRANCH  27  28
ENDBRANCH  26  27
ENDBRANCH   1  26
BRANCH   3  32
HETATM   32  O1  UNL     1       0.229   1.618   2.793  1.00  0.00    -0.394 OA
HETATM   33  H16 UNL     1       0.513   1.528   3.719  1.00  0.00     0.210 HD
ENDBRANCH   3  32
TORSDOF 4
