REMARK  15 active torsions:
REMARK  status: ('A' for Active; 'I' for Inactive)
REMARK    1  A    between atoms: C2_2  and  C3_3 
REMARK    2  A    between atoms: C2_2  and  C35_44 
REMARK    3  A    between atoms: C3_3  and  C4_4 
REMARK    4  A    between atoms: C4_4  and  C5_5 
REMARK    5  A    between atoms: C5_5  and  C7_7 
REMARK    6  A    between atoms: C9_9  and  O1_10 
REMARK    7  A    between atoms: C10_11  and  C11_12 
REMARK    8  A    between atoms: C11_12  and  O3_14 
REMARK    9  A    between atoms: C22_25  and  O4_26 
REMARK   10  A    between atoms: O4_26  and  C23_27 
REMARK   11  A    between atoms: C24_29  and  C25_30 
REMARK   12  A    between atoms: C25_30  and  O6_31 
REMARK   13  A    between atoms: C26_32  and  O7_33 
REMARK   14  A    between atoms: C28_35  and  O8_36 
REMARK   15  A    between atoms: C29_37  and  O9_38 
ROOT
HETATM    1  C7  UNL     1      -1.528  -3.958  -2.148  1.00  0.00     0.001 C 
HETATM    2  C8  UNL     1      -3.040  -3.809  -1.859  1.00  0.00     0.039 C 
HETATM    3  C9  UNL     1      -3.304  -2.290  -1.681  1.00  0.00     0.142 C 
HETATM    4  C10 UNL     1      -1.986  -1.592  -2.146  1.00  0.00     0.102 C 
HETATM    5  C12 UNL     1      -1.600  -0.175  -1.708  1.00  0.00    -0.054 C 
HETATM    6  C13 UNL     1      -0.293   0.168  -1.555  1.00  0.00    -0.067 C 
HETATM    7  C14 UNL     1       0.845  -0.828  -1.824  1.00  0.00     0.036 C 
HETATM    8  C15 UNL     1       0.469  -2.283  -2.151  1.00  0.00     0.015 C 
HETATM    9  C16 UNL     1      -0.919  -2.634  -1.612  1.00  0.00    -0.016 C 
HETATM   10  C17 UNL     1      -0.812  -2.638  -0.055  1.00  0.00     0.017 C 
HETATM   11  C18 UNL     1       0.129   1.554  -1.008  1.00  0.00    -0.013 C 
HETATM   12  C19 UNL     1       0.515   1.326   0.484  1.00  0.00     0.021 C 
HETATM   13  C20 UNL     1       1.324   2.152  -1.799  1.00  0.00     0.017 C 
HETATM   14  C21 UNL     1       1.845   3.452  -1.192  1.00  0.00     0.037 C 
HETATM   15  C22 UNL     1       0.798   4.478  -0.743  1.00  0.00     0.153 C 
HETATM   16  C30 UNL     1      -0.616   3.948  -0.478  1.00  0.00    -0.055 C 
HETATM   17  C31 UNL     1      -1.457   4.643   0.334  1.00  0.00     0.017 C 
HETATM   18  C32 UNL     1      -1.008   2.623  -1.146  1.00  0.00     0.029 C 
HETATM   19  C33 UNL     1      -2.351   2.037  -0.685  1.00  0.00     0.014 C 
HETATM   20  C34 UNL     1      -2.726   0.801  -1.492  1.00  0.00     0.036 C 
ENDROOT
BRANCH  15  21
HETATM   21  O4  UNL     1       1.287   4.981   0.512  1.00  0.00    -0.349 OA
BRANCH  21  22
HETATM   22  C23 UNL     1       1.638   6.352   0.556  1.00  0.00     0.292 C 
HETATM   23  O5  UNL     1       1.615   6.769   1.928  1.00  0.00    -0.348 OA
HETATM   24  C24 UNL     1       2.718   6.302   2.742  1.00  0.00     0.179 C 
HETATM   25  C26 UNL     1       3.801   5.413   2.075  1.00  0.00     0.183 C 
HETATM   26  C28 UNL     1       4.092   5.809   0.613  1.00  0.00     0.183 C 
HETATM   27  C29 UNL     1       3.016   6.694  -0.017  1.00  0.00     0.204 C 
BRANCH  24  28
HETATM   28  C25 UNL     1       3.358   7.568   3.338  1.00  0.00     0.198 C 
BRANCH  28  29
HETATM   29  O6  UNL     1       2.400   8.280   4.125  1.00  0.00    -0.398 OA
HETATM   30  H36 UNL     1       1.550   8.193   3.656  1.00  0.00     0.209 HD
ENDBRANCH  28  29
ENDBRANCH  24  28
BRANCH  25  31
HETATM   31  O7  UNL     1       3.453   4.017   2.030  1.00  0.00    -0.385 OA
HETATM   32  C27 UNL     1       3.342   3.372   3.289  1.00  0.00     0.202 C 
ENDBRANCH  25  31
BRANCH  26  33
HETATM   33  O8  UNL     1       5.349   6.508   0.519  1.00  0.00    -0.390 OA
HETATM   34  H42 UNL     1       6.042   5.854   0.712  1.00  0.00     0.210 HD
ENDBRANCH  26  33
BRANCH  27  35
HETATM   35  O9  UNL     1       3.072   6.587  -1.445  1.00  0.00    -0.388 OA
HETATM   36  H44 UNL     1       3.992   6.806  -1.687  1.00  0.00     0.210 HD
ENDBRANCH  27  35
ENDBRANCH  21  22
ENDBRANCH  15  21
BRANCH   4  37
HETATM   37  C11 UNL     1      -2.066  -1.467  -3.695  1.00  0.00     0.156 C 
HETATM   38  O2  UNL     1      -1.183  -1.652  -4.516  1.00  0.00    -0.649 OA
BRANCH  37  39
HETATM   39  O3  UNL     1      -3.261  -1.035  -4.151  1.00  0.00    -0.775 OA
HETATM   40  H16 UNL     1      -3.113  -0.941  -5.118  1.00  0.00     0.167 HD
ENDBRANCH  37  39
ENDBRANCH   4  37
BRANCH   3  41
HETATM   41  O1  UNL     1      -3.617  -2.033  -0.312  1.00  0.00    -0.394 OA
HETATM   42  H15 UNL     1      -4.403  -2.557  -0.079  1.00  0.00     0.210 HD
ENDBRANCH   3  41
BRANCH   1  43
HETATM   43  C5  UNL     1      -0.855  -5.328  -1.870  1.00  0.00    -0.013 C 
HETATM   44  C6  UNL     1      -1.541  -6.426  -2.711  1.00  0.00     0.010 C 
BRANCH  43  45
HETATM   45  C4  UNL     1      -0.629  -5.840  -0.429  1.00  0.00     0.009 C 
BRANCH  45  46
HETATM   46  C3  UNL     1      -1.869  -6.147   0.419  1.00  0.00     0.034 C 
BRANCH  46  47
HETATM   47  C2  UNL     1      -1.547  -7.000   1.638  1.00  0.00    -0.086 C 
HETATM   48  C1  UNL     1      -1.513  -8.339   1.524  1.00  0.00     0.014 C 
BRANCH  47  49
HETATM   49  C35 UNL     1      -1.309  -6.333   2.989  1.00  0.00     0.005 C 
HETATM   50  C36 UNL     1      -0.146  -5.347   2.961  1.00  0.00     0.014 C 
HETATM   51  C37 UNL     1      -2.576  -5.678   3.540  1.00  0.00     0.014 C 
ENDBRANCH  47  49
ENDBRANCH  46  47
ENDBRANCH  45  46
ENDBRANCH  43  45
ENDBRANCH   1  43
TORSDOF 15
