REMARK  12 active torsions:
REMARK  status: ('A' for Active; 'I' for Inactive)
REMARK    1  A    between atoms: O1_2  and  C2_3 
REMARK    2  A    between atoms: C2_3  and  C3_4 
REMARK    3  A    between atoms: C2_3  and  C7_8 
REMARK    4  A    between atoms: C7_8  and  C8_9 
REMARK    5  A    between atoms: C8_9  and  C10_11 
REMARK    6  A    between atoms: C28_30  and  O3_31 
REMARK    7  A    between atoms: O3_31  and  C29_32 
REMARK    8  A    between atoms: C30_34  and  C31_35 
REMARK    9  A    between atoms: C31_35  and  O5_36 
REMARK   10  A    between atoms: C32_37  and  O6_38 
REMARK   11  A    between atoms: C33_39  and  O7_40 
REMARK   12  A    between atoms: C34_41  and  O8_42 
ROOT
HETATM    1  C10 UNL     1      -3.621  -0.488  -0.168  1.00  0.00    -0.002 C 
HETATM    2  C11 UNL     1      -3.623  -1.604  -1.267  1.00  0.00     0.006 C 
HETATM    3  C12 UNL     1      -2.329  -1.459  -2.091  1.00  0.00     0.011 C 
HETATM    4  C13 UNL     1      -1.435  -0.523  -1.257  1.00  0.00    -0.029 C 
HETATM    5  C14 UNL     1      -0.767  -1.425  -0.169  1.00  0.00     0.016 C 
HETATM    6  C15 UNL     1      -0.353   0.257  -2.069  1.00  0.00     0.028 C 
HETATM    7  C16 UNL     1       0.669  -0.647  -2.737  1.00  0.00    -0.021 C 
HETATM    8  C17 UNL     1       1.992  -0.411  -2.650  1.00  0.00     0.008 C 
HETATM    9  C18 UNL     1       2.532   0.779  -1.865  1.00  0.00     0.092 C 
HETATM   10  O2  UNL     1       2.180   1.916  -2.689  1.00  0.00    -0.374 OA
HETATM   11  C19 UNL     1       0.940   2.455  -2.212  1.00  0.00     0.179 C 
HETATM   12  C20 UNL     1       0.323   1.429  -1.226  1.00  0.00    -0.004 C 
HETATM   13  C21 UNL     1      -0.661   2.183  -0.289  1.00  0.00     0.014 C 
HETATM   14  C22 UNL     1      -1.801   1.372   0.349  1.00  0.00     0.011 C 
HETATM   15  C23 UNL     1      -2.509   0.485  -0.690  1.00  0.00    -0.032 C 
HETATM   16  C24 UNL     1      -3.140   1.407  -1.783  1.00  0.00     0.016 C 
HETATM   17  C25 UNL     1       1.635   0.896  -0.592  1.00  0.00     0.036 C 
HETATM   18  C26 UNL     1       2.283   1.738   0.506  1.00  0.00     0.011 C 
HETATM   19  C27 UNL     1       3.633   1.153   0.936  1.00  0.00     0.033 C 
HETATM   20  C28 UNL     1       4.312   0.276  -0.127  1.00  0.00     0.136 C 
HETATM   21  C35 UNL     1       4.086   0.808  -1.569  1.00  0.00     0.014 C 
HETATM   22  C36 UNL     1       4.684   2.235  -1.719  1.00  0.00     0.021 C 
HETATM   23  C37 UNL     1       4.906  -0.057  -2.562  1.00  0.00     0.021 C 
ENDROOT
BRANCH  20  24
HETATM   24  O3  UNL     1       5.717   0.202   0.132  1.00  0.00    -0.352 OA
BRANCH  24  25
HETATM   25  C29 UNL     1       6.100  -0.724   1.147  1.00  0.00     0.292 C 
HETATM   26  O4  UNL     1       6.306  -0.051   2.396  1.00  0.00    -0.348 OA
HETATM   27  C30 UNL     1       7.585   0.586   2.541  1.00  0.00     0.179 C 
HETATM   28  C32 UNL     1       8.717  -0.466   2.512  1.00  0.00     0.180 C 
HETATM   29  C33 UNL     1       8.303  -1.761   1.791  1.00  0.00     0.183 C 
HETATM   30  C34 UNL     1       7.353  -1.470   0.638  1.00  0.00     0.204 C 
BRANCH  27  31
HETATM   31  C31 UNL     1       7.793   1.743   1.546  1.00  0.00     0.198 C 
BRANCH  31  32
HETATM   32  O5  UNL     1       8.897   2.563   1.922  1.00  0.00    -0.398 OA
HETATM   33  H48 UNL     1       9.717   2.111   1.660  1.00  0.00     0.209 HD
ENDBRANCH  31  32
ENDBRANCH  27  31
BRANCH  28  34
HETATM   34  O6  UNL     1       9.086  -0.823   3.863  1.00  0.00    -0.390 OA
HETATM   35  H50 UNL     1       8.271  -1.044   4.350  1.00  0.00     0.210 HD
ENDBRANCH  28  34
BRANCH  29  36
HETATM   36  O7  UNL     1       9.478  -2.408   1.261  1.00  0.00    -0.390 OA
HETATM   37  H52 UNL     1       9.463  -3.336   1.571  1.00  0.00     0.210 HD
ENDBRANCH  29  36
BRANCH  30  38
HETATM   38  O8  UNL     1       6.982  -2.715   0.015  1.00  0.00    -0.388 OA
HETATM   39  H54 UNL     1       7.781  -3.019  -0.456  1.00  0.00     0.210 HD
ENDBRANCH  30  38
ENDBRANCH  24  25
ENDBRANCH  20  24
BRANCH   1  40
HETATM   40  C8  UNL     1      -5.056   0.065   0.088  1.00  0.00    -0.011 C 
HETATM   41  C9  UNL     1      -5.081   1.132   1.192  1.00  0.00     0.010 C 
BRANCH  40  42
HETATM   42  C7  UNL     1      -6.068  -1.061   0.458  1.00  0.00     0.040 C 
BRANCH  42  43
HETATM   43  C2  UNL     1      -7.390  -0.932  -0.327  1.00  0.00     0.144 C 
BRANCH  43  44
HETATM   44  O1  UNL     1      -7.941   0.372  -0.138  1.00  0.00    -0.387 OA
HETATM   45  C1  UNL     1      -8.747   0.798  -1.226  1.00  0.00     0.202 C 
ENDBRANCH  43  44
BRANCH  43  46
HETATM   46  C3  UNL     1      -8.356  -2.019   0.082  1.00  0.00     0.007 C 
HETATM   47  C4  UNL     1      -9.280  -2.020   1.067  1.00  0.00    -0.089 C 
HETATM   48  C5  UNL     1      -9.479  -0.908   2.058  1.00  0.00     0.042 C 
HETATM   49  C6  UNL     1     -10.207  -3.194   1.265  1.00  0.00     0.042 C 
ENDBRANCH  43  46
ENDBRANCH  42  43
ENDBRANCH  40  42
ENDBRANCH   1  40
TORSDOF 12
