REMARK  9 active torsions:
REMARK  status: ('A' for Active; 'I' for Inactive)
REMARK    1  A    between atoms: C3_3  and  O1_4 
REMARK    2  A    between atoms: N1_14  and  O2_16 
REMARK    3  A    between atoms: O2_16  and  C13_17 
REMARK    4  A    between atoms: C13_17  and  C14_18 
REMARK       I    between atoms: C14_18  and  N2_20 
REMARK    5  A    between atoms: N2_20  and  C15_21 
REMARK    6  A    between atoms: C15_21  and  C16_22 
REMARK    7  A    between atoms: C15_21  and  C18_26 
REMARK    8  A    between atoms: C16_22  and  C17_23 
REMARK    9  A    between atoms: C17_23  and  O5_25 
ROOT
HETATM    1  C1  UNL     1      -9.441  -0.836  -2.823  1.00  0.00     0.015 C 
HETATM    2  C2  UNL     1      -8.785  -0.012  -2.243  1.00  0.00    -0.078 C 
HETATM    3  C3  UNL     1      -7.996   1.018  -1.544  1.00  0.00     0.128 C 
HETATM    4  C4  UNL     1      -6.999   1.709  -2.490  1.00  0.00     0.052 C 
HETATM    5  C5  UNL     1      -5.802   2.122  -1.615  1.00  0.00     0.010 C 
HETATM    6  C6  UNL     1      -6.111   1.640  -0.183  1.00  0.00     0.002 C 
HETATM    7  C7  UNL     1      -4.884   1.302   0.691  1.00  0.00    -0.004 C 
HETATM    8  C8  UNL     1      -3.905   2.483   0.750  1.00  0.00     0.010 C 
HETATM    9  C9  UNL     1      -2.767   2.202   1.721  1.00  0.00     0.035 C 
HETATM   10  C10 UNL     1      -2.036   0.922   1.390  1.00  0.00    -0.069 C 
HETATM   11  C11 UNL     1      -0.690   0.913   1.388  1.00  0.00     0.030 C 
HETATM   12  C12 UNL     1       0.090  -0.344   1.234  1.00  0.00     0.032 C 
HETATM   13  N1  UNL     1       1.382  -0.282   1.397  1.00  0.00    -0.271 N 
ATOM     14  H1  UNL     1       1.897   0.576   1.593  1.00  0.00     0.194 HD
HETATM   15  C25 UNL     1      -0.668  -1.633   0.994  1.00  0.00     0.060 C 
HETATM   16  C26 UNL     1      -2.042  -1.384   0.387  1.00  0.00     0.020 C 
HETATM   17  C27 UNL     1      -2.892  -0.327   1.147  1.00  0.00    -0.016 C 
HETATM   18  C28 UNL     1      -3.304  -0.889   2.528  1.00  0.00     0.020 C 
HETATM   19  C29 UNL     1      -4.150   0.015   0.245  1.00  0.00     0.002 C 
HETATM   20  C30 UNL     1      -5.158  -1.149   0.130  1.00  0.00     0.007 C 
HETATM   21  C31 UNL     1      -6.333  -0.818  -0.792  1.00  0.00     0.014 C 
HETATM   22  C32 UNL     1      -7.104   0.465  -0.386  1.00  0.00     0.003 C 
HETATM   23  C33 UNL     1      -7.920   0.206   0.894  1.00  0.00     0.020 C 
ENDROOT
BRANCH   3  24
HETATM   24  O1  UNL     1      -8.916   1.997  -1.056  1.00  0.00    -0.377 OA
HETATM   25  H2  UNL     1      -8.430   2.819  -0.883  1.00  0.00     0.211 HD
ENDBRANCH   3  24
BRANCH  13  26
HETATM   26  O2  UNL     1       1.973  -1.552   1.267  1.00  0.00    -0.271 OA
BRANCH  26  27
HETATM   27  C13 UNL     1       3.145  -1.621   2.069  1.00  0.00     0.303 C 
BRANCH  27  28
HETATM   28  C14 UNL     1       4.286  -2.209   1.256  1.00  0.00     0.244 C 
HETATM   29  O3  UNL     1       4.942  -3.174   1.642  1.00  0.00    -0.271 OA
HETATM   30  N2  UNL     1       4.568  -1.511   0.095  1.00  0.00    -0.354 N 
HETATM   31  H16 UNL     1       3.984  -0.704  -0.108  1.00  0.00     0.162 HD
BRANCH  30  32
HETATM   32  C15 UNL     1       5.766  -1.765  -0.706  1.00  0.00     0.098 C 
BRANCH  32  33
HETATM   33  C16 UNL     1       5.461  -1.593  -2.202  1.00  0.00     0.135 C 
BRANCH  33  34
HETATM   34  C17 UNL     1       4.697  -2.767  -2.743  1.00  0.00     0.141 C 
HETATM   35  O4  UNL     1       3.552  -2.749  -3.166  1.00  0.00    -0.650 OA
BRANCH  34  36
HETATM   36  O5  UNL     1       5.425  -3.900  -2.768  1.00  0.00    -0.776 OA
HETATM   37  H20 UNL     1       4.803  -4.573  -3.118  1.00  0.00     0.167 HD
ENDBRANCH  34  36
ENDBRANCH  33  34
ENDBRANCH  32  33
BRANCH  32  38
HETATM   38  C18 UNL     1       6.965  -0.867  -0.272  1.00  0.00     0.014 C 
HETATM   39  C19 UNL     1       7.392  -1.121   1.185  1.00  0.00     0.033 C 
HETATM   40  C20 UNL     1       8.556  -0.229   1.586  1.00  0.00     0.169 C 
HETATM   41  O6  UNL     1       8.232   1.146   1.395  1.00  0.00    -0.381 OA
HETATM   42  C21 UNL     1       7.889   1.508   0.049  1.00  0.00     0.054 C 
HETATM   43  C22 UNL     1       7.432   2.973   0.114  1.00  0.00     0.045 C 
HETATM   44  C23 UNL     1       9.124   1.430  -0.865  1.00  0.00     0.045 C 
HETATM   45  C24 UNL     1       6.720   0.640  -0.470  1.00  0.00     0.044 C 
ENDBRANCH  32  38
ENDBRANCH  30  32
ENDBRANCH  27  28
ENDBRANCH  26  27
ENDBRANCH  13  26
TORSDOF 9
