REMARK  8 active torsions:
REMARK  status: ('A' for Active; 'I' for Inactive)
REMARK    1  A    between atoms: C4_4  and  C5_5 
REMARK    2  A    between atoms: C5_5  and  C6_6 
REMARK    3  A    between atoms: C6_6  and  C7_7 
REMARK    4  A    between atoms: C7_7  and  C9_9 
REMARK    5  A    between atoms: C21_21  and  C22_22 
REMARK    6  A    between atoms: C22_22  and  C23_23 
REMARK    7  A    between atoms: C23_23  and  C24_24 
REMARK    8  A    between atoms: C24_24  and  O1_25 
ROOT
HETATM    1  C9  UNL     1       2.005  -1.853   1.731  1.00  0.00    -0.002 C 
HETATM    2  C10 UNL     1       2.155  -0.835   2.892  1.00  0.00     0.006 C 
HETATM    3  C11 UNL     1       0.808  -0.081   3.006  1.00  0.00     0.011 C 
HETATM    4  C12 UNL     1       0.246  -0.114   1.571  1.00  0.00    -0.032 C 
HETATM    5  C13 UNL     1       1.040   0.974   0.798  1.00  0.00     0.016 C 
HETATM    6  C14 UNL     1      -1.285   0.125   1.406  1.00  0.00     0.003 C 
HETATM    7  C15 UNL     1      -1.813   1.448   1.987  1.00  0.00     0.010 C 
HETATM    8  C16 UNL     1      -3.341   1.450   1.981  1.00  0.00     0.035 C 
HETATM    9  C17 UNL     1      -3.934   1.203   0.585  1.00  0.00    -0.073 C 
HETATM   10  C18 UNL     1      -4.777   2.122   0.039  1.00  0.00    -0.085 C 
HETATM   11  C19 UNL     1      -5.002   3.486   0.671  1.00  0.00     0.043 C 
HETATM   12  C20 UNL     1      -5.595   1.994  -1.217  1.00  0.00     0.043 C 
HETATM   13  C21 UNL     1      -3.435  -0.175   0.052  1.00  0.00     0.023 C 
HETATM   14  C25 UNL     1      -1.836  -0.152  -0.070  1.00  0.00    -0.032 C 
HETATM   15  C26 UNL     1      -1.426   0.957  -1.080  1.00  0.00     0.016 C 
HETATM   16  C27 UNL     1      -1.269  -1.519  -0.601  1.00  0.00     0.011 C 
HETATM   17  C28 UNL     1       0.226  -1.815  -0.301  1.00  0.00     0.011 C 
HETATM   18  C29 UNL     1       0.558  -1.606   1.181  1.00  0.00    -0.032 C 
HETATM   19  C30 UNL     1      -0.311  -2.669   1.972  1.00  0.00     0.016 C 
ENDROOT
BRANCH   1  20
HETATM   20  C7  UNL     1       3.202  -2.084   0.764  1.00  0.00    -0.014 C 
HETATM   21  C8  UNL     1       4.389  -2.690   1.532  1.00  0.00     0.010 C 
BRANCH  20  22
HETATM   22  C6  UNL     1       3.673  -0.949  -0.170  1.00  0.00     0.008 C 
BRANCH  22  23
HETATM   23  C5  UNL     1       4.689   0.054   0.390  1.00  0.00     0.028 C 
BRANCH  23  24
HETATM   24  C4  UNL     1       4.976   1.142  -0.612  1.00  0.00    -0.025 C 
HETATM   25  C2  UNL     1       6.114   1.354  -1.302  1.00  0.00    -0.091 C 
HETATM   26  C1  UNL     1       6.234   2.527  -2.239  1.00  0.00     0.042 C 
HETATM   27  C3  UNL     1       7.343   0.490  -1.236  1.00  0.00     0.042 C 
ENDBRANCH  23  24
ENDBRANCH  22  23
ENDBRANCH  20  22
ENDBRANCH   1  20
BRANCH  13  28
HETATM   28  C22 UNL     1      -4.210  -0.926  -1.068  1.00  0.00     0.012 C 
BRANCH  28  29
HETATM   29  C23 UNL     1      -3.976  -0.568  -2.537  1.00  0.00     0.027 C 
BRANCH  29  30
HETATM   30  C24 UNL     1      -4.960  -1.301  -3.446  1.00  0.00     0.164 C 
BRANCH  30  31
HETATM   31  O1  UNL     1      -4.691  -0.987  -4.806  1.00  0.00    -0.401 OA
HETATM   32  H42 UNL     1      -4.733  -0.020  -4.898  1.00  0.00     0.209 HD
ENDBRANCH  30  31
ENDBRANCH  29  30
ENDBRANCH  28  29
ENDBRANCH  13  28
TORSDOF 8
