REMARK  11 active torsions:
REMARK  status: ('A' for Active; 'I' for Inactive)
REMARK    1  A    between atoms: C2_2  and  O1_3 
REMARK    2  A    between atoms: C2_2  and  C3_4 
REMARK    3  A    between atoms: C4_5  and  C5_6 
REMARK    4  A    between atoms: C5_6  and  O2_7 
REMARK    5  A    between atoms: C9_11  and  O3_12 
REMARK    6  A    between atoms: O3_12  and  C10_13 
REMARK    7  A    between atoms: C11_15  and  C12_16 
REMARK    8  A    between atoms: C12_16  and  O5_17 
REMARK    9  A    between atoms: C13_18  and  O6_19 
REMARK   10  A    between atoms: C14_20  and  O7_21 
REMARK   11  A    between atoms: C15_22  and  O8_23 
ROOT
HETATM    1  C5  UNL     1       2.106   0.220  -0.171  1.00  0.00     0.086 C 
HETATM    2  C6  UNL     1       1.814  -1.280  -0.498  1.00  0.00     0.023 C 
HETATM    3  C7  UNL     1       1.951  -2.256   0.679  1.00  0.00     0.013 C 
HETATM    4  C8  UNL     1       0.423  -1.450  -1.158  1.00  0.00     0.039 C 
HETATM    5  C9  UNL     1      -0.591  -0.356  -0.797  1.00  0.00     0.126 C 
HETATM    6  C16 UNL     1      -0.368   0.160   0.622  1.00  0.00     0.044 C 
HETATM    7  C17 UNL     1       1.023   0.834   0.819  1.00  0.00    -0.010 C 
HETATM    8  C18 UNL     1       0.840   2.356   0.572  1.00  0.00     0.018 C 
HETATM    9  C19 UNL     1       1.417   0.677   2.306  1.00  0.00     0.018 C 
ENDROOT
BRANCH   5  10
HETATM   10  O3  UNL     1      -1.900  -0.937  -0.870  1.00  0.00    -0.353 OA
BRANCH  10  11
HETATM   11  C10 UNL     1      -2.729  -0.300  -1.852  1.00  0.00     0.292 C 
HETATM   12  O4  UNL     1      -3.053   1.028  -1.424  1.00  0.00    -0.348 OA
HETATM   13  C11 UNL     1      -4.287   1.160  -0.690  1.00  0.00     0.179 C 
HETATM   14  C13 UNL     1      -4.605  -0.088   0.135  1.00  0.00     0.180 C 
HETATM   15  C14 UNL     1      -4.813  -1.289  -0.809  1.00  0.00     0.183 C 
HETATM   16  C15 UNL     1      -3.957  -1.205  -2.084  1.00  0.00     0.204 C 
BRANCH  13  17
HETATM   17  C12 UNL     1      -4.155   2.412   0.189  1.00  0.00     0.198 C 
BRANCH  17  18
HETATM   18  O5  UNL     1      -3.803   3.540  -0.619  1.00  0.00    -0.398 OA
HETATM   19  H20 UNL     1      -3.100   3.216  -1.218  1.00  0.00     0.209 HD
ENDBRANCH  17  18
ENDBRANCH  13  17
BRANCH  14  20
HETATM   20  O6  UNL     1      -5.770   0.082   0.946  1.00  0.00    -0.390 OA
HETATM   21  H22 UNL     1      -5.955  -0.788   1.349  1.00  0.00     0.210 HD
ENDBRANCH  14  20
BRANCH  15  22
HETATM   22  O7  UNL     1      -4.527  -2.496  -0.081  1.00  0.00    -0.390 OA
HETATM   23  H24 UNL     1      -3.572  -2.481   0.124  1.00  0.00     0.210 HD
ENDBRANCH  15  22
BRANCH  16  24
HETATM   24  O8  UNL     1      -4.741  -0.701  -3.174  1.00  0.00    -0.388 OA
HETATM   25  H26 UNL     1      -5.421  -1.368  -3.376  1.00  0.00     0.210 HD
ENDBRANCH  16  24
ENDBRANCH  10  11
ENDBRANCH   5  10
BRANCH   1  26
HETATM   26  C4  UNL     1       3.534   0.561   0.226  1.00  0.00     0.010 C 
HETATM   27  C3  UNL     1       4.619  -0.232   0.215  1.00  0.00     0.003 C 
BRANCH  27  28
HETATM   28  C2  UNL     1       5.996   0.220   0.600  1.00  0.00     0.136 C 
HETATM   29  C1  UNL     1       6.532  -0.564   1.788  1.00  0.00     0.043 C 
BRANCH  28  30
HETATM   30  O1  UNL     1       6.844  -0.013  -0.516  1.00  0.00    -0.392 OA
HETATM   31  H5  UNL     1       6.499   0.531  -1.245  1.00  0.00     0.210 HD
ENDBRANCH  28  30
ENDBRANCH  27  28
ENDBRANCH   1  26
BRANCH   1  32
HETATM   32  O2  UNL     1       1.965   0.900  -1.438  1.00  0.00    -0.385 OA
HETATM   33  H8  UNL     1       2.689   0.594  -2.013  1.00  0.00     0.211 HD
ENDBRANCH   1  32
TORSDOF 11
