REMARK  4 active torsions:
REMARK  status: ('A' for Active; 'I' for Inactive)
REMARK    1  A    between atoms: C4_4  and  C5_5 
REMARK    2  A    between atoms: C5_5  and  C6_7 
REMARK    3  A    between atoms: C6_7  and  C7_8 
REMARK    4  A    between atoms: C7_8  and  C9_10 
ROOT
HETATM    1  C9  UNL     1       2.065   1.269   0.540  1.00  0.00    -0.001 C 
HETATM    2  C10 UNL     1       2.345  -0.001   1.381  1.00  0.00     0.007 C 
HETATM    3  C11 UNL     1       0.970  -0.605   1.754  1.00  0.00     0.015 C 
HETATM    4  C12 UNL     1      -0.073   0.437   1.292  1.00  0.00    -0.013 C 
HETATM    5  C13 UNL     1      -0.219   1.448   2.475  1.00  0.00     0.021 C 
HETATM    6  C14 UNL     1      -1.483  -0.036   0.963  1.00  0.00    -0.070 C 
HETATM    7  C15 UNL     1      -2.041  -1.104   1.556  1.00  0.00    -0.022 C 
HETATM    8  C16 UNL     1      -3.437  -1.584   1.323  1.00  0.00     0.034 C 
HETATM    9  C17 UNL     1      -4.326  -0.752   0.364  1.00  0.00     0.013 C 
HETATM   10  C18 UNL     1      -4.731  -1.503  -0.957  1.00  0.00     0.018 C 
HETATM   11  C19 UNL     1      -5.507  -2.798  -0.619  1.00  0.00     0.023 C 
HETATM   12  C20 UNL     1      -3.545  -1.863  -1.864  1.00  0.00     0.023 C 
HETATM   13  C21 UNL     1      -5.696  -0.623  -1.773  1.00  0.00     0.135 C 
HETATM   14  O2  UNL     1      -6.289  -1.050  -2.766  1.00  0.00    -0.297 OA
HETATM   15  C22 UNL     1      -5.903   0.800  -1.316  1.00  0.00     0.080 C 
HETATM   16  C23 UNL     1      -4.542   1.409  -1.027  1.00  0.00     0.017 C 
HETATM   17  C24 UNL     1      -3.815   0.733   0.172  1.00  0.00    -0.031 C 
HETATM   18  C25 UNL     1      -4.184   1.528   1.457  1.00  0.00     0.016 C 
HETATM   19  C26 UNL     1      -2.259   0.773  -0.068  1.00  0.00     0.024 C 
HETATM   20  C27 UNL     1      -1.671   2.190  -0.302  1.00  0.00     0.010 C 
HETATM   21  C28 UNL     1      -0.135   2.262  -0.482  1.00  0.00     0.011 C 
HETATM   22  C29 UNL     1       0.619   1.008   0.007  1.00  0.00    -0.029 C 
HETATM   23  C30 UNL     1       0.692  -0.014  -1.172  1.00  0.00     0.016 C 
ENDROOT
BRANCH   1  24
HETATM   24  C7  UNL     1       3.138   1.716  -0.496  1.00  0.00    -0.007 C 
HETATM   25  C8  UNL     1       3.982   2.872   0.069  1.00  0.00     0.011 C 
BRANCH  24  26
HETATM   26  C6  UNL     1       4.027   0.623  -1.126  1.00  0.00     0.087 C 
BRANCH  26  27
HETATM   27  C5  UNL     1       5.108  -0.016  -0.256  1.00  0.00     0.149 C 
HETATM   28  O1  UNL     1       5.449   0.436   0.831  1.00  0.00    -0.293 OA
BRANCH  27  29
HETATM   29  C4  UNL     1       5.736  -1.253  -0.827  1.00  0.00     0.052 C 
HETATM   30  C2  UNL     1       6.815  -1.915  -0.367  1.00  0.00    -0.084 C 
HETATM   31  C1  UNL     1       7.659  -1.526   0.816  1.00  0.00     0.043 C 
HETATM   32  C3  UNL     1       7.282  -3.173  -1.060  1.00  0.00     0.043 C 
ENDBRANCH  27  29
ENDBRANCH  26  27
ENDBRANCH  24  26
ENDBRANCH   1  24
TORSDOF 4
