REMARK  12 active torsions:
REMARK  status: ('A' for Active; 'I' for Inactive)
REMARK    1  A    between atoms: O1_2  and  C2_3 
REMARK    2  A    between atoms: C2_3  and  C5_6 
REMARK    3  A    between atoms: C6_7  and  C7_8 
REMARK    4  A    between atoms: C7_8  and  C8_9 
REMARK    5  A    between atoms: C8_9  and  C10_11 
REMARK    6  A    between atoms: C28_30  and  O3_31 
REMARK    7  A    between atoms: O3_31  and  C29_32 
REMARK    8  A    between atoms: C30_34  and  C31_35 
REMARK    9  A    between atoms: C31_35  and  O5_36 
REMARK   10  A    between atoms: C32_37  and  O6_38 
REMARK   11  A    between atoms: C33_39  and  O7_40 
REMARK   12  A    between atoms: C34_41  and  O8_42 
ROOT
HETATM    1  C10 UNL     1      -3.428   0.057  -0.897  1.00  0.00    -0.002 C 
HETATM    2  C11 UNL     1      -3.530   1.512  -1.453  1.00  0.00     0.006 C 
HETATM    3  C12 UNL     1      -2.351   2.317  -0.883  1.00  0.00     0.011 C 
HETATM    4  C13 UNL     1      -1.380   1.255  -0.335  1.00  0.00    -0.029 C 
HETATM    5  C14 UNL     1      -0.576   0.726  -1.563  1.00  0.00     0.016 C 
HETATM    6  C15 UNL     1      -0.415   1.762   0.782  1.00  0.00     0.028 C 
HETATM    7  C16 UNL     1       0.532   2.856   0.310  1.00  0.00    -0.021 C 
HETATM    8  C17 UNL     1       1.847   2.828   0.592  1.00  0.00     0.008 C 
HETATM    9  C18 UNL     1       2.449   1.690   1.411  1.00  0.00     0.092 C 
HETATM   10  O2  UNL     1       1.921   1.910   2.745  1.00  0.00    -0.374 OA
HETATM   11  C19 UNL     1       0.772   1.076   2.926  1.00  0.00     0.179 C 
HETATM   12  C20 UNL     1       0.342   0.572   1.528  1.00  0.00    -0.004 C 
HETATM   13  C21 UNL     1      -0.518  -0.711   1.719  1.00  0.00     0.014 C 
HETATM   14  C22 UNL     1      -1.581  -1.037   0.654  1.00  0.00     0.011 C 
HETATM   15  C23 UNL     1      -2.394   0.208   0.267  1.00  0.00    -0.032 C 
HETATM   16  C24 UNL     1      -3.151   0.719   1.536  1.00  0.00     0.016 C 
HETATM   17  C25 UNL     1       1.754   0.394   0.903  1.00  0.00     0.036 C 
HETATM   18  C26 UNL     1       2.536  -0.861   1.277  1.00  0.00     0.011 C 
HETATM   19  C27 UNL     1       3.955  -0.842   0.704  1.00  0.00     0.033 C 
HETATM   20  C28 UNL     1       4.538   0.559   0.461  1.00  0.00     0.136 C 
HETATM   21  C35 UNL     1       4.023   1.602   1.497  1.00  0.00     0.014 C 
HETATM   22  C36 UNL     1       4.511   1.218   2.928  1.00  0.00     0.021 C 
HETATM   23  C37 UNL     1       4.709   2.965   1.214  1.00  0.00     0.021 C 
ENDROOT
BRANCH  20  24
HETATM   24  O3  UNL     1       5.964   0.502   0.559  1.00  0.00    -0.352 OA
BRANCH  24  25
HETATM   25  C29 UNL     1       6.667   0.043  -0.599  1.00  0.00     0.292 C 
HETATM   26  O4  UNL     1       6.560  -1.368  -0.700  1.00  0.00    -0.348 OA
HETATM   27  C30 UNL     1       7.247  -1.919  -1.845  1.00  0.00     0.179 C 
HETATM   28  C32 UNL     1       8.607  -1.251  -2.131  1.00  0.00     0.180 C 
HETATM   29  C33 UNL     1       9.151  -0.564  -0.876  1.00  0.00     0.183 C 
HETATM   30  C34 UNL     1       8.138   0.491  -0.392  1.00  0.00     0.204 C 
BRANCH  27  31
HETATM   31  C31 UNL     1       7.410  -3.414  -1.543  1.00  0.00     0.198 C 
BRANCH  31  32
HETATM   32  O5  UNL     1       6.115  -4.001  -1.380  1.00  0.00    -0.398 OA
HETATM   33  H48 UNL     1       5.664  -3.429  -0.731  1.00  0.00     0.209 HD
ENDBRANCH  31  32
ENDBRANCH  27  31
BRANCH  28  34
HETATM   34  O6  UNL     1       8.443  -0.241  -3.145  1.00  0.00    -0.390 OA
HETATM   35  H50 UNL     1       8.506  -0.685  -4.007  1.00  0.00     0.210 HD
ENDBRANCH  28  34
BRANCH  29  36
HETATM   36  O7  UNL     1       9.450  -1.544   0.116  1.00  0.00    -0.390 OA
HETATM   37  H52 UNL     1       9.690  -1.077   0.937  1.00  0.00     0.210 HD
ENDBRANCH  29  36
BRANCH  30  38
HETATM   38  O8  UNL     1       8.354   1.734  -1.096  1.00  0.00    -0.388 OA
HETATM   39  H54 UNL     1       8.504   1.491  -2.047  1.00  0.00     0.210 HD
ENDBRANCH  30  38
ENDBRANCH  24  25
ENDBRANCH  20  24
BRANCH   1  40
HETATM   40  C8  UNL     1      -4.844  -0.530  -0.597  1.00  0.00    -0.010 C 
HETATM   41  C9  UNL     1      -4.774  -1.958  -0.038  1.00  0.00     0.010 C 
BRANCH  40  42
HETATM   42  C7  UNL     1      -5.744  -0.537  -1.867  1.00  0.00     0.031 C 
BRANCH  42  43
HETATM   43  C6  UNL     1      -7.240  -0.645  -1.668  1.00  0.00    -0.027 C 
HETATM   44  C5  UNL     1      -7.925  -0.407  -0.536  1.00  0.00     0.006 C 
BRANCH  44  45
HETATM   45  C2  UNL     1      -9.429  -0.467  -0.324  1.00  0.00     0.070 C 
HETATM   46  C3  UNL     1     -10.248  -1.036  -1.491  1.00  0.00     0.050 C 
HETATM   47  C4  UNL     1      -9.916   0.969  -0.061  1.00  0.00     0.050 C 
BRANCH  45  48
HETATM   48  O1  UNL     1      -9.685  -1.179   0.900  1.00  0.00    -0.382 OA
HETATM   49  C1  UNL     1      -9.465  -2.581   0.866  1.00  0.00     0.202 C 
ENDBRANCH  45  48
ENDBRANCH  44  45
ENDBRANCH  42  43
ENDBRANCH  40  42
ENDBRANCH   1  40
TORSDOF 12
