REMARK  10 active torsions:
REMARK  status: ('A' for Active; 'I' for Inactive)
REMARK    1  A    between atoms: C3_3  and  O1_4 
REMARK    2  A    between atoms: N1_14  and  O2_16 
REMARK    3  A    between atoms: O2_16  and  C13_17 
REMARK    4  A    between atoms: C13_17  and  C14_18 
REMARK       I    between atoms: C14_18  and  N2_20 
REMARK    5  A    between atoms: N2_20  and  C15_21 
REMARK    6  A    between atoms: C15_21  and  C16_22 
REMARK       I    between atoms: C16_22  and  N3_24 
REMARK    7  A    between atoms: N3_24  and  C17_25 
REMARK    8  A    between atoms: C17_25  and  C18_26 
REMARK    9  A    between atoms: C17_25  and  C19_29 
REMARK   10  A    between atoms: C18_26  and  O6_28 
ROOT
HETATM    1  C1  UNL     1      -8.331  -3.246   1.937  1.00  0.00     0.015 C 
HETATM    2  C2  UNL     1      -7.864  -2.356   1.280  1.00  0.00    -0.078 C 
HETATM    3  C3  UNL     1      -7.304  -1.273   0.454  1.00  0.00     0.128 C 
HETATM    4  C4  UNL     1      -8.132   0.012   0.554  1.00  0.00     0.052 C 
HETATM    5  C5  UNL     1      -7.213   1.044  -0.093  1.00  0.00     0.010 C 
HETATM    6  C6  UNL     1      -5.830   0.711   0.482  1.00  0.00     0.002 C 
HETATM    7  C7  UNL     1      -4.608   1.219  -0.317  1.00  0.00    -0.004 C 
HETATM    8  C8  UNL     1      -4.667   1.072  -1.847  1.00  0.00     0.010 C 
HETATM    9  C9  UNL     1      -3.429   1.666  -2.518  1.00  0.00     0.035 C 
HETATM   10  C10 UNL     1      -2.119   1.194  -1.928  1.00  0.00    -0.069 C 
HETATM   11  C11 UNL     1      -1.106   0.850  -2.743  1.00  0.00     0.030 C 
HETATM   12  C12 UNL     1       0.260   0.572  -2.228  1.00  0.00     0.032 C 
HETATM   13  N1  UNL     1       1.182   0.271  -3.099  1.00  0.00    -0.271 N 
ATOM     14  H1  UNL     1       1.011   0.155  -4.098  1.00  0.00     0.194 HD
HETATM   15  C22 UNL     1       0.511   0.746  -0.743  1.00  0.00     0.060 C 
HETATM   16  C23 UNL     1      -0.744   0.418   0.059  1.00  0.00     0.020 C 
HETATM   17  C24 UNL     1      -2.006   1.203  -0.406  1.00  0.00    -0.016 C 
HETATM   18  C25 UNL     1      -1.840   2.673   0.063  1.00  0.00     0.020 C 
HETATM   19  C26 UNL     1      -3.308   0.581   0.239  1.00  0.00     0.002 C 
HETATM   20  C27 UNL     1      -3.366  -0.967   0.145  1.00  0.00     0.007 C 
HETATM   21  C28 UNL     1      -4.761  -1.596   0.096  1.00  0.00     0.014 C 
HETATM   22  C29 UNL     1      -5.852  -0.813   0.844  1.00  0.00     0.003 C 
HETATM   23  C30 UNL     1      -5.597  -0.947   2.371  1.00  0.00     0.020 C 
ENDROOT
BRANCH   3  24
HETATM   24  O1  UNL     1      -7.354  -1.686  -0.917  1.00  0.00    -0.377 OA
HETATM   25  H2  UNL     1      -8.173  -2.196  -1.030  1.00  0.00     0.211 HD
ENDBRANCH   3  24
BRANCH  13  26
HETATM   26  O2  UNL     1       2.437   0.126  -2.494  1.00  0.00    -0.271 OA
BRANCH  26  27
HETATM   27  C13 UNL     1       3.400  -0.174  -3.502  1.00  0.00     0.303 C 
BRANCH  27  28
HETATM   28  C14 UNL     1       4.811  -0.017  -2.946  1.00  0.00     0.244 C 
HETATM   29  O3  UNL     1       5.775  -0.632  -3.395  1.00  0.00    -0.271 OA
HETATM   30  N2  UNL     1       4.929   0.933  -1.952  1.00  0.00    -0.350 N 
HETATM   31  H16 UNL     1       4.067   1.165  -1.462  1.00  0.00     0.163 HD
BRANCH  30  32
HETATM   32  C15 UNL     1       6.156   1.073  -1.195  1.00  0.00     0.225 C 
BRANCH  32  33
HETATM   33  C16 UNL     1       6.051   0.280   0.111  1.00  0.00     0.236 C 
HETATM   34  O4  UNL     1       4.980   0.098   0.690  1.00  0.00    -0.272 OA
HETATM   35  N3  UNL     1       7.266  -0.137   0.617  1.00  0.00    -0.345 N 
HETATM   36  H19 UNL     1       7.995  -0.279  -0.075  1.00  0.00     0.163 HD
BRANCH  35  37
HETATM   37  C17 UNL     1       7.320  -1.072   1.748  1.00  0.00     0.185 C 
BRANCH  37  38
HETATM   38  C18 UNL     1       7.563  -2.506   1.251  1.00  0.00     0.163 C 
HETATM   39  O5  UNL     1       7.566  -3.518   1.934  1.00  0.00    -0.648 OA
BRANCH  38  40
HETATM   40  O6  UNL     1       7.863  -2.576  -0.066  1.00  0.00    -0.775 OA
HETATM   41  H21 UNL     1       7.967  -3.537  -0.238  1.00  0.00     0.167 HD
ENDBRANCH  38  40
ENDBRANCH  37  38
BRANCH  37  42
HETATM   42  C19 UNL     1       8.398  -0.669   2.778  1.00  0.00     0.010 C 
HETATM   43  C20 UNL     1       9.804  -0.563   2.178  1.00  0.00     0.012 C 
HETATM   44  C21 UNL     1       8.029   0.645   3.473  1.00  0.00     0.012 C 
ENDBRANCH  37  42
ENDBRANCH  35  37
ENDBRANCH  32  33
ENDBRANCH  30  32
ENDBRANCH  27  28
ENDBRANCH  26  27
ENDBRANCH  13  26
TORSDOF 10
