REMARK  11 active torsions:
REMARK  status: ('A' for Active; 'I' for Inactive)
REMARK    1  A    between atoms: C2_2  and  O2_4 
REMARK    2  A    between atoms: O2_4  and  C3_5 
REMARK    3  A    between atoms: C4_6  and  O3_7 
REMARK    4  A    between atoms: O3_7  and  C5_8 
REMARK    5  A    between atoms: C15_18  and  C16_19 
REMARK    6  A    between atoms: C20_23  and  C21_24 
REMARK    7  A    between atoms: C21_24  and  O4_27 
REMARK    8  A    between atoms: C24_29  and  O6_30 
REMARK    9  A    between atoms: C30_36  and  O7_37 
REMARK   10  A    between atoms: C36_44  and  O9_45 
REMARK   11  A    between atoms: C37_46  and  O10_47 
ROOT
HETATM    1  C5  UNL     1       4.111  -0.804  -0.151  1.00  0.00     0.133 C 
HETATM    2  C6  UNL     1       3.265  -1.523   0.904  1.00  0.00     0.034 C 
HETATM    3  C7  UNL     1       1.795  -1.567   0.513  1.00  0.00     0.013 C 
HETATM    4  C8  UNL     1       1.265  -0.163   0.254  1.00  0.00    -0.025 A 
HETATM    5  C9  UNL     1       0.773   0.595   1.459  1.00  0.00     0.021 A 
HETATM    6  C10 UNL     1      -0.250   0.152   0.424  1.00  0.00    -0.027 A 
HETATM    7  C11 UNL     1      -1.174  -1.010   0.811  1.00  0.00     0.011 C 
HETATM    8  C12 UNL     1      -2.666  -0.714   1.049  1.00  0.00     0.011 C 
HETATM    9  C13 UNL     1      -3.099   0.714   0.712  1.00  0.00    -0.028 C 
HETATM   10  C14 UNL     1      -2.727   1.618   1.916  1.00  0.00     0.016 C 
HETATM   11  C15 UNL     1      -4.607   0.911   0.341  1.00  0.00     0.057 C 
HETATM   12  C24 UNL     1      -4.597   2.213  -0.520  1.00  0.00     0.126 C 
HETATM   13  C25 UNL     1      -3.141   2.429  -0.985  1.00  0.00     0.042 C 
HETATM   14  C26 UNL     1      -2.393   1.124  -0.636  1.00  0.00    -0.029 C 
HETATM   15  C27 UNL     1      -2.632   0.136  -1.822  1.00  0.00     0.016 C 
HETATM   16  C28 UNL     1      -0.870   1.309  -0.392  1.00  0.00     0.006 C 
HETATM   17  C29 UNL     1      -0.074   1.584  -1.669  1.00  0.00     0.038 C 
HETATM   18  C30 UNL     1       1.404   1.838  -1.367  1.00  0.00     0.124 C 
HETATM   19  C31 UNL     1       2.074   0.542  -0.860  1.00  0.00     0.034 C 
HETATM   20  C32 UNL     1       3.600   0.643  -0.469  1.00  0.00    -0.015 C 
HETATM   21  C33 UNL     1       4.459   1.190  -1.639  1.00  0.00     0.018 C 
HETATM   22  C34 UNL     1       3.842   1.594   0.724  1.00  0.00     0.018 C 
ENDROOT
BRANCH   1  23
HETATM   23  O3  UNL     1       5.458  -0.746   0.339  1.00  0.00    -0.352 OA
BRANCH  23  24
HETATM   24  C4  UNL     1       6.358  -1.598  -0.377  1.00  0.00     0.292 C 
HETATM   25  C3  UNL     1       7.805  -1.160  -0.046  1.00  0.00     0.218 C 
HETATM   26  C37 UNL     1       8.721  -2.378  -0.116  1.00  0.00     0.183 C 
HETATM   27  C36 UNL     1       8.278  -3.427   0.917  1.00  0.00     0.173 C 
HETATM   28  C35 UNL     1       6.755  -3.420   1.106  1.00  0.00     0.205 C 
HETATM   29  O8  UNL     1       6.099  -2.979  -0.084  1.00  0.00    -0.356 OA
BRANCH  25  30
HETATM   30  O2  UNL     1       8.221  -0.190  -1.039  1.00  0.00    -0.309 OA
BRANCH  30  31
HETATM   31  C2  UNL     1       8.722   0.983  -0.573  1.00  0.00     0.255 C 
HETATM   32  C1  UNL     1       9.112   1.863  -1.723  1.00  0.00     0.126 C 
HETATM   33  O1  UNL     1       8.813   1.316   0.601  1.00  0.00    -0.266 OA
ENDBRANCH  30  31
ENDBRANCH  25  30
BRANCH  26  34
HETATM   34  O10 UNL     1      10.086  -2.016   0.141  1.00  0.00    -0.390 OA
HETATM   35  H60 UNL     1      10.598  -2.841   0.035  1.00  0.00     0.210 HD
ENDBRANCH  26  34
BRANCH  27  36
HETATM   36  O9  UNL     1       8.749  -4.703   0.454  1.00  0.00    -0.391 OA
HETATM   37  H58 UNL     1       8.447  -5.377   1.089  1.00  0.00     0.210 HD
ENDBRANCH  27  36
ENDBRANCH  23  24
ENDBRANCH   1  23
BRANCH  18  38
HETATM   38  O7  UNL     1       2.000   2.253  -2.601  1.00  0.00    -0.395 OA
HETATM   39  H47 UNL     1       1.594   3.102  -2.849  1.00  0.00     0.210 HD
ENDBRANCH  18  38
BRANCH  11  40
HETATM   40  C16 UNL     1      -5.769   0.732   1.359  1.00  0.00     0.065 C 
HETATM   41  C17 UNL     1      -5.828   1.690   2.559  1.00  0.00     0.046 C 
HETATM   42  C18 UNL     1      -5.881  -0.717   1.852  1.00  0.00     0.041 C 
HETATM   43  C19 UNL     1      -7.367  -0.925   2.026  1.00  0.00     0.038 C 
HETATM   44  C20 UNL     1      -7.977  -0.067   0.925  1.00  0.00     0.156 C 
HETATM   45  O5  UNL     1      -6.996   0.948   0.610  1.00  0.00    -0.372 OA
BRANCH  44  46
HETATM   46  C21 UNL     1      -8.381  -0.825  -0.374  1.00  0.00     0.076 C 
HETATM   47  C22 UNL     1      -8.690   0.164  -1.509  1.00  0.00     0.048 C 
HETATM   48  C23 UNL     1      -9.601  -1.720  -0.129  1.00  0.00     0.048 C 
BRANCH  46  49
HETATM   49  O4  UNL     1      -7.309  -1.678  -0.800  1.00  0.00    -0.388 OA
HETATM   50  H35 UNL     1      -7.420  -1.843  -1.750  1.00  0.00     0.210 HD
ENDBRANCH  46  49
ENDBRANCH  44  46
ENDBRANCH  11  40
BRANCH  12  51
HETATM   51  O6  UNL     1      -5.010   3.380   0.169  1.00  0.00    -0.395 OA
HETATM   52  H37 UNL     1      -5.161   4.074  -0.495  1.00  0.00     0.210 HD
ENDBRANCH  12  51
TORSDOF 11
