REMARK  11 active torsions:
REMARK  status: ('A' for Active; 'I' for Inactive)
REMARK    1  A    between atoms: C2_2  and  C4_4 
REMARK    2  A    between atoms: C5_5  and  C6_6 
REMARK    3  A    between atoms: C6_6  and  C7_7 
REMARK    4  A    between atoms: C7_7  and  C9_9 
REMARK    5  A    between atoms: C27_28  and  O2_29 
REMARK    6  A    between atoms: O2_29  and  C28_30 
REMARK    7  A    between atoms: C29_32  and  C30_33 
REMARK    8  A    between atoms: C30_33  and  O4_34 
REMARK    9  A    between atoms: C31_35  and  O5_36 
REMARK   10  A    between atoms: C32_37  and  O6_38 
REMARK   11  A    between atoms: C33_39  and  O7_40 
ROOT
HETATM    1  C9  UNL     1       4.325  -0.054   0.011  1.00  0.00    -0.002 C 
HETATM    2  C10 UNL     1       4.774   0.018   1.508  1.00  0.00     0.006 C 
HETATM    3  C11 UNL     1       3.507   0.204   2.369  1.00  0.00     0.011 C 
HETATM    4  C12 UNL     1       2.344  -0.098   1.407  1.00  0.00    -0.029 C 
HETATM    5  C13 UNL     1       2.242  -1.659   1.352  1.00  0.00     0.016 C 
HETATM    6  C14 UNL     1       0.970   0.536   1.797  1.00  0.00     0.028 C 
HETATM    7  C15 UNL     1       0.436   0.029   3.123  1.00  0.00    -0.021 C 
HETATM    8  C16 UNL     1      -0.816  -0.442   3.250  1.00  0.00     0.008 C 
HETATM    9  C17 UNL     1      -1.764  -0.519   2.058  1.00  0.00     0.092 C 
HETATM   10  O1  UNL     1      -2.169   0.853   1.842  1.00  0.00    -0.374 OA
HETATM   11  C18 UNL     1      -1.240   1.462   0.928  1.00  0.00     0.179 C 
HETATM   12  C19 UNL     1      -0.117   0.436   0.633  1.00  0.00    -0.004 C 
HETATM   13  C20 UNL     1       0.493   0.756  -0.758  1.00  0.00     0.014 C 
HETATM   14  C21 UNL     1       1.898   0.201  -1.049  1.00  0.00     0.011 C 
HETATM   15  C22 UNL     1       2.887   0.554   0.077  1.00  0.00    -0.032 C 
HETATM   16  C23 UNL     1       3.023   2.111   0.140  1.00  0.00     0.016 C 
HETATM   17  C24 UNL     1      -0.936  -0.880   0.795  1.00  0.00     0.036 C 
HETATM   18  C25 UNL     1      -1.812  -1.344  -0.381  1.00  0.00     0.011 C 
HETATM   19  C26 UNL     1      -3.263  -0.916  -0.286  1.00  0.00     0.033 C 
HETATM   20  C27 UNL     1      -3.949  -1.443   0.982  1.00  0.00     0.136 C 
HETATM   21  C34 UNL     1      -3.036  -1.415   2.275  1.00  0.00     0.014 C 
HETATM   22  C35 UNL     1      -3.865  -0.925   3.493  1.00  0.00     0.021 C 
HETATM   23  C36 UNL     1      -2.608  -2.875   2.588  1.00  0.00     0.021 C 
ENDROOT
BRANCH  20  24
HETATM   24  O2  UNL     1      -5.189  -0.754   1.220  1.00  0.00    -0.352 OA
BRANCH  24  25
HETATM   25  C28 UNL     1      -6.174  -0.897   0.191  1.00  0.00     0.292 C 
HETATM   26  O3  UNL     1      -5.996   0.113  -0.801  1.00  0.00    -0.348 OA
HETATM   27  C29 UNL     1      -6.969   0.027  -1.858  1.00  0.00     0.179 C 
HETATM   28  C31 UNL     1      -8.388   0.208  -1.309  1.00  0.00     0.180 C 
HETATM   29  C32 UNL     1      -8.643  -0.813  -0.198  1.00  0.00     0.183 C 
HETATM   30  C33 UNL     1      -7.550  -0.738   0.864  1.00  0.00     0.204 C 
BRANCH  27  31
HETATM   31  C30 UNL     1      -6.625   1.110  -2.884  1.00  0.00     0.198 C 
BRANCH  31  32
HETATM   32  O4  UNL     1      -5.263   0.955  -3.292  1.00  0.00    -0.398 OA
HETATM   33  H44 UNL     1      -4.754   0.896  -2.461  1.00  0.00     0.209 HD
ENDBRANCH  31  32
ENDBRANCH  27  31
BRANCH  28  34
HETATM   34  O5  UNL     1      -9.362   0.039  -2.340  1.00  0.00    -0.390 OA
HETATM   35  H46 UNL     1     -10.220  -0.056  -1.878  1.00  0.00     0.210 HD
ENDBRANCH  28  34
BRANCH  29  36
HETATM   36  O6  UNL     1      -9.930  -0.555   0.385  1.00  0.00    -0.390 OA
HETATM   37  H48 UNL     1      -9.958  -1.110   1.192  1.00  0.00     0.210 HD
ENDBRANCH  29  36
BRANCH  30  38
HETATM   38  O7  UNL     1      -7.777  -1.769   1.839  1.00  0.00    -0.388 OA
HETATM   39  H50 UNL     1      -7.017  -1.708   2.453  1.00  0.00     0.210 HD
ENDBRANCH  30  38
ENDBRANCH  24  25
ENDBRANCH  20  24
BRANCH   1  40
HETATM   40  C7  UNL     1       5.397   0.551  -0.953  1.00  0.00    -0.010 C 
HETATM   41  C8  UNL     1       4.925   0.511  -2.413  1.00  0.00     0.010 C 
BRANCH  40  42
HETATM   42  C6  UNL     1       6.741  -0.221  -0.813  1.00  0.00     0.031 C 
BRANCH  42  43
HETATM   43  C5  UNL     1       7.996   0.351  -1.431  1.00  0.00    -0.026 C 
HETATM   44  C4  UNL     1       8.157   1.549  -2.020  1.00  0.00     0.002 C 
BRANCH  44  45
HETATM   45  C2  UNL     1       9.398   2.066  -2.582  1.00  0.00    -0.072 C 
HETATM   46  C1  UNL     1       9.406   3.269  -3.179  1.00  0.00     0.018 C 
HETATM   47  C3  UNL     1      10.663   1.255  -2.472  1.00  0.00     0.047 C 
ENDBRANCH  44  45
ENDBRANCH  42  43
ENDBRANCH  40  42
ENDBRANCH   1  40
TORSDOF 11
