REMARK  6 active torsions:
REMARK  status: ('A' for Active; 'I' for Inactive)
REMARK    1  A    between atoms: C9_10  and  C10_11 
REMARK    2  A    between atoms: C11_13  and  O3_14 
REMARK    3  A    between atoms: C12_15  and  C13_16 
REMARK    4  A    between atoms: C14_18  and  O5_19 
REMARK    5  A    between atoms: C16_21  and  C17_22 
REMARK    6  A    between atoms: C17_22  and  C18_23 
ROOT
HETATM    1  C1  UNL     1       6.350  -1.394  -0.112  1.00  0.00     0.043 C 
HETATM    2  C2  UNL     1       5.073  -0.612  -0.352  1.00  0.00    -0.087 C 
HETATM    3  C3  UNL     1       4.306  -0.959  -1.405  1.00  0.00    -0.024 C 
HETATM    4  C4  UNL     1       3.024  -0.367  -1.904  1.00  0.00     0.030 C 
HETATM    5  C5  UNL     1       1.824  -1.258  -1.566  1.00  0.00     0.042 C 
HETATM    6  C6  UNL     1       0.435  -0.554  -1.545  1.00  0.00     0.069 C 
HETATM    7  C7  UNL     1       0.357   0.527  -2.644  1.00  0.00     0.047 C 
HETATM    8  O1  UNL     1      -0.465  -1.593  -1.988  1.00  0.00    -0.338 OA
HETATM    9  C8  UNL     1      -1.709  -1.754  -1.452  1.00  0.00     0.095 A 
HETATM   10  C9  UNL     1      -2.414  -2.893  -1.896  1.00  0.00     0.070 A 
HETATM   11  C11 UNL     1      -3.648  -3.218  -1.332  1.00  0.00     0.097 A 
HETATM   12  C12 UNL     1      -4.160  -2.437  -0.298  1.00  0.00     0.069 A 
HETATM   13  C14 UNL     1      -3.467  -1.281   0.123  1.00  0.00     0.091 A 
HETATM   14  C15 UNL     1      -2.247  -0.893  -0.470  1.00  0.00     0.015 A 
HETATM   15  C16 UNL     1      -1.450   0.384  -0.154  1.00  0.00     0.032 C 
HETATM   16  C21 UNL     1       0.051  -0.060  -0.098  1.00  0.00     0.034 C 
HETATM   17  C22 UNL     1       1.011   0.987   0.459  1.00  0.00     0.006 A 
HETATM   18  C23 UNL     1       2.353   0.585   1.070  1.00  0.00    -0.001 A 
HETATM   19  C24 UNL     1       3.615   1.352   0.761  1.00  0.00     0.010 C 
HETATM   20  C25 UNL     1       4.872   0.472   0.697  1.00  0.00     0.034 C 
HETATM   21  C26 UNL     1       1.275   1.172   1.963  1.00  0.00    -0.039 A 
HETATM   22  C27 UNL     1       0.722   0.231   3.009  1.00  0.00     0.015 C 
HETATM   23  C28 UNL     1       1.393   2.595   2.465  1.00  0.00     0.015 C 
ENDROOT
BRANCH  15  24
HETATM   24  C17 UNL     1      -1.908   1.281   1.023  1.00  0.00     0.014 C 
BRANCH  24  25
HETATM   25  C18 UNL     1      -3.104   2.214   0.694  1.00  0.00    -0.022 C 
HETATM   26  C19 UNL     1      -2.678   3.401  -0.178  1.00  0.00     0.009 C 
HETATM   27  C20 UNL     1      -3.722   2.740   1.993  1.00  0.00     0.009 C 
ENDBRANCH  24  25
ENDBRANCH  15  24
BRANCH  13  28
HETATM   28  O5  UNL     1      -3.971  -0.538   1.157  1.00  0.00    -0.359 OA
HETATM   29  H15 UNL     1      -4.830  -0.911   1.459  1.00  0.00     0.217 HD
ENDBRANCH  13  28
BRANCH  10  30
HETATM   30  C10 UNL     1      -1.882  -3.781  -2.962  1.00  0.00     0.275 C 
HETATM   31  O2  UNL     1      -1.151  -3.402  -3.868  1.00  0.00    -0.301 OA
ENDBRANCH  10  30
BRANCH  12  32
HETATM   32  C13 UNL     1      -5.414  -2.854   0.367  1.00  0.00     0.275 C 
HETATM   33  O4  UNL     1      -5.939  -2.150   1.225  1.00  0.00    -0.301 OA
ENDBRANCH  12  32
BRANCH  11  34
HETATM   34  O3  UNL     1      -4.333  -4.309  -1.799  1.00  0.00    -0.359 OA
HETATM   35  H13 UNL     1      -5.161  -3.995  -2.213  1.00  0.00     0.217 HD
ENDBRANCH  11  34
TORSDOF 6
