REMARK  9 active torsions:
REMARK  status: ('A' for Active; 'I' for Inactive)
REMARK    1  A    between atoms: C2_2  and  C3_3 
REMARK    2  A    between atoms: C2_2  and  C9_11 
REMARK    3  A    between atoms: C3_3  and  C4_4 
REMARK    4  A    between atoms: C4_4  and  C5_5 
REMARK    5  A    between atoms: C6_6  and  C7_7 
REMARK    6  A    between atoms: C6_6  and  C8_9 
REMARK    7  A    between atoms: C7_7  and  O1_8 
REMARK    8  A    between atoms: C8_9  and  O2_10 
REMARK    9  A    between atoms: C30_34  and  O5_35 
ROOT
HETATM    1  C9  UNL     1      -2.200   0.837  -0.415  1.00  0.00    -0.001 C 
HETATM    2  C10 UNL     1      -1.912   1.795  -1.606  1.00  0.00     0.007 C 
HETATM    3  C11 UNL     1      -0.383   1.874  -1.756  1.00  0.00     0.015 C 
HETATM    4  C12 UNL     1       0.147   0.626  -1.024  1.00  0.00    -0.009 C 
HETATM    5  C13 UNL     1      -0.043  -0.577  -2.007  1.00  0.00     0.021 C 
HETATM    6  C14 UNL     1       1.610   0.523  -0.582  1.00  0.00    -0.032 C 
HETATM    7  C15 UNL     1       1.972  -0.336   0.412  1.00  0.00     0.002 C 
HETATM    8  C16 UNL     1       0.872  -0.990   1.242  1.00  0.00     0.157 C 
HETATM    9  O3  UNL     1       1.144  -1.752   2.169  1.00  0.00    -0.293 OA
HETATM   10  C17 UNL     1      -0.596  -0.714   0.945  1.00  0.00     0.094 C 
HETATM   11  C18 UNL     1      -0.794   0.619   0.231  1.00  0.00    -0.022 C 
HETATM   12  C19 UNL     1      -0.455   1.757   1.236  1.00  0.00     0.017 C 
HETATM   13  C20 UNL     1       3.459  -0.651   0.759  1.00  0.00    -0.008 C 
HETATM   14  C21 UNL     1       3.778   0.182   2.019  1.00  0.00     0.021 C 
HETATM   15  C22 UNL     1       3.711  -2.160   1.048  1.00  0.00     0.022 C 
HETATM   16  C23 UNL     1       5.176  -2.536   1.214  1.00  0.00     0.080 C 
HETATM   17  C24 UNL     1       5.991  -2.127   0.016  1.00  0.00     0.135 C 
HETATM   18  O4  UNL     1       6.772  -2.925  -0.503  1.00  0.00    -0.297 OA
HETATM   19  C25 UNL     1       5.868  -0.672  -0.453  1.00  0.00     0.018 C 
HETATM   20  C26 UNL     1       6.735   0.207   0.459  1.00  0.00     0.023 C 
HETATM   21  C27 UNL     1       6.471  -0.581  -1.880  1.00  0.00     0.023 C 
HETATM   22  C28 UNL     1       4.346  -0.302  -0.505  1.00  0.00     0.016 C 
HETATM   23  C29 UNL     1       4.078   1.140  -0.942  1.00  0.00     0.043 C 
HETATM   24  C30 UNL     1       2.622   1.322  -1.373  1.00  0.00     0.149 C 
ENDROOT
BRANCH   1  25
HETATM   25  C2  UNL     1      -3.462   1.255   0.398  1.00  0.00    -0.014 C 
HETATM   26  C1  UNL     1      -3.438   2.646   1.050  1.00  0.00     0.010 C 
BRANCH  25  27
HETATM   27  C3  UNL     1      -3.915   0.229   1.464  1.00  0.00     0.008 C 
BRANCH  27  28
HETATM   28  C4  UNL     1      -4.253  -1.180   0.961  1.00  0.00     0.028 C 
BRANCH  28  29
HETATM   29  C5  UNL     1      -5.272  -1.205  -0.144  1.00  0.00    -0.020 C 
HETATM   30  C6  UNL     1      -6.617  -1.220  -0.030  1.00  0.00    -0.037 C 
BRANCH  30  31
HETATM   31  C7  UNL     1      -7.347  -1.166   1.285  1.00  0.00     0.200 C 
BRANCH  31  32
HETATM   32  O1  UNL     1      -8.097  -2.358   1.449  1.00  0.00    -0.397 OA
HETATM   33  H12 UNL     1      -7.453  -3.087   1.503  1.00  0.00     0.209 HD
ENDBRANCH  31  32
ENDBRANCH  30  31
BRANCH  30  34
HETATM   34  C8  UNL     1      -7.546  -1.237  -1.226  1.00  0.00     0.200 C 
BRANCH  34  35
HETATM   35  O2  UNL     1      -6.823  -1.239  -2.452  1.00  0.00    -0.397 OA
HETATM   36  H15 UNL     1      -7.486  -1.263  -3.162  1.00  0.00     0.209 HD
ENDBRANCH  34  35
ENDBRANCH  30  34
ENDBRANCH  28  29
ENDBRANCH  27  28
ENDBRANCH  25  27
ENDBRANCH   1  25
BRANCH  24  37
HETATM   37  O5  UNL     1       2.324   2.706  -1.239  1.00  0.00    -0.391 OA
HETATM   38  H46 UNL     1       2.961   3.201  -1.780  1.00  0.00     0.210 HD
ENDBRANCH  24  37
TORSDOF 9
