REMARK  12 active torsions:
REMARK  status: ('A' for Active; 'I' for Inactive)
REMARK    1  A    between atoms: C3_3  and  O1_4 
REMARK    2  A    between atoms: N1_14  and  O2_16 
REMARK    3  A    between atoms: O2_16  and  C13_17 
REMARK    4  A    between atoms: C13_17  and  C14_18 
REMARK       I    between atoms: C14_18  and  N2_20 
REMARK    5  A    between atoms: N2_20  and  C15_21 
REMARK    6  A    between atoms: C15_21  and  C16_22 
REMARK    7  A    between atoms: C15_21  and  C27_38 
REMARK       I    between atoms: C16_22  and  N3_24 
REMARK    8  A    between atoms: N3_24  and  C17_25 
REMARK    9  A    between atoms: C17_25  and  C18_26 
REMARK   10  A    between atoms: C17_25  and  C20_30 
REMARK   11  A    between atoms: C18_26  and  C19_27 
REMARK   12  A    between atoms: C19_27  and  O6_29 
ROOT
HETATM    1  C1  UNL     1     -11.016   3.387   2.137  1.00  0.00     0.015 C 
HETATM    2  C2  UNL     1     -10.337   2.681   1.439  1.00  0.00    -0.078 C 
HETATM    3  C3  UNL     1      -9.501   1.815   0.569  1.00  0.00     0.128 C 
HETATM    4  C4  UNL     1      -8.691   2.693  -0.388  1.00  0.00     0.052 C 
HETATM    5  C5  UNL     1      -7.458   3.105   0.408  1.00  0.00     0.010 C 
HETATM    6  C6  UNL     1      -7.229   2.006   1.472  1.00  0.00     0.002 C 
HETATM    7  C7  UNL     1      -5.864   1.294   1.389  1.00  0.00    -0.004 C 
HETATM    8  C8  UNL     1      -4.693   2.228   1.702  1.00  0.00     0.010 C 
HETATM    9  C9  UNL     1      -3.400   1.428   1.795  1.00  0.00     0.035 C 
HETATM   10  C10 UNL     1      -3.127   0.601   0.559  1.00  0.00    -0.069 C 
HETATM   11  C11 UNL     1      -1.875   0.551   0.068  1.00  0.00     0.030 C 
HETATM   12  C12 UNL     1      -1.491  -0.394  -1.022  1.00  0.00     0.032 C 
HETATM   13  N1  UNL     1      -0.277  -0.696  -1.371  1.00  0.00    -0.271 N 
ATOM     14  H1  UNL     1      -0.046  -1.377  -2.094  1.00  0.00     0.194 HD
HETATM   15  C30 UNL     1      -2.596  -1.150  -1.728  1.00  0.00     0.060 C 
HETATM   16  C31 UNL     1      -3.963  -0.521  -1.518  1.00  0.00     0.020 C 
HETATM   17  C32 UNL     1      -4.289  -0.214  -0.029  1.00  0.00    -0.016 C 
HETATM   18  C33 UNL     1      -4.406  -1.530   0.777  1.00  0.00     0.020 C 
HETATM   19  C34 UNL     1      -5.629   0.617   0.015  1.00  0.00     0.002 C 
HETATM   20  C35 UNL     1      -6.883  -0.150  -0.466  1.00  0.00     0.007 C 
HETATM   21  C36 UNL     1      -7.960  -0.310   0.606  1.00  0.00     0.014 C 
HETATM   22  C37 UNL     1      -8.410   0.998   1.337  1.00  0.00     0.003 C 
HETATM   23  C38 UNL     1      -8.901   0.544   2.736  1.00  0.00     0.020 C 
ENDROOT
BRANCH   3  24
HETATM   24  O1  UNL     1     -10.368   0.972  -0.176  1.00  0.00    -0.377 OA
HETATM   25  H2  UNL     1     -11.053   1.540  -0.565  1.00  0.00     0.211 HD
ENDBRANCH   3  24
BRANCH  13  26
HETATM   26  O2  UNL     1       0.680   0.022  -0.640  1.00  0.00    -0.271 OA
BRANCH  26  27
HETATM   27  C13 UNL     1       1.684  -0.873  -0.194  1.00  0.00     0.303 C 
BRANCH  27  28
HETATM   28  C14 UNL     1       2.818  -1.166  -1.180  1.00  0.00     0.244 C 
HETATM   29  O3  UNL     1       3.112  -0.459  -2.142  1.00  0.00    -0.271 OA
HETATM   30  N2  UNL     1       3.543  -2.297  -0.842  1.00  0.00    -0.346 N 
HETATM   31  H16 UNL     1       3.312  -2.810   0.003  1.00  0.00     0.163 HD
BRANCH  30  32
HETATM   32  C15 UNL     1       4.676  -2.790  -1.647  1.00  0.00     0.180 C 
BRANCH  32  33
HETATM   33  C16 UNL     1       6.022  -2.335  -1.004  1.00  0.00     0.241 C 
HETATM   34  O4  UNL     1       7.122  -2.676  -1.427  1.00  0.00    -0.271 OA
HETATM   35  N3  UNL     1       5.883  -1.479   0.071  1.00  0.00    -0.354 N 
HETATM   36  H18 UNL     1       4.964  -1.073   0.187  1.00  0.00     0.162 HD
BRANCH  35  37
HETATM   37  C17 UNL     1       6.992  -0.784   0.734  1.00  0.00     0.098 C 
BRANCH  37  38
HETATM   38  C18 UNL     1       8.001  -1.810   1.288  1.00  0.00     0.135 C 
BRANCH  38  39
HETATM   39  C19 UNL     1       8.666  -1.364   2.557  1.00  0.00     0.141 C 
HETATM   40  O5  UNL     1       8.243  -0.570   3.381  1.00  0.00    -0.650 OA
BRANCH  39  41
HETATM   41  O6  UNL     1       9.845  -1.988   2.760  1.00  0.00    -0.776 OA
HETATM   42  H22 UNL     1      10.156  -1.634   3.617  1.00  0.00     0.167 HD
ENDBRANCH  39  41
ENDBRANCH  38  39
ENDBRANCH  37  38
BRANCH  37  43
HETATM   43  C20 UNL     1       7.653   0.267  -0.215  1.00  0.00     0.014 C 
HETATM   44  C21 UNL     1       8.609   1.226   0.501  1.00  0.00     0.033 C 
HETATM   45  C22 UNL     1       7.881   2.216   1.406  1.00  0.00     0.169 C 
HETATM   46  O7  UNL     1       6.468   2.205   1.222  1.00  0.00    -0.381 OA
HETATM   47  C23 UNL     1       6.007   2.262  -0.131  1.00  0.00     0.054 C 
HETATM   48  C24 UNL     1       6.287   3.648  -0.729  1.00  0.00     0.045 C 
HETATM   49  C25 UNL     1       4.486   2.065  -0.055  1.00  0.00     0.045 C 
HETATM   50  C26 UNL     1       6.644   1.146  -0.988  1.00  0.00     0.044 C 
ENDBRANCH  37  43
ENDBRANCH  35  37
ENDBRANCH  32  33
BRANCH  32  51
HETATM   51  C27 UNL     1       4.583  -4.331  -1.800  1.00  0.00     0.009 C 
HETATM   52  C28 UNL     1       5.639  -4.900  -2.758  1.00  0.00     0.012 C 
HETATM   53  C29 UNL     1       3.192  -4.755  -2.307  1.00  0.00     0.012 C 
ENDBRANCH  32  51
ENDBRANCH  30  32
ENDBRANCH  27  28
ENDBRANCH  26  27
ENDBRANCH  13  26
TORSDOF 12
