REMARK  10 active torsions:
REMARK  status: ('A' for Active; 'I' for Inactive)
REMARK    1  A    between atoms: C2_2  and  C3_3 
REMARK    2  A    between atoms: C5_5  and  C6_6 
REMARK    3  A    between atoms: C6_6  and  C7_7 
REMARK    4  A    between atoms: C13_13  and  C15_15 
REMARK    5  A    between atoms: C15_15  and  O1_16 
REMARK    6  A    between atoms: O1_16  and  C16_17 
REMARK    7  A    between atoms: C17_19  and  C18_20 
REMARK    8  A    between atoms: C18_20  and  O3_21 
REMARK    9  A    between atoms: C19_22  and  O4_23 
REMARK   10  A    between atoms: C20_24  and  O5_25 
ROOT
HETATM    1  C7  UNL     1       2.369   0.381   0.909  1.00  0.00     0.025 C 
HETATM    2  C8  UNL     1       2.978  -0.284   2.150  1.00  0.00    -0.084 C 
HETATM    3  C9  UNL     1       4.160   0.021   2.715  1.00  0.00     0.015 C 
HETATM    4  C10 UNL     1       2.118  -1.332   2.815  1.00  0.00     0.034 C 
HETATM    5  C11 UNL     1       0.692  -1.347   2.272  1.00  0.00     0.010 C 
HETATM    6  C12 UNL     1       0.686  -1.627   0.755  1.00  0.00     0.005 C 
HETATM    7  C13 UNL     1      -0.762  -1.775   0.161  1.00  0.00    -0.018 C 
HETATM    8  C14 UNL     1      -1.408  -3.088   0.682  1.00  0.00     0.018 C 
HETATM    9  C21 UNL     1      -0.641  -1.925  -1.371  1.00  0.00     0.012 C 
HETATM   10  C22 UNL     1       0.003  -0.735  -2.066  1.00  0.00     0.002 C 
HETATM   11  C23 UNL     1       0.949   0.087  -1.197  1.00  0.00     0.010 C 
HETATM   12  C24 UNL     1       1.679  -0.678  -0.062  1.00  0.00    -0.032 C 
HETATM   13  C25 UNL     1       2.736  -1.600  -0.731  1.00  0.00     0.016 C 
ENDROOT
BRANCH   7  14
HETATM   14  C15 UNL     1      -1.710  -0.609   0.553  1.00  0.00     0.180 C 
BRANCH  14  15
HETATM   15  O1  UNL     1      -2.962  -0.750  -0.121  1.00  0.00    -0.358 OA
BRANCH  15  16
HETATM   16  C16 UNL     1      -3.762   0.427  -0.036  1.00  0.00     0.291 C 
HETATM   17  O2  UNL     1      -4.094   0.739   1.333  1.00  0.00    -0.348 OA
HETATM   18  C17 UNL     1      -5.523   0.700   1.447  1.00  0.00     0.179 C 
HETATM   19  C19 UNL     1      -6.057   0.988   0.053  1.00  0.00     0.182 C 
HETATM   20  C20 UNL     1      -5.081   0.197  -0.789  1.00  0.00     0.204 C 
BRANCH  18  21
HETATM   21  C18 UNL     1      -6.012   1.711   2.479  1.00  0.00     0.198 C 
BRANCH  21  22
HETATM   22  O3  UNL     1      -7.436   1.792   2.464  1.00  0.00    -0.398 OA
HETATM   23  H27 UNL     1      -7.683   2.457   3.133  1.00  0.00     0.209 HD
ENDBRANCH  21  22
ENDBRANCH  18  21
BRANCH  19  24
HETATM   24  O4  UNL     1      -7.398   0.560  -0.148  1.00  0.00    -0.390 OA
HETATM   25  H29 UNL     1      -7.910   0.922   0.607  1.00  0.00     0.210 HD
ENDBRANCH  19  24
BRANCH  20  26
HETATM   26  O5  UNL     1      -5.060   0.674  -2.134  1.00  0.00    -0.388 OA
HETATM   27  H31 UNL     1      -5.975   0.577  -2.463  1.00  0.00     0.210 HD
ENDBRANCH  20  26
ENDBRANCH  15  16
ENDBRANCH  14  15
ENDBRANCH   7  14
BRANCH   1  28
HETATM   28  C6  UNL     1       3.244   1.487   0.229  1.00  0.00     0.037 C 
BRANCH  28  29
HETATM   29  C5  UNL     1       4.481   1.044  -0.512  1.00  0.00    -0.019 C 
HETATM   30  C3  UNL     1       4.976   1.538  -1.667  1.00  0.00    -0.067 C 
HETATM   31  C4  UNL     1       4.371   2.700  -2.413  1.00  0.00     0.048 C 
BRANCH  30  32
HETATM   32  C2  UNL     1       6.177   0.922  -2.227  1.00  0.00    -0.004 C 
HETATM   33  C1  UNL     1       6.779   1.243  -3.380  1.00  0.00     0.012 C 
ENDBRANCH  30  32
ENDBRANCH  28  29
ENDBRANCH   1  28
TORSDOF 10
