REMARK  7 active torsions:
REMARK  status: ('A' for Active; 'I' for Inactive)
REMARK    1  A    between atoms: C2_2  and  C30_35 
REMARK    2  A    between atoms: C3_3  and  C4_4 
REMARK    3  A    between atoms: C4_4  and  O1_5 
REMARK    4  A    between atoms: C4_4  and  C5_6 
REMARK    5  A    between atoms: C5_6  and  C6_7 
REMARK    6  A    between atoms: C6_7  and  C8_9 
REMARK    7  A    between atoms: C30_35  and  O7_37 
ROOT
HETATM    1  C8  UNL     1       2.089  -0.681   0.586  1.00  0.00     0.006 C 
HETATM    2  C9  UNL     1       1.835  -1.329   1.969  1.00  0.00     0.085 C 
HETATM    3  C10 UNL     1       0.372  -1.718   1.895  1.00  0.00     0.141 C 
HETATM    4  O2  UNL     1      -0.137  -2.518   2.669  1.00  0.00    -0.297 OA
HETATM    5  C11 UNL     1      -0.301  -1.139   0.639  1.00  0.00     0.056 C 
HETATM    6  C12 UNL     1      -0.329  -2.388  -0.303  1.00  0.00     0.030 C 
HETATM    7  C13 UNL     1      -1.679  -0.533   0.578  1.00  0.00     0.015 C 
HETATM    8  C14 UNL     1      -2.101   0.150  -0.515  1.00  0.00     0.007 C 
HETATM    9  C15 UNL     1      -1.031   0.494  -1.548  1.00  0.00     0.157 C 
HETATM   10  O3  UNL     1      -1.341   0.923  -2.656  1.00  0.00    -0.293 OA
HETATM   11  C16 UNL     1       0.461   0.338  -1.214  1.00  0.00     0.094 C 
HETATM   12  C17 UNL     1       0.720  -0.009   0.255  1.00  0.00    -0.014 C 
HETATM   13  C18 UNL     1       0.529   1.290   1.095  1.00  0.00     0.018 C 
HETATM   14  C19 UNL     1      -3.555   0.639  -0.729  1.00  0.00    -0.007 C 
HETATM   15  C20 UNL     1      -3.578   2.162  -0.487  1.00  0.00     0.021 C 
HETATM   16  C21 UNL     1      -4.050   0.316  -2.166  1.00  0.00     0.022 C 
HETATM   17  C22 UNL     1      -5.552   0.390  -2.419  1.00  0.00     0.080 C 
HETATM   18  C23 UNL     1      -6.384   0.784  -1.228  1.00  0.00     0.135 C 
HETATM   19  O4  UNL     1      -7.379   1.491  -1.392  1.00  0.00    -0.297 OA
HETATM   20  C24 UNL     1      -6.029   0.197   0.138  1.00  0.00     0.018 C 
HETATM   21  C25 UNL     1      -6.509   1.189   1.219  1.00  0.00     0.023 C 
HETATM   22  C26 UNL     1      -6.861  -1.093   0.289  1.00  0.00     0.023 C 
HETATM   23  C27 UNL     1      -4.501  -0.155   0.238  1.00  0.00     0.021 C 
HETATM   24  C28 UNL     1      -3.982  -0.117   1.679  1.00  0.00     0.090 C 
HETATM   25  C29 UNL     1      -2.526  -0.474   1.796  1.00  0.00     0.158 C 
HETATM   26  O5  UNL     1      -2.013  -0.563   2.908  1.00  0.00    -0.293 OA
ENDROOT
BRANCH   1  27
HETATM   27  C6  UNL     1       3.453   0.063   0.506  1.00  0.00    -0.011 C 
HETATM   28  C7  UNL     1       3.674   1.216   1.489  1.00  0.00     0.010 C 
BRANCH  27  29
HETATM   29  C5  UNL     1       3.772   0.509  -0.939  1.00  0.00     0.040 C 
BRANCH  29  30
HETATM   30  C4  UNL     1       5.258   0.813  -1.210  1.00  0.00     0.142 C 
BRANCH  30  31
HETATM   31  C3  UNL     1       6.125  -0.407  -1.094  1.00  0.00     0.018 C 
HETATM   32  C2  UNL     1       7.210  -0.586  -0.312  1.00  0.00     0.010 C 
HETATM   33  C1  UNL     1       7.796   0.414   0.637  1.00  0.00     0.055 C 
BRANCH  32  34
HETATM   34  C30 UNL     1       7.867  -1.915  -0.411  1.00  0.00     0.171 C 
HETATM   35  O6  UNL     1       7.443  -2.891  -1.006  1.00  0.00    -0.646 OA
BRANCH  34  36
HETATM   36  O7  UNL     1       9.035  -1.969   0.248  1.00  0.00    -0.773 OA
HETATM   37  H40 UNL     1       9.349  -2.879   0.075  1.00  0.00     0.167 HD
ENDBRANCH  34  36
ENDBRANCH  32  34
ENDBRANCH  30  31
BRANCH  30  38
HETATM   38  O1  UNL     1       5.377   1.297  -2.548  1.00  0.00    -0.392 OA
HETATM   39  H6  UNL     1       5.165   0.569  -3.157  1.00  0.00     0.210 HD
ENDBRANCH  30  38
ENDBRANCH  29  30
ENDBRANCH  27  29
ENDBRANCH   1  27
TORSDOF 7
