REMARK  5 active torsions:
REMARK  status: ('A' for Active; 'I' for Inactive)
REMARK    1  A    between atoms: O1_2  and  C2_3 
REMARK    2  A    between atoms: C3_4  and  O2_5 
REMARK    3  A    between atoms: C4_6  and  C5_7 
REMARK    4  A    between atoms: C5_7  and  O3_8 
REMARK    5  A    between atoms: C6_10  and  N1_11 
ROOT
HETATM    1  C2  UNL     1      -1.450   0.515  -0.542  1.00  0.00     0.201 C 
HETATM    2  C3  UNL     1      -2.316  -0.728  -0.369  1.00  0.00     0.182 C 
HETATM    3  C4  UNL     1      -2.009  -1.140   1.065  1.00  0.00     0.179 C 
HETATM    4  O4  UNL     1      -0.602  -0.916   1.230  1.00  0.00    -0.353 OA
HETATM    5  C6  UNL     1      -0.282   0.250   0.445  1.00  0.00     0.264 C 
ENDROOT
BRANCH   5   6
HETATM    6  N1  UNL     1       1.054   0.075  -0.129  1.00  0.00    -0.279 N 
HETATM    7  C7  UNL     1       2.132   0.660   0.513  1.00  0.00     0.110 A 
HETATM    8  C8  UNL     1       3.396   0.501   0.101  1.00  0.00     0.022 A 
HETATM    9  C9  UNL     1       4.586   1.111   0.765  1.00  0.00     0.056 C 
HETATM   10  C10 UNL     1       3.637  -0.350  -1.086  1.00  0.00     0.256 A 
HETATM   11  O5  UNL     1       4.760  -0.524  -1.544  1.00  0.00    -0.267 OA
HETATM   12  N2  UNL     1       2.530  -0.928  -1.634  1.00  0.00    -0.275 N 
HETATM   13  C11 UNL     1       1.238  -0.774  -1.209  1.00  0.00     0.331 A 
HETATM   14  H16 UNL     1       2.676  -1.531  -2.428  1.00  0.00     0.173 HD
HETATM   15  O6  UNL     1       0.331  -1.357  -1.797  1.00  0.00    -0.246 OA
ENDBRANCH   5   6
BRANCH   1  16
HETATM   16  O1  UNL     1      -2.241   1.658  -0.131  1.00  0.00    -0.384 OA
HETATM   17  C1  UNL     1      -1.674   2.888  -0.571  1.00  0.00     0.202 C 
ENDBRANCH   1  16
BRANCH   2  18
HETATM   18  O2  UNL     1      -3.706  -0.484  -0.572  1.00  0.00    -0.390 OA
HETATM   19  H6  UNL     1      -3.835   0.467  -0.374  1.00  0.00     0.210 HD
ENDBRANCH   2  18
BRANCH   3  20
HETATM   20  C5  UNL     1      -2.387  -2.592   1.347  1.00  0.00     0.198 C 
BRANCH  20  21
HETATM   21  O3  UNL     1      -3.798  -2.785   1.302  1.00  0.00    -0.398 OA
HETATM   22  H10 UNL     1      -4.135  -2.321   0.508  1.00  0.00     0.209 HD
ENDBRANCH  20  21
ENDBRANCH   3  20
TORSDOF 5
