REMARK  4 active torsions:
REMARK  status: ('A' for Active; 'I' for Inactive)
REMARK    1  A    between atoms: C2_2  and  C3_3 
REMARK    2  A    between atoms: C6_6  and  O1_7 
REMARK    3  A    between atoms: C7_8  and  C8_9 
REMARK    4  A    between atoms: C26_32  and  O6_33 
ROOT
HETATM    1  C3  UNL     1      -1.057   3.618  -1.100  1.00  0.00     0.008 C 
HETATM    2  C4  UNL     1      -1.581   2.440  -1.892  1.00  0.00    -0.023 C 
HETATM    3  C5  UNL     1      -2.239   1.345  -1.467  1.00  0.00     0.004 C 
HETATM    4  C6  UNL     1      -2.690   0.895  -0.091  1.00  0.00     0.174 C 
HETATM    5  C7  UNL     1      -2.683  -0.659   0.097  1.00  0.00     0.187 C 
HETATM    6  O2  UNL     1      -1.355  -1.230   0.018  1.00  0.00    -0.308 OA
HETATM    7  C12 UNL     1      -1.104  -1.944  -1.120  1.00  0.00     0.276 C 
HETATM    8  O3  UNL     1      -1.812  -1.909  -2.124  1.00  0.00    -0.264 OA
HETATM    9  C13 UNL     1       0.053  -2.977  -0.920  1.00  0.00     0.095 C 
HETATM   10  C14 UNL     1       0.400  -3.575  -2.304  1.00  0.00     0.036 C 
HETATM   11  C15 UNL     1      -0.617  -4.071  -0.105  1.00  0.00     0.003 C 
HETATM   12  C16 UNL     1      -0.080  -5.029   0.656  1.00  0.00     0.072 C 
HETATM   13  C17 UNL     1       1.337  -5.312   0.910  1.00  0.00     0.245 C 
HETATM   14  O4  UNL     1       1.644  -6.423   1.340  1.00  0.00    -0.268 OA
HETATM   15  N1  UNL     1       2.285  -4.363   0.761  1.00  0.00    -0.320 N 
HETATM   16  C18 UNL     1       2.291  -3.049   0.357  1.00  0.00     0.098 C 
HETATM   17  C19 UNL     1       1.331  -2.392  -0.322  1.00  0.00     0.045 C 
HETATM   18  C20 UNL     1       1.630  -0.984  -0.729  1.00  0.00     0.194 C 
HETATM   19  O5  UNL     1       1.077  -0.474  -1.695  1.00  0.00    -0.287 OA
HETATM   20  C21 UNL     1       2.689  -0.233  -0.036  1.00  0.00     0.046 A 
HETATM   21  C22 UNL     1       3.723  -0.938   0.547  1.00  0.00     0.032 A 
HETATM   22  C23 UNL     1       4.850  -0.267   1.046  1.00  0.00     0.026 A 
HETATM   23  C24 UNL     1       4.938   1.134   0.989  1.00  0.00    -0.027 A 
HETATM   24  C25 UNL     1       6.162   1.812   1.536  1.00  0.00     0.051 C 
HETATM   25  C26 UNL     1       3.848   1.847   0.472  1.00  0.00     0.086 A 
HETATM   26  C27 UNL     1       2.733   1.165  -0.035  1.00  0.00     0.059 A 
HETATM   27  C28 UNL     1       1.490   1.903  -0.297  1.00  0.00     0.163 C 
HETATM   28  O7  UNL     1       0.589   1.716   0.517  1.00  0.00    -0.292 OA
HETATM   29  C29 UNL     1       1.388   2.747  -1.548  1.00  0.00     0.084 C 
HETATM   30  C30 UNL     1       0.425   3.934  -1.428  1.00  0.00     0.016 C 
HETATM   31  C31 UNL     1       3.610  -2.392   0.677  1.00  0.00     0.210 C 
HETATM   32  O8  UNL     1       4.557  -3.060   1.082  1.00  0.00    -0.285 OA
HETATM   33  H24 UNL     1       3.185  -4.691   1.119  1.00  0.00     0.169 HD
ENDROOT
BRANCH   5  34
HETATM   34  C8  UNL     1      -3.198  -1.061   1.464  1.00  0.00     0.010 C 
HETATM   35  C9  UNL     1      -4.234  -1.865   1.778  1.00  0.00    -0.089 C 
HETATM   36  C10 UNL     1      -5.134  -2.565   0.795  1.00  0.00     0.042 C 
HETATM   37  C11 UNL     1      -4.582  -2.125   3.222  1.00  0.00     0.042 C 
ENDBRANCH   5  34
BRANCH   4  38
HETATM   38  O1  UNL     1      -1.970   1.530   0.957  1.00  0.00    -0.389 OA
HETATM   39  H10 UNL     1      -1.015   1.430   0.751  1.00  0.00     0.210 HD
ENDBRANCH   4  38
BRANCH   1  40
HETATM   40  C2  UNL     1      -1.969   4.836  -1.372  1.00  0.00     0.004 C 
HETATM   41  C1  UNL     1      -1.641   6.045  -0.506  1.00  0.00     0.006 C 
ENDBRANCH   1  40
BRANCH  25  42
HETATM   42  O6  UNL     1       3.824   3.215   0.471  1.00  0.00    -0.359 OA
HETATM   43  H29 UNL     1       4.574   3.572   0.972  1.00  0.00     0.217 HD
ENDBRANCH  25  42
TORSDOF 4
