REMARK  12 active torsions:
REMARK  status: ('A' for Active; 'I' for Inactive)
REMARK    1  A    between atoms: O1_2  and  C2_3 
REMARK    2  A    between atoms: C2_3  and  C3_4 
REMARK    3  A    between atoms: C3_4  and  C4_5 
REMARK    4  A    between atoms: C4_5  and  O2_6 
REMARK    5  A    between atoms: O2_6  and  C5_7 
REMARK    6  A    between atoms: C20_23  and  C21_24 
REMARK    7  A    between atoms: C21_24  and  O4_26 
REMARK    8  A    between atoms: C21_24  and  C23_27 
REMARK    9  A    between atoms: C23_27  and  O5_28 
REMARK   10  A    between atoms: C23_27  and  C24_29 
REMARK   11  A    between atoms: C33_40  and  O7_41 
REMARK   12  A    between atoms: C38_46  and  O8_47 
ROOT
HETATM    1  C5  UNL     1       7.647  -0.085  -0.062  1.00  0.00     0.122 C 
HETATM    2  C6  UNL     1       6.875  -1.214  -0.741  1.00  0.00     0.033 C 
HETATM    3  C7  UNL     1       5.575  -1.616  -0.034  1.00  0.00     0.013 C 
HETATM    4  C8  UNL     1       4.758  -0.443   0.610  1.00  0.00    -0.026 C 
HETATM    5  C9  UNL     1       4.969  -0.522   2.143  1.00  0.00     0.016 C 
HETATM    6  C10 UNL     1       5.270   0.915   0.075  1.00  0.00     0.071 C 
HETATM    7  C11 UNL     1       6.772   1.115   0.342  1.00  0.00     0.045 C 
HETATM    8  C12 UNL     1       4.961   1.077  -1.411  1.00  0.00     0.154 C 
HETATM    9  O3  UNL     1       5.681   1.703  -2.187  1.00  0.00    -0.293 OA
HETATM   10  C13 UNL     1       3.689   0.532  -1.928  1.00  0.00     0.057 C 
HETATM   11  C14 UNL     1       2.869  -0.183  -1.143  1.00  0.00    -0.037 C 
HETATM   12  C15 UNL     1       3.225  -0.620   0.282  1.00  0.00     0.026 C 
HETATM   13  C16 UNL     1       2.229   0.047   1.270  1.00  0.00     0.011 C 
HETATM   14  C17 UNL     1       0.742  -0.137   0.870  1.00  0.00     0.014 C 
HETATM   15  C18 UNL     1       0.469   0.276  -0.595  1.00  0.00    -0.002 C 
HETATM   16  C19 UNL     1       0.673   1.810  -0.713  1.00  0.00     0.019 C 
HETATM   17  C20 UNL     1      -0.911  -0.177  -1.188  1.00  0.00     0.034 C 
HETATM   18  C36 UNL     1      -0.639  -0.241  -2.720  1.00  0.00     0.012 C 
HETATM   19  C37 UNL     1       0.892  -0.238  -2.919  1.00  0.00     0.044 C 
HETATM   20  C38 UNL     1       1.448  -0.527  -1.523  1.00  0.00     0.089 C 
ENDROOT
BRANCH  17  21
HETATM   21  C21 UNL     1      -2.268   0.502  -0.778  1.00  0.00     0.087 C 
HETATM   22  C22 UNL     1      -2.534   1.859  -1.463  1.00  0.00     0.049 C 
BRANCH  21  23
HETATM   23  O4  UNL     1      -2.255   0.734   0.634  1.00  0.00    -0.387 OA
HETATM   24  H34 UNL     1      -1.688   1.503   0.820  1.00  0.00     0.210 HD
ENDBRANCH  21  23
BRANCH  21  25
HETATM   25  C23 UNL     1      -3.458  -0.488  -1.086  1.00  0.00     0.181 C 
BRANCH  25  26
HETATM   26  O5  UNL     1      -3.526  -0.731  -2.505  1.00  0.00    -0.390 OA
HETATM   27  H36 UNL     1      -4.450  -1.027  -2.662  1.00  0.00     0.210 HD
ENDBRANCH  25  26
BRANCH  25  28
HETATM   28  C24 UNL     1      -4.853  -0.011  -0.631  1.00  0.00     0.158 C 
HETATM   29  O6  UNL     1      -5.875  -0.703  -1.428  1.00  0.00    -0.373 OA
HETATM   30  C25 UNL     1      -7.101  -0.364  -0.760  1.00  0.00     0.185 C 
HETATM   31  C26 UNL     1      -6.754  -0.699   0.669  1.00  0.00     0.028 C 
HETATM   32  C33 UNL     1      -8.346  -1.164  -1.176  1.00  0.00     0.384 C 
HETATM   33  C27 UNL     1      -7.850  -0.198   1.606  1.00  0.00     0.049 C 
HETATM   34  C34 UNL     1      -5.327  -0.162   0.839  1.00  0.00     0.020 C 
HETATM   35  C28 UNL     1      -9.274  -0.353   0.967  1.00  0.00     0.161 C 
HETATM   36  C29 UNL     1     -10.311  -0.713   2.050  1.00  0.00     0.041 C 
HETATM   37  C32 UNL     1      -9.848   0.999   0.497  1.00  0.00     0.041 C 
HETATM   38  N1  UNL     1      -9.315  -1.377  -0.096  1.00  0.00     0.124 N 
HETATM   39  C30 UNL     1     -10.554   0.595   2.797  1.00  0.00     0.003 C 
HETATM   40  C31 UNL     1     -10.340   1.698   1.765  1.00  0.00     0.003 C 
HETATM   41  H50 UNL     1      -9.106  -2.281   0.332  1.00  0.00     0.320 HD
HETATM   42  C35 UNL     1      -4.542  -1.108   1.744  1.00  0.00     0.013 C 
BRANCH  32  43
HETATM   43  O7  UNL     1      -9.031  -0.492  -2.213  1.00  0.00    -0.366 OA
HETATM   44  H52 UNL     1      -9.962  -0.697  -2.019  1.00  0.00     0.212 HD
ENDBRANCH  32  43
ENDBRANCH  25  28
ENDBRANCH  21  25
ENDBRANCH  17  21
BRANCH  20  45
HETATM   45  O8  UNL     1       1.337  -1.944  -1.305  1.00  0.00    -0.384 OA
HETATM   46  H61 UNL     1       0.627  -2.309  -1.858  1.00  0.00     0.211 HD
ENDBRANCH  20  45
BRANCH   1  47
HETATM   47  O2  UNL     1       8.284  -0.652   1.092  1.00  0.00    -0.386 OA
BRANCH  47  48
HETATM   48  C4  UNL     1       9.369   0.128   1.595  1.00  0.00     0.170 C 
BRANCH  48  49
HETATM   49  C3  UNL     1      10.692  -0.597   1.371  1.00  0.00     0.052 C 
BRANCH  49  50
HETATM   50  C2  UNL     1      11.090  -0.681  -0.102  1.00  0.00     0.169 C 
BRANCH  50  51
HETATM   51  O1  UNL     1      11.168   0.605  -0.715  1.00  0.00    -0.396 OA
HETATM   52  C1  UNL     1      12.385   1.287  -0.438  1.00  0.00     0.201 C 
ENDBRANCH  50  51
ENDBRANCH  49  50
ENDBRANCH  48  49
ENDBRANCH  47  48
ENDBRANCH   1  47
TORSDOF 12
