REMARK  11 active torsions:
REMARK  status: ('A' for Active; 'I' for Inactive)
REMARK    1  A    between atoms: C4_4  and  C5_5 
REMARK    2  A    between atoms: C5_5  and  C6_6 
REMARK    3  A    between atoms: C6_6  and  C7_7 
REMARK    4  A    between atoms: C9_9  and  C10_10 
REMARK    5  A    between atoms: C10_10  and  C11_11 
REMARK    6  A    between atoms: C11_11  and  C12_12 
REMARK    7  A    between atoms: C14_14  and  C15_15 
REMARK    8  A    between atoms: C15_15  and  C16_16 
REMARK    9  A    between atoms: C16_16  and  O1_17 
REMARK   10  A    between atoms: O1_17  and  C17_18 
REMARK   11  A    between atoms: C23_24  and  O2_25 
ROOT
HETATM    1  C16 UNL     1      -2.602   0.722  -2.670  1.00  0.00     0.175 C 
ENDROOT
BRANCH   1   2
HETATM    2  C15 UNL     1      -2.118  -0.701  -2.335  1.00  0.00     0.054 C 
BRANCH   2   3
HETATM    3  C14 UNL     1      -0.647  -0.730  -1.998  1.00  0.00    -0.022 C 
HETATM    4  C12 UNL     1      -0.061  -1.284  -0.916  1.00  0.00    -0.087 C 
HETATM    5  C13 UNL     1      -0.793  -2.073   0.137  1.00  0.00     0.043 C 
BRANCH   4   6
HETATM    6  C11 UNL     1       1.436  -1.147  -0.702  1.00  0.00     0.037 C 
BRANCH   6   7
HETATM    7  C10 UNL     1       1.778  -0.259   0.503  1.00  0.00     0.031 C 
BRANCH   7   8
HETATM    8  C9  UNL     1       3.269  -0.080   0.653  1.00  0.00    -0.024 C 
HETATM    9  C7  UNL     1       4.103  -0.785   1.444  1.00  0.00    -0.087 C 
HETATM   10  C8  UNL     1       3.651  -1.933   2.314  1.00  0.00     0.043 C 
BRANCH   9  11
HETATM   11  C6  UNL     1       5.602  -0.523   1.547  1.00  0.00     0.037 C 
BRANCH  11  12
HETATM   12  C5  UNL     1       6.196   0.585   0.663  1.00  0.00     0.031 C 
BRANCH  12  13
HETATM   13  C4  UNL     1       7.672   0.760   0.911  1.00  0.00    -0.024 C 
HETATM   14  C2  UNL     1       8.688   0.287   0.163  1.00  0.00    -0.091 C 
HETATM   15  C1  UNL     1       8.520  -0.591  -1.047  1.00  0.00     0.042 C 
HETATM   16  C3  UNL     1      10.117   0.606   0.517  1.00  0.00     0.042 C 
ENDBRANCH  12  13
ENDBRANCH  11  12
ENDBRANCH   9  11
ENDBRANCH   7   8
ENDBRANCH   6   7
ENDBRANCH   4   6
ENDBRANCH   2   3
ENDBRANCH   1   2
BRANCH   1  17
HETATM   17  O1  UNL     1      -2.426   1.602  -1.557  1.00  0.00    -0.355 OA
BRANCH  17  18
HETATM   18  C17 UNL     1      -3.540   1.691  -0.643  1.00  0.00     0.166 C 
HETATM   19  C18 UNL     1      -2.884   1.781   0.744  1.00  0.00     0.079 C 
HETATM   20  C19 UNL     1      -4.306   2.961  -1.025  1.00  0.00     0.073 C 
HETATM   21  C20 UNL     1      -5.491   3.185  -0.104  1.00  0.00     0.047 C 
HETATM   22  C21 UNL     1      -6.237   1.903   0.113  1.00  0.00    -0.021 A 
HETATM   23  C22 UNL     1      -7.529   1.939   0.653  1.00  0.00     0.046 A 
HETATM   24  C27 UNL     1      -5.653   0.662  -0.179  1.00  0.00     0.085 A 
HETATM   25  C23 UNL     1      -8.226   0.758   0.872  1.00  0.00     0.066 A 
HETATM   26  C24 UNL     1      -7.666  -0.476   0.551  1.00  0.00     0.046 A 
HETATM   27  C25 UNL     1      -6.371  -0.533   0.016  1.00  0.00    -0.025 A 
HETATM   28  C26 UNL     1      -5.756  -1.862  -0.328  1.00  0.00     0.051 C 
HETATM   29  O3  UNL     1      -4.382   0.530  -0.673  1.00  0.00    -0.314 OA
BRANCH  25  30
HETATM   30  O2  UNL     1      -9.474   0.852   1.421  1.00  0.00    -0.361 OA
HETATM   31  H36 UNL     1      -9.817  -0.049   1.549  1.00  0.00     0.217 HD
ENDBRANCH  25  30
ENDBRANCH  17  18
ENDBRANCH   1  17
TORSDOF 11
