REMARK  6 active torsions:
REMARK  status: ('A' for Active; 'I' for Inactive)
REMARK    1  A    between atoms: C3_3  and  O1_4 
REMARK    2  A    between atoms: N1_14  and  O2_16 
REMARK    3  A    between atoms: O2_16  and  C13_17 
REMARK    4  A    between atoms: C13_17  and  C14_18 
REMARK       I    between atoms: C14_18  and  N2_20 
REMARK    5  A    between atoms: N2_20  and  C15_21 
REMARK    6  A    between atoms: C15_21  and  C17_23 
ROOT
HETATM    1  C1  UNL     1      -6.346  -3.583  -1.526  1.00  0.00     0.015 C 
HETATM    2  C2  UNL     1      -6.614  -2.599  -0.890  1.00  0.00    -0.078 C 
HETATM    3  C3  UNL     1      -6.977  -1.396  -0.108  1.00  0.00     0.128 C 
HETATM    4  C4  UNL     1      -7.580  -0.315  -1.042  1.00  0.00     0.052 C 
HETATM    5  C5  UNL     1      -6.456   0.702  -1.329  1.00  0.00     0.010 C 
HETATM    6  C6  UNL     1      -5.207   0.097  -0.689  1.00  0.00     0.002 C 
HETATM    7  C7  UNL     1      -4.044   1.032  -0.336  1.00  0.00    -0.004 C 
HETATM    8  C8  UNL     1      -3.525   1.772  -1.576  1.00  0.00     0.010 C 
HETATM    9  C9  UNL     1      -2.369   2.698  -1.219  1.00  0.00     0.035 C 
HETATM   10  C10 UNL     1      -1.251   1.976  -0.505  1.00  0.00    -0.069 C 
HETATM   11  C11 UNL     1       0.019   2.163  -0.910  1.00  0.00     0.030 C 
HETATM   12  C12 UNL     1       1.176   1.605  -0.166  1.00  0.00     0.032 C 
HETATM   13  N1  UNL     1       2.369   1.861  -0.624  1.00  0.00    -0.271 N 
ATOM     14  H1  UNL     1       2.555   2.373  -1.486  1.00  0.00     0.194 HD
HETATM   15  C23 UNL     1       0.895   0.842   1.111  1.00  0.00     0.060 C 
HETATM   16  C24 UNL     1      -0.457   0.146   1.043  1.00  0.00     0.020 C 
HETATM   17  C25 UNL     1      -1.640   1.092   0.686  1.00  0.00    -0.016 C 
HETATM   18  C26 UNL     1      -1.932   2.012   1.892  1.00  0.00     0.020 C 
HETATM   19  C27 UNL     1      -2.888   0.203   0.305  1.00  0.00     0.002 C 
HETATM   20  C28 UNL     1      -3.388  -0.705   1.463  1.00  0.00     0.007 C 
HETATM   21  C29 UNL     1      -4.630  -1.539   1.100  1.00  0.00     0.014 C 
HETATM   22  C30 UNL     1      -5.762  -0.663   0.536  1.00  0.00     0.003 C 
HETATM   23  C31 UNL     1      -6.272   0.274   1.673  1.00  0.00     0.020 C 
ENDROOT
BRANCH   3  24
HETATM   24  O1  UNL     1      -7.932  -1.784   0.871  1.00  0.00    -0.377 OA
HETATM   25  H2  UNL     1      -8.605  -2.315   0.412  1.00  0.00     0.211 HD
ENDBRANCH   3  24
BRANCH  13  26
HETATM   26  O2  UNL     1       3.366   1.344   0.218  1.00  0.00    -0.271 OA
BRANCH  26  27
HETATM   27  C13 UNL     1       4.631   1.776  -0.261  1.00  0.00     0.303 C 
BRANCH  27  28
HETATM   28  C14 UNL     1       5.726   1.240   0.652  1.00  0.00     0.244 C 
HETATM   29  O3  UNL     1       5.805   1.540   1.842  1.00  0.00    -0.271 OA
HETATM   30  N2  UNL     1       6.625   0.393   0.037  1.00  0.00    -0.351 N 
HETATM   31  H16 UNL     1       6.446   0.073  -0.906  1.00  0.00     0.163 HD
BRANCH  30  32
HETATM   32  C15 UNL     1       7.722  -0.223   0.765  1.00  0.00     0.113 C 
HETATM   33  C16 UNL     1       8.860   0.778   0.999  1.00  0.00     0.037 C 
BRANCH  32  34
HETATM   34  C17 UNL     1       8.163  -1.482   0.036  1.00  0.00    -0.036 A 
HETATM   35  C18 UNL     1       9.046  -1.449  -1.055  1.00  0.00     0.009 A 
HETATM   36  C19 UNL     1       9.411  -2.627  -1.713  1.00  0.00     0.001 A 
HETATM   37  C20 UNL     1       8.892  -3.850  -1.297  1.00  0.00     0.000 A 
HETATM   38  C21 UNL     1       7.998  -3.898  -0.229  1.00  0.00     0.001 A 
HETATM   39  C22 UNL     1       7.632  -2.722   0.429  1.00  0.00     0.009 A 
ENDBRANCH  32  34
ENDBRANCH  30  32
ENDBRANCH  27  28
ENDBRANCH  26  27
ENDBRANCH  13  26
TORSDOF 6
