REMARK  4 active torsions:
REMARK  status: ('A' for Active; 'I' for Inactive)
REMARK    1  A    between atoms: C2_2  and  C4_4 
REMARK    2  A    between atoms: C13_13  and  C15_15 
REMARK    3  A    between atoms: C15_15  and  O1_16 
REMARK    4  A    between atoms: C18_19  and  O2_20 
ROOT
HETATM    1  C4  UNL     1       3.262   0.407   1.134  1.00  0.00     0.021 C 
HETATM    2  C5  UNL     1       2.434  -0.536   2.031  1.00  0.00     0.008 C 
HETATM    3  C6  UNL     1       1.254  -1.143   1.273  1.00  0.00     0.009 C 
HETATM    4  C7  UNL     1       0.219  -0.096   0.783  1.00  0.00     0.034 C 
HETATM    5  C8  UNL     1      -0.794  -0.659  -0.301  1.00  0.00    -0.033 C 
HETATM    6  C9  UNL     1      -0.023  -1.093  -1.583  1.00  0.00     0.016 C 
HETATM    7  C10 UNL     1      -1.476  -1.950   0.223  1.00  0.00     0.010 C 
HETATM    8  C11 UNL     1      -2.491  -1.732   1.333  1.00  0.00     0.002 C 
HETATM    9  C12 UNL     1      -3.276  -0.430   1.232  1.00  0.00     0.012 C 
HETATM   10  C13 UNL     1      -3.347   0.184  -0.183  1.00  0.00    -0.018 C 
HETATM   11  C14 UNL     1      -4.104  -0.760  -1.154  1.00  0.00     0.018 C 
HETATM   12  C16 UNL     1      -1.876   0.444  -0.715  1.00  0.00     0.007 C 
HETATM   13  C17 UNL     1      -1.384   1.878  -0.396  1.00  0.00     0.041 C 
HETATM   14  C18 UNL     1       0.104   2.061  -0.641  1.00  0.00     0.156 C 
HETATM   15  C19 UNL     1       0.881   1.205   0.328  1.00  0.00     0.118 A 
HETATM   16  O3  UNL     1       1.370   1.974   1.461  1.00  0.00    -0.366 OA
HETATM   17  C20 UNL     1       2.358   1.469   0.557  1.00  0.00     0.165 A 
ENDROOT
BRANCH  10  18
HETATM   18  C15 UNL     1      -4.197   1.492  -0.099  1.00  0.00     0.173 C 
BRANCH  18  19
HETATM   19  O1  UNL     1      -5.539   1.239   0.309  1.00  0.00    -0.400 OA
HETATM   20  H28 UNL     1      -6.019   0.882  -0.456  1.00  0.00     0.209 HD
ENDBRANCH  18  19
ENDBRANCH  10  18
BRANCH  14  21
HETATM   21  O2  UNL     1       0.416   3.446  -0.465  1.00  0.00    -0.392 OA
HETATM   22  H33 UNL     1       0.582   3.561   0.491  1.00  0.00     0.210 HD
ENDBRANCH  14  21
BRANCH   1  23
HETATM   23  C2  UNL     1       4.045  -0.321  -0.006  1.00  0.00    -0.016 C 
HETATM   24  C1  UNL     1       4.812  -1.553   0.488  1.00  0.00     0.010 C 
HETATM   25  C3  UNL     1       5.046   0.622  -0.692  1.00  0.00     0.010 C 
ENDBRANCH   1  23
TORSDOF 4
