REMARK  9 active torsions:
REMARK  status: ('A' for Active; 'I' for Inactive)
REMARK    1  A    between atoms: C3_3  and  O1_4 
REMARK    2  A    between atoms: N1_14  and  O2_16 
REMARK    3  A    between atoms: O2_16  and  C13_17 
REMARK    4  A    between atoms: C13_17  and  C14_18 
REMARK       I    between atoms: C14_18  and  N2_20 
REMARK    5  A    between atoms: N2_20  and  C15_21 
REMARK    6  A    between atoms: C15_21  and  C16_22 
REMARK    7  A    between atoms: C15_21  and  C17_25 
REMARK    8  A    between atoms: C16_22  and  O5_24 
REMARK    9  A    between atoms: C17_25  and  C19_27 
ROOT
HETATM    1  C1  UNL     1      -8.184  -2.479   2.240  1.00  0.00     0.015 C 
HETATM    2  C2  UNL     1      -7.482  -2.173   1.314  1.00  0.00    -0.078 C 
HETATM    3  C3  UNL     1      -6.623  -1.816   0.175  1.00  0.00     0.128 C 
HETATM    4  C4  UNL     1      -7.390  -1.041  -0.925  1.00  0.00     0.052 C 
HETATM    5  C5  UNL     1      -6.379  -0.053  -1.546  1.00  0.00     0.010 C 
HETATM    6  C6  UNL     1      -5.042  -0.415  -0.903  1.00  0.00     0.002 C 
HETATM    7  C7  UNL     1      -3.912   0.622  -0.917  1.00  0.00    -0.004 C 
HETATM    8  C8  UNL     1      -3.571   1.059  -2.347  1.00  0.00     0.010 C 
HETATM    9  C9  UNL     1      -2.427   2.065  -2.358  1.00  0.00     0.035 C 
HETATM   10  C10 UNL     1      -1.202   1.542  -1.644  1.00  0.00    -0.069 C 
HETATM   11  C11 UNL     1      -0.004   1.607  -2.251  1.00  0.00     0.030 C 
HETATM   12  C12 UNL     1       1.252   1.226  -1.557  1.00  0.00     0.032 C 
HETATM   13  N1  UNL     1       2.362   1.275  -2.237  1.00  0.00    -0.271 N 
ATOM     14  H1  UNL     1       2.417   1.522  -3.225  1.00  0.00     0.194 HD
HETATM   15  C21 UNL     1       1.161   0.871  -0.089  1.00  0.00     0.060 C 
HETATM   16  C22 UNL     1      -0.159   0.176   0.211  1.00  0.00     0.020 C 
HETATM   17  C23 UNL     1      -1.414   0.982  -0.232  1.00  0.00    -0.016 C 
HETATM   18  C24 UNL     1      -1.614   2.171   0.734  1.00  0.00     0.020 C 
HETATM   19  C25 UNL     1      -2.653   0.005  -0.232  1.00  0.00     0.002 C 
HETATM   20  C26 UNL     1      -2.986  -0.589   1.163  1.00  0.00     0.007 C 
HETATM   21  C27 UNL     1      -4.201  -1.534   1.152  1.00  0.00     0.014 C 
HETATM   22  C28 UNL     1      -5.438  -0.869   0.522  1.00  0.00     0.003 C 
HETATM   23  C29 UNL     1      -5.913   0.304   1.427  1.00  0.00     0.020 C 
ENDROOT
BRANCH   3  24
HETATM   24  O1  UNL     1      -6.131  -3.026  -0.406  1.00  0.00    -0.377 OA
HETATM   25  H2  UNL     1      -6.895  -3.618  -0.513  1.00  0.00     0.211 HD
ENDBRANCH   3  24
BRANCH  13  26
HETATM   26  O2  UNL     1       3.471   0.947  -1.447  1.00  0.00    -0.271 OA
BRANCH  26  27
HETATM   27  C13 UNL     1       4.622   0.859  -2.282  1.00  0.00     0.303 C 
BRANCH  27  28
HETATM   28  C14 UNL     1       5.866   0.503  -1.469  1.00  0.00     0.244 C 
HETATM   29  O3  UNL     1       6.916   0.169  -2.009  1.00  0.00    -0.271 OA
HETATM   30  N2  UNL     1       5.700   0.601  -0.102  1.00  0.00    -0.344 N 
HETATM   31  H16 UNL     1       4.841   1.047   0.199  1.00  0.00     0.163 HD
BRANCH  30  32
HETATM   32  C15 UNL     1       6.784   0.475   0.877  1.00  0.00     0.186 C 
BRANCH  32  33
HETATM   33  C16 UNL     1       7.609   1.776   0.844  1.00  0.00     0.163 C 
HETATM   34  O4  UNL     1       7.814   2.517  -0.103  1.00  0.00    -0.648 OA
BRANCH  33  35
HETATM   35  O5  UNL     1       8.104   2.106   2.059  1.00  0.00    -0.775 OA
HETATM   36  H18 UNL     1       8.594   2.937   1.883  1.00  0.00     0.167 HD
ENDBRANCH  33  35
ENDBRANCH  32  33
BRANCH  32  37
HETATM   37  C17 UNL     1       7.615  -0.834   0.786  1.00  0.00     0.014 C 
HETATM   38  C18 UNL     1       8.884  -0.773   1.653  1.00  0.00     0.012 C 
BRANCH  37  39
HETATM   39  C19 UNL     1       6.812  -2.084   1.227  1.00  0.00     0.002 C 
HETATM   40  C20 UNL     1       5.643  -2.461   0.329  1.00  0.00     0.005 C 
ENDBRANCH  37  39
ENDBRANCH  32  37
ENDBRANCH  30  32
ENDBRANCH  27  28
ENDBRANCH  26  27
ENDBRANCH  13  26
TORSDOF 9
