REMARK  6 active torsions:
REMARK  status: ('A' for Active; 'I' for Inactive)
REMARK    1  A    between atoms: C4_5  and  N2_6 
REMARK       I    between atoms: N2_6  and  C5_7 
REMARK    2  A    between atoms: C5_7  and  C6_9 
REMARK    3  A    between atoms: C6_9  and  O3_11 
REMARK    4  A    between atoms: C8_14  and  N3_15 
REMARK       I    between atoms: N3_15  and  C9_16 
REMARK    5  A    between atoms: C9_16  and  C10_18 
REMARK    6  A    between atoms: C10_18  and  O6_20 
ROOT
HETATM    1  N1  UNL     1       0.336   1.730  -4.621  1.00  0.00    -0.191 NA
HETATM    2  C1  UNL     1       0.240   1.343  -3.531  1.00  0.00     0.099 C 
HETATM    3  C2  UNL     1       0.123   0.866  -2.182  1.00  0.00     0.049 A 
HETATM    4  C3  UNL     1      -1.082   0.301  -1.746  1.00  0.00     0.054 A 
HETATM    5  C4  UNL     1      -1.211  -0.168  -0.436  1.00  0.00     0.060 A 
HETATM    6  C7  UNL     1      -0.104  -0.060   0.434  1.00  0.00     0.087 A 
HETATM    7 CL1  UNL     1      -0.246  -0.640   2.072  1.00  0.00    -0.079 Cl
HETATM    8  C8  UNL     1       1.116   0.508   0.005  1.00  0.00     0.060 A 
HETATM    9  C11 UNL     1       1.214   0.968  -1.310  1.00  0.00     0.054 A 
ENDROOT
BRANCH   5  10
HETATM   10  N2  UNL     1      -2.402  -0.746   0.056  1.00  0.00    -0.316 N 
HETATM   11  C5  UNL     1      -3.598  -0.952  -0.607  1.00  0.00     0.319 C 
HETATM   12  O1  UNL     1      -3.868  -0.673  -1.764  1.00  0.00    -0.261 OA
HETATM   13  H2  UNL     1      -2.395  -1.058   1.028  1.00  0.00     0.169 HD
BRANCH  11  14
HETATM   14  C6  UNL     1      -4.671  -1.623   0.301  1.00  0.00     0.237 C 
HETATM   15  O2  UNL     1      -5.802  -1.916  -0.023  1.00  0.00    -0.643 OA
BRANCH  14  16
HETATM   16  O3  UNL     1      -4.203  -1.860   1.542  1.00  0.00    -0.769 OA
HETATM   17  H3  UNL     1      -4.970  -2.276   1.994  1.00  0.00     0.168 HD
ENDBRANCH  14  16
ENDBRANCH  11  14
ENDBRANCH   5  10
BRANCH   8  18
HETATM   18  N3  UNL     1       2.186   0.586   0.925  1.00  0.00    -0.316 N 
HETATM   19  C9  UNL     1       3.455   1.098   0.725  1.00  0.00     0.319 C 
HETATM   20  O4  UNL     1       3.913   1.588  -0.294  1.00  0.00    -0.261 OA
HETATM   21  H4  UNL     1       2.008   0.221   1.862  1.00  0.00     0.169 HD
BRANCH  19  22
HETATM   22  C10 UNL     1       4.316   0.984   2.012  1.00  0.00     0.237 C 
HETATM   23  O5  UNL     1       3.885   0.499   3.043  1.00  0.00    -0.643 OA
BRANCH  22  24
HETATM   24  O6  UNL     1       5.556   1.459   1.892  1.00  0.00    -0.769 OA
HETATM   25  H5  UNL     1       5.979   1.326   2.764  1.00  0.00     0.168 HD
ENDBRANCH  22  24
ENDBRANCH  19  22
ENDBRANCH   8  18
TORSDOF 6
