REMARK  12 active torsions:
REMARK  status: ('A' for Active; 'I' for Inactive)
REMARK    1  A    between atoms: O1_2  and  C2_3 
REMARK    2  A    between atoms: C2_3  and  C3_4 
REMARK    3  A    between atoms: C3_4  and  C4_5 
REMARK    4  A    between atoms: C4_5  and  O2_6 
REMARK    5  A    between atoms: O2_6  and  C5_7 
REMARK    6  A    between atoms: C20_23  and  C21_24 
REMARK    7  A    between atoms: C21_24  and  O4_26 
REMARK    8  A    between atoms: C21_24  and  C23_27 
REMARK    9  A    between atoms: C23_27  and  O5_28 
REMARK   10  A    between atoms: C23_27  and  C24_29 
REMARK   11  A    between atoms: C32_38  and  O7_39 
REMARK   12  A    between atoms: C36_44  and  O8_45 
ROOT
HETATM    1  C5  UNL     1       6.709  -0.646  -0.319  1.00  0.00     0.122 C 
HETATM    2  C6  UNL     1       6.260   0.811  -0.231  1.00  0.00     0.033 C 
HETATM    3  C7  UNL     1       4.752   0.950  -0.032  1.00  0.00     0.013 C 
HETATM    4  C8  UNL     1       3.904   0.170  -1.086  1.00  0.00    -0.026 C 
HETATM    5  C9  UNL     1       4.134   0.832  -2.470  1.00  0.00     0.016 C 
HETATM    6  C10 UNL     1       4.375  -1.308  -1.116  1.00  0.00     0.071 C 
HETATM    7  C11 UNL     1       5.891  -1.432  -1.349  1.00  0.00     0.045 C 
HETATM    8  C12 UNL     1       3.996  -2.049   0.166  1.00  0.00     0.154 C 
HETATM    9  O3  UNL     1       4.679  -2.949   0.650  1.00  0.00    -0.293 OA
HETATM   10  C13 UNL     1       2.711  -1.729   0.820  1.00  0.00     0.057 C 
HETATM   11  C14 UNL     1       1.955  -0.702   0.408  1.00  0.00    -0.037 C 
HETATM   12  C15 UNL     1       2.383   0.277  -0.690  1.00  0.00     0.026 C 
HETATM   13  C16 UNL     1       1.370   0.187  -1.860  1.00  0.00     0.011 C 
HETATM   14  C17 UNL     1      -0.092   0.373  -1.399  1.00  0.00     0.014 C 
HETATM   15  C18 UNL     1      -0.472  -0.607  -0.268  1.00  0.00    -0.002 C 
HETATM   16  C19 UNL     1      -0.476  -2.048  -0.844  1.00  0.00     0.019 C 
HETATM   17  C20 UNL     1      -1.795  -0.270   0.495  1.00  0.00     0.034 C 
HETATM   18  C34 UNL     1      -1.618  -0.999   1.856  1.00  0.00     0.012 C 
HETATM   19  C35 UNL     1      -0.105  -1.277   2.017  1.00  0.00     0.044 C 
HETATM   20  C36 UNL     1       0.553  -0.447   0.908  1.00  0.00     0.089 C 
ENDROOT
BRANCH  17  21
HETATM   21  C21 UNL     1      -3.204  -0.392  -0.171  1.00  0.00     0.087 C 
HETATM   22  C22 UNL     1      -3.630  -1.831  -0.503  1.00  0.00     0.049 C 
BRANCH  21  23
HETATM   23  O4  UNL     1      -3.121   0.308  -1.424  1.00  0.00    -0.387 OA
HETATM   24  H34 UNL     1      -3.969   0.173  -1.889  1.00  0.00     0.210 HD
ENDBRANCH  21  23
BRANCH  21  25
HETATM   25  C23 UNL     1      -4.262   0.331   0.765  1.00  0.00     0.181 C 
BRANCH  25  26
HETATM   26  O5  UNL     1      -4.801  -0.577   1.736  1.00  0.00    -0.390 OA
HETATM   27  H36 UNL     1      -5.305  -1.255   1.258  1.00  0.00     0.210 HD
ENDBRANCH  25  26
BRANCH  25  28
HETATM   28  C24 UNL     1      -5.384   1.091   0.006  1.00  0.00     0.158 C 
HETATM   29  O6  UNL     1      -6.090   0.211  -0.896  1.00  0.00    -0.372 OA
HETATM   30  C25 UNL     1      -7.313  -0.209  -0.256  1.00  0.00     0.197 C 
HETATM   31  C26 UNL     1      -7.586   0.731   0.935  1.00  0.00     0.035 C 
HETATM   32  C32 UNL     1      -8.562  -0.227  -1.204  1.00  0.00     0.301 C 
HETATM   33  C27 UNL     1      -6.476   1.772   0.840  1.00  0.00     0.020 C 
HETATM   34  C29 UNL     1      -9.044   1.266   0.813  1.00  0.00     0.043 C 
HETATM   35  C28 UNL     1      -6.055   2.344   2.184  1.00  0.00     0.013 C 
HETATM   36  C30 UNL     1      -9.955   0.043   0.734  1.00  0.00    -0.019 C 
HETATM   37  C33 UNL     1      -9.243   1.992  -0.554  1.00  0.00     0.283 C 
HETATM   38  C31 UNL     1      -9.725  -0.708  -0.361  1.00  0.00     0.042 C 
HETATM   39  N1  UNL     1      -8.842   1.125  -1.693  1.00  0.00     0.126 N 
HETATM   40  H48 UNL     1      -9.626   1.046  -2.338  1.00  0.00     0.320 HD
BRANCH  32  41
HETATM   41  O7  UNL     1      -8.365  -1.072  -2.302  1.00  0.00    -0.358 OA
HETATM   42  H47 UNL     1      -7.646  -0.626  -2.784  1.00  0.00     0.213 HD
ENDBRANCH  32  41
ENDBRANCH  25  28
ENDBRANCH  21  25
ENDBRANCH  17  21
BRANCH  20  43
HETATM   43  O8  UNL     1       0.568   0.907   1.395  1.00  0.00    -0.384 OA
HETATM   44  H55 UNL     1       1.170   0.930   2.157  1.00  0.00     0.211 HD
ENDBRANCH  20  43
BRANCH   1  45
HETATM   45  O2  UNL     1       8.080  -0.654  -0.735  1.00  0.00    -0.386 OA
BRANCH  45  46
HETATM   46  C4  UNL     1       8.917  -1.502   0.052  1.00  0.00     0.170 C 
BRANCH  46  47
HETATM   47  C3  UNL     1       9.338  -0.814   1.346  1.00  0.00     0.052 C 
BRANCH  47  48
HETATM   48  C2  UNL     1      10.039   0.513   1.082  1.00  0.00     0.169 C 
BRANCH  48  49
HETATM   49  O1  UNL     1      10.419   1.083   2.336  1.00  0.00    -0.396 OA
HETATM   50  C1  UNL     1      11.017   2.362   2.168  1.00  0.00     0.201 C 
ENDBRANCH  48  49
ENDBRANCH  47  48
ENDBRANCH  46  47
ENDBRANCH  45  46
ENDBRANCH   1  45
TORSDOF 12
