REMARK  11 active torsions:
REMARK  status: ('A' for Active; 'I' for Inactive)
REMARK    1  A    between atoms: C12_13  and  O2_14 
REMARK    2  A    between atoms: C19_21  and  O3_22 
REMARK    3  A    between atoms: C19_21  and  C20_23 
REMARK    4  A    between atoms: C20_23  and  C21_25 
REMARK    5  A    between atoms: C21_25  and  O5_26 
REMARK    6  A    between atoms: O5_26  and  C22_27 
REMARK    7  A    between atoms: C22_27  and  C23_29 
REMARK    8  A    between atoms: C23_29  and  C24_30 
REMARK    9  A    between atoms: C24_30  and  C25_31 
REMARK       I    between atoms: C25_31  and  N1_33 
REMARK   10  A    between atoms: N1_33  and  C26_34 
REMARK   11  A    between atoms: C26_34  and  C27_35 
ROOT
HETATM    1  C1  UNL     1      -5.798   1.004   1.656  1.00  0.00     0.020 C 
HETATM    2  C2  UNL     1      -5.649   0.490   0.202  1.00  0.00    -0.014 C 
HETATM    3  C3  UNL     1      -6.683   1.234  -0.699  1.00  0.00     0.022 C 
HETATM    4  C4  UNL     1      -8.127   0.815  -0.462  1.00  0.00     0.084 C 
HETATM    5  C5  UNL     1      -8.262  -0.675  -0.632  1.00  0.00     0.149 C 
HETATM    6  O1  UNL     1      -9.283  -1.200  -1.072  1.00  0.00    -0.293 OA
HETATM    7  C6  UNL     1      -7.143  -1.531  -0.171  1.00  0.00     0.053 C 
HETATM    8  C7  UNL     1      -5.978  -1.008   0.254  1.00  0.00    -0.068 C 
HETATM    9  C8  UNL     1      -4.928  -1.926   0.845  1.00  0.00     0.035 C 
HETATM   10  C9  UNL     1      -3.496  -1.403   0.696  1.00  0.00     0.010 C 
HETATM   11  C10 UNL     1      -3.366  -0.561  -0.577  1.00  0.00    -0.002 C 
HETATM   12  C11 UNL     1      -4.200   0.742  -0.433  1.00  0.00     0.031 C 
HETATM   13  C12 UNL     1      -3.404   1.880   0.242  1.00  0.00     0.124 C 
HETATM   14  C13 UNL     1      -2.027   2.091  -0.386  1.00  0.00     0.045 C 
HETATM   15  C14 UNL     1      -1.128   0.827  -0.394  1.00  0.00     0.001 C 
HETATM   16  C15 UNL     1      -0.646   0.543   1.037  1.00  0.00     0.019 C 
HETATM   17  C16 UNL     1      -1.899  -0.354  -1.014  1.00  0.00     0.002 C 
HETATM   18  C17 UNL     1      -1.789  -0.104  -2.532  1.00  0.00     0.009 C 
HETATM   19  C18 UNL     1      -0.507   0.698  -2.764  1.00  0.00     0.047 C 
HETATM   20  C19 UNL     1       0.073   1.009  -1.379  1.00  0.00     0.128 C 
ENDROOT
BRANCH  20  21
HETATM   21  O3  UNL     1       0.483   2.390  -1.377  1.00  0.00    -0.381 OA
HETATM   22  H27 UNL     1       1.364   2.425  -0.949  1.00  0.00     0.211 HD
ENDBRANCH  20  21
BRANCH  20  23
HETATM   23  C20 UNL     1       1.370   0.201  -1.079  1.00  0.00     0.185 C 
HETATM   24  O4  UNL     1       2.369   0.807  -0.661  1.00  0.00    -0.292 OA
BRANCH  23  25
HETATM   25  C21 UNL     1       1.408  -1.306  -1.329  1.00  0.00     0.260 C 
BRANCH  25  26
HETATM   26  O5  UNL     1       2.688  -1.863  -1.010  1.00  0.00    -0.314 OA
BRANCH  26  27
HETATM   27  C22 UNL     1       2.896  -2.069   0.320  1.00  0.00     0.259 C 
HETATM   28  O6  UNL     1       2.058  -1.890   1.191  1.00  0.00    -0.265 OA
BRANCH  27  29
HETATM   29  C23 UNL     1       4.294  -2.556   0.572  1.00  0.00     0.120 C 
BRANCH  29  30
HETATM   30  C24 UNL     1       5.304  -1.448   0.308  1.00  0.00     0.112 C 
BRANCH  30  31
HETATM   31  C25 UNL     1       6.715  -1.918   0.583  1.00  0.00     0.218 C 
HETATM   32  O7  UNL     1       6.998  -3.075   0.875  1.00  0.00    -0.274 OA
HETATM   33  N1  UNL     1       7.653  -0.916   0.467  1.00  0.00    -0.356 N 
HETATM   34  H34 UNL     1       7.385  -0.049   0.017  1.00  0.00     0.162 HD
BRANCH  33  35
HETATM   35  C26 UNL     1       9.065  -1.216   0.546  1.00  0.00     0.168 C 
BRANCH  35  36
HETATM   36  C27 UNL     1       9.799   0.047   0.856  1.00  0.00     0.000 A 
HETATM   37  C28 UNL     1      10.081   0.588   2.096  1.00  0.00     0.017 A 
HETATM   38  C29 UNL     1      10.820   1.804   2.005  1.00  0.00     0.008 A 
HETATM   39  C30 UNL     1      11.068   2.157   0.697  1.00  0.00     0.050 A 
HETATM   40  S1  UNL     1      10.409   1.031  -0.410  1.00  0.00    -0.105 SA
ENDBRANCH  35  36
ENDBRANCH  33  35
ENDBRANCH  30  31
ENDBRANCH  29  30
ENDBRANCH  27  29
ENDBRANCH  26  27
ENDBRANCH  25  26
ENDBRANCH  23  25
ENDBRANCH  20  23
BRANCH  13  41
HETATM   41  O2  UNL     1      -4.135   3.099   0.097  1.00  0.00    -0.395 OA
HETATM   42  H16 UNL     1      -3.611   3.810   0.506  1.00  0.00     0.210 HD
ENDBRANCH  13  41
TORSDOF 11
