REMARK  11 active torsions:
REMARK  status: ('A' for Active; 'I' for Inactive)
REMARK    1  A    between atoms: C2_2  and  O1_3 
REMARK    2  A    between atoms: O1_3  and  C3_4 
REMARK    3  A    between atoms: C3_4  and  C4_6 
REMARK    4  A    between atoms: C4_6  and  O3_7 
REMARK    5  A    between atoms: O3_7  and  C5_8 
REMARK       I    between atoms: N1_11  and  C8_12 
REMARK    6  A    between atoms: C8_12  and  C9_14 
REMARK    7  A    between atoms: C9_14  and  N2_16 
REMARK       I    between atoms: N2_16  and  C11_17 
REMARK    8  A    between atoms: C11_17  and  C12_19 
REMARK    9  A    between atoms: C15_22  and  C16_23 
REMARK   10  A    between atoms: C16_23  and  N3_24 
REMARK   11  A    between atoms: N4_25  and  O6_27 
ROOT
HETATM    1  N2  UNL     1      -2.570  -0.815  -0.733  1.00  0.00    -0.344 N 
HETATM    2  C11 UNL     1      -3.425  -1.763  -0.222  1.00  0.00     0.252 C 
HETATM    3  O5  UNL     1      -3.069  -2.907   0.042  1.00  0.00    -0.268 OA
HETATM    4  H17 UNL     1      -2.831   0.166  -0.742  1.00  0.00     0.163 HD
ENDROOT
BRANCH   1   5
HETATM    5  C9  UNL     1      -1.141  -1.074  -0.914  1.00  0.00     0.173 C 
HETATM    6  C10 UNL     1      -0.897  -1.800  -2.231  1.00  0.00     0.042 C 
BRANCH   5   7
HETATM    7  C8  UNL     1      -0.430   0.300  -0.889  1.00  0.00     0.242 C 
HETATM    8  N1  UNL     1       0.957   0.349  -0.813  1.00  0.00    -0.350 N 
HETATM    9  C7  UNL     1       1.824  -0.797  -0.527  1.00  0.00     0.128 C 
HETATM   10  C19 UNL     1       1.592   1.668  -0.830  1.00  0.00     0.128 C 
HETATM   11  C6  UNL     1       3.001  -0.392   0.347  1.00  0.00     0.052 C 
HETATM   12  C5  UNL     1       3.867   0.677  -0.329  1.00  0.00     0.125 C 
HETATM   13  C20 UNL     1       3.055   1.596  -1.251  1.00  0.00     0.052 C 
HETATM   14  O4  UNL     1      -1.108   1.336  -0.960  1.00  0.00    -0.271 OA
BRANCH  12  15
HETATM   15  O3  UNL     1       4.480   1.441   0.718  1.00  0.00    -0.376 OA
BRANCH  15  16
HETATM   16  C4  UNL     1       5.758   1.970   0.383  1.00  0.00     0.279 C 
BRANCH  16  17
HETATM   17  C3  UNL     1       6.913   0.965   0.380  1.00  0.00     0.282 C 
HETATM   18  O2  UNL     1       6.802  -0.247   0.505  1.00  0.00    -0.263 OA
BRANCH  17  19
HETATM   19  O1  UNL     1       8.092   1.631   0.197  1.00  0.00    -0.320 OA
BRANCH  19  20
HETATM   20  C2  UNL     1       9.271   0.813   0.167  1.00  0.00     0.174 C 
HETATM   21  C1  UNL     1       9.768   0.549   1.575  1.00  0.00     0.034 C 
ENDBRANCH  19  20
ENDBRANCH  17  19
ENDBRANCH  16  17
ENDBRANCH  15  16
ENDBRANCH  12  15
ENDBRANCH   5   7
ENDBRANCH   1   5
BRANCH   2  22
HETATM   22  C12 UNL     1      -4.825  -1.325   0.045  1.00  0.00     0.032 A 
HETATM   23  C13 UNL     1      -5.410  -0.238  -0.617  1.00  0.00     0.018 A 
HETATM   24  C14 UNL     1      -6.726   0.140  -0.323  1.00  0.00     0.016 A 
HETATM   25  C15 UNL     1      -7.468  -0.569   0.630  1.00  0.00     0.004 A 
HETATM   26  C17 UNL     1      -6.891  -1.670   1.274  1.00  0.00     0.016 A 
HETATM   27  C18 UNL     1      -5.577  -2.047   0.982  1.00  0.00     0.018 A 
BRANCH  25  28
HETATM   28  C16 UNL     1      -8.873  -0.166   0.952  1.00  0.00     0.108 C 
HETATM   29  N4  UNL     1      -9.648  -1.022   1.557  1.00  0.00    -0.258 N 
ATOM     30  H4  UNL     1      -9.372  -1.969   1.818  1.00  0.00     0.195 HD
BRANCH  28  31
HETATM   31  N3  UNL     1      -9.309   1.096   0.614  1.00  0.00    -0.287 NA
HETATM   32  H20 UNL     1     -10.209   1.261   1.061  1.00  0.00     0.125 HD
HETATM   33  H21 UNL     1      -8.651   1.841   0.815  1.00  0.00     0.125 HD
ENDBRANCH  28  31
BRANCH  29  34
HETATM   34  O6  UNL     1     -10.916  -0.466   1.802  1.00  0.00    -0.289 OA
HETATM   35  H22 UNL     1     -11.398  -1.226   2.179  1.00  0.00     0.244 HD
ENDBRANCH  29  34
ENDBRANCH  25  28
ENDBRANCH   2  22
TORSDOF 11
