REMARK  10 active torsions:
REMARK  status: ('A' for Active; 'I' for Inactive)
REMARK    1  A    between atoms: O1_2  and  C2_3 
REMARK    2  A    between atoms: C4_5  and  O2_6 
REMARK    3  A    between atoms: O2_6  and  C5_7 
REMARK    4  A    between atoms: C8_10  and  C9_11 
REMARK    5  A    between atoms: N1_12  and  C10_14 
REMARK    6  A    between atoms: C10_14  and  C11_15 
REMARK    7  A    between atoms: C21_27  and  C22_28 
REMARK    8  A    between atoms: C28_36  and  O5_37 
REMARK    9  A    between atoms: C32_41  and  O6_42 
REMARK   10  A    between atoms: C36_47  and  O8_48 
ROOT
HETATM    1  C5  UNL     1       2.261   0.233   0.541  1.00  0.00     0.127 C 
HETATM    2  C6  UNL     1       1.359   0.703   1.678  1.00  0.00     0.033 C 
HETATM    3  C7  UNL     1      -0.064   0.165   1.543  1.00  0.00     0.021 C 
HETATM    4  C8  UNL     1      -0.733   0.526   0.179  1.00  0.00     0.026 C 
HETATM    5  C16 UNL     1      -2.153  -0.159   0.128  1.00  0.00     0.009 C 
HETATM    6  C17 UNL     1      -3.192   0.513  -0.818  1.00  0.00     0.007 C 
HETATM    7  C18 UNL     1      -4.584  -0.174  -0.810  1.00  0.00     0.013 C 
HETATM    8  C19 UNL     1      -4.477  -1.677  -1.118  1.00  0.00    -0.005 C 
HETATM    9  C20 UNL     1      -4.121  -1.811  -2.627  1.00  0.00     0.019 C 
HETATM   10  C21 UNL     1      -5.746  -2.584  -0.928  1.00  0.00     0.028 C 
HETATM   11  C26 UNL     1      -5.178  -3.953  -0.438  1.00  0.00     0.013 C 
HETATM   12  C27 UNL     1      -3.647  -3.801  -0.354  1.00  0.00     0.040 C 
HETATM   13  C28 UNL     1      -3.467  -2.309  -0.118  1.00  0.00     0.070 C 
HETATM   14  C29 UNL     1      -2.055  -1.702  -0.118  1.00  0.00     0.026 C 
HETATM   15  C30 UNL     1      -1.155  -2.067  -1.300  1.00  0.00     0.011 C 
HETATM   16  C31 UNL     1       0.234  -1.455  -1.151  1.00  0.00     0.039 C 
HETATM   17  C32 UNL     1       0.205   0.083  -0.994  1.00  0.00     0.073 C 
HETATM   18  C33 UNL     1       1.656   0.592  -0.817  1.00  0.00     0.071 C 
ENDROOT
BRANCH   1  19
HETATM   19  O2  UNL     1       3.524   0.888   0.710  1.00  0.00    -0.356 OA
BRANCH  19  20
HETATM   20  C4  UNL     1       4.642   0.017   0.515  1.00  0.00     0.263 C 
HETATM   21  C3  UNL     1       5.883   0.737   1.023  1.00  0.00     0.095 C 
HETATM   22  C2  UNL     1       7.093  -0.181   0.873  1.00  0.00     0.156 C 
HETATM   23  C36 UNL     1       7.227  -0.620  -0.600  1.00  0.00     0.175 C 
HETATM   24  C34 UNL     1       5.892  -1.202  -1.103  1.00  0.00     0.151 C 
HETATM   25  O7  UNL     1       4.799  -0.307  -0.860  1.00  0.00    -0.354 OA
HETATM   26  C35 UNL     1       5.937  -1.477  -2.603  1.00  0.00     0.042 C 
BRANCH  22  27
HETATM   27  O1  UNL     1       8.332   0.436   1.253  1.00  0.00    -0.388 OA
HETATM   28  C1  UNL     1       8.411   0.776   2.630  1.00  0.00     0.202 C 
ENDBRANCH  22  27
BRANCH  23  29
HETATM   29  O8  UNL     1       8.279  -1.585  -0.735  1.00  0.00    -0.390 OA
HETATM   30  H50 UNL     1       8.753  -1.603   0.123  1.00  0.00     0.210 HD
ENDBRANCH  23  29
ENDBRANCH  19  20
ENDBRANCH   1  19
BRANCH  17  31
HETATM   31  O6  UNL     1      -0.288   0.591  -2.243  1.00  0.00    -0.389 OA
HETATM   32  H42 UNL     1      -0.352   1.564  -2.127  1.00  0.00     0.210 HD
ENDBRANCH  17  31
BRANCH   4  33
HETATM   33  C9  UNL     1      -0.960   2.048   0.230  1.00  0.00     0.069 C 
HETATM   34  N1  UNL     1      -0.599   2.832  -0.733  1.00  0.00    -0.397 N 
ATOM     35  H1  UNL     1      -0.170   2.492  -1.594  1.00  0.00     0.159 HD
BRANCH  34  36
HETATM   36  C10 UNL     1      -0.863   4.262  -0.477  1.00  0.00     0.158 C 
BRANCH  36  37
HETATM   37  C11 UNL     1       0.040   4.883   0.558  1.00  0.00    -0.025 A 
HETATM   38  C12 UNL     1       1.393   4.549   0.664  1.00  0.00     0.011 A 
HETATM   39  C13 UNL     1       2.186   5.147   1.636  1.00  0.00     0.018 A 
HETATM   40  C14 UNL     1       1.597   6.083   2.466  1.00  0.00     0.087 A 
HETATM   41  N2  UNL     1       0.305   6.463   2.377  1.00  0.00    -0.375 N 
HETATM   42  C15 UNL     1      -0.440   5.860   1.425  1.00  0.00     0.096 A 
ATOM     43  H2  UNL     1      -0.089   7.170   2.998  1.00  0.00     0.164 HD
ENDBRANCH  36  37
ENDBRANCH  34  36
ENDBRANCH   4  33
BRANCH  13  44
HETATM   44  O5  UNL     1      -3.944  -2.073   1.231  1.00  0.00    -0.389 OA
HETATM   45  H36 UNL     1      -3.426  -2.622   1.843  1.00  0.00     0.210 HD
ENDBRANCH  13  44
BRANCH  10  46
HETATM   46  C22 UNL     1      -6.897  -2.082  -0.103  1.00  0.00    -0.045 A 
HETATM   47  C23 UNL     1      -6.972  -1.816   1.199  1.00  0.00     0.087 A 
HETATM   48  C24 UNL     1      -8.334  -1.369   1.476  1.00  0.00     0.283 A 
HETATM   49  O3  UNL     1      -8.749  -1.041   2.570  1.00  0.00    -0.260 OA
HETATM   50  O4  UNL     1      -9.053  -1.382   0.321  1.00  0.00    -0.314 OA
HETATM   51  C25 UNL     1      -8.215  -1.835  -0.739  1.00  0.00     0.213 A 
ENDBRANCH  10  46
TORSDOF 10
