REMARK  5 active torsions:
REMARK  status: ('A' for Active; 'I' for Inactive)
REMARK    1  A    between atoms: C2_2  and  C3_3 
REMARK    2  A    between atoms: C4_5  and  C5_6 
REMARK    3  A    between atoms: C5_6  and  C6_7 
REMARK    4  A    between atoms: C6_7  and  C7_8 
REMARK    5  A    between atoms: C7_8  and  C9_10 
ROOT
HETATM    1  C9  UNL     1       2.299  -0.079   0.293  1.00  0.00    -0.002 C 
HETATM    2  C10 UNL     1       2.264  -1.372   1.156  1.00  0.00     0.007 C 
HETATM    3  C11 UNL     1       0.794  -1.820   1.259  1.00  0.00     0.015 C 
HETATM    4  C12 UNL     1       0.048  -0.998   0.191  1.00  0.00    -0.005 C 
HETATM    5  C13 UNL     1       0.234  -1.737  -1.170  1.00  0.00     0.021 C 
HETATM    6  C14 UNL     1      -1.452  -0.771   0.313  1.00  0.00    -0.000 C 
HETATM    7  C15 UNL     1      -2.042   0.349  -0.179  1.00  0.00    -0.060 C 
HETATM    8  C16 UNL     1      -1.191   1.447  -0.837  1.00  0.00     0.036 C 
HETATM    9  C17 UNL     1       0.343   1.271  -0.835  1.00  0.00     0.015 C 
HETATM   10  C18 UNL     1       0.810   0.379   0.321  1.00  0.00    -0.028 C 
HETATM   11  C19 UNL     1       0.525   1.119   1.668  1.00  0.00     0.016 C 
HETATM   12  C20 UNL     1      -3.570   0.621  -0.096  1.00  0.00    -0.014 C 
HETATM   13  C21 UNL     1      -3.792   1.658   1.028  1.00  0.00     0.020 C 
HETATM   14  C22 UNL     1      -4.092   1.180  -1.444  1.00  0.00     0.021 C 
HETATM   15  C23 UNL     1      -5.607   1.238  -1.605  1.00  0.00     0.080 C 
HETATM   16  C24 UNL     1      -6.412   0.682  -0.456  1.00  0.00     0.135 C 
HETATM   17  O2  UNL     1      -7.505   1.186  -0.187  1.00  0.00    -0.297 OA
HETATM   18  C25 UNL     1      -5.902  -0.564   0.277  1.00  0.00     0.018 C 
HETATM   19  C26 UNL     1      -6.387  -0.491   1.743  1.00  0.00     0.023 C 
HETATM   20  C27 UNL     1      -6.592  -1.773  -0.384  1.00  0.00     0.023 C 
HETATM   21  C28 UNL     1      -4.348  -0.713   0.144  1.00  0.00     0.020 C 
HETATM   22  C29 UNL     1      -3.714  -1.517   1.280  1.00  0.00     0.090 C 
HETATM   23  C30 UNL     1      -2.284  -1.841   0.945  1.00  0.00     0.157 C 
HETATM   24  O3  UNL     1      -1.821  -2.948   1.201  1.00  0.00    -0.293 OA
ENDROOT
BRANCH   1  25
HETATM   25  C7  UNL     1       3.420   0.895   0.749  1.00  0.00    -0.014 C 
HETATM   26  C8  UNL     1       3.465   2.182  -0.083  1.00  0.00     0.010 C 
BRANCH  25  27
HETATM   27  C6  UNL     1       4.826   0.235   0.760  1.00  0.00     0.008 C 
BRANCH  27  28
HETATM   28  C5  UNL     1       5.298  -0.320  -0.590  1.00  0.00     0.028 C 
BRANCH  28  29
HETATM   29  C4  UNL     1       6.706  -0.837  -0.492  1.00  0.00    -0.017 C 
HETATM   30  C2  UNL     1       7.805  -0.335  -1.086  1.00  0.00    -0.028 C 
HETATM   31  C1  UNL     1       7.895   0.874  -1.962  1.00  0.00     0.051 C 
BRANCH  30  32
HETATM   32  C3  UNL     1       9.105  -1.034  -0.844  1.00  0.00     0.265 C 
HETATM   33  O1  UNL     1       9.248  -1.966  -0.063  1.00  0.00    -0.302 OA
ENDBRANCH  30  32
ENDBRANCH  28  29
ENDBRANCH  27  28
ENDBRANCH  25  27
ENDBRANCH   1  25
TORSDOF 5
