REMARK  7 active torsions:
REMARK  status: ('A' for Active; 'I' for Inactive)
REMARK    1  A    between atoms: C2_2  and  C30_33 
REMARK    2  A    between atoms: C3_3  and  C4_4 
REMARK    3  A    between atoms: C4_4  and  C5_5 
REMARK    4  A    between atoms: C5_5  and  C6_6 
REMARK    5  A    between atoms: C6_6  and  C8_8 
REMARK    6  A    between atoms: C19_20  and  O2_21 
REMARK    7  A    between atoms: C30_33  and  O5_35 
ROOT
HETATM    1  C8  UNL     1       2.080   0.170   0.986  1.00  0.00    -0.002 C 
HETATM    2  C9  UNL     1       2.379  -1.234   1.578  1.00  0.00     0.007 C 
HETATM    3  C10 UNL     1       1.064  -2.045   1.470  1.00  0.00     0.018 C 
HETATM    4  C11 UNL     1      -0.010  -1.004   1.103  1.00  0.00     0.025 C 
HETATM    5  C12 UNL     1      -0.488  -0.400   2.443  1.00  0.00     0.024 C 
HETATM    6  C13 UNL     1      -1.241  -1.512   0.349  1.00  0.00     0.147 C 
HETATM    7  O1  UNL     1      -1.480  -2.723   0.321  1.00  0.00    -0.296 OA
HETATM    8  C14 UNL     1      -2.188  -0.470  -0.364  1.00  0.00     0.055 C 
HETATM    9  C15 UNL     1      -1.349   0.761  -0.894  1.00  0.00     0.021 C 
HETATM   10  C16 UNL     1      -0.061   1.153  -0.148  1.00  0.00     0.012 C 
HETATM   11  C17 UNL     1       0.796  -0.080   0.146  1.00  0.00    -0.026 C 
HETATM   12  C18 UNL     1       1.168  -0.769  -1.202  1.00  0.00     0.016 C 
HETATM   13  C19 UNL     1      -2.788  -1.150  -1.652  1.00  0.00     0.135 C 
HETATM   14  C20 UNL     1      -4.021  -0.304  -1.956  1.00  0.00     0.039 C 
HETATM   15  C21 UNL     1      -4.730  -0.262  -0.593  1.00  0.00     0.012 C 
HETATM   16  C22 UNL     1      -5.957   0.690  -0.497  1.00  0.00     0.018 C 
HETATM   17  C23 UNL     1      -6.851   0.542  -1.747  1.00  0.00     0.023 C 
HETATM   18  C24 UNL     1      -6.827   0.370   0.734  1.00  0.00     0.023 C 
HETATM   19  C25 UNL     1      -5.538   2.148  -0.362  1.00  0.00     0.135 C 
HETATM   20  O3  UNL     1      -6.285   3.073  -0.689  1.00  0.00    -0.297 OA
HETATM   21  C26 UNL     1      -4.169   2.457   0.181  1.00  0.00     0.080 C 
HETATM   22  C27 UNL     1      -3.584   1.350   1.055  1.00  0.00     0.018 C 
HETATM   23  C28 UNL     1      -3.552  -0.079   0.445  1.00  0.00    -0.022 C 
HETATM   24  C29 UNL     1      -3.816  -1.084   1.599  1.00  0.00     0.017 C 
ENDROOT
BRANCH  13  25
HETATM   25  O2  UNL     1      -3.265  -2.482  -1.468  1.00  0.00    -0.394 OA
HETATM   26  H29 UNL     1      -2.599  -2.980  -0.945  1.00  0.00     0.210 HD
ENDBRANCH  13  25
BRANCH   1  27
HETATM   27  C6  UNL     1       3.270   0.931   0.329  1.00  0.00    -0.014 C 
HETATM   28  C7  UNL     1       3.994   1.749   1.417  1.00  0.00     0.010 C 
BRANCH  27  29
HETATM   29  C5  UNL     1       4.299   0.050  -0.416  1.00  0.00     0.008 C 
BRANCH  29  30
HETATM   30  C4  UNL     1       5.250   0.852  -1.315  1.00  0.00     0.028 C 
BRANCH  30  31
HETATM   31  C3  UNL     1       6.159  -0.061  -2.095  1.00  0.00    -0.013 C 
HETATM   32  C2  UNL     1       7.420  -0.435  -1.799  1.00  0.00     0.008 C 
HETATM   33  C1  UNL     1       8.195  -1.341  -2.713  1.00  0.00     0.055 C 
BRANCH  32  34
HETATM   34  C30 UNL     1       8.092  -0.015  -0.543  1.00  0.00     0.171 C 
HETATM   35  O4  UNL     1       7.573   0.420   0.468  1.00  0.00    -0.646 OA
BRANCH  34  36
HETATM   36  O5  UNL     1       9.425  -0.182  -0.611  1.00  0.00    -0.773 OA
HETATM   37  H46 UNL     1       9.736   0.124   0.266  1.00  0.00     0.167 HD
ENDBRANCH  34  36
ENDBRANCH  32  34
ENDBRANCH  30  31
ENDBRANCH  29  30
ENDBRANCH  27  29
ENDBRANCH   1  27
TORSDOF 7
