REMARK  13 active torsions:
REMARK  status: ('A' for Active; 'I' for Inactive)
REMARK    1  A    between atoms: C2_2  and  O2_4 
REMARK    2  A    between atoms: O2_4  and  C3_5 
REMARK    3  A    between atoms: C3_5  and  C6_8 
REMARK    4  A    between atoms: C7_9  and  C8_10 
REMARK    5  A    between atoms: C8_10  and  C9_11 
REMARK    6  A    between atoms: C9_11  and  C11_13 
REMARK    7  A    between atoms: C20_22  and  O3_23 
REMARK    8  A    between atoms: O3_23  and  C21_24 
REMARK    9  A    between atoms: C23_27  and  O5_28 
REMARK   10  A    between atoms: C24_29  and  O6_30 
REMARK   11  A    between atoms: C25_31  and  O7_32 
REMARK   12  A    between atoms: C28_35  and  C29_36 
REMARK   13  A    between atoms: C29_36  and  O8_37 
ROOT
HETATM    1  C11 UNL     1       2.888   1.276  -1.125  1.00  0.00    -0.002 C 
HETATM    2  C12 UNL     1       2.917   2.803  -1.281  1.00  0.00     0.006 C 
HETATM    3  C13 UNL     1       1.455   3.165  -1.458  1.00  0.00     0.006 C 
HETATM    4  C14 UNL     1       0.849   2.024  -2.299  1.00  0.00    -0.001 C 
HETATM    5  C15 UNL     1      -0.591   1.633  -1.879  1.00  0.00    -0.001 C 
HETATM    6  C16 UNL     1      -1.532   2.843  -1.826  1.00  0.00     0.033 C 
HETATM    7  C17 UNL     1      -2.915   2.372  -1.520  1.00  0.00    -0.023 C 
HETATM    8  C18 UNL     1      -3.147   1.363  -0.662  1.00  0.00    -0.070 C 
HETATM    9  C19 UNL     1      -4.544   0.787  -0.544  1.00  0.00     0.066 C 
HETATM   10  C20 UNL     1      -4.861   0.154   0.817  1.00  0.00     0.128 C 
HETATM   11  C26 UNL     1      -3.776  -0.849   1.245  1.00  0.00     0.033 C 
HETATM   12  C27 UNL     1      -2.445  -0.723   0.491  1.00  0.00     0.019 C 
HETATM   13  C28 UNL     1      -2.018   0.732   0.168  1.00  0.00     0.008 C 
HETATM   14  C30 UNL     1      -0.593   0.826  -0.556  1.00  0.00     0.005 C 
HETATM   15  C31 UNL     1       0.188  -0.494  -0.746  1.00  0.00     0.007 C 
HETATM   16  C32 UNL     1       1.152  -0.498  -1.937  1.00  0.00     0.010 C 
HETATM   17  C33 UNL     1       1.878   0.832  -2.234  1.00  0.00    -0.036 C 
HETATM   18  C34 UNL     1       2.538   0.687  -3.621  1.00  0.00     0.016 C 
ENDROOT
BRANCH  10  19
HETATM   19  O3  UNL     1      -6.100  -0.570   0.828  1.00  0.00    -0.353 OA
BRANCH  19  20
HETATM   20  C21 UNL     1      -7.278   0.228   0.726  1.00  0.00     0.291 C 
HETATM   21  O4  UNL     1      -7.545   0.656  -0.608  1.00  0.00    -0.356 OA
HETATM   22  C22 UNL     1      -7.836  -0.432  -1.489  1.00  0.00     0.205 C 
HETATM   23  C23 UNL     1      -9.101  -1.175  -1.059  1.00  0.00     0.173 C 
HETATM   24  C24 UNL     1      -8.965  -1.671   0.381  1.00  0.00     0.182 C 
HETATM   25  C25 UNL     1      -8.488  -0.548   1.310  1.00  0.00     0.204 C 
BRANCH  23  26
HETATM   26  O5  UNL     1      -9.347  -2.282  -1.927  1.00  0.00    -0.391 OA
HETATM   27  H35 UNL     1      -8.794  -3.010  -1.570  1.00  0.00     0.210 HD
ENDBRANCH  23  26
BRANCH  24  28
HETATM   28  O6  UNL     1      -8.055  -2.787   0.399  1.00  0.00    -0.390 OA
HETATM   29  H37 UNL     1      -7.766  -2.860   1.332  1.00  0.00     0.210 HD
ENDBRANCH  24  28
BRANCH  25  30
HETATM   30  O7  UNL     1      -8.213  -1.123   2.598  1.00  0.00    -0.388 OA
HETATM   31  H39 UNL     1      -7.494  -0.606   3.008  1.00  0.00     0.210 HD
ENDBRANCH  25  30
ENDBRANCH  19  20
ENDBRANCH  10  19
BRANCH  13  32
HETATM   32  C29 UNL     1      -1.897   1.547   1.502  1.00  0.00     0.178 C 
BRANCH  32  33
HETATM   33  O8  UNL     1      -1.000   0.914   2.410  1.00  0.00    -0.400 OA
HETATM   34  H46 UNL     1      -0.901   1.508   3.174  1.00  0.00     0.209 HD
ENDBRANCH  32  33
ENDBRANCH  13  32
BRANCH   1  35
HETATM   35  C9  UNL     1       4.316   0.661  -0.979  1.00  0.00    -0.011 C 
HETATM   36  C10 UNL     1       5.338   1.059  -2.055  1.00  0.00     0.010 C 
BRANCH  35  37
HETATM   37  C8  UNL     1       4.281  -0.869  -0.773  1.00  0.00     0.031 C 
BRANCH  37  38
HETATM   38  C7  UNL     1       5.582  -1.429  -0.261  1.00  0.00    -0.027 C 
HETATM   39  C6  UNL     1       5.763  -1.874   0.995  1.00  0.00     0.007 C 
BRANCH  39  40
HETATM   40  C3  UNL     1       7.046  -2.414   1.598  1.00  0.00     0.081 C 
HETATM   41  C4  UNL     1       8.281  -2.450   0.682  1.00  0.00     0.051 C 
HETATM   42  C5  UNL     1       6.768  -3.855   2.062  1.00  0.00     0.051 C 
BRANCH  40  43
HETATM   43  O2  UNL     1       7.338  -1.687   2.821  1.00  0.00    -0.307 OA
BRANCH  43  44
HETATM   44  C2  UNL     1       7.647  -0.365   2.769  1.00  0.00     0.255 C 
HETATM   45  C1  UNL     1       7.880   0.153   4.156  1.00  0.00     0.126 C 
HETATM   46  O1  UNL     1       7.757   0.322   1.764  1.00  0.00    -0.266 OA
ENDBRANCH  43  44
ENDBRANCH  40  43
ENDBRANCH  39  40
ENDBRANCH  37  38
ENDBRANCH  35  37
ENDBRANCH   1  35
TORSDOF 13
