REMARK  9 active torsions:
REMARK  status: ('A' for Active; 'I' for Inactive)
REMARK    1  A    between atoms: C2_2  and  C3_3 
REMARK    2  A    between atoms: C2_2  and  C9_12 
REMARK    3  A    between atoms: C3_3  and  C4_4 
REMARK    4  A    between atoms: C4_4  and  C5_5 
REMARK    5  A    between atoms: C5_5  and  O1_6 
REMARK    6  A    between atoms: C5_5  and  C6_7 
REMARK    7  A    between atoms: C6_7  and  O2_9 
REMARK    8  A    between atoms: C6_7  and  C8_10 
REMARK    9  A    between atoms: C8_10  and  O3_11 
ROOT
HETATM    1  C9  UNL     1       1.659  -0.147  -0.078  1.00  0.00    -0.002 C 
HETATM    2  C10 UNL     1       1.575  -1.528  -0.793  1.00  0.00     0.007 C 
HETATM    3  C11 UNL     1       0.088  -1.904  -0.908  1.00  0.00     0.015 C 
HETATM    4  C12 UNL     1      -0.639  -0.950   0.055  1.00  0.00    -0.005 C 
HETATM    5  C13 UNL     1      -0.510  -1.563   1.485  1.00  0.00     0.021 C 
HETATM    6  C14 UNL     1      -2.127  -0.673  -0.105  1.00  0.00    -0.000 C 
HETATM    7  C15 UNL     1      -2.688   0.513   0.240  1.00  0.00    -0.060 C 
HETATM    8  C16 UNL     1      -1.787   1.633   0.800  1.00  0.00     0.036 C 
HETATM    9  C17 UNL     1      -0.264   1.383   0.867  1.00  0.00     0.015 C 
HETATM   10  C18 UNL     1       0.191   0.371  -0.188  1.00  0.00    -0.028 C 
HETATM   11  C19 UNL     1      -0.031   0.986  -1.606  1.00  0.00     0.016 C 
HETATM   12  C20 UNL     1      -4.197   0.865   0.012  1.00  0.00    -0.014 C 
HETATM   13  C21 UNL     1      -4.204   1.957  -1.098  1.00  0.00     0.020 C 
HETATM   14  C22 UNL     1      -4.839   1.480   1.290  1.00  0.00     0.021 C 
HETATM   15  C23 UNL     1      -5.525   0.453   2.172  1.00  0.00     0.080 C 
HETATM   16  C24 UNL     1      -6.697  -0.162   1.444  1.00  0.00     0.135 C 
HETATM   17  O4  UNL     1      -7.694  -0.524   2.071  1.00  0.00    -0.297 OA
HETATM   18  C25 UNL     1      -6.593  -0.323  -0.080  1.00  0.00     0.018 C 
HETATM   19  C26 UNL     1      -7.379   0.827  -0.739  1.00  0.00     0.023 C 
HETATM   20  C27 UNL     1      -7.328  -1.626  -0.478  1.00  0.00     0.023 C 
HETATM   21  C28 UNL     1      -5.074  -0.354  -0.516  1.00  0.00     0.020 C 
HETATM   22  C29 UNL     1      -4.443  -1.708  -0.160  1.00  0.00     0.090 C 
HETATM   23  C30 UNL     1      -3.006  -1.772  -0.574  1.00  0.00     0.157 C 
HETATM   24  O5  UNL     1      -2.573  -2.735  -1.200  1.00  0.00    -0.293 OA
ENDROOT
BRANCH   1  25
HETATM   25  C2  UNL     1       2.841   0.717  -0.620  1.00  0.00    -0.014 C 
HETATM   26  C1  UNL     1       2.897   2.098   0.040  1.00  0.00     0.010 C 
BRANCH  25  27
HETATM   27  C3  UNL     1       4.191  -0.029  -0.407  1.00  0.00     0.007 C 
BRANCH  27  28
HETATM   28  C4  UNL     1       5.383   0.632  -1.118  1.00  0.00     0.035 C 
BRANCH  28  29
HETATM   29  C5  UNL     1       6.677  -0.204  -1.155  1.00  0.00     0.154 C 
BRANCH  29  30
HETATM   30  O1  UNL     1       6.418  -1.384  -1.930  1.00  0.00    -0.392 OA
HETATM   31  H10 UNL     1       6.087  -2.043  -1.286  1.00  0.00     0.210 HD
ENDBRANCH  29  30
BRANCH  29  32
HETATM   32  C6  UNL     1       7.300  -0.616   0.207  1.00  0.00     0.101 C 
HETATM   33  C7  UNL     1       8.658  -1.302  -0.018  1.00  0.00     0.051 C 
BRANCH  32  34
HETATM   34  O2  UNL     1       6.452  -1.606   0.824  1.00  0.00    -0.385 OA
HETATM   35  H14 UNL     1       6.786  -1.683   1.742  1.00  0.00     0.210 HD
ENDBRANCH  32  34
BRANCH  32  36
HETATM   36  C8  UNL     1       7.448   0.574   1.175  1.00  0.00     0.204 C 
BRANCH  36  37
HETATM   37  O3  UNL     1       7.951   0.105   2.431  1.00  0.00    -0.398 OA
HETATM   38  H17 UNL     1       8.053   0.885   3.005  1.00  0.00     0.209 HD
ENDBRANCH  36  37
ENDBRANCH  32  36
ENDBRANCH  29  32
ENDBRANCH  28  29
ENDBRANCH  27  28
ENDBRANCH  25  27
ENDBRANCH   1  25
TORSDOF 9
