REMARK  4 active torsions:
REMARK  status: ('A' for Active; 'I' for Inactive)
REMARK    1  A    between atoms: C4_4  and  C5_5 
REMARK    2  A    between atoms: C5_5  and  C6_6 
REMARK    3  A    between atoms: C6_6  and  C7_7 
REMARK    4  A    between atoms: C7_7  and  C9_9 
ROOT
HETATM    1  C9  UNL     1       2.165  -1.442   1.495  1.00  0.00    -0.002 C 
HETATM    2  C10 UNL     1       1.483  -2.392   2.527  1.00  0.00     0.007 C 
HETATM    3  C11 UNL     1      -0.027  -2.092   2.510  1.00  0.00     0.015 C 
HETATM    4  C12 UNL     1      -0.158  -0.771   1.729  1.00  0.00    -0.013 C 
HETATM    5  C13 UNL     1       0.124   0.372   2.757  1.00  0.00     0.021 C 
HETATM    6  C14 UNL     1      -1.510  -0.445   1.100  1.00  0.00    -0.070 C 
HETATM    7  C15 UNL     1      -2.670  -0.824   1.663  1.00  0.00    -0.022 C 
HETATM    8  C16 UNL     1      -4.025  -0.439   1.158  1.00  0.00     0.034 C 
HETATM    9  C17 UNL     1      -4.033   0.232  -0.234  1.00  0.00     0.013 C 
HETATM   10  C18 UNL     1      -5.445   0.809  -0.621  1.00  0.00     0.018 C 
HETATM   11  C19 UNL     1      -6.226   1.448   0.544  1.00  0.00     0.023 C 
HETATM   12  C20 UNL     1      -6.325  -0.328  -1.187  1.00  0.00     0.023 C 
HETATM   13  C21 UNL     1      -5.288   1.840  -1.743  1.00  0.00     0.135 C 
HETATM   14  O1  UNL     1      -6.116   2.726  -1.956  1.00  0.00    -0.297 OA
HETATM   15  C22 UNL     1      -4.101   1.667  -2.648  1.00  0.00     0.080 C 
HETATM   16  C23 UNL     1      -2.797   1.792  -1.876  1.00  0.00     0.017 C 
HETATM   17  C24 UNL     1      -2.816   1.218  -0.422  1.00  0.00    -0.031 C 
HETATM   18  C25 UNL     1      -2.896   2.409   0.563  1.00  0.00     0.016 C 
HETATM   19  C26 UNL     1      -1.490   0.380  -0.189  1.00  0.00     0.024 C 
HETATM   20  C27 UNL     1      -0.174   1.179  -0.356  1.00  0.00     0.010 C 
HETATM   21  C28 UNL     1       1.132   0.378  -0.122  1.00  0.00     0.011 C 
HETATM   22  C29 UNL     1       0.949  -0.958   0.630  1.00  0.00    -0.029 C 
HETATM   23  C30 UNL     1       0.620  -2.080  -0.406  1.00  0.00     0.016 C 
ENDROOT
BRANCH   1  24
HETATM   24  C7  UNL     1       3.387  -2.120   0.807  1.00  0.00    -0.014 C 
HETATM   25  C8  UNL     1       4.384  -2.658   1.850  1.00  0.00     0.010 C 
BRANCH  24  26
HETATM   26  C6  UNL     1       4.131  -1.235  -0.223  1.00  0.00     0.008 C 
BRANCH  26  27
HETATM   27  C5  UNL     1       4.793   0.022   0.348  1.00  0.00     0.028 C 
BRANCH  27  28
HETATM   28  C4  UNL     1       5.617   0.907  -0.558  1.00  0.00    -0.025 C 
HETATM   29  C2  UNL     1       5.805   0.940  -1.893  1.00  0.00    -0.091 C 
HETATM   30  C1  UNL     1       6.743   1.958  -2.495  1.00  0.00     0.042 C 
HETATM   31  C3  UNL     1       5.147   0.040  -2.897  1.00  0.00     0.042 C 
ENDBRANCH  27  28
ENDBRANCH  26  27
ENDBRANCH  24  26
ENDBRANCH   1  24
TORSDOF 4
