REMARK  13 active torsions:
REMARK  status: ('A' for Active; 'I' for Inactive)
REMARK    1  A    between atoms: C2_2  and  C3_3 
REMARK    2  A    between atoms: C3_3  and  C5_5 
REMARK    3  A    between atoms: C5_5  and  N1_6 
REMARK    4  A    between atoms: C5_5  and  C31_39 
REMARK       I    between atoms: N1_6  and  C6_7 
REMARK    5  A    between atoms: C6_7  and  C7_9 
REMARK    6  A    between atoms: C7_9  and  C8_10 
REMARK    7  A    between atoms: C8_10  and  C9_11 
REMARK    8  A    between atoms: C9_11  and  O3_13 
REMARK    9  A    between atoms: O3_13  and  C10_14 
REMARK   10  A    between atoms: C10_14  and  C11_15 
REMARK   11  A    between atoms: C11_15  and  C12_17 
REMARK   12  A    between atoms: C12_17  and  O5_18 
REMARK   13  A    between atoms: C31_39  and  O9_41 
ROOT
HETATM    1  C12 UNL     1      -1.132  -0.489   1.974  1.00  0.00     0.128 C 
HETATM    2  C13 UNL     1      -1.847  -0.303   3.330  1.00  0.00     0.047 C 
HETATM    3  C14 UNL     1      -3.346  -0.129   3.007  1.00  0.00     0.009 C 
HETATM    4  C15 UNL     1      -3.450  -0.363   1.503  1.00  0.00     0.002 C 
HETATM    5  C16 UNL     1      -4.676   0.180   0.755  1.00  0.00     0.003 C 
HETATM    6  C17 UNL     1      -5.976  -0.366   1.364  1.00  0.00     0.010 C 
HETATM    7  C18 UNL     1      -7.199   0.100   0.584  1.00  0.00     0.035 C 
HETATM    8  C19 UNL     1      -7.087  -0.246  -0.883  1.00  0.00    -0.067 C 
HETATM    9  C20 UNL     1      -8.081  -0.928  -1.480  1.00  0.00     0.053 C 
HETATM   10  C21 UNL     1      -8.054  -1.223  -2.930  1.00  0.00     0.149 C 
HETATM   11  O6  UNL     1      -8.865  -2.009  -3.408  1.00  0.00    -0.293 OA
HETATM   12  C22 UNL     1      -7.032  -0.502  -3.763  1.00  0.00     0.084 C 
HETATM   13  C23 UNL     1      -5.710  -0.453  -3.011  1.00  0.00     0.022 C 
HETATM   14  C24 UNL     1      -5.805   0.219  -1.605  1.00  0.00    -0.009 C 
HETATM   15  C25 UNL     1      -5.888   1.752  -1.777  1.00  0.00     0.021 C 
HETATM   16  C26 UNL     1      -4.569  -0.228  -0.744  1.00  0.00     0.072 C 
HETATM   17  C27 UNL     1      -3.187   0.176  -1.298  1.00  0.00     0.133 C 
HETATM   18  O7  UNL     1      -3.032   0.784  -2.356  1.00  0.00    -0.297 OA
HETATM   19  C28 UNL     1      -1.973  -0.287  -0.501  1.00  0.00     0.091 C 
HETATM   20  C29 UNL     1      -2.103   0.174   0.955  1.00  0.00     0.005 C 
HETATM   21  C30 UNL     1      -1.995   1.719   1.004  1.00  0.00     0.019 C 
ENDROOT
BRANCH   1  22
HETATM   22  C11 UNL     1       0.333  -0.028   1.887  1.00  0.00     0.185 C 
HETATM   23  O4  UNL     1       1.065  -0.532   1.023  1.00  0.00    -0.292 OA
BRANCH  22  24
HETATM   24  C10 UNL     1       0.857   0.997   2.889  1.00  0.00     0.260 C 
BRANCH  24  25
HETATM   25  O3  UNL     1       2.229   1.315   2.645  1.00  0.00    -0.314 OA
BRANCH  25  26
HETATM   26  C9  UNL     1       2.430   2.145   1.584  1.00  0.00     0.259 C 
HETATM   27  O2  UNL     1       1.542   2.714   0.966  1.00  0.00    -0.265 OA
BRANCH  26  28
HETATM   28  C8  UNL     1       3.888   2.217   1.240  1.00  0.00     0.120 C 
BRANCH  28  29
HETATM   29  C7  UNL     1       4.249   1.043   0.345  1.00  0.00     0.112 C 
BRANCH  29  30
HETATM   30  C6  UNL     1       5.700   1.088  -0.077  1.00  0.00     0.218 C 
HETATM   31  N1  UNL     1       6.046   0.049  -0.906  1.00  0.00    -0.346 N 
HETATM   32  H11 UNL     1       5.301  -0.486  -1.348  1.00  0.00     0.163 HD
HETATM   33  O1  UNL     1       6.486   1.951   0.301  1.00  0.00    -0.274 OA
BRANCH  31  34
HETATM   34  C5  UNL     1       7.351  -0.027  -1.567  1.00  0.00     0.186 C 
BRANCH  34  35
HETATM   35  C3  UNL     1       8.311  -1.026  -0.875  1.00  0.00     0.014 C 
HETATM   36  C4  UNL     1       7.706  -2.434  -0.771  1.00  0.00     0.012 C 
BRANCH  35  37
HETATM   37  C2  UNL     1       8.753  -0.496   0.506  1.00  0.00     0.002 C 
HETATM   38  C1  UNL     1       9.887  -1.297   1.132  1.00  0.00     0.005 C 
ENDBRANCH  35  37
ENDBRANCH  34  35
BRANCH  34  39
HETATM   39  C31 UNL     1       7.167  -0.398  -3.047  1.00  0.00     0.163 C 
HETATM   40  O8  UNL     1       8.046  -0.488  -3.889  1.00  0.00    -0.648 OA
BRANCH  39  41
HETATM   41  O9  UNL     1       5.883  -0.673  -3.380  1.00  0.00    -0.775 OA
HETATM   42  H43 UNL     1       5.935  -0.884  -4.337  1.00  0.00     0.167 HD
ENDBRANCH  39  41
ENDBRANCH  34  39
ENDBRANCH  31  34
ENDBRANCH  29  30
ENDBRANCH  28  29
ENDBRANCH  26  28
ENDBRANCH  25  26
ENDBRANCH  24  25
ENDBRANCH  22  24
ENDBRANCH   1  22
BRANCH   1  43
HETATM   43  O5  UNL     1      -1.093  -1.910   1.727  1.00  0.00    -0.381 OA
HETATM   44  H18 UNL     1      -0.359  -2.068   1.097  1.00  0.00     0.211 HD
ENDBRANCH   1  43
TORSDOF 13
