REMARK  5 active torsions:
REMARK  status: ('A' for Active; 'I' for Inactive)
REMARK    1  A    between atoms: O1_2  and  C2_3 
REMARK    2  A    between atoms: C2_3  and  C3_4 
REMARK    3  A    between atoms: C3_4  and  C4_5 
REMARK    4  A    between atoms: C7_8  and  C8_9 
REMARK    5  A    between atoms: C12_15  and  N2_16 
ROOT
HETATM    1  C8  UNL     1       0.152  -0.280   0.062  1.00  0.00     0.092 A 
HETATM    2  C9  UNL     1      -0.319  -0.861  -1.107  1.00  0.00     0.036 A 
HETATM    3  C10 UNL     1       0.428  -1.589  -2.160  1.00  0.00     0.070 C 
HETATM    4  N1  UNL     1      -1.674  -0.683  -1.236  1.00  0.00    -0.341 N 
ATOM      5  H1  UNL     1      -2.266  -1.015  -1.997  1.00  0.00     0.167 HD
HETATM    6  C11 UNL     1      -2.056   0.006  -0.174  1.00  0.00     0.154 A 
HETATM    7  C12 UNL     1      -3.360   0.474   0.230  1.00  0.00     0.078 A 
HETATM    8  C17 UNL     1      -3.410   1.129   1.406  1.00  0.00     0.052 A 
HETATM    9  C18 UNL     1      -2.171   1.331   2.180  1.00  0.00     0.110 A 
HETATM   10  N3  UNL     1      -0.988   0.938   1.848  1.00  0.00    -0.303 N 
ATOM     11  H3  UNL     1      -0.156   1.105   2.414  1.00  0.00     0.186 HD
HETATM   12  N4  UNL     1      -0.972   0.272   0.653  1.00  0.00    -0.235 N 
ENDROOT
BRANCH   1  13
HETATM   13  C7  UNL     1       1.499  -0.230   0.627  1.00  0.00     0.010 A 
HETATM   14  C6  UNL     1       2.070   0.963   1.068  1.00  0.00     0.017 A 
HETATM   15  C5  UNL     1       3.368   0.969   1.580  1.00  0.00     0.026 A 
HETATM   16  C4  UNL     1       4.083  -0.225   1.631  1.00  0.00     0.011 A 
HETATM   17  N5  UNL     1       3.545  -1.401   1.229  1.00  0.00    -0.368 N 
HETATM   18  C19 UNL     1       2.281  -1.374   0.736  1.00  0.00     0.102 A 
ATOM     19  H5  UNL     1       4.070  -2.273   1.294  1.00  0.00     0.165 HD
BRANCH  16  20
HETATM   20  C3  UNL     1       5.483  -0.273   2.196  1.00  0.00     0.083 C 
BRANCH  20  21
HETATM   21  C2  UNL     1       6.489   0.607   1.453  1.00  0.00     0.173 C 
BRANCH  21  22
HETATM   22  O1  UNL     1       6.782   0.052   0.171  1.00  0.00    -0.396 OA
HETATM   23  C1  UNL     1       7.708   0.848  -0.554  1.00  0.00     0.201 C 
ENDBRANCH  21  22
ENDBRANCH  20  21
ENDBRANCH  16  20
ENDBRANCH   1  13
BRANCH   7  24
HETATM   24  N2  UNL     1      -4.512   0.269  -0.558  1.00  0.00    -0.374 N 
HETATM   25  C13 UNL     1      -4.432  -0.156  -1.978  1.00  0.00     0.149 C 
HETATM   26  C14 UNL     1      -5.722   0.213  -2.728  1.00  0.00     0.187 C 
HETATM   27  O2  UNL     1      -6.911  -0.378  -2.184  1.00  0.00    -0.388 OA
HETATM   28  C15 UNL     1      -6.795  -0.682  -0.789  1.00  0.00     0.187 C 
HETATM   29  C16 UNL     1      -5.890   0.294  -0.022  1.00  0.00     0.149 C 
ENDBRANCH   7  24
TORSDOF 5
