REMARK  13 active torsions:
REMARK  status: ('A' for Active; 'I' for Inactive)
REMARK    1  A    between atoms: O1_2  and  C2_3 
REMARK    2  A    between atoms: C2_3  and  C3_5 
REMARK    3  A    between atoms: C3_5  and  C4_6 
REMARK    4  A    between atoms: C3_5  and  N3_13 
REMARK    5  A    between atoms: C4_6  and  C5_7 
REMARK       I    between atoms: N3_13  and  C8_14 
REMARK    6  A    between atoms: C8_14  and  C9_16 
REMARK    7  A    between atoms: C9_16  and  O4_17 
REMARK    8  A    between atoms: O4_17  and  N4_18 
REMARK    9  A    between atoms: C17_27  and  O5_28 
REMARK   10  A    between atoms: C24_35  and  O6_36 
REMARK   11  A    between atoms: C24_35  and  C25_37 
REMARK   12  A    between atoms: C25_37  and  C26_39 
REMARK   13  A    between atoms: C26_39  and  O8_40 
ROOT
HETATM    1  N4  UNL     1       2.688  -1.848  -1.567  1.00  0.00    -0.271 N 
ATOM      2  H4  UNL     1       2.752  -2.866  -1.537  1.00  0.00     0.194 HD
HETATM    3  C10 UNL     1       1.567  -1.185  -1.589  1.00  0.00     0.032 C 
HETATM    4  C11 UNL     1       0.307  -1.973  -1.632  1.00  0.00     0.030 C 
HETATM    5  C12 UNL     1      -0.900  -1.387  -1.722  1.00  0.00    -0.069 C 
HETATM    6  C13 UNL     1      -2.118  -2.242  -1.978  1.00  0.00     0.035 C 
HETATM    7  C14 UNL     1      -3.344  -1.838  -1.159  1.00  0.00     0.010 C 
HETATM    8  C15 UNL     1      -3.637  -0.330  -1.303  1.00  0.00    -0.002 C 
HETATM    9  C16 UNL     1      -2.409   0.492  -0.829  1.00  0.00     0.031 C 
HETATM   10  C17 UNL     1      -2.244   0.347   0.709  1.00  0.00     0.124 C 
HETATM   11  C18 UNL     1      -3.541   0.094   1.496  1.00  0.00     0.045 C 
HETATM   12  C19 UNL     1      -4.851   0.626   0.852  1.00  0.00     0.001 C 
HETATM   13  C20 UNL     1      -4.859   2.165   0.987  1.00  0.00     0.019 C 
HETATM   14  C21 UNL     1      -4.944   0.209  -0.652  1.00  0.00     0.002 C 
HETATM   15  C22 UNL     1      -6.152  -0.732  -0.782  1.00  0.00     0.009 C 
HETATM   16  C23 UNL     1      -6.452  -1.209   0.627  1.00  0.00     0.047 C 
HETATM   17  C24 UNL     1      -6.118  -0.017   1.524  1.00  0.00     0.128 C 
HETATM   18  C27 UNL     1      -1.104   0.127  -1.660  1.00  0.00    -0.014 C 
HETATM   19  C28 UNL     1      -1.266   0.649  -3.114  1.00  0.00     0.020 C 
HETATM   20  C29 UNL     1       0.157   0.802  -1.049  1.00  0.00     0.020 C 
HETATM   21  C30 UNL     1       1.470   0.326  -1.659  1.00  0.00     0.060 C 
ENDROOT
BRANCH   1  22
HETATM   22  O4  UNL     1       3.795  -0.989  -1.590  1.00  0.00    -0.271 OA
BRANCH  22  23
HETATM   23  C9  UNL     1       4.963  -1.744  -1.892  1.00  0.00     0.303 C 
BRANCH  23  24
HETATM   24  C8  UNL     1       6.139  -1.078  -1.196  1.00  0.00     0.244 C 
HETATM   25  N3  UNL     1       6.029  -1.053   0.174  1.00  0.00    -0.345 N 
HETATM   26  H10 UNL     1       5.155  -1.367   0.589  1.00  0.00     0.163 HD
HETATM   27  O3  UNL     1       7.109  -0.627  -1.805  1.00  0.00    -0.271 OA
BRANCH  25  28
HETATM   28  C3  UNL     1       7.049  -0.508   1.079  1.00  0.00     0.190 C 
BRANCH  28  29
HETATM   29  C2  UNL     1       6.805  -0.982   2.522  1.00  0.00     0.281 C 
HETATM   30  O2  UNL     1       7.583  -0.793   3.451  1.00  0.00    -0.263 OA
BRANCH  29  31
HETATM   31  O1  UNL     1       5.596  -1.608   2.646  1.00  0.00    -0.325 OA
HETATM   32  C1  UNL     1       5.301  -2.054   3.972  1.00  0.00     0.213 C 
ENDBRANCH  29  31
ENDBRANCH  28  29
BRANCH  28  33
HETATM   33  C4  UNL     1       7.068   1.034   1.062  1.00  0.00     0.093 C 
BRANCH  33  34
HETATM   34  C5  UNL     1       8.297   1.602   0.434  1.00  0.00     0.028 A 
HETATM   35  C6  UNL     1       9.311   2.385   0.946  1.00  0.00     0.114 A 
HETATM   36  N1  UNL     1      10.238   2.677  -0.018  1.00  0.00    -0.360 N 
HETATM   37  C7  UNL     1       9.811   2.076  -1.105  1.00  0.00     0.180 A 
ATOM     38  H1  UNL     1      11.081   3.241   0.086  1.00  0.00     0.166 HD
HETATM   39  N2  UNL     1       8.639   1.412  -0.882  1.00  0.00    -0.354 N 
HETATM   40  H9  UNL     1       8.139   0.840  -1.560  1.00  0.00     0.166 HD
ENDBRANCH  33  34
ENDBRANCH  28  33
ENDBRANCH  25  28
ENDBRANCH  23  24
ENDBRANCH  22  23
ENDBRANCH   1  22
BRANCH  10  41
HETATM   41  O5  UNL     1      -1.590   1.499   1.247  1.00  0.00    -0.395 OA
HETATM   42  H21 UNL     1      -2.182   2.264   1.188  1.00  0.00     0.210 HD
ENDBRANCH  10  41
BRANCH  17  43
HETATM   43  O6  UNL     1      -5.780  -0.549   2.818  1.00  0.00    -0.381 OA
HETATM   44  H32 UNL     1      -6.262  -0.015   3.488  1.00  0.00     0.211 HD
ENDBRANCH  17  43
BRANCH  17  45
HETATM   45  C25 UNL     1      -7.333   0.914   1.774  1.00  0.00     0.184 C 
HETATM   46  O7  UNL     1      -7.579   1.310   2.924  1.00  0.00    -0.292 OA
BRANCH  45  47
HETATM   47  C26 UNL     1      -8.239   1.326   0.623  1.00  0.00     0.245 C 
BRANCH  47  48
HETATM   48  O8  UNL     1      -9.139   2.353   1.013  1.00  0.00    -0.393 OA
HETATM   49  H35 UNL     1      -9.158   2.357   1.994  1.00  0.00     0.209 HD
ENDBRANCH  47  48
ENDBRANCH  45  47
ENDBRANCH  17  45
TORSDOF 13
