REMARK  6 active torsions:
REMARK  status: ('A' for Active; 'I' for Inactive)
REMARK    1  A    between atoms: C2_2  and  C30_32 
REMARK    2  A    between atoms: C3_3  and  C4_4 
REMARK    3  A    between atoms: C4_4  and  C5_5 
REMARK    4  A    between atoms: C5_5  and  C6_6 
REMARK    5  A    between atoms: C6_6  and  C8_8 
REMARK    6  A    between atoms: C30_32  and  O4_34 
ROOT
HETATM    1  C8  UNL     1       2.026   1.565   0.585  1.00  0.00    -0.002 C 
HETATM    2  C9  UNL     1       1.466   2.884   1.189  1.00  0.00     0.007 C 
HETATM    3  C10 UNL     1      -0.050   2.904   0.906  1.00  0.00     0.015 C 
HETATM    4  C11 UNL     1      -0.265   1.833  -0.180  1.00  0.00    -0.005 C 
HETATM    5  C12 UNL     1       0.092   2.488  -1.552  1.00  0.00     0.021 C 
HETATM    6  C13 UNL     1      -1.641   1.221  -0.393  1.00  0.00    -0.000 C 
HETATM    7  C14 UNL     1      -1.781  -0.053  -0.853  1.00  0.00    -0.060 C 
HETATM    8  C15 UNL     1      -0.561  -0.940  -1.096  1.00  0.00     0.036 C 
HETATM    9  C16 UNL     1       0.828  -0.345  -0.778  1.00  0.00     0.015 C 
HETATM   10  C17 UNL     1       0.743   0.722   0.323  1.00  0.00    -0.028 C 
HETATM   11  C18 UNL     1       0.279   0.030   1.640  1.00  0.00     0.016 C 
HETATM   12  C19 UNL     1      -3.177  -0.633  -1.187  1.00  0.00    -0.014 C 
HETATM   13  C20 UNL     1      -3.485  -0.137  -2.624  1.00  0.00     0.020 C 
HETATM   14  C21 UNL     1      -3.285  -2.189  -1.217  1.00  0.00     0.021 C 
HETATM   15  C22 UNL     1      -3.734  -2.787   0.107  1.00  0.00     0.080 C 
HETATM   16  C23 UNL     1      -5.142  -2.314   0.412  1.00  0.00     0.135 C 
HETATM   17  O1  UNL     1      -5.974  -3.095   0.876  1.00  0.00    -0.297 OA
HETATM   18  C24 UNL     1      -5.473  -0.835   0.132  1.00  0.00     0.018 C 
HETATM   19  C25 UNL     1      -6.427  -0.776  -1.066  1.00  0.00     0.023 C 
HETATM   20  C26 UNL     1      -6.217  -0.290   1.370  1.00  0.00     0.023 C 
HETATM   21  C27 UNL     1      -4.126  -0.070  -0.070  1.00  0.00     0.020 C 
HETATM   22  C28 UNL     1      -4.230   1.452  -0.184  1.00  0.00     0.090 C 
HETATM   23  C29 UNL     1      -2.853   2.090  -0.197  1.00  0.00     0.157 C 
HETATM   24  O2  UNL     1      -2.744   3.309  -0.069  1.00  0.00    -0.293 OA
ENDROOT
BRANCH   1  25
HETATM   25  C6  UNL     1       3.276   1.013   1.334  1.00  0.00    -0.014 C 
HETATM   26  C7  UNL     1       3.117   0.715   2.830  1.00  0.00     0.010 C 
BRANCH  25  27
HETATM   27  C5  UNL     1       3.885  -0.203   0.599  1.00  0.00     0.008 C 
BRANCH  27  28
HETATM   28  C4  UNL     1       5.332  -0.498   1.011  1.00  0.00     0.028 C 
BRANCH  28  29
HETATM   29  C3  UNL     1       5.901  -1.641   0.214  1.00  0.00    -0.013 C 
HETATM   30  C2  UNL     1       6.781  -1.595  -0.805  1.00  0.00     0.008 C 
HETATM   31  C1  UNL     1       7.321  -2.847  -1.437  1.00  0.00     0.055 C 
BRANCH  30  32
HETATM   32  C30 UNL     1       7.324  -0.352  -1.399  1.00  0.00     0.171 C 
HETATM   33  O3  UNL     1       8.435  -0.234  -1.888  1.00  0.00    -0.646 OA
BRANCH  32  34
HETATM   34  O4  UNL     1       6.434   0.651  -1.450  1.00  0.00    -0.773 OA
HETATM   35  H44 UNL     1       6.924   1.369  -1.899  1.00  0.00     0.167 HD
ENDBRANCH  32  34
ENDBRANCH  30  32
ENDBRANCH  28  29
ENDBRANCH  27  28
ENDBRANCH  25  27
ENDBRANCH   1  25
TORSDOF 6
