REMARK  8 active torsions:
REMARK  status: ('A' for Active; 'I' for Inactive)
REMARK    1  A    between atoms: C2_2  and  C3_3 
REMARK    2  A    between atoms: C2_2  and  C27_30 
REMARK    3  A    between atoms: C3_3  and  C4_4 
REMARK    4  A    between atoms: C4_4  and  C5_5 
REMARK    5  A    between atoms: C5_5  and  C7_7 
REMARK    6  A    between atoms: C26_28  and  O3_29 
REMARK    7  A    between atoms: C27_30  and  C29_32 
REMARK    8  A    between atoms: C29_32  and  O5_34 
ROOT
HETATM    1  C7  UNL     1       1.919   1.045   1.018  1.00  0.00    -0.002 C 
HETATM    2  C8  UNL     1       1.576   0.959   2.532  1.00  0.00     0.006 C 
HETATM    3  C9  UNL     1       0.111   0.508   2.624  1.00  0.00     0.010 C 
HETATM    4  C10 UNL     1      -0.239   0.079   1.198  1.00  0.00     0.027 C 
HETATM    5  C11 UNL     1      -1.677  -0.120   0.777  1.00  0.00    -0.036 C 
HETATM    6  C12 UNL     1      -2.045  -0.005  -0.524  1.00  0.00     0.002 C 
HETATM    7  C13 UNL     1      -0.989   0.387  -1.545  1.00  0.00     0.157 C 
HETATM    8  O1  UNL     1      -1.274   0.515  -2.735  1.00  0.00    -0.293 OA
HETATM    9  C14 UNL     1       0.450   0.601  -1.100  1.00  0.00     0.093 C 
HETATM   10  C15 UNL     1       0.521   1.120   0.335  1.00  0.00    -0.026 C 
HETATM   11  C16 UNL     1      -0.100   2.535   0.404  1.00  0.00     0.016 C 
HETATM   12  C17 UNL     1      -3.490  -0.236  -1.023  1.00  0.00    -0.008 C 
HETATM   13  C18 UNL     1      -4.077   1.170  -1.325  1.00  0.00     0.021 C 
HETATM   14  C19 UNL     1      -3.544  -1.103  -2.323  1.00  0.00     0.022 C 
HETATM   15  C20 UNL     1      -4.776  -1.995  -2.479  1.00  0.00     0.080 C 
HETATM   16  C21 UNL     1      -5.985  -1.421  -1.787  1.00  0.00     0.131 C 
HETATM   17  O2  UNL     1      -7.063  -1.301  -2.370  1.00  0.00    -0.298 OA
HETATM   18  C22 UNL     1      -5.836  -1.074  -0.313  1.00  0.00     0.056 C 
HETATM   19  C23 UNL     1      -6.596  -2.116   0.507  1.00  0.00     0.018 C 
HETATM   20  C24 UNL     1      -4.337  -0.992   0.063  1.00  0.00     0.012 C 
HETATM   21  C25 UNL     1      -4.121  -0.383   1.455  1.00  0.00     0.042 C 
HETATM   22  C26 UNL     1      -2.653  -0.498   1.864  1.00  0.00     0.148 C 
ENDROOT
BRANCH   1  23
HETATM   23  C5  UNL     1       3.076   2.036   0.711  1.00  0.00    -0.014 C 
HETATM   24  C6  UNL     1       2.829   3.505   1.083  1.00  0.00     0.010 C 
BRANCH  23  25
HETATM   25  C4  UNL     1       3.605   1.990  -0.743  1.00  0.00     0.009 C 
BRANCH  25  26
HETATM   26  C3  UNL     1       4.115   0.629  -1.249  1.00  0.00     0.034 C 
BRANCH  26  27
HETATM   27  C2  UNL     1       5.344   0.001  -0.599  1.00  0.00    -0.075 C 
HETATM   28  C1  UNL     1       6.199   0.690   0.180  1.00  0.00     0.015 C 
BRANCH  27  29
HETATM   29  C27 UNL     1       5.546  -1.477  -0.964  1.00  0.00     0.107 C 
HETATM   30  C28 UNL     1       6.954  -2.031  -0.727  1.00  0.00     0.026 C 
BRANCH  29  31
HETATM   31  C29 UNL     1       4.541  -2.367  -0.233  1.00  0.00     0.147 C 
HETATM   32  O4  UNL     1       3.854  -2.093   0.738  1.00  0.00    -0.650 OA
BRANCH  31  33
HETATM   33  O5  UNL     1       4.449  -3.596  -0.790  1.00  0.00    -0.776 OA
HETATM   34  H42 UNL     1       3.789  -4.059  -0.233  1.00  0.00     0.167 HD
ENDBRANCH  31  33
ENDBRANCH  29  31
ENDBRANCH  27  29
ENDBRANCH  26  27
ENDBRANCH  25  26
ENDBRANCH  23  25
ENDBRANCH   1  23
BRANCH  22  35
HETATM   35  O3  UNL     1      -2.405  -1.854   2.225  1.00  0.00    -0.391 OA
HETATM   36  H37 UNL     1      -1.500  -1.910   2.575  1.00  0.00     0.210 HD
ENDBRANCH  22  35
TORSDOF 8
