REMARK  10 active torsions:
REMARK  status: ('A' for Active; 'I' for Inactive)
REMARK    1  A    between atoms: O1_2  and  C2_3 
REMARK    2  A    between atoms: C2_3  and  C3_4 
REMARK    3  A    between atoms: C3_4  and  C4_5 
REMARK    4  A    between atoms: C4_5  and  O2_6 
REMARK    5  A    between atoms: O2_6  and  C5_7 
REMARK    6  A    between atoms: C29_35  and  O6_36 
REMARK    7  A    between atoms: C30_38  and  O7_39 
REMARK    8  A    between atoms: C31_40  and  O8_42 
REMARK    9  A    between atoms: C38_48  and  O9_49 
REMARK   10  A    between atoms: C39_50  and  C40_51 
ROOT
HETATM    1  C5  UNL     1       4.863   1.014  -1.768  1.00  0.00     0.122 C 
HETATM    2  C6  UNL     1       3.940   0.461  -2.865  1.00  0.00     0.033 C 
HETATM    3  C7  UNL     1       2.490   0.312  -2.409  1.00  0.00     0.014 C 
HETATM    4  C8  UNL     1       2.335  -0.643  -1.174  1.00  0.00    -0.010 C 
HETATM    5  C9  UNL     1       2.415  -2.088  -1.746  1.00  0.00     0.018 C 
HETATM    6  C10 UNL     1       3.579  -0.537  -0.226  1.00  0.00     0.073 C 
HETATM    7  C11 UNL     1       4.309   0.806  -0.351  1.00  0.00     0.045 C 
HETATM    8  C12 UNL     1       3.353  -0.914   1.239  1.00  0.00     0.161 C 
HETATM    9  O3  UNL     1       4.288  -0.901   2.042  1.00  0.00    -0.292 OA
HETATM   10  C13 UNL     1       2.001  -1.320   1.724  1.00  0.00    -0.005 C 
HETATM   11  C14 UNL     1       0.920  -1.070   0.954  1.00  0.00    -0.013 C 
HETATM   12  C15 UNL     1       0.957  -0.344  -0.393  1.00  0.00     0.058 C 
HETATM   13  C16 UNL     1       0.923   1.130  -0.070  1.00  0.00    -0.091 C 
HETATM   14  C17 UNL     1       0.970   2.327   0.049  1.00  0.00    -0.104 C 
HETATM   15  C18 UNL     1       1.205   3.776   0.013  1.00  0.00     0.115 C 
HETATM   16  C19 UNL     1       0.058   4.421   0.713  1.00  0.00     0.090 A 
HETATM   17  C20 UNL     1      -0.283   5.837   0.375  1.00  0.00     0.120 A 
HETATM   18  N1  UNL     1      -1.206   4.765   0.127  1.00  0.00    -0.243 NA
HETATM   19  C21 UNL     1      -1.588   4.427  -1.177  1.00  0.00     0.233 C 
HETATM   20  O4  UNL     1      -0.838   4.464  -2.150  1.00  0.00    -0.277 OA
HETATM   21  C22 UNL     1      -3.118   4.159  -1.257  1.00  0.00     0.309 C 
HETATM   22  C23 UNL     1      -3.639   3.446   0.008  1.00  0.00     0.053 C 
HETATM   23  C24 UNL     1      -4.990   2.768  -0.253  1.00  0.00     0.028 C 
HETATM   24  C25 UNL     1      -5.486   1.977   0.952  1.00  0.00     0.020 C 
HETATM   25  C26 UNL     1      -7.011   1.869   0.917  1.00  0.00     0.013 C 
HETATM   26  C27 UNL     1      -4.714   0.663   0.761  1.00  0.00     0.158 C 
HETATM   27  O5  UNL     1      -4.695   0.426  -0.661  1.00  0.00    -0.373 OA
HETATM   28  C28 UNL     1      -4.836   1.698  -1.344  1.00  0.00     0.185 C 
HETATM   29  C29 UNL     1      -3.626   2.008  -2.275  1.00  0.00     0.384 C 
HETATM   30  N2  UNL     1      -3.474   3.438  -2.508  1.00  0.00     0.128 N 
HETATM   31  C30 UNL     1      -5.184  -0.561   1.586  1.00  0.00     0.181 C 
HETATM   32  C31 UNL     1      -4.275  -1.872   1.505  1.00  0.00     0.087 C 
HETATM   33  C32 UNL     1      -4.892  -2.879   2.503  1.00  0.00     0.049 C 
HETATM   34  C33 UNL     1      -2.758  -1.600   1.798  1.00  0.00     0.035 C 
HETATM   35  C34 UNL     1      -2.060  -2.110   3.127  1.00  0.00     0.016 C 
HETATM   36  C35 UNL     1      -0.542  -2.177   2.787  1.00  0.00     0.026 C 
HETATM   37  C36 UNL     1       0.501  -1.783   3.816  1.00  0.00     0.013 C 
HETATM   38  C37 UNL     1       1.906  -1.856   3.152  1.00  0.00     0.043 C 
HETATM   39  C38 UNL     1      -0.429  -1.271   1.567  1.00  0.00     0.096 C 
HETATM   40  C39 UNL     1      -1.615  -1.793   0.692  1.00  0.00     0.005 C 
HETATM   41  C46 UNL     1      -1.670  -0.791  -0.495  1.00  0.00     0.016 C 
HETATM   42  C47 UNL     1      -0.330  -0.622  -1.266  1.00  0.00     0.029 C 
HETATM   43  H38 UNL     1      -4.372   3.800  -2.831  1.00  0.00     0.320 HD
ENDROOT
BRANCH   1  44
HETATM   44  O2  UNL     1       6.103   0.305  -1.906  1.00  0.00    -0.386 OA
BRANCH  44  45
HETATM   45  C4  UNL     1       7.272   1.122  -1.882  1.00  0.00     0.170 C 
BRANCH  45  46
HETATM   46  C3  UNL     1       7.672   1.483  -0.457  1.00  0.00     0.052 C 
BRANCH  46  47
HETATM   47  C2  UNL     1       9.078   2.064  -0.383  1.00  0.00     0.169 C 
BRANCH  47  48
HETATM   48  O1  UNL     1       9.101   3.361  -0.981  1.00  0.00    -0.396 OA
HETATM   49  C1  UNL     1       9.979   3.438  -2.096  1.00  0.00     0.201 C 
ENDBRANCH  47  48
ENDBRANCH  46  47
ENDBRANCH  45  46
ENDBRANCH  44  45
ENDBRANCH   1  44
BRANCH  39  50
HETATM   50  O9  UNL     1      -0.752   0.073   2.051  1.00  0.00    -0.384 OA
HETATM   51  H53 UNL     1       0.068   0.516   2.332  1.00  0.00     0.211 HD
ENDBRANCH  39  50
BRANCH  40  52
HETATM   52  C40 UNL     1      -1.520  -3.323   0.111  1.00  0.00    -0.002 C 
HETATM   53  C41 UNL     1      -2.198  -4.474   0.901  1.00  0.00     0.005 C 
HETATM   54  C42 UNL     1      -2.135  -5.834   0.194  1.00  0.00     0.000 C 
HETATM   55  C43 UNL     1      -0.710  -6.238  -0.139  1.00  0.00     0.000 C 
HETATM   56  C44 UNL     1      -0.046  -5.148  -0.959  1.00  0.00     0.000 C 
HETATM   57  C45 UNL     1      -0.101  -3.805  -0.235  1.00  0.00     0.005 C 
ENDBRANCH  40  52
BRANCH  32  58
HETATM   58  O8  UNL     1      -4.415  -2.422   0.193  1.00  0.00    -0.387 OA
HETATM   59  H44 UNL     1      -4.994  -1.811  -0.315  1.00  0.00     0.210 HD
ENDBRANCH  32  58
BRANCH  31  60
HETATM   60  O7  UNL     1      -6.513  -0.905   1.147  1.00  0.00    -0.390 OA
HETATM   61  H40 UNL     1      -6.905  -1.513   1.796  1.00  0.00     0.210 HD
ENDBRANCH  31  60
BRANCH  29  62
HETATM   62  O6  UNL     1      -3.822   1.406  -3.537  1.00  0.00    -0.366 OA
HETATM   63  H37 UNL     1      -3.757   2.153  -4.163  1.00  0.00     0.212 HD
ENDBRANCH  29  62
TORSDOF 10
