REMARK  12 active torsions:
REMARK  status: ('A' for Active; 'I' for Inactive)
REMARK    1  A    between atoms: C2_2  and  O2_4 
REMARK    2  A    between atoms: O2_4  and  C3_5 
REMARK    3  A    between atoms: C4_6  and  O3_7 
REMARK    4  A    between atoms: O3_7  and  C5_8 
REMARK    5  A    between atoms: C16_19  and  O4_20 
REMARK    6  A    between atoms: C19_23  and  C20_24 
REMARK    7  A    between atoms: C24_28  and  C25_29 
REMARK    8  A    between atoms: C25_29  and  O5_32 
REMARK    9  A    between atoms: C35_42  and  C36_43 
REMARK   10  A    between atoms: C36_43  and  O8_44 
REMARK   11  A    between atoms: C37_45  and  O9_46 
REMARK   12  A    between atoms: C38_47  and  O10_48 
ROOT
HETATM    1  C5  UNL     1      -3.579  -0.216  -0.371  1.00  0.00     0.133 C 
HETATM    2  C6  UNL     1      -2.753   0.923  -0.985  1.00  0.00     0.034 C 
HETATM    3  C7  UNL     1      -1.853   1.637   0.014  1.00  0.00     0.012 C 
HETATM    4  C8  UNL     1      -0.758   0.706   0.634  1.00  0.00    -0.033 C 
HETATM    5  C9  UNL     1      -0.453   1.260   2.060  1.00  0.00     0.016 C 
HETATM    6  C10 UNL     1      -1.339  -0.770   0.780  1.00  0.00     0.004 C 
HETATM    7  C11 UNL     1      -0.847  -1.801  -0.268  1.00  0.00     0.007 C 
HETATM    8  C12 UNL     1       0.459  -1.570  -1.006  1.00  0.00     0.011 C 
HETATM    9  C13 UNL     1       1.405  -0.524  -0.399  1.00  0.00    -0.030 C 
HETATM   10  C14 UNL     1       1.891  -1.050   0.979  1.00  0.00     0.016 C 
HETATM   11  C15 UNL     1       0.576   0.810  -0.264  1.00  0.00     0.032 C 
HETATM   12  C16 UNL     1       1.504   2.036   0.055  1.00  0.00     0.124 C 
HETATM   13  C17 UNL     1       2.739   2.161  -0.856  1.00  0.00     0.038 C 
HETATM   14  C18 UNL     1       3.534   0.865  -0.838  1.00  0.00     0.004 C 
HETATM   15  C19 UNL     1       4.861   0.786  -1.640  1.00  0.00     0.025 C 
HETATM   16  C28 UNL     1       4.942  -0.721  -2.028  1.00  0.00     0.009 C 
HETATM   17  C29 UNL     1       3.694  -1.404  -1.456  1.00  0.00     0.011 C 
HETATM   18  C30 UNL     1       2.645  -0.282  -1.383  1.00  0.00    -0.032 C 
HETATM   19  C31 UNL     1       2.182  -0.008  -2.855  1.00  0.00     0.016 C 
HETATM   20  C32 UNL     1      -2.926  -0.845   0.902  1.00  0.00    -0.017 C 
HETATM   21  C33 UNL     1      -3.436  -0.183   2.208  1.00  0.00     0.018 C 
HETATM   22  C34 UNL     1      -3.396  -2.323   1.039  1.00  0.00     0.018 C 
ENDROOT
BRANCH   1  23
HETATM   23  O3  UNL     1      -4.892   0.277  -0.062  1.00  0.00    -0.352 OA
BRANCH  23  24
HETATM   24  C4  UNL     1      -5.944  -0.522  -0.602  1.00  0.00     0.293 C 
HETATM   25  C3  UNL     1      -7.163  -0.527   0.346  1.00  0.00     0.218 C 
HETATM   26  C38 UNL     1      -8.101   0.676   0.141  1.00  0.00     0.183 C 
HETATM   27  C37 UNL     1      -8.334   0.953  -1.348  1.00  0.00     0.180 C 
HETATM   28  C35 UNL     1      -7.005   1.062  -2.109  1.00  0.00     0.179 C 
HETATM   29  O7  UNL     1      -6.252  -0.155  -1.950  1.00  0.00    -0.348 OA
BRANCH  25  30
HETATM   30  O2  UNL     1      -7.894  -1.754   0.081  1.00  0.00    -0.309 OA
BRANCH  30  31
HETATM   31  C2  UNL     1      -8.549  -2.283   1.151  1.00  0.00     0.255 C 
HETATM   32  C1  UNL     1      -9.242  -3.551   0.760  1.00  0.00     0.126 C 
HETATM   33  O1  UNL     1      -8.585  -1.789   2.270  1.00  0.00    -0.266 OA
ENDBRANCH  30  31
ENDBRANCH  25  30
BRANCH  26  34
HETATM   34  O10 UNL     1      -7.606   1.857   0.782  1.00  0.00    -0.390 OA
HETATM   35  H64 UNL     1      -7.588   1.679   1.742  1.00  0.00     0.210 HD
ENDBRANCH  26  34
BRANCH  27  36
HETATM   36  O9  UNL     1      -9.115  -0.114  -1.913  1.00  0.00    -0.390 OA
HETATM   37  H62 UNL     1      -8.491  -0.825  -2.152  1.00  0.00     0.210 HD
ENDBRANCH  27  36
BRANCH  28  38
HETATM   38  C36 UNL     1      -6.196   2.335  -1.812  1.00  0.00     0.198 C 
BRANCH  38  39
HETATM   39  O8  UNL     1      -6.992   3.509  -1.935  1.00  0.00    -0.398 OA
HETATM   40  H60 UNL     1      -7.385   3.663  -1.054  1.00  0.00     0.209 HD
ENDBRANCH  38  39
ENDBRANCH  28  38
ENDBRANCH  23  24
ENDBRANCH   1  23
BRANCH  12  41
HETATM   41  O4  UNL     1       0.778   3.257  -0.058  1.00  0.00    -0.395 OA
HETATM   42  H24 UNL     1       1.378   3.983   0.177  1.00  0.00     0.210 HD
ENDBRANCH  12  41
BRANCH  15  43
HETATM   43  C20 UNL     1       6.135   1.271  -0.882  1.00  0.00     0.062 C 
HETATM   44  C21 UNL     1       6.001   2.729  -0.413  1.00  0.00     0.046 C 
HETATM   45  C22 UNL     1       7.414   1.105  -1.706  1.00  0.00     0.041 C 
HETATM   46  C23 UNL     1       8.487   0.924  -0.655  1.00  0.00     0.038 C 
HETATM   47  C24 UNL     1       7.757   0.265   0.513  1.00  0.00     0.156 C 
HETATM   48  O6  UNL     1       6.341   0.462   0.291  1.00  0.00    -0.372 OA
BRANCH  47  49
HETATM   49  C25 UNL     1       8.078  -1.244   0.719  1.00  0.00     0.076 C 
HETATM   50  C26 UNL     1       7.054  -1.905   1.649  1.00  0.00     0.048 C 
HETATM   51  C27 UNL     1       9.490  -1.425   1.289  1.00  0.00     0.048 C 
BRANCH  49  52
HETATM   52  O5  UNL     1       8.036  -1.928  -0.541  1.00  0.00    -0.388 OA
HETATM   53  H43 UNL     1       8.113  -2.881  -0.365  1.00  0.00     0.210 HD
ENDBRANCH  49  52
ENDBRANCH  47  49
ENDBRANCH  15  43
TORSDOF 12
