REMARK  9 active torsions:
REMARK  status: ('A' for Active; 'I' for Inactive)
REMARK    1  A    between atoms: C13_13  and  S1_14 
REMARK    2  A    between atoms: C22_26  and  C23_27 
REMARK    3  A    between atoms: C23_27  and  O4_28 
REMARK    4  A    between atoms: C29_34  and  O5_35 
REMARK    5  A    between atoms: C41_48  and  C42_49 
REMARK    6  A    between atoms: C41_48  and  N1_57 
REMARK    7  A    between atoms: C42_49  and  C43_50 
REMARK    8  A    between atoms: C43_50  and  C44_51 
REMARK    9  A    between atoms: C44_51  and  O7_52 
REMARK       I    between atoms: C49_59  and  N2_60 
REMARK       I    between atoms: C49_59  and  N3_61 
ROOT
HETATM    1  C1  UNL     1       0.539   6.739   1.280  1.00  0.00     0.010 C 
HETATM    2  C2  UNL     1      -0.524   5.803   0.711  1.00  0.00    -0.010 C 
HETATM    3  C3  UNL     1      -1.754   5.843   1.665  1.00  0.00     0.009 C 
HETATM    4  C4  UNL     1      -2.499   4.516   1.825  1.00  0.00     0.039 C 
HETATM    5  C5  UNL     1      -2.522   3.750   0.534  1.00  0.00    -0.049 C 
HETATM    6  C6  UNL     1      -3.641   3.002   0.165  1.00  0.00     0.044 C 
HETATM    7  C7  UNL     1      -3.587   2.226  -0.987  1.00  0.00     0.072 C 
HETATM    8  C8  UNL     1      -2.542   2.388  -1.891  1.00  0.00     0.037 C 
HETATM    9  C9  UNL     1      -1.408   3.113  -1.508  1.00  0.00     0.011 C 
HETATM   10  C10 UNL     1      -1.342   3.710  -0.245  1.00  0.00    -0.047 C 
HETATM   11  C11 UNL     1      -0.086   4.331   0.403  1.00  0.00     0.024 C 
HETATM   12  C12 UNL     1       1.251   4.165  -0.367  1.00  0.00     0.033 C 
HETATM   13  C13 UNL     1       2.396   3.295   0.261  1.00  0.00     0.139 C 
HETATM   14  C14 UNL     1       2.226   1.731   0.211  1.00  0.00     0.038 C 
HETATM   15  C15 UNL     1       3.586   1.040   0.121  1.00  0.00    -0.014 C 
HETATM   16  C16 UNL     1       4.102   0.360   1.166  1.00  0.00    -0.050 C 
HETATM   17  C17 UNL     1       3.345   0.348   2.462  1.00  0.00     0.042 C 
HETATM   18  C18 UNL     1       1.978  -0.180   2.071  1.00  0.00     0.001 C 
HETATM   19  C19 UNL     1       2.089  -1.579   1.346  1.00  0.00     0.037 C 
HETATM   20  C20 UNL     1       3.408  -2.377   1.561  1.00  0.00     0.123 C 
HETATM   21  C21 UNL     1       3.249  -3.891   1.257  1.00  0.00     0.039 C 
HETATM   22  C22 UNL     1       3.364  -4.442  -0.195  1.00  0.00     0.023 C 
HETATM   23  C24 UNL     1       4.798  -4.873  -0.617  1.00  0.00     0.101 C 
HETATM   24  C25 UNL     1       5.741  -3.762  -0.792  1.00  0.00    -0.101 C 
HETATM   25  C26 UNL     1       6.368  -2.737  -0.829  1.00  0.00    -0.066 C 
HETATM   26  C27 UNL     1       6.896  -1.406  -0.739  1.00  0.00     0.029 A 
HETATM   27  C28 UNL     1       7.995  -1.083  -1.545  1.00  0.00     0.057 A 
HETATM   28  C29 UNL     1       8.545   0.192  -1.496  1.00  0.00     0.067 A 
HETATM   29  C30 UNL     1       8.025   1.158  -0.646  1.00  0.00     0.037 A 
HETATM   30  C31 UNL     1       6.933   0.842   0.165  1.00  0.00     0.014 A 
HETATM   31  C32 UNL     1       6.328  -0.435   0.123  1.00  0.00    -0.006 A 
HETATM   32  C33 UNL     1       5.157  -0.707   1.078  1.00  0.00     0.185 C 
HETATM   33  O6  UNL     1       4.446  -1.899   0.716  1.00  0.00    -0.371 OA
HETATM   34  C34 UNL     1       1.267   0.967   1.240  1.00  0.00     0.032 C 
HETATM   35  C35 UNL     1      -0.045   0.418   0.665  1.00  0.00    -0.055 C 
HETATM   36  C36 UNL     1      -0.148  -0.119  -0.624  1.00  0.00     0.001 C 
HETATM   37  C37 UNL     1      -1.391  -0.465  -1.161  1.00  0.00     0.096 A 
HETATM   38  C38 UNL     1      -2.573  -0.268  -0.426  1.00  0.00     0.086 A 
HETATM   39  C39 UNL     1      -2.443   0.078   0.932  1.00  0.00     0.004 C 
HETATM   40  C40 UNL     1      -1.197   0.431   1.463  1.00  0.00     0.005 C 
HETATM   41  C41 UNL     1      -3.948  -0.163  -1.159  1.00  0.00     0.167 C 
HETATM   42  O8  UNL     1      -4.509   1.213  -1.089  1.00  0.00    -0.318 OA
HETATM   43 NA1  UNL     1       0.000   0.000   0.000  1.00  0.00    -0.348 Na
ATOM     44 1HA1 UNL     1       0.838   0.515   0.270  1.00  0.00     0.104 HD
ATOM     45 2HA1 UNL     1       0.870  -0.168   0.505  1.00  0.00     0.104 HD
ENDROOT
BRANCH  41  46
HETATM   46  C42 UNL     1      -5.009  -1.036  -0.416  1.00  0.00     0.067 C 
BRANCH  46  47
HETATM   47  C43 UNL     1      -4.655  -2.531  -0.321  1.00  0.00     0.042 C 
BRANCH  47  48
HETATM   48  C44 UNL     1      -5.729  -3.368   0.382  1.00  0.00     0.058 C 
HETATM   49  C45 UNL     1      -5.352  -4.853   0.428  1.00  0.00     0.038 C 
HETATM   50  C46 UNL     1      -6.671  -5.586   0.659  1.00  0.00     0.003 C 
HETATM   51  C47 UNL     1      -7.775  -4.648   0.175  1.00  0.00     0.003 C 
HETATM   52  C48 UNL     1      -7.077  -3.389  -0.340  1.00  0.00     0.038 C 
BRANCH  48  53
HETATM   53  O7  UNL     1      -5.897  -2.871   1.710  1.00  0.00    -0.390 OA
HETATM   54  H46 UNL     1      -6.507  -3.454   2.191  1.00  0.00     0.210 HD
ENDBRANCH  48  53
ENDBRANCH  47  48
ENDBRANCH  46  47
ENDBRANCH  41  46
BRANCH  41  55
HETATM   55  N1  UNL     1      -3.855  -0.725  -2.531  1.00  0.00    -0.338 N 
HETATM   56  C49 UNL     1      -4.622  -0.316  -3.463  1.00  0.00     0.124 C 
HETATM   57  N2  UNL     1      -4.522  -0.847  -4.702  1.00  0.00    -0.279 NA
HETATM   58  N3  UNL     1      -5.609   0.609  -3.453  1.00  0.00    -0.279 NA
HETATM   59  H55 UNL     1      -5.429  -1.043  -5.103  1.00  0.00     0.126 HD
HETATM   60  H56 UNL     1      -3.940  -1.678  -4.681  1.00  0.00     0.126 HD
HETATM   61  H57 UNL     1      -5.551   1.223  -4.258  1.00  0.00     0.126 HD
HETATM   62  H58 UNL     1      -5.586   1.171  -2.601  1.00  0.00     0.126 HD
ATOM     63  H1  UNL     1      -3.166  -1.450  -2.730  1.00  0.00     0.164 HD
ENDBRANCH  41  55
BRANCH  13  64
HETATM   64  S1  UNL     1       3.070   4.001   1.777  1.00  0.00     0.106 S 
HETATM   65  O1  UNL     1       3.233   5.417   1.454  1.00  0.00    -0.595 OA
HETATM   66  O2  UNL     1       4.351   3.330   1.984  1.00  0.00    -0.595 OA
HETATM   67  O3  UNL     1       2.060   3.722   2.794  1.00  0.00    -0.595 OA
ENDBRANCH  13  64
BRANCH  22  68
HETATM   68  C23 UNL     1       2.666  -3.589  -1.258  1.00  0.00     0.169 C 
BRANCH  68  69
HETATM   69  O4  UNL     1       2.522  -4.339  -2.466  1.00  0.00    -0.400 OA
HETATM   70  H29 UNL     1       1.821  -4.992  -2.309  1.00  0.00     0.209 HD
ENDBRANCH  68  69
ENDBRANCH  22  68
BRANCH  28  71
HETATM   71  O5  UNL     1       9.611   0.462  -2.305  1.00  0.00    -0.361 OA
HETATM   72  H33 UNL     1       9.865   1.389  -2.157  1.00  0.00     0.217 HD
ENDBRANCH  28  71
TORSDOF 9
