REMARK  6 active torsions:
REMARK  status: ('A' for Active; 'I' for Inactive)
REMARK    1  A    between atoms: C2_2  and  C30_32 
REMARK    2  A    between atoms: C3_3  and  C4_4 
REMARK    3  A    between atoms: C4_4  and  C5_6 
REMARK    4  A    between atoms: C5_6  and  C6_7 
REMARK    5  A    between atoms: C6_7  and  C8_9 
REMARK    6  A    between atoms: C30_32  and  O4_34 
ROOT
HETATM    1  C8  UNL     1       2.121  -0.454   1.142  1.00  0.00    -0.001 C 
HETATM    2  C9  UNL     1       2.202   1.018   1.648  1.00  0.00     0.007 C 
HETATM    3  C10 UNL     1       0.825   1.664   1.415  1.00  0.00     0.015 C 
HETATM    4  C11 UNL     1      -0.116   0.482   1.108  1.00  0.00    -0.013 C 
HETATM    5  C12 UNL     1      -0.548  -0.098   2.490  1.00  0.00     0.021 C 
HETATM    6  C13 UNL     1      -1.404   0.766   0.352  1.00  0.00    -0.070 C 
HETATM    7  C14 UNL     1      -1.995   1.974   0.313  1.00  0.00    -0.022 C 
HETATM    8  C15 UNL     1      -3.321   2.178  -0.355  1.00  0.00     0.034 C 
HETATM    9  C16 UNL     1      -4.207   0.958  -0.060  1.00  0.00     0.013 C 
HETATM   10  C17 UNL     1      -5.723   1.157  -0.373  1.00  0.00     0.018 C 
HETATM   11  C18 UNL     1      -6.399   1.935   0.776  1.00  0.00     0.023 C 
HETATM   12  C19 UNL     1      -5.987   1.933  -1.677  1.00  0.00     0.023 C 
HETATM   13  C20 UNL     1      -6.417  -0.212  -0.432  1.00  0.00     0.135 C 
HETATM   14  O2  UNL     1      -7.490  -0.375  -1.017  1.00  0.00    -0.297 OA
HETATM   15  C21 UNL     1      -5.799  -1.350   0.353  1.00  0.00     0.080 C 
HETATM   16  C22 UNL     1      -4.287  -1.516   0.160  1.00  0.00     0.017 C 
HETATM   17  C23 UNL     1      -3.585  -0.373  -0.620  1.00  0.00    -0.031 C 
HETATM   18  C24 UNL     1      -3.856  -0.588  -2.134  1.00  0.00     0.016 C 
HETATM   19  C25 UNL     1      -1.994  -0.386  -0.466  1.00  0.00     0.024 C 
HETATM   20  C26 UNL     1      -1.381  -1.769  -0.132  1.00  0.00     0.010 C 
HETATM   21  C27 UNL     1       0.155  -1.812   0.038  1.00  0.00     0.011 C 
HETATM   22  C28 UNL     1       0.830  -0.441   0.257  1.00  0.00    -0.029 C 
HETATM   23  C29 UNL     1       1.193   0.164  -1.137  1.00  0.00     0.016 C 
ENDROOT
BRANCH   1  24
HETATM   24  C6  UNL     1       3.473  -0.939   0.540  1.00  0.00    -0.007 C 
HETATM   25  C7  UNL     1       3.394  -2.376   0.009  1.00  0.00     0.011 C 
BRANCH  24  26
HETATM   26  C5  UNL     1       4.596  -0.857   1.600  1.00  0.00     0.087 C 
BRANCH  26  27
HETATM   27  C4  UNL     1       5.983  -0.994   0.997  1.00  0.00     0.150 C 
HETATM   28  O1  UNL     1       6.666  -1.998   1.183  1.00  0.00    -0.293 OA
BRANCH  27  29
HETATM   29  C3  UNL     1       6.484   0.160   0.198  1.00  0.00     0.063 C 
HETATM   30  C2  UNL     1       7.465   0.093  -0.721  1.00  0.00     0.015 C 
HETATM   31  C1  UNL     1       8.194  -1.137  -1.169  1.00  0.00     0.055 C 
BRANCH  30  32
HETATM   32  C30 UNL     1       7.809   1.385  -1.356  1.00  0.00     0.171 C 
HETATM   33  O3  UNL     1       7.178   2.423  -1.264  1.00  0.00    -0.646 OA
BRANCH  32  34
HETATM   34  O4  UNL     1       8.942   1.324  -2.071  1.00  0.00    -0.773 OA
HETATM   35  H44 UNL     1       9.054   2.233  -2.419  1.00  0.00     0.167 HD
ENDBRANCH  32  34
ENDBRANCH  30  32
ENDBRANCH  27  29
ENDBRANCH  26  27
ENDBRANCH  24  26
ENDBRANCH   1  24
TORSDOF 6
