REMARK  11 active torsions:
REMARK  status: ('A' for Active; 'I' for Inactive)
REMARK    1  A    between atoms: C3_4  and  O2_5 
REMARK    2  A    between atoms: O2_5  and  C4_6 
REMARK    3  A    between atoms: C7_9  and  C8_10 
REMARK    4  A    between atoms: N1_11  and  C9_13 
REMARK    5  A    between atoms: C9_13  and  C10_14 
REMARK    6  A    between atoms: C10_14  and  O3_15 
REMARK    7  A    between atoms: C16_21  and  C17_22 
REMARK    8  A    between atoms: C23_30  and  O6_31 
REMARK    9  A    between atoms: C27_35  and  O7_36 
REMARK   10  A    between atoms: C30_39  and  O8_40 
REMARK   11  A    between atoms: C31_41  and  O9_42 
ROOT
HETATM    1  C4  UNL     1      -2.257   1.718   0.958  1.00  0.00     0.127 C 
HETATM    2  C5  UNL     1      -1.256   1.356   2.060  1.00  0.00     0.033 C 
HETATM    3  C6  UNL     1      -0.933  -0.139   2.076  1.00  0.00     0.021 C 
HETATM    4  C7  UNL     1      -0.386  -0.667   0.722  1.00  0.00     0.026 C 
HETATM    5  C11 UNL     1       1.033  -0.065   0.358  1.00  0.00     0.009 C 
HETATM    6  C12 UNL     1       2.122  -0.234   1.438  1.00  0.00     0.007 C 
HETATM    7  C13 UNL     1       3.447   0.412   1.034  1.00  0.00     0.013 C 
HETATM    8  C14 UNL     1       4.004  -0.159  -0.293  1.00  0.00    -0.005 C 
HETATM    9  C15 UNL     1       4.477  -1.608  -0.071  1.00  0.00     0.019 C 
HETATM   10  C16 UNL     1       5.148   0.730  -0.879  1.00  0.00     0.028 C 
HETATM   11  C21 UNL     1       4.401   1.928  -1.498  1.00  0.00     0.013 C 
HETATM   12  C22 UNL     1       2.983   1.438  -1.819  1.00  0.00     0.040 C 
HETATM   13  C23 UNL     1       2.933  -0.049  -1.415  1.00  0.00     0.070 C 
HETATM   14  C24 UNL     1       1.523  -0.567  -1.025  1.00  0.00     0.026 C 
HETATM   15  C25 UNL     1       0.492  -0.239  -2.124  1.00  0.00     0.011 C 
HETATM   16  C26 UNL     1      -0.902  -0.749  -1.791  1.00  0.00     0.039 C 
HETATM   17  C27 UNL     1      -1.416  -0.308  -0.408  1.00  0.00     0.073 C 
HETATM   18  C28 UNL     1      -1.750   1.210  -0.402  1.00  0.00     0.071 C 
ENDROOT
BRANCH   1  19
HETATM   19  O2  UNL     1      -3.518   1.160   1.345  1.00  0.00    -0.356 OA
BRANCH  19  20
HETATM   20  C3  UNL     1      -4.639   1.608   0.578  1.00  0.00     0.263 C 
HETATM   21  O1  UNL     1      -4.722   0.792  -0.588  1.00  0.00    -0.354 OA
HETATM   22  C2  UNL     1      -5.982   0.785  -1.272  1.00  0.00     0.151 C 
HETATM   23  C1  UNL     1      -6.575  -0.617  -1.169  1.00  0.00     0.042 C 
HETATM   24  C31 UNL     1      -6.962   1.885  -0.818  1.00  0.00     0.175 C 
HETATM   25  C30 UNL     1      -7.129   1.914   0.710  1.00  0.00     0.154 C 
HETATM   26  C29 UNL     1      -5.880   1.428   1.442  1.00  0.00     0.095 C 
BRANCH  24  27
HETATM   27  O9  UNL     1      -6.449   3.166  -1.226  1.00  0.00    -0.390 OA
HETATM   28  H47 UNL     1      -6.321   3.141  -2.190  1.00  0.00     0.210 HD
ENDBRANCH  24  27
BRANCH  25  29
HETATM   29  O8  UNL     1      -8.238   1.110   1.117  1.00  0.00    -0.393 OA
HETATM   30  H45 UNL     1      -9.051   1.606   0.907  1.00  0.00     0.210 HD
ENDBRANCH  25  29
ENDBRANCH  19  20
ENDBRANCH   1  19
BRANCH  17  31
HETATM   31  O7  UNL     1      -2.627  -1.057  -0.206  1.00  0.00    -0.389 OA
HETATM   32  H39 UNL     1      -3.374  -0.433  -0.093  1.00  0.00     0.210 HD
ENDBRANCH  17  31
BRANCH   4  33
HETATM   33  C8  UNL     1      -0.349  -2.197   0.858  1.00  0.00     0.068 C 
HETATM   34  N1  UNL     1       0.515  -2.803   1.603  1.00  0.00    -0.399 N 
ATOM     35  H1  UNL     1       1.239  -2.305   2.121  1.00  0.00     0.158 HD
BRANCH  34  36
HETATM   36  C9  UNL     1       0.375  -4.267   1.646  1.00  0.00     0.144 C 
BRANCH  36  37
HETATM   37  C10 UNL     1       0.845  -4.943   0.354  1.00  0.00     0.183 C 
BRANCH  37  38
HETATM   38  O3  UNL     1       2.236  -4.724   0.126  1.00  0.00    -0.399 OA
HETATM   39  H16 UNL     1       2.482  -5.259  -0.647  1.00  0.00     0.209 HD
ENDBRANCH  37  38
ENDBRANCH  36  37
ENDBRANCH  34  36
ENDBRANCH   4  33
BRANCH  13  40
HETATM   40  O6  UNL     1       3.368  -0.778  -2.575  1.00  0.00    -0.389 OA
HETATM   41  H33 UNL     1       3.270  -1.729  -2.387  1.00  0.00     0.210 HD
ENDBRANCH  13  40
BRANCH  10  42
HETATM   42  C17 UNL     1       6.286   1.086   0.038  1.00  0.00    -0.045 A 
HETATM   43  C18 UNL     1       6.497   2.209   0.725  1.00  0.00     0.087 A 
HETATM   44  C19 UNL     1       7.790   2.073   1.392  1.00  0.00     0.283 A 
HETATM   45  O4  UNL     1       8.292   2.920   2.108  1.00  0.00    -0.260 OA
HETATM   46  O5  UNL     1       8.335   0.870   1.075  1.00  0.00    -0.314 OA
HETATM   47  C20 UNL     1       7.437   0.163   0.222  1.00  0.00     0.213 A 
ENDBRANCH  10  42
TORSDOF 11
