REMARK  8 active torsions:
REMARK  status: ('A' for Active; 'I' for Inactive)
REMARK    1  A    between atoms: C3_3  and  O1_4 
REMARK    2  A    between atoms: N1_14  and  O2_16 
REMARK    3  A    between atoms: O2_16  and  C13_17 
REMARK    4  A    between atoms: C13_17  and  C14_18 
REMARK       I    between atoms: C14_18  and  N2_20 
REMARK    5  A    between atoms: N2_20  and  C15_21 
REMARK    6  A    between atoms: C15_21  and  C16_22 
REMARK    7  A    between atoms: C16_22  and  O4_23 
REMARK    8  A    between atoms: C16_22  and  C17_24 
ROOT
HETATM    1  C1  UNL     1      -9.193   1.981   1.216  1.00  0.00     0.015 C 
HETATM    2  C2  UNL     1      -8.157   1.379   1.120  1.00  0.00    -0.078 C 
HETATM    3  C3  UNL     1      -6.878   0.650   1.048  1.00  0.00     0.128 C 
HETATM    4  C4  UNL     1      -6.903  -0.612   1.914  1.00  0.00     0.052 C 
HETATM    5  C5  UNL     1      -5.660  -1.357   1.449  1.00  0.00     0.010 C 
HETATM    6  C6  UNL     1      -5.604  -1.147  -0.081  1.00  0.00     0.002 C 
HETATM    7  C7  UNL     1      -4.177  -1.080  -0.687  1.00  0.00    -0.004 C 
HETATM    8  C8  UNL     1      -3.331  -2.274  -0.215  1.00  0.00     0.010 C 
HETATM    9  C9  UNL     1      -1.912  -2.226  -0.756  1.00  0.00     0.035 C 
HETATM   10  C10 UNL     1      -1.248  -0.918  -0.389  1.00  0.00    -0.069 C 
HETATM   11  C11 UNL     1      -0.082  -0.921   0.287  1.00  0.00     0.030 C 
HETATM   12  C12 UNL     1       0.639   0.345   0.592  1.00  0.00     0.032 C 
HETATM   13  N1  UNL     1       1.640   0.477   1.406  1.00  0.00    -0.271 N 
ATOM     14  H1  UNL     1       2.147   1.350   1.552  1.00  0.00     0.194 HD
HETATM   15  C23 UNL     1       0.181   1.575  -0.159  1.00  0.00     0.060 C 
HETATM   16  C24 UNL     1      -1.341   1.610  -0.182  1.00  0.00     0.020 C 
HETATM   17  C25 UNL     1      -1.976   0.350  -0.841  1.00  0.00    -0.016 C 
HETATM   18  C26 UNL     1      -1.817   0.448  -2.376  1.00  0.00     0.020 C 
HETATM   19  C27 UNL     1      -3.487   0.274  -0.392  1.00  0.00     0.002 C 
HETATM   20  C28 UNL     1      -4.330   1.467  -0.905  1.00  0.00     0.007 C 
HETATM   21  C29 UNL     1      -5.776   1.131  -1.270  1.00  0.00     0.014 C 
HETATM   22  C30 UNL     1      -6.495   0.108  -0.368  1.00  0.00     0.003 C 
HETATM   23  C31 UNL     1      -7.756  -0.379  -1.139  1.00  0.00     0.020 C 
ENDROOT
BRANCH   3  24
HETATM   24  O1  UNL     1      -5.858   1.500   1.569  1.00  0.00    -0.377 OA
HETATM   25  H2  UNL     1      -6.212   1.913   2.376  1.00  0.00     0.211 HD
ENDBRANCH   3  24
BRANCH  13  26
HETATM   26  O2  UNL     1       1.941  -0.729   2.062  1.00  0.00    -0.271 OA
BRANCH  26  27
HETATM   27  C13 UNL     1       3.024  -0.525   2.962  1.00  0.00     0.303 C 
BRANCH  27  28
HETATM   28  C14 UNL     1       4.378  -0.871   2.344  1.00  0.00     0.243 C 
HETATM   29  O3  UNL     1       5.271  -1.438   2.977  1.00  0.00    -0.271 OA
HETATM   30  N2  UNL     1       4.518  -0.469   1.030  1.00  0.00    -0.356 N 
HETATM   31  H16 UNL     1       3.780   0.137   0.661  1.00  0.00     0.162 HD
BRANCH  30  32
HETATM   32  C15 UNL     1       5.792  -0.563   0.337  1.00  0.00     0.159 C 
BRANCH  32  33
HETATM   33  C16 UNL     1       6.682   0.692   0.517  1.00  0.00     0.170 C 
BRANCH  33  34
HETATM   34  O4  UNL     1       6.694   1.141   1.875  1.00  0.00    -0.389 OA
HETATM   35  H20 UNL     1       7.321   0.581   2.376  1.00  0.00     0.210 HD
ENDBRANCH  33  34
BRANCH  33  36
HETATM   36  C17 UNL     1       8.102   0.494   0.046  1.00  0.00    -0.013 A 
HETATM   37  C18 UNL     1       8.885  -0.600   0.432  1.00  0.00     0.013 A 
HETATM   38  C19 UNL     1      10.189  -0.725  -0.044  1.00  0.00     0.025 A 
HETATM   39  C20 UNL     1      10.696   0.259  -0.888  1.00  0.00     0.005 A 
HETATM   40  C21 UNL     1      12.092   0.142  -1.424  1.00  0.00     0.068 C 
HETATM   41  N3  UNL     1       9.970   1.340  -1.259  1.00  0.00    -0.369 N 
HETATM   42  C22 UNL     1       8.707   1.438  -0.780  1.00  0.00     0.097 A 
ATOM     43  H3  UNL     1      10.359   2.053  -1.876  1.00  0.00     0.165 HD
ENDBRANCH  33  36
ENDBRANCH  32  33
ENDBRANCH  30  32
ENDBRANCH  27  28
ENDBRANCH  26  27
ENDBRANCH  13  26
TORSDOF 8
