REMARK  12 active torsions:
REMARK  status: ('A' for Active; 'I' for Inactive)
REMARK    1  A    between atoms: C4_4  and  C5_5 
REMARK    2  A    between atoms: C5_5  and  C6_6 
REMARK    3  A    between atoms: C6_6  and  C7_7 
REMARK    4  A    between atoms: C7_7  and  C9_9 
REMARK    5  A    between atoms: C17_17  and  C18_18 
REMARK    6  A    between atoms: C18_18  and  O1_20 
REMARK    7  A    between atoms: C18_18  and  C20_21 
REMARK    8  A    between atoms: C20_21  and  O2_22 
REMARK    9  A    between atoms: C21_23  and  C22_24 
REMARK   10  A    between atoms: C22_24  and  C23_25 
REMARK   11  A    between atoms: C23_25  and  C24_26 
REMARK   12  A    between atoms: C24_26  and  O4_28 
ROOT
HETATM    1  C9  UNL     1       2.278   1.540  -0.034  1.00  0.00    -0.002 C 
HETATM    2  C10 UNL     1       2.297   1.082  -1.508  1.00  0.00     0.006 C 
HETATM    3  C11 UNL     1       0.940   0.437  -1.770  1.00  0.00     0.011 C 
HETATM    4  C12 UNL     1       0.580  -0.270  -0.444  1.00  0.00    -0.032 C 
HETATM    5  C13 UNL     1       1.437  -1.562  -0.326  1.00  0.00     0.016 C 
HETATM    6  C14 UNL     1      -0.941  -0.701  -0.352  1.00  0.00     0.004 C 
HETATM    7  C15 UNL     1      -1.330  -1.666  -1.487  1.00  0.00     0.007 C 
HETATM    8  C16 UNL     1      -2.806  -1.796  -1.840  1.00  0.00     0.009 C 
HETATM    9  C17 UNL     1      -3.804  -1.265  -0.798  1.00  0.00     0.031 C 
HETATM   10  C21 UNL     1      -3.422   0.180  -0.332  1.00  0.00    -0.025 A 
HETATM   11  C25 UNL     1      -2.659   1.098  -1.289  1.00  0.00     0.021 A 
HETATM   12  C26 UNL     1      -1.906   0.465  -0.146  1.00  0.00    -0.027 A 
HETATM   13  C27 UNL     1      -1.468   1.373   0.988  1.00  0.00     0.011 C 
HETATM   14  C28 UNL     1      -0.078   1.920   0.736  1.00  0.00     0.011 C 
HETATM   15  C29 UNL     1       1.022   0.818   0.616  1.00  0.00    -0.032 C 
HETATM   16  C30 UNL     1       1.222   0.217   2.016  1.00  0.00     0.016 C 
ENDROOT
BRANCH   1  17
HETATM   17  C7  UNL     1       3.694   1.594   0.621  1.00  0.00    -0.014 C 
HETATM   18  C8  UNL     1       3.675   2.313   1.977  1.00  0.00     0.010 C 
BRANCH  17  19
HETATM   19  C6  UNL     1       4.488   0.272   0.683  1.00  0.00     0.008 C 
BRANCH  19  20
HETATM   20  C5  UNL     1       5.939   0.462   1.146  1.00  0.00     0.028 C 
BRANCH  20  21
HETATM   21  C4  UNL     1       6.716  -0.824   1.043  1.00  0.00    -0.025 C 
HETATM   22  C2  UNL     1       7.558  -1.189   0.057  1.00  0.00    -0.091 C 
HETATM   23  C1  UNL     1       7.842  -0.376  -1.177  1.00  0.00     0.042 C 
HETATM   24  C3  UNL     1       8.292  -2.503   0.118  1.00  0.00     0.042 C 
ENDBRANCH  20  21
ENDBRANCH  19  20
ENDBRANCH  17  19
ENDBRANCH   1  17
BRANCH  10  25
HETATM   25  C22 UNL     1      -4.366   0.776   0.731  1.00  0.00     0.021 C 
BRANCH  25  26
HETATM   26  C23 UNL     1      -4.966   2.138   0.377  1.00  0.00     0.111 C 
BRANCH  26  27
HETATM   27  C24 UNL     1      -6.031   2.527   1.364  1.00  0.00     0.139 C 
HETATM   28  O3  UNL     1      -6.626   1.801   2.143  1.00  0.00    -0.650 OA
BRANCH  27  29
HETATM   29  O4  UNL     1      -6.316   3.845   1.310  1.00  0.00    -0.776 OA
HETATM   30  H41 UNL     1      -7.019   3.960   1.982  1.00  0.00     0.167 HD
ENDBRANCH  27  29
ENDBRANCH  26  27
ENDBRANCH  25  26
ENDBRANCH  10  25
BRANCH   9  31
HETATM   31  C18 UNL     1      -5.311  -1.456  -1.275  1.00  0.00     0.080 C 
HETATM   32  C19 UNL     1      -5.497  -2.231  -2.597  1.00  0.00     0.048 C 
BRANCH  31  33
HETATM   33  O1  UNL     1      -5.940  -0.185  -1.511  1.00  0.00    -0.388 OA
HETATM   34  H33 UNL     1      -6.901  -0.372  -1.480  1.00  0.00     0.210 HD
ENDBRANCH  31  33
BRANCH  31  35
HETATM   35  C20 UNL     1      -6.132  -2.197  -0.180  1.00  0.00     0.201 C 
BRANCH  35  36
HETATM   36  O2  UNL     1      -7.523  -2.155  -0.520  1.00  0.00    -0.398 OA
HETATM   37  H36 UNL     1      -8.011  -2.477   0.259  1.00  0.00     0.209 HD
ENDBRANCH  35  36
ENDBRANCH  31  35
ENDBRANCH   9  31
TORSDOF 12
