REMARK  11 active torsions:
REMARK  status: ('A' for Active; 'I' for Inactive)
REMARK    1  A    between atoms: C2_2  and  O1_3 
REMARK    2  A    between atoms: C2_2  and  C3_4 
REMARK    3  A    between atoms: C4_5  and  C5_6 
REMARK    4  A    between atoms: C5_6  and  O2_7 
REMARK    5  A    between atoms: C9_11  and  O3_12 
REMARK    6  A    between atoms: O3_12  and  C10_13 
REMARK    7  A    between atoms: C11_15  and  C12_16 
REMARK    8  A    between atoms: C12_16  and  O5_17 
REMARK    9  A    between atoms: C13_18  and  O6_19 
REMARK   10  A    between atoms: C14_20  and  O7_21 
REMARK   11  A    between atoms: C15_22  and  O8_23 
ROOT
HETATM    1  C5  UNL     1       1.955   0.911  -0.402  1.00  0.00     0.086 C 
HETATM    2  C6  UNL     1       1.504  -0.298  -1.305  1.00  0.00     0.023 C 
HETATM    3  C7  UNL     1       1.790  -0.097  -2.802  1.00  0.00     0.013 C 
HETATM    4  C8  UNL     1       0.012  -0.601  -1.122  1.00  0.00     0.039 C 
HETATM    5  C9  UNL     1      -0.298  -1.079   0.298  1.00  0.00     0.126 C 
HETATM    6  C16 UNL     1       0.703  -0.538   1.332  1.00  0.00     0.044 C 
HETATM    7  C17 UNL     1       1.230   0.889   1.028  1.00  0.00    -0.010 C 
HETATM    8  C18 UNL     1       0.055   1.899   1.105  1.00  0.00     0.018 C 
HETATM    9  C19 UNL     1       2.173   1.274   2.199  1.00  0.00     0.018 C 
ENDROOT
BRANCH   5  10
HETATM   10  O3  UNL     1      -1.615  -0.695   0.710  1.00  0.00    -0.353 OA
BRANCH  10  11
HETATM   11  C10 UNL     1      -2.664  -1.490   0.147  1.00  0.00     0.292 C 
HETATM   12  O4  UNL     1      -2.971  -1.159  -1.206  1.00  0.00    -0.348 OA
HETATM   13  C11 UNL     1      -4.021  -0.194  -1.419  1.00  0.00     0.179 C 
HETATM   14  C13 UNL     1      -5.345  -0.627  -0.745  1.00  0.00     0.180 C 
HETATM   15  C14 UNL     1      -5.134  -1.717   0.310  1.00  0.00     0.183 C 
HETATM   16  C15 UNL     1      -3.873  -1.402   1.099  1.00  0.00     0.204 C 
BRANCH  13  17
HETATM   17  C12 UNL     1      -3.567   1.240  -1.092  1.00  0.00     0.198 C 
BRANCH  17  18
HETATM   18  O5  UNL     1      -2.556   1.649  -2.017  1.00  0.00    -0.398 OA
HETATM   19  H20 UNL     1      -2.101   2.412  -1.621  1.00  0.00     0.209 HD
ENDBRANCH  17  18
ENDBRANCH  13  17
BRANCH  14  20
HETATM   20  O6  UNL     1      -6.021   0.481  -0.134  1.00  0.00    -0.390 OA
HETATM   21  H22 UNL     1      -6.669   0.067   0.478  1.00  0.00     0.210 HD
ENDBRANCH  14  20
BRANCH  15  22
HETATM   22  O7  UNL     1      -6.273  -1.753   1.189  1.00  0.00    -0.390 OA
HETATM   23  H24 UNL     1      -5.971  -2.272   1.963  1.00  0.00     0.210 HD
ENDBRANCH  15  22
BRANCH  16  24
HETATM   24  O8  UNL     1      -3.750  -2.328   2.194  1.00  0.00    -0.388 OA
HETATM   25  H26 UNL     1      -2.933  -2.072   2.664  1.00  0.00     0.210 HD
ENDBRANCH  16  24
ENDBRANCH  10  11
ENDBRANCH   5  10
BRANCH   1  26
HETATM   26  C4  UNL     1       3.472   1.041  -0.291  1.00  0.00     0.010 C 
HETATM   27  C3  UNL     1       4.429   0.127  -0.541  1.00  0.00     0.003 C 
BRANCH  27  28
HETATM   28  C2  UNL     1       5.918   0.330  -0.417  1.00  0.00     0.136 C 
HETATM   29  C1  UNL     1       6.550  -0.718   0.491  1.00  0.00     0.043 C 
BRANCH  28  30
HETATM   30  O1  UNL     1       6.219   1.622   0.094  1.00  0.00    -0.392 OA
HETATM   31  H5  UNL     1       5.879   1.656   1.004  1.00  0.00     0.210 HD
ENDBRANCH  28  30
ENDBRANCH  27  28
ENDBRANCH   1  26
BRANCH   1  32
HETATM   32  O2  UNL     1       1.557   2.123  -1.066  1.00  0.00    -0.385 OA
HETATM   33  H8  UNL     1       2.146   2.252  -1.830  1.00  0.00     0.211 HD
ENDBRANCH   1  32
TORSDOF 11
