REMARK  7 active torsions:
REMARK  status: ('A' for Active; 'I' for Inactive)
REMARK    1  A    between atoms: C6_7  and  O1_8 
REMARK    2  A    between atoms: C8_11  and  C9_12 
REMARK    3  A    between atoms: C9_12  and  O3_13 
REMARK    4  A    between atoms: C9_12  and  C10_14 
REMARK    5  A    between atoms: C10_14  and  O4_16 
REMARK    6  A    between atoms: C10_14  and  C12_17 
REMARK    7  A    between atoms: C19_25  and  C20_26 
ROOT
HETATM    1  C12 UNL     1       2.071  -1.265   0.207  1.00  0.00     0.034 C 
HETATM    2  C13 UNL     1       2.118  -0.636  -1.214  1.00  0.00     0.012 C 
HETATM    3  C14 UNL     1       0.737  -0.873  -1.851  1.00  0.00     0.044 C 
HETATM    4  C15 UNL     1      -0.200  -1.182  -0.667  1.00  0.00     0.093 C 
HETATM    5  O5  UNL     1      -0.455  -0.004   0.136  1.00  0.00    -0.363 OA
HETATM    6  C16 UNL     1      -0.875   1.212  -0.478  1.00  0.00     0.263 C 
HETATM    7  C17 UNL     1      -2.283   1.525  -0.192  1.00  0.00    -0.080 C 
HETATM    8  C18 UNL     1      -3.419   1.859   0.026  1.00  0.00    -0.093 C 
HETATM    9  C19 UNL     1      -4.815   2.270   0.322  1.00  0.00     0.121 C 
HETATM   10  C26 UNL     1      -5.858   1.295  -0.285  1.00  0.00     0.190 C 
HETATM   11  O6  UNL     1      -6.082   0.127   0.523  1.00  0.00    -0.384 OA
HETATM   12  C27 UNL     1      -5.124  -0.910   0.335  1.00  0.00     0.122 C 
HETATM   13  C28 UNL     1      -5.093  -1.791   1.587  1.00  0.00     0.033 C 
HETATM   14  C29 UNL     1      -4.489  -3.182   1.347  1.00  0.00     0.013 C 
HETATM   15  C30 UNL     1      -3.529  -3.253   0.127  1.00  0.00    -0.026 C 
HETATM   16  C31 UNL     1      -3.144  -4.743  -0.086  1.00  0.00     0.016 C 
HETATM   17  C32 UNL     1      -4.341  -2.824  -1.136  1.00  0.00     0.071 C 
HETATM   18  C33 UNL     1      -5.409  -1.739  -0.906  1.00  0.00     0.045 C 
HETATM   19  C34 UNL     1      -3.468  -2.457  -2.319  1.00  0.00     0.154 C 
HETATM   20  O7  UNL     1      -3.888  -2.524  -3.475  1.00  0.00    -0.293 OA
HETATM   21  C35 UNL     1      -2.106  -1.943  -2.099  1.00  0.00     0.057 C 
HETATM   22  C36 UNL     1      -1.544  -1.864  -0.883  1.00  0.00    -0.036 C 
HETATM   23  C37 UNL     1      -2.235  -2.367   0.390  1.00  0.00     0.026 C 
HETATM   24  C38 UNL     1      -1.265  -3.028   1.417  1.00  0.00     0.011 C 
HETATM   25  C39 UNL     1       0.096  -2.338   1.557  1.00  0.00     0.014 C 
HETATM   26  C40 UNL     1       0.750  -2.124   0.175  1.00  0.00    -0.002 C 
HETATM   27  C41 UNL     1       0.990  -3.501  -0.505  1.00  0.00     0.019 C 
ENDROOT
BRANCH   1  28
HETATM   28  C10 UNL     1       3.420  -1.878   0.730  1.00  0.00     0.087 C 
HETATM   29  C11 UNL     1       4.215  -2.680  -0.303  1.00  0.00     0.049 C 
BRANCH  28  30
HETATM   30  C9  UNL     1       4.321  -0.813   1.464  1.00  0.00     0.181 C 
BRANCH  30  31
HETATM   31  C8  UNL     1       4.704   0.481   0.719  1.00  0.00     0.158 C 
HETATM   32  C2  UNL     1       5.635   0.427  -0.494  1.00  0.00     0.020 C 
HETATM   33  C1  UNL     1       6.884  -0.437  -0.271  1.00  0.00     0.013 C 
HETATM   34  C3  UNL     1       6.069   1.896  -0.611  1.00  0.00     0.027 C 
HETATM   35  C4  UNL     1       5.247   2.719  -1.606  1.00  0.00     0.038 C 
HETATM   36  C7  UNL     1       5.951   2.452   0.812  1.00  0.00     0.185 C 
HETATM   37  C5  UNL     1       5.539   4.206  -1.389  1.00  0.00     0.273 C 
HETATM   38  N1  UNL     1       5.099   4.682  -0.089  1.00  0.00     0.114 N 
HETATM   39  C6  UNL     1       4.995   3.670   0.939  1.00  0.00     0.383 C 
HETATM   40  H10 UNL     1       5.687   5.432   0.262  1.00  0.00     0.319 HD
HETATM   41  O2  UNL     1       5.432   1.366   1.616  1.00  0.00    -0.373 OA
BRANCH  39  42
HETATM   42  O1  UNL     1       5.235   4.304   2.189  1.00  0.00    -0.366 OA
HETATM   43  H12 UNL     1       5.104   3.598   2.851  1.00  0.00     0.212 HD
ENDBRANCH  39  42
ENDBRANCH  30  31
BRANCH  30  44
HETATM   44  O3  UNL     1       3.594  -0.417   2.660  1.00  0.00    -0.390 OA
HETATM   45  H16 UNL     1       3.077  -1.199   2.934  1.00  0.00     0.210 HD
ENDBRANCH  30  44
ENDBRANCH  28  30
BRANCH  28  46
HETATM   46  O4  UNL     1       3.082  -2.823   1.776  1.00  0.00    -0.387 OA
HETATM   47  H20 UNL     1       3.901  -3.259   2.077  1.00  0.00     0.210 HD
ENDBRANCH  28  46
ENDBRANCH   1  28
BRANCH   9  48
HETATM   48  C20 UNL     1      -5.071   3.691  -0.164  1.00  0.00    -0.040 A 
HETATM   49  C21 UNL     1      -4.970   4.031  -1.524  1.00  0.00     0.008 A 
HETATM   50  C22 UNL     1      -5.264   5.327  -1.959  1.00  0.00     0.001 A 
HETATM   51  C23 UNL     1      -5.657   6.297  -1.042  1.00  0.00     0.000 A 
HETATM   52  C24 UNL     1      -5.749   5.980   0.312  1.00  0.00     0.001 A 
HETATM   53  C25 UNL     1      -5.455   4.685   0.750  1.00  0.00     0.008 A 
ENDBRANCH   9  48
TORSDOF 7
