REMARK  11 active torsions:
REMARK  status: ('A' for Active; 'I' for Inactive)
REMARK    1  A    between atoms: C2_2  and  C4_4 
REMARK    2  A    between atoms: C4_4  and  C6_6 
REMARK    3  A    between atoms: C7_8  and  C8_9 
REMARK    4  A    between atoms: C8_9  and  O2_10 
REMARK    5  A    between atoms: C25_28  and  O4_29 
REMARK    6  A    between atoms: C26_30  and  O5_31 
REMARK    7  A    between atoms: C27_32  and  O6_33 
REMARK    8  A    between atoms: C31_37  and  C32_38 
REMARK    9  A    between atoms: C32_38  and  C33_39 
REMARK   10  A    between atoms: C33_39  and  C34_40 
REMARK   11  A    between atoms: C38_44  and  O7_45 
ROOT
HETATM    1  C8  UNL     1       3.081   0.613  -0.332  1.00  0.00     0.094 C 
HETATM    2  C9  UNL     1       3.030   0.452  -1.880  1.00  0.00     0.067 C 
HETATM    3  C10 UNL     1       1.864   1.007  -2.656  1.00  0.00    -0.027 C 
HETATM    4  C11 UNL     1       0.563   0.728  -2.486  1.00  0.00    -0.025 C 
HETATM    5  C12 UNL     1      -0.013  -0.156  -1.407  1.00  0.00     0.021 C 
HETATM    6  C13 UNL     1      -1.560  -0.270  -1.576  1.00  0.00     0.019 C 
HETATM    7  C14 UNL     1      -2.239  -1.132  -0.479  1.00  0.00     0.028 C 
HETATM    8  C15 UNL     1      -1.792  -0.649   0.908  1.00  0.00    -0.037 C 
HETATM    9  C16 UNL     1      -2.636  -0.234   1.865  1.00  0.00     0.057 C 
HETATM   10  C17 UNL     1      -4.080  -0.069   1.594  1.00  0.00     0.155 C 
HETATM   11  O3  UNL     1      -4.824   0.224   2.525  1.00  0.00    -0.293 OA
HETATM   12  C18 UNL     1      -4.564  -0.226   0.158  1.00  0.00     0.075 C 
HETATM   13  C19 UNL     1      -6.082  -0.505   0.081  1.00  0.00     0.029 C 
HETATM   14  C20 UNL     1      -6.531  -0.464  -1.394  1.00  0.00     0.008 C 
HETATM   15  C21 UNL     1      -5.773  -1.456  -2.265  1.00  0.00     0.001 C 
HETATM   16  C22 UNL     1      -4.261  -1.318  -2.080  1.00  0.00     0.011 C 
HETATM   17  C23 UNL     1      -3.801  -1.342  -0.590  1.00  0.00    -0.019 C 
HETATM   18  C24 UNL     1      -4.171  -2.750   0.003  1.00  0.00     0.045 C 
HETATM   19  C25 UNL     1      -5.290  -2.787   1.048  1.00  0.00     0.148 C 
HETATM   20  C26 UNL     1      -6.462  -1.813   0.817  1.00  0.00     0.151 C 
HETATM   21  C27 UNL     1      -0.297  -0.668   1.072  1.00  0.00     0.090 C 
HETATM   22  C28 UNL     1       0.429  -0.295   2.369  1.00  0.00     0.044 C 
HETATM   23  C29 UNL     1       1.899  -0.096   1.919  1.00  0.00     0.012 C 
HETATM   24  C30 UNL     1       1.897  -0.118   0.358  1.00  0.00     0.035 C 
HETATM   25  C31 UNL     1       0.409   0.271   0.028  1.00  0.00     0.009 C 
ENDROOT
BRANCH   1  26
HETATM   26  C7  UNL     1       4.390   0.071   0.260  1.00  0.00     0.186 A 
HETATM   27  C6  UNL     1       5.209  -1.052  -0.359  1.00  0.00     0.158 A 
HETATM   28  O1  UNL     1       5.563   0.334  -0.527  1.00  0.00    -0.372 OA
BRANCH  27  29
HETATM   29  C4  UNL     1       6.268  -1.877   0.347  1.00  0.00     0.017 C 
HETATM   30  C5  UNL     1       6.504  -1.425   1.793  1.00  0.00     0.013 C 
BRANCH  29  31
HETATM   31  C2  UNL     1       7.591  -1.929  -0.482  1.00  0.00    -0.016 C 
HETATM   32  C1  UNL     1       7.355  -2.442  -1.912  1.00  0.00     0.010 C 
HETATM   33  C3  UNL     1       8.661  -2.808   0.176  1.00  0.00     0.010 C 
ENDBRANCH  29  31
ENDBRANCH  27  29
ENDBRANCH   1  26
BRANCH   1  34
HETATM   34  O2  UNL     1       3.060   2.008  -0.017  1.00  0.00    -0.386 OA
HETATM   35  H14 UNL     1       3.970   2.345  -0.149  1.00  0.00     0.210 HD
ENDBRANCH   1  34
BRANCH  25  36
HETATM   36  C32 UNL     1       0.212   1.832   0.279  1.00  0.00     0.018 C 
BRANCH  36  37
HETATM   37  C33 UNL     1      -1.175   2.425   0.537  1.00  0.00     0.039 C 
BRANCH  37  38
HETATM   38  C34 UNL     1      -1.141   3.940   0.544  1.00  0.00    -0.056 A 
HETATM   39  C35 UNL     1      -1.226   4.663  -0.654  1.00  0.00     0.007 A 
HETATM   40  C36 UNL     1      -1.177   6.059  -0.644  1.00  0.00     0.003 A 
HETATM   41  C37 UNL     1      -1.048   6.747   0.563  1.00  0.00     0.036 A 
HETATM   42  C38 UNL     1      -0.957   6.030   1.751  1.00  0.00     0.066 A 
HETATM   43  C39 UNL     1      -0.998   4.639   1.751  1.00  0.00     0.043 A 
BRANCH  42  44
HETATM   44  O7  UNL     1      -0.826   6.659   2.953  1.00  0.00    -0.361 OA
HETATM   45  H51 UNL     1      -0.780   7.616   2.797  1.00  0.00     0.217 HD
ENDBRANCH  42  44
ENDBRANCH  37  38
ENDBRANCH  36  37
ENDBRANCH  25  36
BRANCH  21  46
HETATM   46  O6  UNL     1       0.053  -2.051   0.836  1.00  0.00    -0.384 OA
HETATM   47  H38 UNL     1      -0.382  -2.579   1.528  1.00  0.00     0.211 HD
ENDBRANCH  21  46
BRANCH  19  48
HETATM   48  O4  UNL     1      -5.784  -4.128   1.151  1.00  0.00    -0.393 OA
HETATM   49  H35 UNL     1      -6.307  -4.278   0.345  1.00  0.00     0.210 HD
ENDBRANCH  19  48
BRANCH  20  50
HETATM   50  O5  UNL     1      -7.536  -2.500   0.162  1.00  0.00    -0.393 OA
HETATM   51  H37 UNL     1      -7.945  -3.062   0.846  1.00  0.00     0.210 HD
ENDBRANCH  20  50
TORSDOF 11
