REMARK  11 active torsions:
REMARK  status: ('A' for Active; 'I' for Inactive)
REMARK    1  A    between atoms: C13_13  and  S1_14 
REMARK    2  A    between atoms: C25_30  and  O5_31 
REMARK    3  A    between atoms: C31_37  and  C32_38 
REMARK    4  A    between atoms: C32_38  and  O6_39 
REMARK    5  A    between atoms: C40_47  and  C41_48 
REMARK    6  A    between atoms: C40_47  and  N1_63 
REMARK    7  A    between atoms: C41_48  and  C42_49 
REMARK    8  A    between atoms: C42_49  and  C43_50 
REMARK    9  A    between atoms: C42_49  and  C50_57 
REMARK   10  A    between atoms: C43_50  and  C44_51 
REMARK   11  A    between atoms: C50_57  and  O7_58 
REMARK       I    between atoms: C55_65  and  N2_66 
REMARK       I    between atoms: C55_65  and  N3_67 
ROOT
HETATM    1  C1  UNL     1       3.917   5.786  -1.221  1.00  0.00     0.010 C 
HETATM    2  C2  UNL     1       2.437   5.430  -1.365  1.00  0.00    -0.010 C 
HETATM    3  C3  UNL     1       2.162   4.793  -2.723  1.00  0.00     0.009 C 
HETATM    4  C4  UNL     1       0.686   4.453  -2.934  1.00  0.00     0.039 C 
HETATM    5  C5  UNL     1      -0.084   4.036  -1.706  1.00  0.00    -0.049 C 
HETATM    6  C6  UNL     1      -1.345   3.437  -1.866  1.00  0.00     0.044 C 
HETATM    7  C7  UNL     1      -2.109   3.068  -0.758  1.00  0.00     0.073 C 
HETATM    8  C8  UNL     1      -1.696   3.458   0.511  1.00  0.00     0.037 C 
HETATM    9  C9  UNL     1      -0.425   4.007   0.689  1.00  0.00     0.011 C 
HETATM   10  C10 UNL     1       0.418   4.234  -0.411  1.00  0.00    -0.047 C 
HETATM   11  C11 UNL     1       1.874   4.591  -0.189  1.00  0.00     0.024 C 
HETATM   12  C12 UNL     1       2.748   3.415   0.381  1.00  0.00     0.033 C 
HETATM   13  C13 UNL     1       2.363   1.912   0.126  1.00  0.00     0.139 C 
HETATM   14  C14 UNL     1       2.821   0.997   1.341  1.00  0.00     0.037 C 
HETATM   15  C15 UNL     1       4.254   0.449   1.325  1.00  0.00    -0.014 C 
HETATM   16  C16 UNL     1       4.616  -0.615   2.077  1.00  0.00    -0.050 C 
HETATM   17  C17 UNL     1       3.622  -1.175   3.056  1.00  0.00     0.042 C 
HETATM   18  C18 UNL     1       2.346  -1.481   2.266  1.00  0.00    -0.001 C 
HETATM   19  C19 UNL     1       2.542  -2.481   1.076  1.00  0.00     0.038 C 
HETATM   20  C20 UNL     1       3.895  -3.242   1.010  1.00  0.00     0.130 C 
HETATM   21  O4  UNL     1       4.923  -2.339   0.602  1.00  0.00    -0.371 OA
HETATM   22  C21 UNL     1       5.618  -1.654   1.645  1.00  0.00     0.185 C 
HETATM   23  C22 UNL     1       7.025  -1.327   1.158  1.00  0.00    -0.006 A 
HETATM   24  C23 UNL     1       7.613  -0.067   1.347  1.00  0.00     0.014 A 
HETATM   25  C24 UNL     1       8.926   0.177   0.931  1.00  0.00     0.037 A 
HETATM   26  C25 UNL     1       9.671  -0.845   0.349  1.00  0.00     0.067 A 
HETATM   27  C26 UNL     1       9.134  -2.113   0.172  1.00  0.00     0.057 A 
HETATM   28  C27 UNL     1       7.819  -2.360   0.569  1.00  0.00     0.029 A 
HETATM   29  C28 UNL     1       7.249  -3.664   0.348  1.00  0.00    -0.066 C 
HETATM   30  C29 UNL     1       6.452  -4.555   0.213  1.00  0.00    -0.101 C 
HETATM   31  C30 UNL     1       5.188  -5.316   0.144  1.00  0.00     0.103 C 
HETATM   32  C31 UNL     1       3.921  -4.407  -0.023  1.00  0.00     0.049 C 
HETATM   33  C33 UNL     1       1.752  -0.084   1.886  1.00  0.00     0.033 C 
HETATM   34  C34 UNL     1       0.316  -0.111   1.378  1.00  0.00     0.073 A 
HETATM   35  C35 UNL     1      -0.725   0.177   2.277  1.00  0.00     0.007 C 
HETATM   36  C36 UNL     1      -2.012   0.462   1.824  1.00  0.00     0.010 C 
HETATM   37  C37 UNL     1      -2.293   0.493   0.450  1.00  0.00    -0.005 C 
HETATM   38  C38 UNL     1      -1.302   0.017  -0.428  1.00  0.00     0.012 C 
HETATM   39  C39 UNL     1      -0.021  -0.305   0.037  1.00  0.00     0.133 A 
HETATM   40  C40 UNL     1      -3.564   1.210  -0.082  1.00  0.00     0.171 C 
HETATM   41  O8  UNL     1      -3.207   2.289  -1.022  1.00  0.00    -0.316 OA
HETATM   42 NA1  UNL     1       0.000   0.000   0.000  1.00  0.00    -0.397 Na
ATOM     43  HA1 UNL     1      -0.103   0.710  -0.725  1.00  0.00     0.155 HD
ENDROOT
BRANCH  40  44
HETATM   44  C41 UNL     1      -4.387   0.207  -0.971  1.00  0.00     0.075 C 
BRANCH  44  45
HETATM   45  C42 UNL     1      -4.679  -1.229  -0.429  1.00  0.00     0.029 C 
BRANCH  45  46
HETATM   46  C43 UNL     1      -5.503  -1.299   0.890  1.00  0.00     0.046 C 
BRANCH  46  47
HETATM   47  C44 UNL     1      -7.010  -1.158   0.850  1.00  0.00    -0.058 A 
HETATM   48  C45 UNL     1      -7.821  -2.197   1.335  1.00  0.00     0.007 A 
HETATM   49  C46 UNL     1      -9.214  -2.102   1.300  1.00  0.00     0.001 A 
HETATM   50  C47 UNL     1      -9.820  -0.958   0.789  1.00  0.00     0.000 A 
HETATM   51  C48 UNL     1      -9.032   0.095   0.335  1.00  0.00     0.001 A 
HETATM   52  C49 UNL     1      -7.639  -0.003   0.372  1.00  0.00     0.007 A 
ENDBRANCH  46  47
ENDBRANCH  45  46
BRANCH  45  53
HETATM   53  C50 UNL     1      -5.206  -2.165  -1.563  1.00  0.00     0.062 C 
HETATM   54  C51 UNL     1      -4.174  -2.390  -2.683  1.00  0.00     0.038 C 
HETATM   55  C52 UNL     1      -4.585  -3.696  -3.370  1.00  0.00     0.003 C 
HETATM   56  C53 UNL     1      -5.564  -4.388  -2.430  1.00  0.00     0.003 C 
HETATM   57  C54 UNL     1      -5.490  -3.608  -1.123  1.00  0.00     0.038 C 
BRANCH  53  58
HETATM   58  O7  UNL     1      -6.370  -1.611  -2.182  1.00  0.00    -0.389 OA
HETATM   59  H50 UNL     1      -7.116  -1.711  -1.563  1.00  0.00     0.210 HD
ENDBRANCH  53  58
ENDBRANCH  45  53
ENDBRANCH  44  45
ENDBRANCH  40  44
BRANCH  40  60
HETATM   60  N1  UNL     1      -4.459   1.616   1.026  1.00  0.00    -0.336 N 
HETATM   61  C55 UNL     1      -5.214   2.640   0.945  1.00  0.00     0.124 C 
HETATM   62  N2  UNL     1      -6.042   2.939   1.969  1.00  0.00    -0.279 NA
HETATM   63  N3  UNL     1      -5.369   3.554  -0.034  1.00  0.00    -0.279 NA
HETATM   64  H59 UNL     1      -6.031   3.928   2.188  1.00  0.00     0.126 HD
HETATM   65  H60 UNL     1      -5.812   2.380   2.784  1.00  0.00     0.126 HD
HETATM   66  H61 UNL     1      -4.824   3.341  -0.867  1.00  0.00     0.126 HD
HETATM   67  H62 UNL     1      -6.338   3.734  -0.264  1.00  0.00     0.126 HD
ATOM     68  H1  UNL     1      -4.472   1.059   1.880  1.00  0.00     0.165 HD
ENDBRANCH  40  60
BRANCH  13  69
HETATM   69  S1  UNL     1       2.938   1.306  -1.488  1.00  0.00     0.106 S 
HETATM   70  O1  UNL     1       3.047  -0.143  -1.351  1.00  0.00    -0.595 OA
HETATM   71  O2  UNL     1       4.217   1.987  -1.686  1.00  0.00    -0.595 OA
HETATM   72  O3  UNL     1       1.889   1.695  -2.425  1.00  0.00    -0.595 OA
ENDBRANCH  13  69
BRANCH  32  73
HETATM   73  C32 UNL     1       3.812  -3.891  -1.465  1.00  0.00     0.172 C 
BRANCH  73  74
HETATM   74  O6  UNL     1       3.638  -4.996  -2.359  1.00  0.00    -0.400 OA
HETATM   75  H34 UNL     1       3.571  -4.588  -3.242  1.00  0.00     0.209 HD
ENDBRANCH  73  74
ENDBRANCH  32  73
BRANCH  26  76
HETATM   76  O5  UNL     1      10.953  -0.629  -0.073  1.00  0.00    -0.361 OA
HETATM   77  H27 UNL     1      11.107   0.330  -0.066  1.00  0.00     0.217 HD
ENDBRANCH  26  76
TORSDOF 11
