REMARK  9 active torsions:
REMARK  status: ('A' for Active; 'I' for Inactive)
REMARK    1  A    between atoms: C7_8  and  O1_9 
REMARK    2  A    between atoms: O1_9  and  C8_10 
REMARK    3  A    between atoms: C8_10  and  C9_11 
REMARK       I    between atoms: C9_11  and  N1_13 
REMARK    4  A    between atoms: N1_13  and  N2_14 
REMARK    5  A    between atoms: C10_16  and  C11_17 
REMARK    6  A    between atoms: C14_20  and  O3_21 
REMARK    7  A    between atoms: C16_23  and  O4_24 
REMARK    8  A    between atoms: C25_33  and  C26_34 
REMARK    9  A    between atoms: C32_42  and  O7_43 
ROOT
HETATM    1  C11 UNL     1      -0.366  -1.310   1.334  1.00  0.00     0.028 C 
HETATM    2  C12 UNL     1       0.242  -0.616   2.594  1.00  0.00     0.021 C 
HETATM    3  C13 UNL     1       1.244  -1.476   3.378  1.00  0.00     0.033 C 
HETATM    4  C14 UNL     1       1.899  -2.573   2.549  1.00  0.00     0.121 C 
HETATM    5  C15 UNL     1       0.883  -3.494   1.853  1.00  0.00     0.070 C 
HETATM    6  C16 UNL     1      -0.499  -2.836   1.631  1.00  0.00     0.073 C 
HETATM    7  C17 UNL     1      -1.288  -3.594   0.550  1.00  0.00     0.039 C 
HETATM    8  C18 UNL     1      -2.648  -2.957   0.252  1.00  0.00     0.011 C 
HETATM    9  C19 UNL     1      -2.530  -1.462  -0.107  1.00  0.00     0.026 C 
HETATM   10  C20 UNL     1      -1.766  -0.678   0.995  1.00  0.00     0.009 C 
HETATM   11  C21 UNL     1      -1.710   0.839   0.698  1.00  0.00     0.007 C 
HETATM   12  C22 UNL     1      -2.301   1.227  -0.652  1.00  0.00     0.013 C 
HETATM   13  C23 UNL     1      -3.720   0.681  -0.963  1.00  0.00    -0.005 C 
HETATM   14  C24 UNL     1      -3.897   0.806  -2.498  1.00  0.00     0.019 C 
HETATM   15  C25 UNL     1      -4.897   1.438  -0.265  1.00  0.00     0.028 C 
HETATM   16  C30 UNL     1      -5.059   0.749   1.085  1.00  0.00     0.013 C 
HETATM   17  C31 UNL     1      -4.878  -0.725   0.753  1.00  0.00     0.040 C 
HETATM   18  C32 UNL     1      -3.896  -0.798  -0.445  1.00  0.00     0.070 C 
ENDROOT
BRANCH   1  19
HETATM   19  C10 UNL     1       0.533  -1.113   0.097  1.00  0.00     0.093 C 
HETATM   20  N2  UNL     1       1.511  -0.268   0.091  1.00  0.00    -0.312 N 
ATOM     21  H2  UNL     1       1.743   0.288   0.914  1.00  0.00     0.185 HD
BRANCH  20  22
HETATM   22  N1  UNL     1       2.217  -0.156  -1.069  1.00  0.00    -0.269 N 
HETATM   23  C9  UNL     1       3.232   0.799  -1.152  1.00  0.00     0.260 C 
HETATM   24  O2  UNL     1       3.544   1.567  -0.246  1.00  0.00    -0.269 OA
HETATM   25  H9  UNL     1       1.936  -0.689  -1.885  1.00  0.00     0.190 HD
BRANCH  23  26
HETATM   26  C8  UNL     1       3.920   0.799  -2.524  1.00  0.00     0.280 C 
BRANCH  26  27
HETATM   27  O1  UNL     1       5.152   1.492  -2.619  1.00  0.00    -0.342 OA
BRANCH  27  28
HETATM   28  C7  UNL     1       6.252   0.959  -2.000  1.00  0.00     0.075 A 
HETATM   29  C2  UNL     1       7.375   1.807  -1.925  1.00  0.00    -0.027 A 
HETATM   30  C1  UNL     1       7.323   3.204  -2.481  1.00  0.00     0.051 C 
HETATM   31  C3  UNL     1       8.557   1.343  -1.325  1.00  0.00     0.033 A 
HETATM   32  C4  UNL     1       8.618   0.055  -0.801  1.00  0.00     0.034 A 
HETATM   33 CL1  UNL     1      10.070  -0.507  -0.069  1.00  0.00    -0.084 Cl
HETATM   34  C5  UNL     1       7.509  -0.784  -0.871  1.00  0.00     0.026 A 
HETATM   35  C6  UNL     1       6.328  -0.334  -1.471  1.00  0.00     0.039 A 
ENDBRANCH  27  28
ENDBRANCH  26  27
ENDBRANCH  23  26
ENDBRANCH  20  22
ENDBRANCH   1  19
BRANCH   6  36
HETATM   36  O4  UNL     1      -1.213  -3.042   2.866  1.00  0.00    -0.389 OA
HETATM   37  H19 UNL     1      -2.071  -2.590   2.845  1.00  0.00     0.210 HD
ENDBRANCH   6  36
BRANCH   4  38
HETATM   38  O3  UNL     1       2.748  -3.346   3.395  1.00  0.00    -0.395 OA
HETATM   39  H16 UNL     1       3.216  -3.990   2.839  1.00  0.00     0.210 HD
ENDBRANCH   4  38
BRANCH  18  40
HETATM   40  O7  UNL     1      -4.527  -1.579  -1.467  1.00  0.00    -0.389 OA
HETATM   41  H41 UNL     1      -4.899  -2.384  -1.070  1.00  0.00     0.210 HD
ENDBRANCH  18  40
BRANCH  15  42
HETATM   42  C26 UNL     1      -4.855   2.937  -0.206  1.00  0.00    -0.045 A 
HETATM   43  C27 UNL     1      -5.434   3.757  -1.084  1.00  0.00     0.087 A 
HETATM   44  C28 UNL     1      -5.192   5.124  -0.631  1.00  0.00     0.283 A 
HETATM   45  O5  UNL     1      -5.581   6.125  -1.204  1.00  0.00    -0.260 OA
HETATM   46  O6  UNL     1      -4.477   5.088   0.524  1.00  0.00    -0.314 OA
HETATM   47  C29 UNL     1      -4.225   3.727   0.879  1.00  0.00     0.213 A 
ENDBRANCH  15  42
TORSDOF 9
