REMARK  4 active torsions:
REMARK  status: ('A' for Active; 'I' for Inactive)
REMARK    1  A    between atoms: C4_4  and  C5_5 
REMARK    2  A    between atoms: C7_7  and  N1_8 
REMARK    3  A    between atoms: C9_10  and  C10_11 
REMARK    4  A    between atoms: C10_11  and  N2_12 
ROOT
HETATM    1  N1  UNL     1      -0.483  -0.949  -0.007  1.00  0.00    -0.300 N 
HETATM    2  C8  UNL     1      -1.314  -0.012   0.579  1.00  0.00     0.109 A 
HETATM    3  C9  UNL     1      -2.635  -0.379   0.412  1.00  0.00    -0.011 A 
HETATM    4  C14 UNL     1      -2.623  -1.614  -0.303  1.00  0.00     0.000 A 
HETATM    5  C15 UNL     1      -3.642  -2.477  -0.764  1.00  0.00     0.014 A 
HETATM    6  C16 UNL     1      -3.309  -3.649  -1.449  1.00  0.00     0.001 A 
HETATM    7  C17 UNL     1      -1.980  -3.972  -1.683  1.00  0.00     0.002 A 
HETATM    8  C18 UNL     1      -0.951  -3.135  -1.242  1.00  0.00     0.031 A 
HETATM    9  C19 UNL     1      -1.285  -1.954  -0.549  1.00  0.00     0.051 A 
ENDROOT
BRANCH   1  10
HETATM   10  C7  UNL     1       0.917  -0.889  -0.036  1.00  0.00     0.179 A 
HETATM   11  C6  UNL     1       1.722   0.108   0.477  1.00  0.00     0.091 A 
HETATM   12  C5  UNL     1       3.059  -0.295   0.202  1.00  0.00     0.069 A 
HETATM   13  N4  UNL     1       3.050  -1.474  -0.439  1.00  0.00    -0.258 N 
HETATM   14  O1  UNL     1       1.731  -1.831  -0.590  1.00  0.00    -0.219 OA
ATOM     15  H4  UNL     1       3.864  -2.003  -0.753  1.00  0.00     0.195 HD
BRANCH  12  16
HETATM   16  C4  UNL     1       4.309   0.396   0.533  1.00  0.00    -0.007 A 
HETATM   17  C3  UNL     1       5.542  -0.268   0.419  1.00  0.00     0.014 A 
HETATM   18  C2  UNL     1       6.738   0.379   0.738  1.00  0.00     0.001 A 
HETATM   19  C1  UNL     1       6.720   1.701   1.174  1.00  0.00     0.000 A 
HETATM   20  C21 UNL     1       5.507   2.377   1.288  1.00  0.00     0.001 A 
HETATM   21  C20 UNL     1       4.309   1.730   0.970  1.00  0.00     0.014 A 
ENDBRANCH  12  16
ENDBRANCH   1  10
BRANCH   3  22
HETATM   22  C10 UNL     1      -3.835   0.367   0.895  1.00  0.00     0.170 C 
BRANCH  22  23
HETATM   23  N2  UNL     1      -3.981   1.636   0.202  1.00  0.00    -0.347 N 
HETATM   24  C11 UNL     1      -3.816   2.882   0.744  1.00  0.00     0.109 A 
HETATM   25  C12 UNL     1      -4.108   3.754  -0.279  1.00  0.00     0.106 A 
HETATM   26  N3  UNL     1      -4.450   3.072  -1.418  1.00  0.00    -0.361 N 
HETATM   27  C13 UNL     1      -4.364   1.799  -1.100  1.00  0.00     0.182 A 
ATOM     28  H3  UNL     1      -4.715   3.468  -2.320  1.00  0.00     0.166 HD
ENDBRANCH  22  23
ENDBRANCH   3  22
TORSDOF 4
