REMARK  9 active torsions:
REMARK  status: ('A' for Active; 'I' for Inactive)
REMARK    1  A    between atoms: C2_2  and  C32_37 
REMARK    2  A    between atoms: C3_3  and  C4_4 
REMARK    3  A    between atoms: C4_4  and  O1_5 
REMARK    4  A    between atoms: C4_4  and  C5_6 
REMARK    5  A    between atoms: C5_6  and  C6_7 
REMARK    6  A    between atoms: C6_7  and  C8_9 
REMARK    7  A    between atoms: C10_11  and  O2_12 
REMARK    8  A    between atoms: C31_35  and  O5_36 
REMARK    9  A    between atoms: C32_37  and  O7_39 
ROOT
HETATM    1  C8  UNL     1       2.290  -1.085   0.134  1.00  0.00     0.001 C 
HETATM    2  C9  UNL     1       2.167  -1.230   1.677  1.00  0.00     0.038 C 
HETATM    3  C10 UNL     1       0.676  -1.099   2.037  1.00  0.00     0.132 C 
HETATM    4  C11 UNL     1      -0.081  -1.251   0.686  1.00  0.00     0.017 C 
HETATM    5  C12 UNL     1      -0.227  -2.770   0.357  1.00  0.00     0.023 C 
HETATM    6  C13 UNL     1      -1.494  -0.660   0.524  1.00  0.00    -0.029 C 
HETATM    7  C14 UNL     1      -1.949  -0.265  -0.696  1.00  0.00     0.002 C 
HETATM    8  C15 UNL     1      -1.016  -0.419  -1.896  1.00  0.00     0.157 C 
HETATM    9  O3  UNL     1      -1.441  -0.313  -3.046  1.00  0.00    -0.293 OA
HETATM   10  C16 UNL     1       0.466  -0.695  -1.696  1.00  0.00     0.094 C 
HETATM   11  C17 UNL     1       0.911  -0.464  -0.255  1.00  0.00    -0.019 C 
HETATM   12  C18 UNL     1       0.941   1.074   0.021  1.00  0.00     0.017 C 
HETATM   13  C19 UNL     1      -3.319   0.419  -0.951  1.00  0.00    -0.007 C 
HETATM   14  C20 UNL     1      -3.013   1.824  -1.558  1.00  0.00     0.021 C 
HETATM   15  C21 UNL     1      -4.190  -0.408  -1.933  1.00  0.00     0.022 C 
HETATM   16  C22 UNL     1      -5.481   0.284  -2.345  1.00  0.00     0.080 C 
HETATM   17  C23 UNL     1      -6.059   1.161  -1.263  1.00  0.00     0.136 C 
HETATM   18  O4  UNL     1      -6.852   2.057  -1.560  1.00  0.00    -0.297 OA
HETATM   19  C24 UNL     1      -5.711   0.833   0.190  1.00  0.00     0.025 C 
HETATM   20  C25 UNL     1      -6.180   2.012   1.078  1.00  0.00     0.024 C 
HETATM   21  C26 UNL     1      -6.577  -0.415   0.563  1.00  0.00     0.044 C 
HETATM   22  C27 UNL     1      -5.819  -1.686   0.794  1.00  0.00    -0.029 C 
HETATM   23  C28 UNL     1      -4.547  -1.676   1.204  1.00  0.00    -0.023 C 
HETATM   24  C29 UNL     1      -3.855  -0.365   1.483  1.00  0.00     0.047 C 
HETATM   25  C30 UNL     1      -4.148   0.672   0.380  1.00  0.00     0.024 C 
HETATM   26  C31 UNL     1      -2.344  -0.485   1.758  1.00  0.00     0.156 C 
ENDROOT
BRANCH   1  27
HETATM   27  C6  UNL     1       3.618  -0.373  -0.277  1.00  0.00    -0.011 C 
HETATM   28  C7  UNL     1       3.701  -0.147  -1.792  1.00  0.00     0.010 C 
BRANCH  27  29
HETATM   29  C5  UNL     1       4.853  -1.212   0.183  1.00  0.00     0.040 C 
BRANCH  29  30
HETATM   30  C4  UNL     1       6.059  -0.394   0.695  1.00  0.00     0.142 C 
BRANCH  30  31
HETATM   31  C3  UNL     1       6.742   0.409  -0.375  1.00  0.00     0.018 C 
HETATM   32  C2  UNL     1       7.201   1.679  -0.367  1.00  0.00     0.010 C 
HETATM   33  C1  UNL     1       7.223   2.613   0.804  1.00  0.00     0.055 C 
BRANCH  32  34
HETATM   34  C32 UNL     1       7.774   2.165  -1.649  1.00  0.00     0.171 C 
HETATM   35  O6  UNL     1       8.042   1.492  -2.630  1.00  0.00    -0.646 OA
BRANCH  34  36
HETATM   36  O7  UNL     1       7.964   3.495  -1.659  1.00  0.00    -0.773 OA
HETATM   37  H44 UNL     1       8.324   3.666  -2.554  1.00  0.00     0.167 HD
ENDBRANCH  34  36
ENDBRANCH  32  34
ENDBRANCH  30  31
BRANCH  30  38
HETATM   38  O1  UNL     1       5.630   0.424   1.773  1.00  0.00    -0.392 OA
HETATM   39  H6  UNL     1       5.294  -0.167   2.467  1.00  0.00     0.210 HD
ENDBRANCH  30  38
ENDBRANCH  29  30
ENDBRANCH  27  29
ENDBRANCH   1  27
BRANCH   3  40
HETATM   40  O2  UNL     1       0.364  -2.085   3.009  1.00  0.00    -0.394 OA
HETATM   41  H17 UNL     1      -0.617  -2.130   3.027  1.00  0.00     0.210 HD
ENDBRANCH   3  40
BRANCH  26  42
HETATM   42  O5  UNL     1      -2.125  -1.549   2.686  1.00  0.00    -0.390 OA
HETATM   43  H43 UNL     1      -2.784  -1.449   3.397  1.00  0.00     0.210 HD
ENDBRANCH  26  42
TORSDOF 9
