REMARK  13 active torsions:
REMARK  status: ('A' for Active; 'I' for Inactive)
REMARK    1  A    between atoms: C19_21  and  O3_22 
REMARK    2  A    between atoms: C19_21  and  C20_23 
REMARK    3  A    between atoms: C20_23  and  C21_25 
REMARK    4  A    between atoms: C21_25  and  O5_26 
REMARK    5  A    between atoms: O5_26  and  C22_27 
REMARK    6  A    between atoms: C22_27  and  C23_29 
REMARK    7  A    between atoms: C23_29  and  C24_30 
REMARK    8  A    between atoms: C24_30  and  C25_31 
REMARK       I    between atoms: C25_31  and  N1_33 
REMARK    9  A    between atoms: N1_33  and  C26_34 
REMARK   10  A    between atoms: C26_34  and  C27_35 
REMARK   11  A    between atoms: C27_35  and  C28_36 
REMARK   12  A    between atoms: C27_35  and  C29_39 
REMARK   13  A    between atoms: C28_36  and  O9_38 
ROOT
HETATM    1  C20 UNL     1      -0.400  -0.432   1.931  1.00  0.00     0.185 C 
HETATM    2  O4  UNL     1      -0.413  -0.713   3.131  1.00  0.00    -0.292 OA
ENDROOT
BRANCH   1   3
HETATM    3  C19 UNL     1      -1.580  -0.750   0.975  1.00  0.00     0.128 C 
HETATM    4  C14 UNL     1      -2.957  -1.069   1.647  1.00  0.00     0.005 C 
HETATM    5  C13 UNL     1      -3.683   0.163   2.229  1.00  0.00     0.091 C 
HETATM    6  C15 UNL     1      -2.858  -2.136   2.776  1.00  0.00     0.019 C 
HETATM    7  C16 UNL     1      -3.733  -1.725   0.455  1.00  0.00     0.002 C 
HETATM    8  C12 UNL     1      -5.006   0.370   1.520  1.00  0.00     0.133 C 
HETATM    9  C11 UNL     1      -4.871   0.596   0.022  1.00  0.00     0.072 C 
HETATM   10  O2  UNL     1      -6.072   0.278   2.119  1.00  0.00    -0.297 OA
HETATM   11  C2  UNL     1      -5.991   1.392  -0.749  1.00  0.00    -0.009 C 
HETATM   12  C10 UNL     1      -4.439  -0.773  -0.577  1.00  0.00     0.003 C 
HETATM   13  C1  UNL     1      -6.892   2.214   0.200  1.00  0.00     0.021 C 
HETATM   14  C3  UNL     1      -5.280   2.377  -1.728  1.00  0.00     0.022 C 
HETATM   15  C7  UNL     1      -6.868   0.477  -1.588  1.00  0.00    -0.067 C 
HETATM   16  C4  UNL     1      -6.232   3.118  -2.664  1.00  0.00     0.084 C 
HETATM   17  C5  UNL     1      -7.218   2.190  -3.330  1.00  0.00     0.149 C 
HETATM   18  O1  UNL     1      -7.843   2.521  -4.335  1.00  0.00    -0.293 OA
HETATM   19  C6  UNL     1      -7.438   0.845  -2.749  1.00  0.00     0.053 C 
HETATM   20  C8  UNL     1      -6.963  -0.938  -1.102  1.00  0.00     0.035 C 
HETATM   21  C9  UNL     1      -5.584  -1.562  -1.272  1.00  0.00     0.010 C 
HETATM   22  C17 UNL     1      -2.671  -2.601  -0.235  1.00  0.00     0.009 C 
HETATM   23  C18 UNL     1      -1.302  -2.003   0.125  1.00  0.00     0.047 C 
BRANCH   3  24
HETATM   24  O3  UNL     1      -1.755   0.365   0.088  1.00  0.00    -0.381 OA
HETATM   25  H25 UNL     1      -1.037   0.348  -0.571  1.00  0.00     0.211 HD
ENDBRANCH   3  24
ENDBRANCH   1   3
BRANCH   1  26
HETATM   26  C21 UNL     1       0.803   0.299   1.340  1.00  0.00     0.260 C 
BRANCH  26  27
HETATM   27  O5  UNL     1       1.178  -0.280   0.092  1.00  0.00    -0.314 OA
BRANCH  27  28
HETATM   28  C22 UNL     1       2.196   0.370  -0.538  1.00  0.00     0.259 C 
HETATM   29  O6  UNL     1       2.691   1.423  -0.165  1.00  0.00    -0.265 OA
BRANCH  28  30
HETATM   30  C23 UNL     1       2.562  -0.363  -1.806  1.00  0.00     0.120 C 
BRANCH  30  31
HETATM   31  C24 UNL     1       3.961   0.014  -2.277  1.00  0.00     0.112 C 
BRANCH  31  32
HETATM   32  C25 UNL     1       5.024  -0.494  -1.324  1.00  0.00     0.218 C 
HETATM   33  O7  UNL     1       4.778  -1.221  -0.366  1.00  0.00    -0.274 OA
HETATM   34  N1  UNL     1       6.292  -0.069  -1.656  1.00  0.00    -0.360 N 
HETATM   35  H32 UNL     1       6.371   0.748  -2.252  1.00  0.00     0.162 HD
BRANCH  34  36
HETATM   36  C26 UNL     1       7.426  -0.332  -0.779  1.00  0.00     0.142 C 
BRANCH  36  37
HETATM   37  C27 UNL     1       7.479   0.602   0.446  1.00  0.00     0.134 C 
BRANCH  37  38
HETATM   38  C28 UNL     1       7.951   1.999   0.057  1.00  0.00     0.150 C 
HETATM   39  O8  UNL     1       8.752   2.711   0.642  1.00  0.00    -0.649 OA
BRANCH  38  40
HETATM   40  O9  UNL     1       7.339   2.491  -1.045  1.00  0.00    -0.776 OA
HETATM   41  H36 UNL     1       7.694   3.406  -1.096  1.00  0.00     0.167 HD
ENDBRANCH  38  40
ENDBRANCH  37  38
BRANCH  37  42
HETATM   42  C29 UNL     1       8.339  -0.033   1.534  1.00  0.00    -0.042 A 
HETATM   43  C30 UNL     1       7.727  -0.555   2.685  1.00  0.00     0.008 A 
HETATM   44  C31 UNL     1       8.491  -1.164   3.683  1.00  0.00     0.001 A 
HETATM   45  C32 UNL     1       9.874  -1.264   3.542  1.00  0.00     0.000 A 
HETATM   46  C33 UNL     1      10.493  -0.759   2.400  1.00  0.00     0.001 A 
HETATM   47  C34 UNL     1       9.732  -0.151   1.400  1.00  0.00     0.008 A 
ENDBRANCH  37  42
ENDBRANCH  36  37
ENDBRANCH  34  36
ENDBRANCH  31  32
ENDBRANCH  30  31
ENDBRANCH  28  30
ENDBRANCH  27  28
ENDBRANCH  26  27
ENDBRANCH   1  26
TORSDOF 13
