REMARK  4 active torsions:
REMARK  status: ('A' for Active; 'I' for Inactive)
REMARK    1  A    between atoms: C4_4  and  C5_5 
REMARK    2  A    between atoms: C5_5  and  C6_6 
REMARK    3  A    between atoms: C6_6  and  C7_7 
REMARK    4  A    between atoms: C7_7  and  C9_9 
ROOT
HETATM    1  C9  UNL     1       2.050  -0.307   0.826  1.00  0.00    -0.002 C 
HETATM    2  C10 UNL     1       1.802  -0.989   2.173  1.00  0.00     0.007 C 
HETATM    3  C11 UNL     1       0.310  -0.823   2.374  1.00  0.00     0.015 C 
HETATM    4  C12 UNL     1      -0.321  -1.217   1.014  1.00  0.00    -0.013 C 
HETATM    5  C13 UNL     1      -0.531  -2.755   1.027  1.00  0.00     0.021 C 
HETATM    6  C14 UNL     1      -1.725  -0.598   0.828  1.00  0.00    -0.070 C 
HETATM    7  C15 UNL     1      -2.568  -0.448   1.871  1.00  0.00    -0.022 C 
HETATM    8  C16 UNL     1      -3.988   0.019   1.782  1.00  0.00     0.034 C 
HETATM    9  C17 UNL     1      -4.540   0.036   0.344  1.00  0.00     0.013 C 
HETATM   10  C18 UNL     1      -6.000   0.609   0.252  1.00  0.00     0.018 C 
HETATM   11  C19 UNL     1      -6.289   1.801   1.184  1.00  0.00     0.023 C 
HETATM   12  C20 UNL     1      -7.010  -0.504   0.610  1.00  0.00     0.023 C 
HETATM   13  C21 UNL     1      -6.299   1.014  -1.193  1.00  0.00     0.135 C 
HETATM   14  O1  UNL     1      -7.179   1.820  -1.491  1.00  0.00    -0.297 OA
HETATM   15  C22 UNL     1      -5.506   0.309  -2.260  1.00  0.00     0.080 C 
HETATM   16  C23 UNL     1      -4.032   0.647  -2.119  1.00  0.00     0.017 C 
HETATM   17  C24 UNL     1      -3.489   0.651  -0.652  1.00  0.00    -0.031 C 
HETATM   18  C25 UNL     1      -3.155   2.118  -0.269  1.00  0.00     0.016 C 
HETATM   19  C26 UNL     1      -2.184  -0.259  -0.589  1.00  0.00     0.024 C 
HETATM   20  C27 UNL     1      -1.055   0.265  -1.506  1.00  0.00     0.010 C 
HETATM   21  C28 UNL     1       0.254   0.529  -0.777  1.00  0.00     0.011 C 
HETATM   22  C29 UNL     1       0.782  -0.726  -0.039  1.00  0.00    -0.029 C 
HETATM   23  C30 UNL     1       1.122  -1.823  -1.076  1.00  0.00     0.016 C 
ENDROOT
BRANCH   1  24
HETATM   24  C7  UNL     1       3.486  -0.559   0.256  1.00  0.00    -0.014 C 
HETATM   25  C8  UNL     1       3.779   0.360  -0.936  1.00  0.00     0.010 C 
BRANCH  24  26
HETATM   26  C6  UNL     1       4.571  -0.388   1.358  1.00  0.00     0.008 C 
BRANCH  26  27
HETATM   27  C5  UNL     1       6.025  -0.636   0.920  1.00  0.00     0.028 C 
BRANCH  27  28
HETATM   28  C4  UNL     1       6.729   0.603   0.434  1.00  0.00    -0.025 C 
HETATM   29  C2  UNL     1       7.465   0.761  -0.684  1.00  0.00    -0.091 C 
HETATM   30  C1  UNL     1       8.108   2.089  -0.994  1.00  0.00     0.042 C 
HETATM   31  C3  UNL     1       7.733  -0.303  -1.711  1.00  0.00     0.042 C 
ENDBRANCH  27  28
ENDBRANCH  26  27
ENDBRANCH  24  26
ENDBRANCH   1  24
TORSDOF 4
