REMARK  13 active torsions:
REMARK  status: ('A' for Active; 'I' for Inactive)
REMARK    1  A    between atoms: C3_3  and  O1_4 
REMARK    2  A    between atoms: N1_14  and  O2_16 
REMARK    3  A    between atoms: O2_16  and  C13_17 
REMARK    4  A    between atoms: C13_17  and  C14_18 
REMARK       I    between atoms: C14_18  and  N2_20 
REMARK    5  A    between atoms: N2_20  and  C15_21 
REMARK    6  A    between atoms: C15_21  and  C16_22 
REMARK    7  A    between atoms: C15_21  and  C21_32 
REMARK       I    between atoms: C16_22  and  N3_24 
REMARK    8  A    between atoms: N3_24  and  C17_25 
REMARK    9  A    between atoms: C17_25  and  C18_26 
REMARK   10  A    between atoms: C17_25  and  C19_28 
REMARK   11  A    between atoms: C18_26  and  S1_27 
REMARK   12  A    between atoms: C19_28  and  C20_29 
REMARK   13  A    between atoms: C20_29  and  O6_31 
ROOT
HETATM    1  C1  UNL     1     -10.337   1.851  -1.723  1.00  0.00     0.015 C 
HETATM    2  C2  UNL     1      -9.484   1.571  -0.924  1.00  0.00    -0.078 C 
HETATM    3  C3  UNL     1      -8.434   1.242   0.056  1.00  0.00     0.128 C 
HETATM    4  C4  UNL     1      -8.997   0.468   1.252  1.00  0.00     0.052 C 
HETATM    5  C5  UNL     1      -7.831  -0.362   1.802  1.00  0.00     0.010 C 
HETATM    6  C6  UNL     1      -6.646  -0.228   0.811  1.00  0.00     0.002 C 
HETATM    7  C7  UNL     1      -5.514   0.651   1.402  1.00  0.00    -0.004 C 
HETATM    8  C8  UNL     1      -4.792  -0.015   2.590  1.00  0.00     0.010 C 
HETATM    9  C9  UNL     1      -3.813  -1.094   2.158  1.00  0.00     0.035 C 
HETATM   10  C10 UNL     1      -2.776  -0.537   1.220  1.00  0.00    -0.069 C 
HETATM   11  C11 UNL     1      -1.471  -0.718   1.489  1.00  0.00     0.030 C 
HETATM   12  C12 UNL     1      -0.402  -0.292   0.550  1.00  0.00     0.032 C 
HETATM   13  N1  UNL     1       0.833  -0.539   0.888  1.00  0.00    -0.271 N 
ATOM     14  H1  UNL     1       1.112  -0.981   1.764  1.00  0.00     0.194 HD
HETATM   15  C24 UNL     1      -0.820   0.335  -0.762  1.00  0.00     0.060 C 
HETATM   16  C25 UNL     1      -2.151   1.063  -0.622  1.00  0.00     0.020 C 
HETATM   17  C26 UNL     1      -3.299   0.191  -0.021  1.00  0.00    -0.016 C 
HETATM   18  C27 UNL     1      -3.683  -0.884  -1.057  1.00  0.00     0.020 C 
HETATM   19  C28 UNL     1      -4.485   1.169   0.367  1.00  0.00     0.002 C 
HETATM   20  C29 UNL     1      -5.217   1.841  -0.807  1.00  0.00     0.007 C 
HETATM   21  C30 UNL     1      -6.322   1.010  -1.449  1.00  0.00     0.014 C 
HETATM   22  C31 UNL     1      -7.309   0.309  -0.492  1.00  0.00     0.003 C 
HETATM   23  C32 UNL     1      -7.913  -0.900  -1.265  1.00  0.00     0.020 C 
ENDROOT
BRANCH   3  24
HETATM   24  O1  UNL     1      -7.893   2.467   0.541  1.00  0.00    -0.377 OA
HETATM   25  H2  UNL     1      -8.641   3.024   0.811  1.00  0.00     0.211 HD
ENDBRANCH   3  24
BRANCH  13  26
HETATM   26  O2  UNL     1       1.730  -0.120  -0.106  1.00  0.00    -0.271 OA
BRANCH  26  27
HETATM   27  C13 UNL     1       3.044  -0.475   0.289  1.00  0.00     0.303 C 
BRANCH  27  28
HETATM   28  C14 UNL     1       4.082   0.081  -0.685  1.00  0.00     0.244 C 
HETATM   29  O3  UNL     1       3.845   0.943  -1.527  1.00  0.00    -0.271 OA
HETATM   30  N2  UNL     1       5.345  -0.458  -0.516  1.00  0.00    -0.346 N 
HETATM   31  H16 UNL     1       5.440  -1.303   0.039  1.00  0.00     0.163 HD
BRANCH  30  32
HETATM   32  C15 UNL     1       6.430  -0.173  -1.472  1.00  0.00     0.180 C 
BRANCH  32  33
HETATM   33  C16 UNL     1       7.775  -0.302  -0.718  1.00  0.00     0.241 C 
HETATM   34  O4  UNL     1       8.807  -0.750  -1.205  1.00  0.00    -0.271 OA
HETATM   35  N3  UNL     1       7.734   0.244   0.558  1.00  0.00    -0.353 N 
HETATM   36  H18 UNL     1       6.823   0.546   0.885  1.00  0.00     0.163 HD
BRANCH  35  37
HETATM   37  C17 UNL     1       8.816   0.033   1.527  1.00  0.00     0.103 C 
BRANCH  37  38
HETATM   38  C18 UNL     1       8.437  -1.064   2.553  1.00  0.00     0.096 C 
BRANCH  38  39
HETATM   39  S1  UNL     1       7.887  -2.634   1.799  1.00  0.00    -0.180 SA
HETATM   40  H22 UNL     1       8.914  -2.749   0.936  1.00  0.00     0.101 HD
ENDBRANCH  38  39
ENDBRANCH  37  38
BRANCH  37  41
HETATM   41  C19 UNL     1       9.122   1.363   2.228  1.00  0.00     0.136 C 
BRANCH  41  42
HETATM   42  C20 UNL     1      10.401   1.306   3.014  1.00  0.00     0.141 C 
HETATM   43  O5  UNL     1      11.229   0.413   3.017  1.00  0.00    -0.650 OA
BRANCH  42  44
HETATM   44  O6  UNL     1      10.574   2.407   3.772  1.00  0.00    -0.776 OA
HETATM   45  H25 UNL     1      11.435   2.264   4.218  1.00  0.00     0.167 HD
ENDBRANCH  42  44
ENDBRANCH  41  42
ENDBRANCH  37  41
ENDBRANCH  35  37
ENDBRANCH  32  33
BRANCH  32  46
HETATM   46  C21 UNL     1       6.293  -1.045  -2.742  1.00  0.00     0.009 C 
HETATM   47  C22 UNL     1       6.510  -2.540  -2.484  1.00  0.00     0.012 C 
HETATM   48  C23 UNL     1       7.196  -0.557  -3.878  1.00  0.00     0.012 C 
ENDBRANCH  32  46
ENDBRANCH  30  32
ENDBRANCH  27  28
ENDBRANCH  26  27
ENDBRANCH  13  26
TORSDOF 13
