REMARK  10 active torsions:
REMARK  status: ('A' for Active; 'I' for Inactive)
REMARK    1  A    between atoms: C2_2  and  C3_3 
REMARK    2  A    between atoms: C3_3  and  C4_4 
REMARK    3  A    between atoms: C4_4  and  O1_5 
REMARK    4  A    between atoms: O1_5  and  C5_6 
REMARK    5  A    between atoms: C5_6  and  C6_7 
REMARK    6  A    between atoms: C10_11  and  C12_13 
REMARK    7  A    between atoms: C12_13  and  C13_15 
REMARK    8  A    between atoms: C13_15  and  S1_16 
REMARK    9  A    between atoms: S1_16  and  C14_17 
REMARK   10  A    between atoms: C15_20  and  C16_21 
ROOT
HETATM    1  C12 UNL     1      -2.167  -0.393  -0.739  1.00  0.00     0.171 C 
HETATM    2  O2  UNL     1      -2.630   0.510  -0.034  1.00  0.00    -0.294 OA
ENDROOT
BRANCH   1   3
HETATM    3  C10 UNL     1      -0.993  -1.248  -0.217  1.00  0.00     0.129 C 
HETATM    4  C9  UNL     1       0.090  -0.326   0.347  1.00  0.00     0.076 C 
HETATM    5  C8  UNL     1       1.401  -0.992  -0.024  1.00  0.00     0.141 C 
HETATM    6  C7  UNL     1       2.472   0.004  -0.436  1.00  0.00     0.065 C 
HETATM    7  C22 UNL     1       1.009  -1.918  -1.129  1.00  0.00     0.279 C 
HETATM    8  C23 UNL     1       2.073  -1.719   1.101  1.00  0.00     0.278 C 
HETATM    9  C6  UNL     1       3.754  -0.724  -0.075  1.00  0.00     0.157 C 
HETATM   10  O6  UNL     1       3.421  -1.498   1.081  1.00  0.00    -0.313 OA
HETATM   11  O3  UNL     1      -0.345  -1.961  -1.270  1.00  0.00    -0.301 OA
HETATM   12  O4  UNL     1       1.778  -2.537  -1.846  1.00  0.00    -0.264 OA
HETATM   13  O5  UNL     1       1.515  -2.403   1.942  1.00  0.00    -0.264 OA
HETATM   14  C11 UNL     1      -1.527  -2.245   0.811  1.00  0.00     0.055 C 
BRANCH   9  15
HETATM   15  C5  UNL     1       4.915   0.219   0.241  1.00  0.00     0.200 C 
BRANCH  15  16
HETATM   16  O1  UNL     1       5.146   1.079  -0.873  1.00  0.00    -0.389 OA
BRANCH  16  17
HETATM   17  C4  UNL     1       6.183   2.035  -0.642  1.00  0.00     0.167 C 
BRANCH  17  18
HETATM   18  C3  UNL     1       7.563   1.418  -0.863  1.00  0.00     0.026 C 
BRANCH  18  19
HETATM   19  C2  UNL     1       8.699   2.440  -0.807  1.00  0.00    -0.002 C 
HETATM   20  C1  UNL     1       8.896   3.044   0.575  1.00  0.00     0.005 C 
ENDBRANCH  18  19
ENDBRANCH  17  18
ENDBRANCH  16  17
ENDBRANCH  15  16
ENDBRANCH   9  15
ENDBRANCH   1   3
BRANCH   1  21
HETATM   21  C13 UNL     1      -2.688  -0.637  -2.144  1.00  0.00     0.164 C 
BRANCH  21  22
HETATM   22  S1  UNL     1      -3.503  -2.245  -2.325  1.00  0.00    -0.085 SA
BRANCH  22  23
HETATM   23  C14 UNL     1      -4.967  -1.975  -1.472  1.00  0.00     0.161 A 
HETATM   24  N1  UNL     1      -5.386  -0.869  -0.918  1.00  0.00    -0.320 N 
HETATM   25  C15 UNL     1      -6.611  -1.223  -0.386  1.00  0.00     0.134 A 
ATOM     26  H1  UNL     1      -4.921   0.038  -0.886  1.00  0.00     0.169 HD
HETATM   27  N2  UNL     1      -6.924  -2.519  -0.566  1.00  0.00    -0.283 N 
HETATM   28  N3  UNL     1      -5.878  -2.962  -1.283  1.00  0.00    -0.278 N 
ATOM     29  H2  UNL     1      -7.744  -3.032  -0.242  1.00  0.00     0.188 HD
HETATM   30  H26 UNL     1      -5.848  -3.927  -1.592  1.00  0.00     0.189 HD
BRANCH  25  31
HETATM   31  C16 UNL     1      -7.414  -0.264   0.363  1.00  0.00     0.031 A 
HETATM   32  C17 UNL     1      -6.735   0.676   1.163  1.00  0.00     0.017 A 
HETATM   33  C18 UNL     1      -7.433   1.623   1.917  1.00  0.00     0.001 A 
HETATM   34  C19 UNL     1      -8.822   1.651   1.881  1.00  0.00     0.002 A 
HETATM   35  C20 UNL     1      -9.512   0.737   1.083  1.00  0.00     0.025 A 
HETATM   36  C21 UNL     1      -8.816  -0.216   0.323  1.00  0.00     0.048 A 
HETATM   37 CL1  UNL     1      -9.779  -1.247  -0.681  1.00  0.00    -0.083 Cl
ENDBRANCH  25  31
ENDBRANCH  22  23
ENDBRANCH  21  22
ENDBRANCH   1  21
TORSDOF 10
