REMARK  5 active torsions:
REMARK  status: ('A' for Active; 'I' for Inactive)
REMARK    1  A    between atoms: C2_2  and  C3_3 
REMARK    2  A    between atoms: C2_2  and  C9_12 
REMARK    3  A    between atoms: C3_3  and  C4_4 
REMARK    4  A    between atoms: C6_6  and  C7_7 
REMARK    5  A    between atoms: C7_7  and  O1_8 
ROOT
HETATM    1  C9  UNL     1      -2.238  -0.170  -0.717  1.00  0.00    -0.002 C 
HETATM    2  C10 UNL     1      -2.103  -1.663  -1.141  1.00  0.00     0.007 C 
HETATM    3  C11 UNL     1      -0.617  -2.047  -1.011  1.00  0.00     0.015 C 
HETATM    4  C12 UNL     1       0.022  -0.889  -0.219  1.00  0.00    -0.013 C 
HETATM    5  C13 UNL     1      -0.248  -1.196   1.289  1.00  0.00     0.021 C 
HETATM    6  C14 UNL     1       1.527  -0.675  -0.339  1.00  0.00    -0.070 C 
HETATM    7  C15 UNL     1       2.374  -1.690  -0.562  1.00  0.00    -0.022 C 
HETATM    8  C16 UNL     1       3.858  -1.565  -0.569  1.00  0.00     0.034 C 
HETATM    9  C17 UNL     1       4.467  -0.136  -0.421  1.00  0.00     0.013 C 
HETATM   10  C18 UNL     1       5.963  -0.257   0.079  1.00  0.00     0.018 C 
HETATM   11  C19 UNL     1       6.800   1.018  -0.147  1.00  0.00     0.023 C 
HETATM   12  C20 UNL     1       6.713  -1.385  -0.678  1.00  0.00     0.023 C 
HETATM   13  C21 UNL     1       5.947  -0.576   1.583  1.00  0.00     0.135 C 
HETATM   14  O4  UNL     1       6.736  -1.379   2.084  1.00  0.00    -0.297 OA
HETATM   15  C22 UNL     1       5.006   0.218   2.471  1.00  0.00     0.080 C 
HETATM   16  C23 UNL     1       3.587   0.315   1.915  1.00  0.00     0.017 C 
HETATM   17  C24 UNL     1       3.531   0.799   0.446  1.00  0.00    -0.031 C 
HETATM   18  C25 UNL     1       3.982   2.280   0.380  1.00  0.00     0.016 C 
HETATM   19  C26 UNL     1       2.057   0.743  -0.157  1.00  0.00     0.024 C 
HETATM   20  C27 UNL     1       1.026   1.668   0.549  1.00  0.00     0.010 C 
HETATM   21  C28 UNL     1      -0.437   1.582   0.052  1.00  0.00     0.011 C 
HETATM   22  C29 UNL     1      -0.761   0.340  -0.798  1.00  0.00    -0.029 C 
HETATM   23  C30 UNL     1      -0.422   0.643  -2.291  1.00  0.00     0.016 C 
ENDROOT
BRANCH   1  24
HETATM   24  C2  UNL     1      -3.358   0.568  -1.506  1.00  0.00    -0.011 C 
HETATM   25  C1  UNL     1      -3.471   2.049  -1.134  1.00  0.00     0.010 C 
BRANCH  24  26
HETATM   26  C3  UNL     1      -4.741  -0.139  -1.386  1.00  0.00     0.041 C 
BRANCH  26  27
HETATM   27  C4  UNL     1      -5.381  -0.133   0.010  1.00  0.00     0.156 A 
HETATM   28  C5  UNL     1      -6.571  -1.011   0.086  1.00  0.00     0.021 A 
HETATM   29  C6  UNL     1      -7.672  -0.313   0.362  1.00  0.00     0.039 A 
HETATM   30  C8  UNL     1      -7.255   1.084   0.489  1.00  0.00     0.291 A 
HETATM   31  O2  UNL     1      -7.995   2.020   0.728  1.00  0.00    -0.260 OA
HETATM   32  O3  UNL     1      -5.909   1.164   0.306  1.00  0.00    -0.308 OA
BRANCH  29  33
HETATM   33  C7  UNL     1      -9.081  -0.705   0.560  1.00  0.00     0.208 C 
BRANCH  33  34
HETATM   34  O1  UNL     1      -9.205  -2.123   0.497  1.00  0.00    -0.396 OA
HETATM   35  H11 UNL     1     -10.135  -2.329   0.690  1.00  0.00     0.209 HD
ENDBRANCH  33  34
ENDBRANCH  29  33
ENDBRANCH  26  27
ENDBRANCH  24  26
ENDBRANCH   1  24
TORSDOF 5
