REMARK  12 active torsions:
REMARK  status: ('A' for Active; 'I' for Inactive)
REMARK    1  A    between atoms: O1_2  and  C2_3 
REMARK    2  A    between atoms: C3_5  and  C4_6 
REMARK    3  A    between atoms: C4_6  and  O3_7 
REMARK    4  A    between atoms: C4_6  and  C5_8 
REMARK    5  A    between atoms: C5_8  and  O4_10 
REMARK    6  A    between atoms: C5_8  and  C7_11 
REMARK    7  A    between atoms: C7_11  and  O5_12 
REMARK    8  A    between atoms: C9_14  and  C10_15 
REMARK    9  A    between atoms: C23_28  and  O6_29 
REMARK   10  A    between atoms: O6_29  and  C24_30 
REMARK   11  A    between atoms: C24_30  and  C25_32 
REMARK   12  A    between atoms: C34_41  and  O8_42 
ROOT
HETATM    1  C10 UNL     1      -3.045   1.571   1.306  1.00  0.00     0.004 C 
HETATM    2  C11 UNL     1      -2.752   3.030   0.882  1.00  0.00     0.007 C 
HETATM    3  C12 UNL     1      -1.837   2.953  -0.344  1.00  0.00     0.011 C 
HETATM    4  C13 UNL     1      -1.066   1.659  -0.145  1.00  0.00    -0.021 A 
HETATM    5  C14 UNL     1      -1.737   0.454  -0.753  1.00  0.00     0.022 A 
HETATM    6  C15 UNL     1      -1.899   0.740   0.730  1.00  0.00    -0.027 A 
HETATM    7  C16 UNL     1      -1.281  -0.302   1.637  1.00  0.00     0.011 C 
HETATM    8  C17 UNL     1       0.207  -0.085   1.920  1.00  0.00     0.007 C 
HETATM    9  C18 UNL     1       0.990   0.326   0.651  1.00  0.00     0.005 C 
HETATM   10  C19 UNL     1       2.571   0.148   0.746  1.00  0.00    -0.035 C 
HETATM   11  C20 UNL     1       3.169   0.916   1.949  1.00  0.00     0.016 C 
HETATM   12  C21 UNL     1       2.895  -1.366   0.950  1.00  0.00     0.012 C 
HETATM   13  C22 UNL     1       4.369  -1.725   0.770  1.00  0.00     0.034 C 
HETATM   14  C23 UNL     1       4.926  -1.271  -0.580  1.00  0.00     0.140 C 
HETATM   15  C29 UNL     1       4.707   0.250  -0.855  1.00  0.00    -0.016 C 
HETATM   16  C30 UNL     1       5.100   0.501  -2.338  1.00  0.00     0.018 C 
HETATM   17  C31 UNL     1       5.660   1.123  -0.011  1.00  0.00     0.018 C 
HETATM   18  C32 UNL     1       3.180   0.572  -0.645  1.00  0.00     0.007 C 
HETATM   19  C33 UNL     1       2.751   2.005  -1.039  1.00  0.00     0.038 C 
HETATM   20  C34 UNL     1       1.224   2.122  -1.175  1.00  0.00     0.128 C 
HETATM   21  C35 UNL     1       0.472   1.731   0.130  1.00  0.00    -0.005 C 
HETATM   22  C36 UNL     1       0.709   2.854   1.183  1.00  0.00     0.019 C 
ENDROOT
BRANCH   1  23
HETATM   23  C9  UNL     1      -4.473   1.070   1.036  1.00  0.00     0.048 C 
HETATM   24  C2  UNL     1      -5.141   1.403  -0.300  1.00  0.00     0.264 C 
HETATM   25  O2  UNL     1      -6.083   0.343  -0.570  1.00  0.00    -0.353 OA
HETATM   26  C3  UNL     1      -6.070  -0.571   0.552  1.00  0.00     0.157 C 
HETATM   27  C8  UNL     1      -4.670  -0.430   1.127  1.00  0.00     0.044 C 
BRANCH  24  28
HETATM   28  O1  UNL     1      -5.818   2.650  -0.193  1.00  0.00    -0.366 OA
HETATM   29  C1  UNL     1      -6.341   3.081  -1.442  1.00  0.00     0.204 C 
ENDBRANCH  24  28
BRANCH  26  30
HETATM   30  C4  UNL     1      -6.386  -1.996   0.059  1.00  0.00     0.183 C 
BRANCH  30  31
HETATM   31  O3  UNL     1      -5.697  -2.223  -1.181  1.00  0.00    -0.390 OA
HETATM   32  H7  UNL     1      -5.693  -1.359  -1.638  1.00  0.00     0.210 HD
ENDBRANCH  30  31
BRANCH  30  33
HETATM   33  C5  UNL     1      -7.903  -2.285  -0.092  1.00  0.00     0.103 C 
HETATM   34  C6  UNL     1      -8.118  -3.731  -0.570  1.00  0.00     0.051 C 
BRANCH  33  35
HETATM   35  O4  UNL     1      -8.524  -2.180   1.206  1.00  0.00    -0.385 OA
HETATM   36  H11 UNL     1      -9.486  -2.209   1.023  1.00  0.00     0.210 HD
ENDBRANCH  33  35
BRANCH  33  37
HETATM   37  C7  UNL     1      -8.627  -1.297  -1.027  1.00  0.00     0.204 C 
BRANCH  37  38
HETATM   38  O5  UNL     1     -10.031  -1.592  -1.026  1.00  0.00    -0.398 OA
HETATM   39  H14 UNL     1     -10.473  -0.847  -1.477  1.00  0.00     0.209 HD
ENDBRANCH  37  38
ENDBRANCH  33  37
ENDBRANCH  30  33
ENDBRANCH  26  30
ENDBRANCH   1  23
BRANCH  20  40
HETATM   40  O8  UNL     1       0.817   1.278  -2.259  1.00  0.00    -0.395 OA
HETATM   41  H55 UNL     1       1.244   1.610  -3.066  1.00  0.00     0.210 HD
ENDBRANCH  20  40
BRANCH  14  42
HETATM   42  O6  UNL     1       6.340  -1.559  -0.620  1.00  0.00    -0.312 OA
BRANCH  42  43
HETATM   43  C24 UNL     1       6.693  -2.813  -0.985  1.00  0.00     0.283 C 
HETATM   44  O7  UNL     1       5.939  -3.715  -1.315  1.00  0.00    -0.260 OA
BRANCH  43  45
HETATM   45  C25 UNL     1       8.164  -2.963  -1.033  1.00  0.00     0.084 C 
HETATM   46  C26 UNL     1       9.091  -2.388  -0.241  1.00  0.00    -0.082 C 
HETATM   47  C27 UNL     1       8.811  -1.494   0.936  1.00  0.00     0.043 C 
HETATM   48  C28 UNL     1      10.556  -2.646  -0.486  1.00  0.00     0.043 C 
ENDBRANCH  43  45
ENDBRANCH  42  43
ENDBRANCH  14  42
TORSDOF 12
