REMARK  13 active torsions:
REMARK  status: ('A' for Active; 'I' for Inactive)
REMARK    1  A    between atoms: C2_2  and  C3_3 
REMARK    2  A    between atoms: C3_3  and  C4_4 
REMARK    3  A    between atoms: C6_7  and  C7_8 
REMARK    4  A    between atoms: C7_8  and  O2_9 
REMARK    5  A    between atoms: C7_8  and  C8_10 
REMARK    6  A    between atoms: C8_10  and  O3_12 
REMARK    7  A    between atoms: C8_10  and  C10_13 
REMARK    8  A    between atoms: C13_16  and  O4_17 
REMARK    9  A    between atoms: C19_24  and  O6_25 
REMARK   10  A    between atoms: O6_25  and  C20_26 
REMARK   11  A    between atoms: C20_26  and  C21_27 
REMARK   12  A    between atoms: C21_27  and  C22_28 
REMARK   13  A    between atoms: C22_28  and  O7_29 
ROOT
HETATM    1  C10 UNL     1      -2.225   1.394  -1.712  1.00  0.00     0.034 C 
HETATM    2  C11 UNL     1      -1.886   2.834  -2.224  1.00  0.00     0.012 C 
HETATM    3  C12 UNL     1      -0.358   3.019  -2.111  1.00  0.00     0.044 C 
HETATM    4  C13 UNL     1       0.170   1.603  -1.873  1.00  0.00     0.089 C 
HETATM    5  C14 UNL     1       1.543   1.333  -1.304  1.00  0.00    -0.037 C 
HETATM    6  C15 UNL     1       2.361   2.294  -0.850  1.00  0.00     0.057 C 
HETATM    7  C16 UNL     1       3.601   1.963  -0.116  1.00  0.00     0.154 C 
HETATM    8  O5  UNL     1       4.340   2.888   0.213  1.00  0.00    -0.293 OA
HETATM    9  C17 UNL     1       3.858   0.507   0.277  1.00  0.00     0.071 C 
HETATM   10  C18 UNL     1       5.345   0.306   0.599  1.00  0.00     0.045 C 
HETATM   11  C19 UNL     1       6.243   0.438  -0.638  1.00  0.00     0.122 C 
HETATM   12  C24 UNL     1       5.762  -0.460  -1.778  1.00  0.00     0.033 C 
HETATM   13  C25 UNL     1       4.269  -0.313  -2.075  1.00  0.00     0.013 C 
HETATM   14  C26 UNL     1       3.361  -0.473  -0.814  1.00  0.00    -0.026 C 
HETATM   15  C27 UNL     1       3.482  -1.938  -0.317  1.00  0.00     0.016 C 
HETATM   16  C28 UNL     1       1.866  -0.160  -1.203  1.00  0.00     0.026 C 
HETATM   17  C29 UNL     1       0.792  -0.824  -0.307  1.00  0.00     0.011 C 
HETATM   18  C30 UNL     1      -0.655  -0.515  -0.749  1.00  0.00     0.014 C 
HETATM   19  C31 UNL     1      -0.925   1.000  -0.923  1.00  0.00    -0.002 C 
HETATM   20  C32 UNL     1      -0.907   1.658   0.489  1.00  0.00     0.019 C 
ENDROOT
BRANCH   1  21
HETATM   21  C8  UNL     1      -3.646   1.295  -1.047  1.00  0.00     0.087 C 
HETATM   22  C9  UNL     1      -4.715   1.630  -2.109  1.00  0.00     0.049 C 
BRANCH  21  23
HETATM   23  C7  UNL     1      -3.913  -0.116  -0.439  1.00  0.00     0.181 C 
BRANCH  23  24
HETATM   24  C6  UNL     1      -5.312  -0.300   0.196  1.00  0.00     0.157 C 
HETATM   25  O1  UNL     1      -6.250  -0.819  -0.762  1.00  0.00    -0.382 OA
HETATM   26  C5  UNL     1      -7.291  -1.511  -0.053  1.00  0.00     0.173 C 
HETATM   27  C4  UNL     1      -6.912  -1.554   1.430  1.00  0.00     0.016 C 
HETATM   28  C33 UNL     1      -5.406  -1.268   1.389  1.00  0.00     0.019 C 
HETATM   29  C34 UNL     1      -4.629  -2.578   1.231  1.00  0.00     0.013 C 
BRANCH  27  30
HETATM   30  C3  UNL     1      -7.671  -0.511   2.277  1.00  0.00     0.007 C 
BRANCH  30  31
HETATM   31  C2  UNL     1      -9.138  -0.895   2.501  1.00  0.00    -0.004 C 
HETATM   32  C1  UNL     1      -9.862   0.125   3.363  1.00  0.00     0.005 C 
ENDBRANCH  30  31
ENDBRANCH  27  30
ENDBRANCH  23  24
BRANCH  23  33
HETATM   33  O2  UNL     1      -3.636  -1.115  -1.425  1.00  0.00    -0.390 OA
HETATM   34  H13 UNL     1      -4.213  -1.884  -1.248  1.00  0.00     0.210 HD
ENDBRANCH  23  33
ENDBRANCH  21  23
BRANCH  21  35
HETATM   35  O3  UNL     1      -3.757   2.252   0.017  1.00  0.00    -0.387 OA
HETATM   36  H17 UNL     1      -4.031   3.106  -0.367  1.00  0.00     0.210 HD
ENDBRANCH  21  35
ENDBRANCH   1  21
BRANCH   4  37
HETATM   37  O4  UNL     1       0.193   1.018  -3.186  1.00  0.00    -0.384 OA
HETATM   38  H23 UNL     1      -0.320   0.197  -3.189  1.00  0.00     0.211 HD
ENDBRANCH   4  37
BRANCH  11  39
HETATM   39  O6  UNL     1       7.570   0.011  -0.322  1.00  0.00    -0.386 OA
BRANCH  39  40
HETATM   40  C20 UNL     1       8.342   0.995   0.371  1.00  0.00     0.170 C 
BRANCH  40  41
HETATM   41  C21 UNL     1       9.595   0.334   0.940  1.00  0.00     0.052 C 
BRANCH  41  42
HETATM   42  C22 UNL     1       9.339  -0.367   2.280  1.00  0.00     0.169 C 
BRANCH  42  43
HETATM   43  O7  UNL     1       8.269  -1.309   2.269  1.00  0.00    -0.396 OA
HETATM   44  C23 UNL     1       8.567  -2.482   1.522  1.00  0.00     0.201 C 
ENDBRANCH  42  43
ENDBRANCH  41  42
ENDBRANCH  40  41
ENDBRANCH  39  40
ENDBRANCH  11  39
TORSDOF 13
