REMARK  14 active torsions:
REMARK  status: ('A' for Active; 'I' for Inactive)
REMARK    1  A    between atoms: C2_2  and  C3_3 
REMARK    2  A    between atoms: C2_2  and  C35_44 
REMARK    3  A    between atoms: C3_3  and  C4_4 
REMARK    4  A    between atoms: C4_4  and  C5_5 
REMARK    5  A    between atoms: C5_5  and  C6_6 
REMARK    6  A    between atoms: C5_5  and  C7_9 
REMARK    7  A    between atoms: C6_6  and  O2_8 
REMARK    8  A    between atoms: C28_31  and  O4_32 
REMARK    9  A    between atoms: O4_32  and  C29_33 
REMARK   10  A    between atoms: C30_35  and  C31_36 
REMARK   11  A    between atoms: C31_36  and  O6_37 
REMARK   12  A    between atoms: C32_38  and  O7_39 
REMARK   13  A    between atoms: C33_40  and  O8_41 
REMARK   14  A    between atoms: C34_42  and  O9_43 
ROOT
HETATM    1  C7  UNL     1       2.757   1.210   0.219  1.00  0.00     0.009 C 
HETATM    2  C8  UNL     1       1.976   2.206  -0.669  1.00  0.00     0.007 C 
HETATM    3  C9  UNL     1       0.489   1.787  -0.598  1.00  0.00     0.015 C 
HETATM    4  C10 UNL     1       0.404   0.711   0.507  1.00  0.00    -0.010 C 
HETATM    5  C11 UNL     1       0.260   1.452   1.880  1.00  0.00     0.021 C 
HETATM    6  C12 UNL     1      -0.729  -0.324   0.480  1.00  0.00    -0.039 C 
HETATM    7  C13 UNL     1      -0.523  -1.554   1.022  1.00  0.00    -0.066 C 
HETATM    8  C14 UNL     1       0.846  -1.931   1.636  1.00  0.00     0.036 C 
HETATM    9  C15 UNL     1       2.023  -0.946   1.475  1.00  0.00     0.015 C 
HETATM   10  C16 UNL     1       1.790  -0.003   0.297  1.00  0.00    -0.028 C 
HETATM   11  C17 UNL     1       1.859  -0.835  -1.022  1.00  0.00     0.016 C 
HETATM   12  C18 UNL     1      -1.619  -2.666   1.049  1.00  0.00    -0.015 C 
HETATM   13  C19 UNL     1      -0.964  -3.990   0.580  1.00  0.00     0.020 C 
HETATM   14  C20 UNL     1      -2.093  -2.788   2.524  1.00  0.00     0.021 C 
HETATM   15  C21 UNL     1      -3.241  -3.759   2.734  1.00  0.00     0.080 C 
HETATM   16  C22 UNL     1      -4.419  -3.386   1.869  1.00  0.00     0.135 C 
HETATM   17  O3  UNL     1      -5.546  -3.310   2.362  1.00  0.00    -0.297 OA
HETATM   18  C23 UNL     1      -4.163  -3.229   0.363  1.00  0.00     0.018 C 
HETATM   19  C24 UNL     1      -4.053  -4.645  -0.247  1.00  0.00     0.023 C 
HETATM   20  C25 UNL     1      -5.424  -2.605  -0.294  1.00  0.00     0.023 C 
HETATM   21  C26 UNL     1      -2.862  -2.339   0.123  1.00  0.00     0.016 C 
HETATM   22  C27 UNL     1      -3.197  -0.838   0.225  1.00  0.00     0.043 C 
HETATM   23  C28 UNL     1      -2.043   0.087  -0.160  1.00  0.00     0.155 C 
ENDROOT
BRANCH  23  24
HETATM   24  O4  UNL     1      -2.375   1.422   0.250  1.00  0.00    -0.349 OA
BRANCH  24  25
HETATM   25  C29 UNL     1      -3.172   2.151  -0.697  1.00  0.00     0.292 C 
HETATM   26  O5  UNL     1      -4.525   1.681  -0.726  1.00  0.00    -0.348 OA
HETATM   27  C30 UNL     1      -5.391   2.400   0.167  1.00  0.00     0.179 C 
HETATM   28  C32 UNL     1      -5.570   3.851  -0.337  1.00  0.00     0.180 C 
HETATM   29  C33 UNL     1      -4.246   4.417  -0.904  1.00  0.00     0.183 C 
HETATM   30  C34 UNL     1      -3.047   3.662  -0.350  1.00  0.00     0.204 C 
BRANCH  27  31
HETATM   31  C31 UNL     1      -6.714   1.639   0.301  1.00  0.00     0.198 C 
BRANCH  31  32
HETATM   32  O6  UNL     1      -7.514   2.193   1.338  1.00  0.00    -0.398 OA
HETATM   33  H45 UNL     1      -8.148   1.503   1.596  1.00  0.00     0.209 HD
ENDBRANCH  31  32
ENDBRANCH  27  31
BRANCH  28  34
HETATM   34  O7  UNL     1      -6.547   3.939  -1.393  1.00  0.00    -0.390 OA
HETATM   35  H47 UNL     1      -6.748   4.891  -1.502  1.00  0.00     0.210 HD
ENDBRANCH  28  34
BRANCH  29  36
HETATM   36  O8  UNL     1      -4.231   4.344  -2.336  1.00  0.00    -0.390 OA
HETATM   37  H49 UNL     1      -5.080   3.921  -2.586  1.00  0.00     0.210 HD
ENDBRANCH  29  36
BRANCH  30  38
HETATM   38  O9  UNL     1      -2.977   3.869   1.072  1.00  0.00    -0.388 OA
HETATM   39  H51 UNL     1      -2.380   3.165   1.401  1.00  0.00     0.210 HD
ENDBRANCH  30  38
ENDBRANCH  24  25
ENDBRANCH  23  24
BRANCH   1  40
HETATM   40  C5  UNL     1       4.244   0.944  -0.137  1.00  0.00     0.089 C 
BRANCH  40  41
HETATM   41  C4  UNL     1       4.642   1.019  -1.625  1.00  0.00     0.020 C 
BRANCH  41  42
HETATM   42  C3  UNL     1       6.134   0.726  -1.906  1.00  0.00     0.034 C 
BRANCH  42  43
HETATM   43  C2  UNL     1       6.694  -0.636  -1.533  1.00  0.00    -0.086 C 
HETATM   44  C1  UNL     1       5.955  -1.762  -1.524  1.00  0.00     0.014 C 
BRANCH  43  45
HETATM   45  C35 UNL     1       8.181  -0.713  -1.188  1.00  0.00     0.005 C 
HETATM   46  C36 UNL     1       9.066  -0.126  -2.295  1.00  0.00     0.014 C 
HETATM   47  C37 UNL     1       8.484  -0.060   0.163  1.00  0.00     0.014 C 
ENDBRANCH  43  45
ENDBRANCH  42  43
ENDBRANCH  41  42
ENDBRANCH  40  41
BRANCH  40  48
HETATM   48  C6  UNL     1       5.087   1.903   0.690  1.00  0.00     0.144 C 
HETATM   49  O1  UNL     1       5.684   1.632   1.718  1.00  0.00    -0.650 OA
BRANCH  48  50
HETATM   50  O2  UNL     1       5.089   3.169   0.223  1.00  0.00    -0.776 OA
HETATM   51  H8  UNL     1       5.638   3.661   0.870  1.00  0.00     0.167 HD
ENDBRANCH  48  50
ENDBRANCH  40  48
ENDBRANCH   1  40
TORSDOF 14
