REMARK  16 active torsions:
REMARK  status: ('A' for Active; 'I' for Inactive)
REMARK    1  A    between atoms: C2_2  and  C7_9 
REMARK    2  A    between atoms: C3_3  and  C4_4 
REMARK    3  A    between atoms: C4_4  and  C6_6 
REMARK    4  A    between atoms: C6_6  and  O2_8 
REMARK    5  A    between atoms: C7_9  and  C8_10 
REMARK    6  A    between atoms: C8_10  and  C9_11 
REMARK    7  A    between atoms: C9_11  and  O3_12 
REMARK    8  A    between atoms: C9_11  and  C10_13 
REMARK    9  A    between atoms: C10_13  and  C11_14 
REMARK   10  A    between atoms: C13_16  and  O4_17 
REMARK   11  A    between atoms: C17_23  and  C19_25 
REMARK   12  A    between atoms: C22_28  and  C24_30 
REMARK   13  A    between atoms: C25_32  and  C26_33 
REMARK   14  A    between atoms: C27_35  and  O9_36 
REMARK   15  A    between atoms: C27_35  and  C28_37 
REMARK   16  A    between atoms: C28_37  and  O10_38 
ROOT
HETATM    1  C11 UNL     1       3.964  -1.445   1.257  1.00  0.00     0.130 C 
HETATM    2  C12 UNL     1       4.012  -2.529   2.339  1.00  0.00     0.064 C 
HETATM    3  C13 UNL     1       3.364  -3.823   1.891  1.00  0.00     0.129 C 
HETATM    4  C14 UNL     1       2.039  -3.517   1.192  1.00  0.00     0.073 C 
HETATM    5  C15 UNL     1       1.026  -2.844   2.142  1.00  0.00     0.018 C 
HETATM    6  C16 UNL     1       2.330  -2.697  -0.099  1.00  0.00     0.174 C 
HETATM    7  O5  UNL     1       3.519  -1.905  -0.014  1.00  0.00    -0.349 OA
HETATM    8  O6  UNL     1       1.183  -1.872  -0.388  1.00  0.00    -0.341 OA
HETATM    9  C17 UNL     1       0.895  -1.879  -1.795  1.00  0.00     0.087 C 
HETATM   10  C18 UNL     1       1.625  -0.694  -2.434  1.00  0.00     0.049 C 
HETATM   11  C37 UNL     1       1.438  -3.215  -2.312  1.00  0.00     0.050 C 
HETATM   12  C38 UNL     1       2.515  -3.637  -1.328  1.00  0.00     0.047 C 
HETATM   13  C39 UNL     1       3.902  -3.640  -1.990  1.00  0.00     0.015 C 
ENDROOT
BRANCH   9  14
HETATM   14  C19 UNL     1      -0.629  -1.805  -2.087  1.00  0.00     0.157 C 
HETATM   15  C20 UNL     1      -1.519  -2.682  -1.227  1.00  0.00     0.038 C 
HETATM   16  C21 UNL     1      -2.890  -2.159  -1.608  1.00  0.00     0.043 C 
HETATM   17  C22 UNL     1      -2.648  -0.656  -1.864  1.00  0.00     0.084 C 
HETATM   18  C23 UNL     1      -3.218  -0.299  -3.246  1.00  0.00     0.049 C 
HETATM   19  O11 UNL     1      -1.208  -0.494  -1.920  1.00  0.00    -0.370 OA
BRANCH  17  20
HETATM   20  C24 UNL     1      -3.246   0.181  -0.706  1.00  0.00     0.160 C 
HETATM   21  O7  UNL     1      -4.694   0.122  -0.728  1.00  0.00    -0.375 OA
HETATM   22  C25 UNL     1      -5.221   1.453  -0.536  1.00  0.00     0.152 C 
HETATM   23  C34 UNL     1      -4.104   2.228   0.157  1.00  0.00     0.041 C 
HETATM   24  C35 UNL     1      -2.855   1.661  -0.509  1.00  0.00     0.016 C 
HETATM   25  C36 UNL     1      -2.495   2.486  -1.731  1.00  0.00     0.012 C 
BRANCH  22  26
HETATM   26  C26 UNL     1      -6.586   1.431   0.192  1.00  0.00     0.158 C 
HETATM   27  O8  UNL     1      -6.374   1.354   1.601  1.00  0.00    -0.345 OA
HETATM   28  C27 UNL     1      -7.540   1.070   2.379  1.00  0.00     0.187 C 
HETATM   29  C29 UNL     1      -8.795   1.832   1.872  1.00  0.00     0.046 C 
HETATM   30  C30 UNL     1      -9.802   0.951   1.122  1.00  0.00     0.015 C 
HETATM   31  C31 UNL     1      -8.374   3.048   1.036  1.00  0.00     0.016 C 
HETATM   32  C32 UNL     1      -7.403   2.706  -0.108  1.00  0.00     0.014 C 
HETATM   33  C33 UNL     1      -8.131   2.617  -1.455  1.00  0.00     0.012 C 
BRANCH  28  34
HETATM   34  O9  UNL     1      -7.759  -0.333   2.380  1.00  0.00    -0.363 OA
HETATM   35  H41 UNL     1      -6.972  -0.673   2.850  1.00  0.00     0.213 HD
ENDBRANCH  28  34
BRANCH  28  36
HETATM   36  C28 UNL     1      -7.198   1.483   3.838  1.00  0.00     0.232 C 
BRANCH  36  37
HETATM   37  O10 UNL     1      -6.134   0.661   4.357  1.00  0.00    -0.396 OA
HETATM   38  H44 UNL     1      -5.750   1.141   5.113  1.00  0.00     0.209 HD
ENDBRANCH  36  37
ENDBRANCH  28  36
ENDBRANCH  22  26
ENDBRANCH  17  20
ENDBRANCH   9  14
BRANCH   3  39
HETATM   39  O4  UNL     1       3.169  -4.664   3.027  1.00  0.00    -0.395 OA
HETATM   40  H22 UNL     1       2.806  -5.508   2.705  1.00  0.00     0.210 HD
ENDBRANCH   3  39
BRANCH   1  41
HETATM   41  C10 UNL     1       5.353  -0.782   1.060  1.00  0.00     0.063 C 
BRANCH  41  42
HETATM   42  C9  UNL     1       6.359  -1.599   0.230  1.00  0.00     0.120 C 
BRANCH  42  43
HETATM   43  C8  UNL     1       7.794  -1.043   0.266  1.00  0.00     0.036 C 
BRANCH  43  44
HETATM   44  C7  UNL     1       8.066   0.147  -0.668  1.00  0.00     0.036 C 
BRANCH  44  45
HETATM   45  C2  UNL     1       7.554   1.492  -0.207  1.00  0.00    -0.087 C 
HETATM   46  C1  UNL     1       8.073   1.972   1.118  1.00  0.00     0.043 C 
HETATM   47  C3  UNL     1       6.740   2.207  -1.014  1.00  0.00    -0.010 C 
BRANCH  47  48
HETATM   48  C4  UNL     1       6.093   3.562  -0.828  1.00  0.00     0.102 C 
HETATM   49  C5  UNL     1       5.590   3.899   0.577  1.00  0.00     0.025 C 
BRANCH  48  50
HETATM   50  C6  UNL     1       7.049   4.629  -1.337  1.00  0.00     0.147 C 
HETATM   51  O1  UNL     1       7.810   5.332  -0.692  1.00  0.00    -0.650 OA
BRANCH  50  52
HETATM   52  O2  UNL     1       7.027   4.750  -2.687  1.00  0.00    -0.776 OA
HETATM   53  H9  UNL     1       7.715   5.424  -2.863  1.00  0.00     0.167 HD
ENDBRANCH  50  52
ENDBRANCH  48  50
ENDBRANCH  47  48
ENDBRANCH  44  45
ENDBRANCH  43  44
ENDBRANCH  42  43
BRANCH  42  54
HETATM   54  O3  UNL     1       6.421  -2.932   0.741  1.00  0.00    -0.395 OA
HETATM   55  H15 UNL     1       6.994  -3.442   0.146  1.00  0.00     0.210 HD
ENDBRANCH  42  54
ENDBRANCH  41  42
ENDBRANCH   1  41
TORSDOF 16
