REMARK  8 active torsions:
REMARK  status: ('A' for Active; 'I' for Inactive)
REMARK    1  A    between atoms: C4_4  and  C5_5 
REMARK    2  A    between atoms: C5_5  and  C6_6 
REMARK    3  A    between atoms: C6_6  and  C7_7 
REMARK    4  A    between atoms: C7_7  and  C9_9 
REMARK    5  A    between atoms: C18_18  and  C20_20 
REMARK    6  A    between atoms: C20_20  and  O2_22 
REMARK    7  A    between atoms: C21_23  and  O3_24 
REMARK    8  A    between atoms: C23_26  and  O4_27 
ROOT
HETATM    1  C9  UNL     1       2.333  -0.362   0.331  1.00  0.00    -0.002 C 
HETATM    2  C10 UNL     1       2.383   0.758   1.393  1.00  0.00     0.006 C 
HETATM    3  C11 UNL     1       0.939   1.263   1.584  1.00  0.00     0.011 C 
HETATM    4  C12 UNL     1       0.041   0.290   0.794  1.00  0.00    -0.032 C 
HETATM    5  C13 UNL     1      -0.316  -0.889   1.751  1.00  0.00     0.016 C 
HETATM    6  C14 UNL     1      -1.260   0.918   0.236  1.00  0.00     0.004 C 
HETATM    7  C15 UNL     1      -2.228   1.410   1.332  1.00  0.00     0.007 C 
HETATM    8  C16 UNL     1      -3.530   0.626   1.427  1.00  0.00     0.007 C 
HETATM    9  C17 UNL     1      -4.280   0.712   0.092  1.00  0.00     0.018 C 
HETATM   10  C18 UNL     1      -5.793   0.317   0.146  1.00  0.00     0.072 C 
HETATM   11  C19 UNL     1      -6.595   1.451   0.841  1.00  0.00     0.030 C 
HETATM   12  C21 UNL     1      -6.313   0.162  -1.305  1.00  0.00     0.139 C 
HETATM   13  C22 UNL     1      -5.549  -0.876  -2.144  1.00  0.00     0.065 C 
HETATM   14  C23 UNL     1      -4.157  -1.217  -1.608  1.00  0.00     0.130 C 
HETATM   15  C24 UNL     1      -3.466  -0.019  -0.988  1.00  0.00    -0.001 A 
HETATM   16  C25 UNL     1      -2.649   0.825  -1.938  1.00  0.00     0.024 A 
HETATM   17  C26 UNL     1      -1.911   0.038  -0.870  1.00  0.00    -0.025 A 
HETATM   18  C27 UNL     1      -1.141  -1.213  -1.343  1.00  0.00     0.011 C 
HETATM   19  C28 UNL     1       0.377  -1.306  -1.108  1.00  0.00     0.011 C 
HETATM   20  C29 UNL     1       0.979  -0.095  -0.401  1.00  0.00    -0.032 C 
HETATM   21  C30 UNL     1       1.157   1.026  -1.463  1.00  0.00     0.016 C 
ENDROOT
BRANCH   1  22
HETATM   22  C7  UNL     1       3.604  -0.587  -0.542  1.00  0.00    -0.014 C 
HETATM   23  C8  UNL     1       4.467  -1.700   0.069  1.00  0.00     0.010 C 
BRANCH  22  24
HETATM   24  C6  UNL     1       4.441   0.669  -0.891  1.00  0.00     0.008 C 
BRANCH  24  25
HETATM   25  C5  UNL     1       5.512   1.123   0.122  1.00  0.00     0.028 C 
BRANCH  25  26
HETATM   26  C4  UNL     1       6.871   0.534  -0.151  1.00  0.00    -0.025 C 
HETATM   27  C2  UNL     1       7.701  -0.087   0.710  1.00  0.00    -0.091 C 
HETATM   28  C1  UNL     1       7.437  -0.301   2.174  1.00  0.00     0.042 C 
HETATM   29  C3  UNL     1       9.019  -0.640   0.236  1.00  0.00     0.042 C 
ENDBRANCH  25  26
ENDBRANCH  24  25
ENDBRANCH  22  24
ENDBRANCH   1  22
BRANCH  14  30
HETATM   30  O4  UNL     1      -4.239  -2.253  -0.633  1.00  0.00    -0.395 OA
HETATM   31  H39 UNL     1      -4.479  -3.071  -1.101  1.00  0.00     0.210 HD
ENDBRANCH  14  30
BRANCH  10  32
HETATM   32  C20 UNL     1      -6.101  -0.922   0.990  1.00  0.00     0.151 C 
HETATM   33  O1  UNL     1      -5.704  -1.163   2.120  1.00  0.00    -0.649 OA
BRANCH  32  34
HETATM   34  O2  UNL     1      -7.019  -1.751   0.450  1.00  0.00    -0.776 OA
HETATM   35  H33 UNL     1      -7.101  -2.444   1.139  1.00  0.00     0.167 HD
ENDBRANCH  32  34
ENDBRANCH  10  32
BRANCH  12  36
HETATM   36  O3  UNL     1      -6.230   1.430  -1.987  1.00  0.00    -0.394 OA
HETATM   37  H35 UNL     1      -6.735   1.349  -2.813  1.00  0.00     0.210 HD
ENDBRANCH  12  36
TORSDOF 8
