REMARK  8 active torsions:
REMARK  status: ('A' for Active; 'I' for Inactive)
REMARK    1  A    between atoms: C2_2  and  C3_3 
REMARK    2  A    between atoms: C2_2  and  C9_11 
REMARK    3  A    between atoms: C3_3  and  C4_4 
REMARK    4  A    between atoms: C4_4  and  O1_5 
REMARK    5  A    between atoms: C4_4  and  C5_6 
REMARK    6  A    between atoms: C20_22  and  O3_23 
REMARK    7  A    between atoms: C23_27  and  C25_29 
REMARK    8  A    between atoms: C25_29  and  O5_30 
ROOT
HETATM    1  C9  UNL     1       2.153   1.584   0.748  1.00  0.00    -0.002 C 
HETATM    2  C10 UNL     1       1.626   2.923   1.343  1.00  0.00     0.007 C 
HETATM    3  C11 UNL     1       0.087   2.874   1.265  1.00  0.00     0.015 C 
HETATM    4  C12 UNL     1      -0.222   1.714   0.295  1.00  0.00    -0.013 C 
HETATM    5  C13 UNL     1      -0.073   2.302  -1.146  1.00  0.00     0.021 C 
HETATM    6  C14 UNL     1      -1.609   1.079   0.340  1.00  0.00    -0.070 C 
HETATM    7  C15 UNL     1      -2.707   1.779   0.668  1.00  0.00    -0.022 C 
HETATM    8  C16 UNL     1      -4.105   1.249   0.600  1.00  0.00     0.034 C 
HETATM    9  C17 UNL     1      -4.222  -0.274   0.352  1.00  0.00     0.018 C 
HETATM   10  C18 UNL     1      -3.124  -0.802  -0.652  1.00  0.00    -0.005 C 
HETATM   11  C19 UNL     1      -3.317  -0.181  -2.059  1.00  0.00     0.019 C 
HETATM   12  C20 UNL     1      -3.184  -2.372  -0.722  1.00  0.00     0.134 C 
HETATM   13  C21 UNL     1      -4.519  -3.004  -0.353  1.00  0.00     0.111 C 
HETATM   14  C22 UNL     1      -5.672  -2.094  -0.669  1.00  0.00     0.140 C 
HETATM   15  O4  UNL     1      -6.598  -2.490  -1.376  1.00  0.00    -0.297 OA
HETATM   16  C23 UNL     1      -5.698  -0.735   0.035  1.00  0.00     0.043 C 
HETATM   17  C24 UNL     1      -6.449  -0.959   1.369  1.00  0.00     0.026 C 
HETATM   18  C26 UNL     1      -1.707  -0.396  -0.053  1.00  0.00     0.026 C 
HETATM   19  C27 UNL     1      -0.482  -0.884  -0.868  1.00  0.00     0.011 C 
HETATM   20  C28 UNL     1       0.905  -0.473  -0.317  1.00  0.00     0.011 C 
HETATM   21  C29 UNL     1       0.881   0.675   0.714  1.00  0.00    -0.029 C 
HETATM   22  C30 UNL     1       0.647   0.072   2.130  1.00  0.00     0.016 C 
ENDROOT
BRANCH   1  23
HETATM   23  C2  UNL     1       3.518   1.118   1.344  1.00  0.00    -0.011 C 
HETATM   24  C1  UNL     1       3.576   0.918   2.863  1.00  0.00     0.010 C 
BRANCH  23  25
HETATM   25  C3  UNL     1       4.068  -0.115   0.584  1.00  0.00     0.039 C 
BRANCH  25  26
HETATM   26  C4  UNL     1       5.557  -0.412   0.836  1.00  0.00     0.150 C 
BRANCH  26  27
HETATM   27  O1  UNL     1       5.719  -1.017   2.118  1.00  0.00    -0.393 OA
HETATM   28  H8  UNL     1       5.526  -1.965   2.037  1.00  0.00     0.210 HD
ENDBRANCH  26  27
BRANCH  26  29
HETATM   29  C5  UNL     1       6.086  -1.345  -0.217  1.00  0.00     0.185 A 
HETATM   30  O2  UNL     1       7.513  -1.345  -0.371  1.00  0.00    -0.367 OA
HETATM   31  C6  UNL     1       6.758  -0.876  -1.500  1.00  0.00     0.083 A 
HETATM   32  C7  UNL     1       6.785  -1.807  -2.673  1.00  0.00     0.048 C 
HETATM   33  C8  UNL     1       6.955   0.577  -1.800  1.00  0.00     0.048 C 
ENDBRANCH  26  29
ENDBRANCH  25  26
ENDBRANCH  23  25
ENDBRANCH   1  23
BRANCH  12  34
HETATM   34  O3  UNL     1      -2.780  -2.829  -2.014  1.00  0.00    -0.394 OA
HETATM   35  H32 UNL     1      -2.761  -3.802  -2.008  1.00  0.00     0.210 HD
ENDBRANCH  12  34
BRANCH  16  36
HETATM   36  C25 UNL     1      -6.528   0.237  -0.844  1.00  0.00     0.181 C 
BRANCH  36  37
HETATM   37  O5  UNL     1      -6.969   1.381  -0.114  1.00  0.00    -0.400 OA
HETATM   38  H40 UNL     1      -7.850   1.175   0.245  1.00  0.00     0.209 HD
ENDBRANCH  36  37
ENDBRANCH  16  36
TORSDOF 8
