REMARK  9 active torsions:
REMARK  status: ('A' for Active; 'I' for Inactive)
REMARK    1  A    between atoms: C2_2  and  O1_3 
REMARK    2  A    between atoms: O1_3  and  C3_4 
REMARK    3  A    between atoms: C3_4  and  C4_6 
REMARK    4  A    between atoms: C7_9  and  C8_10 
REMARK    5  A    between atoms: C8_10  and  N1_11 
REMARK    6  A    between atoms: C9_12  and  N2_13 
REMARK    7  A    between atoms: C13_22  and  N5_23 
REMARK    8  A    between atoms: C26_40  and  O5_42 
REMARK    9  A    between atoms: C29_44  and  O6_45 
ROOT
HETATM    1  C4  UNL     1      -0.676   3.926   0.358  1.00  0.00     0.151 C 
HETATM    2  C5  UNL     1       0.467   3.227   0.485  1.00  0.00     0.055 C 
HETATM    3  C6  UNL     1       0.537   1.886  -0.064  1.00  0.00    -0.020 C 
HETATM    4  C7  UNL     1       1.702   1.321  -0.446  1.00  0.00     0.006 C 
HETATM    5  C17 UNL     1      -0.765   1.208  -0.338  1.00  0.00     0.042 C 
HETATM    6  C18 UNL     1      -1.872   2.074  -0.528  1.00  0.00     0.092 C 
HETATM    7  C19 UNL     1      -3.109   1.595  -0.957  1.00  0.00     0.075 C 
HETATM    8  C20 UNL     1      -3.229   0.240  -1.165  1.00  0.00     0.081 C 
HETATM    9  O4  UNL     1      -4.369  -0.357  -1.626  1.00  0.00    -0.341 OA
HETATM   10  C21 UNL     1      -3.931  -1.696  -2.016  1.00  0.00     0.171 C 
HETATM   11  C22 UNL     1      -2.701  -2.042  -1.139  1.00  0.00     0.057 C 
HETATM   12  C23 UNL     1      -3.067  -2.812   0.140  1.00  0.00     0.012 C 
HETATM   13  C24 UNL     1      -4.482  -2.530   0.638  1.00  0.00     0.004 C 
HETATM   14  C25 UNL     1      -5.572  -2.787  -0.408  1.00  0.00     0.040 C 
HETATM   15  C26 UNL     1      -5.100  -2.692  -1.871  1.00  0.00     0.081 C 
HETATM   16  C27 UNL     1      -4.725  -4.068  -2.441  1.00  0.00     0.049 C 
HETATM   17  C28 UNL     1      -2.208  -0.654  -0.883  1.00  0.00     0.016 C 
HETATM   18  C29 UNL     1      -0.980  -0.185  -0.430  1.00  0.00     0.091 C 
HETATM   19  O7  UNL     1      -1.806   3.433  -0.282  1.00  0.00    -0.303 OA
ENDROOT
BRANCH   4  20
HETATM   20  C8  UNL     1       3.078   1.898  -0.386  1.00  0.00     0.175 C 
BRANCH  20  21
HETATM   21  N1  UNL     1       3.814   1.197   0.678  1.00  0.00    -0.188 N 
HETATM   22  C9  UNL     1       4.474   0.013   0.632  1.00  0.00     0.693 A 
HETATM   23  N7  UNL     1       4.969  -0.153   1.875  1.00  0.00    -0.200 N 
HETATM   24  C15 UNL     1       4.645   0.884   2.715  1.00  0.00     0.124 A 
HETATM   25  H13 UNL     1       5.526  -0.954   2.183  1.00  0.00     0.183 HD
HETATM   26  C16 UNL     1       3.914   1.748   1.966  1.00  0.00     0.127 A 
BRANCH  22  27
HETATM   27  N2  UNL     1       4.688  -0.958  -0.427  1.00  0.00    -0.125 N 
HETATM   28  C10 UNL     1       4.231  -1.007  -1.626  1.00  0.00     0.209 A 
HETATM   29  N3  UNL     1       4.618  -2.117  -2.380  1.00  0.00    -0.344 N 
HETATM   30  C11 UNL     1       5.378  -2.857  -1.622  1.00  0.00     0.148 A 
ATOM     31  H3  UNL     1       4.355  -2.313  -3.346  1.00  0.00     0.167 HD
HETATM   32  C12 UNL     1       6.104  -4.122  -1.778  1.00  0.00     0.290 A 
HETATM   33  C14 UNL     1       5.514  -2.228  -0.324  1.00  0.00     0.177 A 
HETATM   34  O3  UNL     1       6.058  -4.666  -2.867  1.00  0.00    -0.265 OA
HETATM   35  N4  UNL     1       6.779  -4.578  -0.675  1.00  0.00    -0.154 N 
HETATM   36  C13 UNL     1       6.809  -3.909   0.436  1.00  0.00     0.680 A 
ATOM     37  H4  UNL     1       7.272  -5.469  -0.730  1.00  0.00     0.187 HD
HETATM   38  N6  UNL     1       6.197  -2.691   0.654  1.00  0.00    -0.173 N 
ATOM     39  H6  UNL     1       6.284  -2.191   1.539  1.00  0.00     0.186 HD
BRANCH  36  40
HETATM   40  N5  UNL     1       7.474  -4.445   1.479  1.00  0.00    -0.234 N 
HETATM   41  H11 UNL     1       7.912  -3.831   2.153  1.00  0.00     0.174 HD
HETATM   42  H12 UNL     1       8.059  -5.246   1.241  1.00  0.00     0.174 HD
ENDBRANCH  36  40
ENDBRANCH  22  27
ENDBRANCH  20  21
ENDBRANCH   4  20
BRANCH   1  43
HETATM   43  C3  UNL     1      -0.692   5.318   0.890  1.00  0.00     0.317 C 
HETATM   44  O2  UNL     1       0.277   5.841   1.425  1.00  0.00    -0.257 OA
BRANCH  43  45
HETATM   45  O1  UNL     1      -1.907   5.879   0.694  1.00  0.00    -0.316 OA
BRANCH  45  46
HETATM   46  C2  UNL     1      -2.030   7.224   1.174  1.00  0.00     0.175 C 
HETATM   47  C1  UNL     1      -3.454   7.684   0.929  1.00  0.00     0.034 C 
ENDBRANCH  45  46
ENDBRANCH  43  45
ENDBRANCH   1  43
BRANCH  18  48
HETATM   48  O6  UNL     1      -0.011  -1.095  -0.086  1.00  0.00    -0.354 OA
HETATM   49  C30 UNL     1      -0.008  -1.280   1.336  1.00  0.00     0.210 C 
ENDBRANCH  18  48
BRANCH  15  50
HETATM   50  O5  UNL     1      -6.194  -2.231  -2.677  1.00  0.00    -0.388 OA
HETATM   51  H28 UNL     1      -6.979  -2.771  -2.475  1.00  0.00     0.210 HD
ENDBRANCH  15  50
TORSDOF 9
