REMARK  4 active torsions:
REMARK  status: ('A' for Active; 'I' for Inactive)
REMARK    1  A    between atoms: C4_4  and  C5_5 
REMARK    2  A    between atoms: C5_5  and  C6_6 
REMARK    3  A    between atoms: C6_6  and  C7_7 
REMARK    4  A    between atoms: C7_7  and  C9_9 
ROOT
HETATM    1  C9  UNL     1      -1.840  -1.372  -1.126  1.00  0.00    -0.002 C 
HETATM    2  C10 UNL     1      -1.219  -2.446  -2.069  1.00  0.00     0.006 C 
HETATM    3  C11 UNL     1       0.289  -2.159  -2.183  1.00  0.00     0.011 C 
HETATM    4  C12 UNL     1       0.592  -1.172  -1.043  1.00  0.00    -0.032 C 
HETATM    5  C13 UNL     1       0.776  -2.024   0.252  1.00  0.00     0.016 C 
HETATM    6  C14 UNL     1       1.842  -0.270  -1.263  1.00  0.00     0.004 C 
HETATM    7  C15 UNL     1       3.164  -1.054  -1.405  1.00  0.00     0.007 C 
HETATM    8  C16 UNL     1       3.966  -1.199  -0.117  1.00  0.00     0.007 C 
HETATM    9  C17 UNL     1       4.439   0.164   0.418  1.00  0.00     0.010 C 
HETATM   10  C18 UNL     1       5.366   0.020   1.677  1.00  0.00     0.018 C 
HETATM   11  C19 UNL     1       6.743  -0.535   1.236  1.00  0.00     0.023 C 
HETATM   12  C20 UNL     1       4.810  -0.928   2.758  1.00  0.00     0.023 C 
HETATM   13  C21 UNL     1       5.622   1.386   2.330  1.00  0.00     0.135 C 
HETATM   14  O1  UNL     1       6.672   1.640   2.928  1.00  0.00    -0.297 OA
HETATM   15  C22 UNL     1       4.552   2.444   2.244  1.00  0.00     0.080 C 
HETATM   16  C23 UNL     1       3.196   1.855   1.919  1.00  0.00     0.018 C 
HETATM   17  C24 UNL     1       3.235   1.114   0.595  1.00  0.00    -0.026 A 
HETATM   18  C25 UNL     1       2.913   1.966  -0.610  1.00  0.00     0.021 A 
HETATM   19  C26 UNL     1       1.924   0.881  -0.224  1.00  0.00    -0.027 A 
HETATM   20  C27 UNL     1       0.580   1.466   0.267  1.00  0.00     0.011 C 
HETATM   21  C28 UNL     1      -0.664   0.566   0.216  1.00  0.00     0.011 C 
HETATM   22  C29 UNL     1      -0.715  -0.286  -1.059  1.00  0.00    -0.032 C 
HETATM   23  C30 UNL     1      -0.832   0.647  -2.305  1.00  0.00     0.016 C 
ENDROOT
BRANCH   1  24
HETATM   24  C7  UNL     1      -3.290  -0.987  -1.562  1.00  0.00    -0.014 C 
HETATM   25  C8  UNL     1      -4.195  -2.235  -1.565  1.00  0.00     0.010 C 
BRANCH  24  26
HETATM   26  C6  UNL     1      -3.906   0.116  -0.671  1.00  0.00     0.008 C 
BRANCH  26  27
HETATM   27  C5  UNL     1      -5.357   0.483  -1.016  1.00  0.00     0.028 C 
BRANCH  27  28
HETATM   28  C4  UNL     1      -5.806   1.680  -0.220  1.00  0.00    -0.025 C 
HETATM   29  C2  UNL     1      -6.695   1.720   0.792  1.00  0.00    -0.091 C 
HETATM   30  C1  UNL     1      -7.022   3.027   1.467  1.00  0.00     0.042 C 
HETATM   31  C3  UNL     1      -7.428   0.536   1.359  1.00  0.00     0.042 C 
ENDBRANCH  27  28
ENDBRANCH  26  27
ENDBRANCH  24  26
ENDBRANCH   1  24
TORSDOF 4
