REMARK  10 active torsions:
REMARK  status: ('A' for Active; 'I' for Inactive)
REMARK    1  A    between atoms: C2_2  and  C3_4 
REMARK    2  A    between atoms: C10_12  and  O3_13 
REMARK    3  A    between atoms: C13_16  and  C14_17 
REMARK    4  A    between atoms: C14_17  and  C16_19 
REMARK    5  A    between atoms: C16_19  and  C17_20 
REMARK    6  A    between atoms: C17_20  and  C18_21 
REMARK    7  A    between atoms: C26_29  and  C27_30 
REMARK    8  A    between atoms: C27_30  and  C28_31 
REMARK    9  A    between atoms: C28_31  and  C29_32 
REMARK   10  A    between atoms: C29_32  and  O4_33 
ROOT
HETATM    1  C3  UNL     1      -4.156  -1.090  -0.605  1.00  0.00     0.151 A 
HETATM    2  O2  UNL     1      -4.712  -2.106   0.276  1.00  0.00    -0.360 OA
HETATM    3  C4  UNL     1      -3.343  -2.245  -0.066  1.00  0.00     0.166 A 
HETATM    4  C5  UNL     1      -2.416  -1.995   1.073  1.00  0.00     0.041 C 
HETATM    5  C6  UNL     1      -1.556  -0.733   0.877  1.00  0.00     0.006 C 
HETATM    6  C7  UNL     1      -2.385   0.550   0.383  1.00  0.00    -0.030 C 
HETATM    7  C8  UNL     1      -2.309   1.686   1.444  1.00  0.00     0.016 C 
HETATM    8  C9  UNL     1      -1.750   1.160  -0.906  1.00  0.00     0.042 C 
HETATM    9  C10 UNL     1      -0.204   1.309  -0.970  1.00  0.00     0.128 C 
HETATM   10  C11 UNL     1       0.611   0.302  -0.106  1.00  0.00    -0.006 C 
HETATM   11  C12 UNL     1       0.990   0.964   1.262  1.00  0.00     0.019 C 
HETATM   12  C13 UNL     1       1.956  -0.266  -0.699  1.00  0.00     0.001 C 
HETATM   13  C22 UNL     1       2.135  -1.597   0.098  1.00  0.00     0.007 C 
HETATM   14  C23 UNL     1       0.784  -1.925   0.765  1.00  0.00     0.011 C 
HETATM   15  C24 UNL     1      -0.237  -1.016   0.056  1.00  0.00    -0.029 C 
HETATM   16  C25 UNL     1      -0.552  -1.741  -1.293  1.00  0.00     0.016 C 
HETATM   17  C26 UNL     1      -3.948   0.265   0.083  1.00  0.00     0.039 C 
ENDROOT
BRANCH  12  18
HETATM   18  C14 UNL     1       3.260   0.598  -0.691  1.00  0.00    -0.013 C 
HETATM   19  C15 UNL     1       3.067   1.922  -1.441  1.00  0.00     0.010 C 
BRANCH  18  20
HETATM   20  C16 UNL     1       4.434  -0.216  -1.304  1.00  0.00     0.008 C 
BRANCH  20  21
HETATM   21  C17 UNL     1       5.788   0.501  -1.426  1.00  0.00     0.028 C 
BRANCH  21  22
HETATM   22  C18 UNL     1       6.334   1.003  -0.118  1.00  0.00    -0.025 C 
HETATM   23  C19 UNL     1       7.242   0.404   0.678  1.00  0.00    -0.091 C 
HETATM   24  C20 UNL     1       7.838  -0.957   0.429  1.00  0.00     0.042 C 
HETATM   25  C21 UNL     1       7.727   1.075   1.937  1.00  0.00     0.042 C 
ENDBRANCH  21  22
ENDBRANCH  20  21
ENDBRANCH  18  20
ENDBRANCH  12  18
BRANCH   9  26
HETATM   26  O3  UNL     1       0.157   1.187  -2.349  1.00  0.00    -0.395 OA
HETATM   27  H14 UNL     1      -0.246   1.935  -2.829  1.00  0.00     0.210 HD
ENDBRANCH   9  26
BRANCH  17  28
HETATM   28  C27 UNL     1      -4.904   0.435   1.307  1.00  0.00     0.011 C 
BRANCH  28  29
HETATM   29  C28 UNL     1      -6.392   0.452   0.924  1.00  0.00     0.027 C 
BRANCH  29  30
HETATM   30  C29 UNL     1      -7.298   0.470   2.153  1.00  0.00     0.164 C 
BRANCH  30  31
HETATM   31  O4  UNL     1      -7.040   1.622   2.946  1.00  0.00    -0.401 OA
HETATM   32  H48 UNL     1      -7.696   1.618   3.666  1.00  0.00     0.209 HD
ENDBRANCH  30  31
ENDBRANCH  29  30
ENDBRANCH  28  29
ENDBRANCH  17  28
BRANCH   1  33
HETATM   33  C2  UNL     1      -4.786  -1.159  -1.964  1.00  0.00     0.160 C 
HETATM   34  C1  UNL     1      -3.860  -1.280  -3.141  1.00  0.00     0.094 C 
HETATM   35  O1  UNL     1      -6.007  -1.100  -2.105  1.00  0.00    -0.295 OA
ENDBRANCH   1  33
TORSDOF 10
