REMARK  14 active torsions:
REMARK  status: ('A' for Active; 'I' for Inactive)
REMARK    1  A    between atoms: C2_2  and  C3_3 
REMARK    2  A    between atoms: C4_4  and  C5_5 
REMARK    3  A    between atoms: C5_5  and  C6_6 
REMARK    4  A    between atoms: C6_6  and  O2_8 
REMARK    5  A    between atoms: C7_9  and  C8_10 
REMARK    6  A    between atoms: C8_10  and  O4_12 
REMARK    7  A    between atoms: C22_29  and  O8_30 
REMARK    8  A    between atoms: C28_36  and  C29_37 
REMARK    9  A    between atoms: C29_37  and  C31_39 
REMARK   10  A    between atoms: C37_46  and  C38_47 
REMARK   11  A    between atoms: C38_47  and  C39_48 
REMARK   12  A    between atoms: C39_48  and  C40_49 
REMARK   13  A    between atoms: C40_49  and  O9_50 
REMARK   14  A    between atoms: C42_53  and  O11_54 
ROOT
HETATM    1  C3  UNL     1      -4.657  -0.663   0.455  1.00  0.00     0.046 C 
HETATM    2  C4  UNL     1      -5.959   0.056   1.020  1.00  0.00     0.044 C 
HETATM    3  C7  UNL     1      -6.371   1.314   0.245  1.00  0.00     0.019 C 
HETATM    4  C10 UNL     1      -5.439   2.104  -0.337  1.00  0.00    -0.000 C 
HETATM    5  C11 UNL     1      -3.940   1.752  -0.260  1.00  0.00     0.012 C 
HETATM    6  C12 UNL     1      -3.116   2.545  -1.291  1.00  0.00     0.017 C 
HETATM    7  C13 UNL     1      -3.043   3.967  -0.753  1.00  0.00     0.002 C 
HETATM    8  C14 UNL     1      -3.152   3.855   0.763  1.00  0.00     0.010 C 
HETATM    9  C15 UNL     1      -3.433   2.368   1.103  1.00  0.00     0.025 C 
HETATM   10  C16 UNL     1      -2.342   1.665   1.858  1.00  0.00     0.003 C 
HETATM   11  C17 UNL     1      -1.050   1.998   1.953  1.00  0.00     0.131 C 
HETATM   12  O5  UNL     1      -0.154   1.207   2.632  1.00  0.00    -0.361 OA
HETATM   13  C18 UNL     1       0.779   0.577   1.724  1.00  0.00     0.210 C 
HETATM   14  C19 UNL     1       0.093  -0.591   0.988  1.00  0.00     0.191 C 
HETATM   15  O6  UNL     1      -0.937  -0.031   0.162  1.00  0.00    -0.347 OA
HETATM   16  C20 UNL     1      -1.760  -0.982  -0.476  1.00  0.00     0.297 C 
HETATM   17  O7  UNL     1      -2.732  -0.285  -1.230  1.00  0.00    -0.351 OA
HETATM   18  C21 UNL     1      -3.918   0.222  -0.597  1.00  0.00     0.146 C 
HETATM   19  C22 UNL     1      -0.882  -1.871  -1.417  1.00  0.00     0.136 C 
HETATM   20  C23 UNL     1      -0.186  -1.064  -2.535  1.00  0.00     0.050 C 
HETATM   21  C24 UNL     1       0.873  -0.070  -2.037  1.00  0.00     0.041 C 
HETATM   22  C25 UNL     1       1.758  -0.645  -0.956  1.00  0.00    -0.027 C 
HETATM   23  C26 UNL     1       3.084  -0.488  -0.892  1.00  0.00     0.001 A 
HETATM   24  C27 UNL     1       4.005   0.260  -1.727  1.00  0.00     0.039 A 
HETATM   25  C28 UNL     1       5.234   0.073  -1.197  1.00  0.00     0.014 A 
HETATM   26  N1  UNL     1       5.148  -0.749  -0.078  1.00  0.00    -0.357 N 
HETATM   27  C36 UNL     1       3.858  -1.145   0.150  1.00  0.00     0.072 A 
HETATM   28  C37 UNL     1       3.286  -1.966   1.033  1.00  0.00     0.075 C 
HETATM   29  O10 UNL     1       1.923  -2.194   1.051  1.00  0.00    -0.332 OA
HETATM   30  C41 UNL     1       1.057  -1.470   0.137  1.00  0.00     0.148 C 
HETATM   31  C42 UNL     1       0.186  -2.550  -0.544  1.00  0.00     0.199 C 
HETATM   32  H46 UNL     1       5.950  -1.120   0.408  1.00  0.00     0.166 HD
ENDROOT
BRANCH  25  33
HETATM   33  C29 UNL     1       6.531   0.622  -1.729  1.00  0.00     0.035 C 
HETATM   34  C30 UNL     1       7.508  -0.520  -2.029  1.00  0.00     0.017 C 
BRANCH  33  35
HETATM   35  C31 UNL     1       7.200   1.725  -0.878  1.00  0.00    -0.005 C 
HETATM   36  C32 UNL     1       6.309   2.920  -0.528  1.00  0.00     0.005 C 
HETATM   37  C33 UNL     1       7.142   3.691   0.485  1.00  0.00     0.000 C 
HETATM   38  C34 UNL     1       7.990   2.648   1.209  1.00  0.00     0.000 C 
HETATM   39  C35 UNL     1       7.742   1.319   0.494  1.00  0.00     0.005 C 
ENDBRANCH  33  35
ENDBRANCH  25  33
BRANCH  28  40
HETATM   40  C38 UNL     1       4.049  -2.736   2.077  1.00  0.00     0.069 C 
BRANCH  40  41
HETATM   41  C39 UNL     1       4.041  -4.236   1.760  1.00  0.00     0.033 C 
BRANCH  41  42
HETATM   42  C40 UNL     1       4.885  -5.025   2.748  1.00  0.00     0.164 C 
BRANCH  42  43
HETATM   43  O9  UNL     1       6.257  -4.676   2.611  1.00  0.00    -0.401 OA
HETATM   44  H53 UNL     1       6.560  -5.026   1.757  1.00  0.00     0.209 HD
ENDBRANCH  42  43
ENDBRANCH  41  42
ENDBRANCH  40  41
ENDBRANCH  28  40
BRANCH  31  45
HETATM   45  O11 UNL     1       0.964  -3.466  -1.346  1.00  0.00    -0.389 OA
HETATM   46  H55 UNL     1       1.818  -3.579  -0.882  1.00  0.00     0.210 HD
ENDBRANCH  31  45
BRANCH  19  47
HETATM   47  O8  UNL     1      -1.671  -2.904  -2.030  1.00  0.00    -0.382 OA
HETATM   48  H27 UNL     1      -1.022  -3.556  -2.371  1.00  0.00     0.210 HD
ENDBRANCH  19  47
BRANCH   1  49
HETATM   49  C2  UNL     1      -4.911  -2.044  -0.132  1.00  0.00    -0.029 C 
HETATM   50  C1  UNL     1      -4.607  -3.201   0.465  1.00  0.00     0.007 C 
ENDBRANCH   1  49
BRANCH   2  51
HETATM   51  C5  UNL     1      -7.071  -0.929   1.463  1.00  0.00     0.120 C 
BRANCH  51  52
HETATM   52  C6  UNL     1      -7.888  -1.611   0.397  1.00  0.00     0.140 C 
HETATM   53  O1  UNL     1      -8.582  -2.601   0.569  1.00  0.00    -0.650 OA
BRANCH  52  54
HETATM   54  O2  UNL     1      -7.844  -1.034  -0.814  1.00  0.00    -0.776 OA
HETATM   55  H8  UNL     1      -8.443  -1.588  -1.357  1.00  0.00     0.167 HD
ENDBRANCH  52  54
ENDBRANCH  51  52
ENDBRANCH   2  51
BRANCH   3  56
HETATM   56  C8  UNL     1      -7.792   1.754   0.220  1.00  0.00     0.289 C 
HETATM   57  O3  UNL     1      -8.575   1.562   1.137  1.00  0.00    -0.260 OA
BRANCH  56  58
HETATM   58  O4  UNL     1      -8.083   2.356  -0.961  1.00  0.00    -0.323 OA
HETATM   59  C9  UNL     1      -9.434   2.796  -1.092  1.00  0.00     0.213 C 
ENDBRANCH  56  58
ENDBRANCH   3  56
TORSDOF 14
