REMARK  15 active torsions:
REMARK  status: ('A' for Active; 'I' for Inactive)
REMARK    1  A    between atoms: C2_2  and  C3_3 
REMARK    2  A    between atoms: C2_2  and  C4_6 
REMARK    3  A    between atoms: C3_3  and  O2_5 
REMARK    4  A    between atoms: C4_6  and  C5_8 
REMARK    5  A    between atoms: C5_8  and  O4_9 
REMARK    6  A    between atoms: C5_8  and  C6_10 
REMARK    7  A    between atoms: C6_10  and  C7_11 
REMARK    8  A    between atoms: C7_11  and  C9_13 
REMARK    9  A    between atoms: C11_15  and  O5_16 
REMARK   10  A    between atoms: C14_19  and  O6_20 
REMARK   11  A    between atoms: C21_28  and  C22_29 
REMARK   12  A    between atoms: C22_29  and  C23_30 
REMARK   13  A    between atoms: C23_30  and  O8_31 
REMARK   14  A    between atoms: C33_42  and  C34_43 
REMARK   15  A    between atoms: C35_44  and  C36_45 
ROOT
HETATM    1  C9  UNL     1       2.797   0.046  -0.847  1.00  0.00     0.002 C 
HETATM    2  C10 UNL     1       2.194  -1.212  -1.550  1.00  0.00     0.049 C 
HETATM    3  C11 UNL     1       0.675  -0.978  -1.753  1.00  0.00     0.088 C 
HETATM    4  C12 UNL     1      -0.185  -1.934  -0.948  1.00  0.00     0.011 C 
HETATM    5  C13 UNL     1      -1.408  -1.579  -0.503  1.00  0.00     0.015 C 
HETATM    6  C14 UNL     1      -2.012  -0.227  -0.839  1.00  0.00     0.108 C 
HETATM    7  C15 UNL     1      -0.924   0.816  -0.655  1.00  0.00    -0.018 C 
HETATM    8  C16 UNL     1      -1.039   1.868   0.188  1.00  0.00     0.003 C 
HETATM    9  C17 UNL     1       0.180   2.770   0.330  1.00  0.00     0.157 C 
HETATM   10  O7  UNL     1       0.043   3.963   0.596  1.00  0.00    -0.293 OA
HETATM   11  C18 UNL     1       1.581   2.189   0.141  1.00  0.00     0.094 C 
HETATM   12  C19 UNL     1       1.540   0.695  -0.194  1.00  0.00    -0.018 C 
HETATM   13  C20 UNL     1       1.262  -0.078   1.144  1.00  0.00     0.017 C 
HETATM   14  C21 UNL     1       0.444   0.516  -1.335  1.00  0.00     0.032 C 
HETATM   15  C24 UNL     1      -2.243   2.153   1.089  1.00  0.00    -0.007 C 
HETATM   16  C25 UNL     1      -1.684   2.413   2.526  1.00  0.00     0.021 C 
HETATM   17  C26 UNL     1      -3.007   3.380   0.541  1.00  0.00     0.022 C 
HETATM   18  C27 UNL     1      -4.061   3.912   1.498  1.00  0.00     0.080 C 
HETATM   19  C28 UNL     1      -4.633   2.828   2.376  1.00  0.00     0.135 C 
HETATM   20  O9  UNL     1      -5.113   3.121   3.473  1.00  0.00    -0.297 OA
HETATM   21  C29 UNL     1      -4.681   1.396   1.813  1.00  0.00     0.018 C 
HETATM   22  C30 UNL     1      -5.043   0.440   2.973  1.00  0.00     0.023 C 
HETATM   23  C31 UNL     1      -5.881   1.448   0.843  1.00  0.00     0.023 C 
HETATM   24  C32 UNL     1      -3.264   0.942   1.191  1.00  0.00     0.025 C 
HETATM   25  C33 UNL     1      -3.382   0.150  -0.157  1.00  0.00     0.057 C 
ENDROOT
BRANCH   1  26
HETATM   26  C7  UNL     1       4.046  -0.319   0.025  1.00  0.00    -0.011 C 
HETATM   27  C8  UNL     1       4.592   0.891   0.787  1.00  0.00     0.010 C 
BRANCH  26  28
HETATM   28  C6  UNL     1       5.163  -0.936  -0.874  1.00  0.00     0.044 C 
BRANCH  28  29
HETATM   29  C5  UNL     1       6.351  -1.598  -0.153  1.00  0.00     0.188 C 
BRANCH  29  30
HETATM   30  C4  UNL     1       7.430  -0.590   0.301  1.00  0.00     0.169 C 
HETATM   31  O3  UNL     1       7.725   0.384  -0.397  1.00  0.00    -0.294 OA
BRANCH  30  32
HETATM   32  C2  UNL     1       8.187  -0.913   1.576  1.00  0.00     0.152 C 
HETATM   33  C1  UNL     1       9.263  -1.952   1.273  1.00  0.00     0.029 C 
BRANCH  32  34
HETATM   34  C3  UNL     1       8.789   0.311   2.212  1.00  0.00     0.150 C 
HETATM   35  O1  UNL     1       9.974   0.546   2.384  1.00  0.00    -0.649 OA
BRANCH  34  36
HETATM   36  O2  UNL     1       7.855   1.168   2.670  1.00  0.00    -0.776 OA
HETATM   37  H5  UNL     1       8.374   1.919   3.029  1.00  0.00     0.167 HD
ENDBRANCH  34  36
ENDBRANCH  32  34
ENDBRANCH  30  32
ENDBRANCH  29  30
BRANCH  29  38
HETATM   38  O4  UNL     1       5.852  -2.455   0.862  1.00  0.00    -0.388 OA
HETATM   39  H7  UNL     1       6.446  -3.223   0.929  1.00  0.00     0.210 HD
ENDBRANCH  29  38
ENDBRANCH  28  29
ENDBRANCH  26  28
ENDBRANCH   1  26
BRANCH   3  40
HETATM   40  O5  UNL     1       0.336  -1.208  -3.115  1.00  0.00    -0.385 OA
HETATM   41  H17 UNL     1       0.126  -2.150  -3.229  1.00  0.00     0.211 HD
ENDBRANCH   3  40
BRANCH  14  42
HETATM   42  C22 UNL     1       0.498   1.509  -2.582  1.00  0.00     0.044 C 
BRANCH  42  43
HETATM   43  C23 UNL     1       1.775   1.831  -3.362  1.00  0.00     0.165 C 
BRANCH  43  44
HETATM   44  O8  UNL     1       2.372   0.690  -3.942  1.00  0.00    -0.401 OA
HETATM   45  H30 UNL     1       3.047   0.997  -4.570  1.00  0.00     0.209 HD
ENDBRANCH  43  44
ENDBRANCH  42  43
ENDBRANCH  14  42
BRANCH   6  46
HETATM   46  O6  UNL     1      -2.349  -0.335  -2.232  1.00  0.00    -0.380 OA
HETATM   47  H20 UNL     1      -1.945   0.402  -2.712  1.00  0.00     0.211 HD
ENDBRANCH   6  46
BRANCH  25  48
HETATM   48  C34 UNL     1      -4.265  -1.091  -0.014  1.00  0.00    -0.017 C 
HETATM   49  C35 UNL     1      -5.173  -1.478  -0.925  1.00  0.00     0.008 C 
BRANCH  49  50
HETATM   50  C36 UNL     1      -6.019  -2.670  -0.781  1.00  0.00    -0.036 A 
HETATM   51  C37 UNL     1      -7.358  -2.607  -1.189  1.00  0.00     0.011 A 
HETATM   52  C38 UNL     1      -8.185  -3.728  -1.091  1.00  0.00     0.001 A 
HETATM   53  C39 UNL     1      -7.679  -4.928  -0.594  1.00  0.00     0.000 A 
HETATM   54  C40 UNL     1      -6.346  -5.006  -0.197  1.00  0.00     0.001 A 
HETATM   55  C41 UNL     1      -5.517  -3.884  -0.295  1.00  0.00     0.011 A 
ENDBRANCH  49  50
ENDBRANCH  25  48
TORSDOF 15
