REMARK  9 active torsions:
REMARK  status: ('A' for Active; 'I' for Inactive)
REMARK    1  A    between atoms: C2_2  and  C3_3 
REMARK    2  A    between atoms: C2_2  and  C9_12 
REMARK    3  A    between atoms: C3_3  and  C4_4 
REMARK    4  A    between atoms: C4_4  and  C5_5 
REMARK    5  A    between atoms: C5_5  and  O1_6 
REMARK    6  A    between atoms: C5_5  and  C6_7 
REMARK    7  A    between atoms: C6_7  and  O2_9 
REMARK    8  A    between atoms: C6_7  and  C8_10 
REMARK    9  A    between atoms: C8_10  and  O3_11 
ROOT
HETATM    1  C9  UNL     1       1.685   0.007  -0.371  1.00  0.00    -0.002 C 
HETATM    2  C10 UNL     1       1.614  -1.297   0.452  1.00  0.00     0.007 C 
HETATM    3  C11 UNL     1       0.191  -1.838   0.362  1.00  0.00     0.015 C 
HETATM    4  C12 UNL     1      -0.572  -0.955  -0.648  1.00  0.00    -0.005 C 
HETATM    5  C13 UNL     1      -0.414  -1.546  -2.077  1.00  0.00     0.021 C 
HETATM    6  C14 UNL     1      -2.063  -0.875  -0.268  1.00  0.00    -0.000 C 
HETATM    7  C15 UNL     1      -2.660   0.222   0.261  1.00  0.00    -0.060 C 
HETATM    8  C16 UNL     1      -1.836   1.439   0.642  1.00  0.00     0.036 C 
HETATM    9  C17 UNL     1      -0.333   1.183   0.715  1.00  0.00     0.015 C 
HETATM   10  C18 UNL     1       0.184   0.434  -0.531  1.00  0.00    -0.028 C 
HETATM   11  C19 UNL     1      -0.037   1.309  -1.788  1.00  0.00     0.016 C 
HETATM   12  C20 UNL     1      -4.181   0.302   0.559  1.00  0.00    -0.014 C 
HETATM   13  C21 UNL     1      -4.350  -0.100   2.041  1.00  0.00     0.020 C 
HETATM   14  C22 UNL     1      -4.726   1.740   0.343  1.00  0.00     0.021 C 
HETATM   15  C23 UNL     1      -6.237   1.843   0.466  1.00  0.00     0.080 C 
HETATM   16  C24 UNL     1      -6.912   0.931  -0.525  1.00  0.00     0.135 C 
HETATM   17  O4  UNL     1      -7.836   1.356  -1.220  1.00  0.00    -0.297 OA
HETATM   18  C25 UNL     1      -6.478  -0.543  -0.542  1.00  0.00     0.018 C 
HETATM   19  C26 UNL     1      -6.955  -1.157  -1.884  1.00  0.00     0.023 C 
HETATM   20  C27 UNL     1      -7.234  -1.272   0.578  1.00  0.00     0.023 C 
HETATM   21  C28 UNL     1      -4.913  -0.631  -0.465  1.00  0.00     0.020 C 
HETATM   22  C29 UNL     1      -4.389  -2.061  -0.328  1.00  0.00     0.090 C 
HETATM   23  C30 UNL     1      -2.883  -2.132  -0.414  1.00  0.00     0.157 C 
HETATM   24  O5  UNL     1      -2.342  -3.229  -0.548  1.00  0.00    -0.293 OA
ENDROOT
BRANCH   1  25
HETATM   25  C2  UNL     1       2.720   1.012   0.234  1.00  0.00    -0.014 C 
HETATM   26  C1  UNL     1       2.790   2.327  -0.551  1.00  0.00     0.010 C 
BRANCH  25  27
HETATM   27  C3  UNL     1       4.131   0.356   0.297  1.00  0.00     0.007 C 
BRANCH  27  28
HETATM   28  C4  UNL     1       5.179   1.192   1.048  1.00  0.00     0.035 C 
BRANCH  28  29
HETATM   29  C5  UNL     1       6.500   0.463   1.362  1.00  0.00     0.154 C 
BRANCH  29  30
HETATM   30  O1  UNL     1       6.188  -0.649   2.218  1.00  0.00    -0.392 OA
HETATM   31  H10 UNL     1       7.048  -1.057   2.462  1.00  0.00     0.210 HD
ENDBRANCH  29  30
BRANCH  29  32
HETATM   32  C6  UNL     1       7.328  -0.051   0.145  1.00  0.00     0.101 C 
HETATM   33  C7  UNL     1       7.503   1.003  -0.946  1.00  0.00     0.051 C 
BRANCH  32  34
HETATM   34  O2  UNL     1       6.670  -1.195  -0.430  1.00  0.00    -0.385 OA
HETATM   35  H14 UNL     1       6.137  -1.582   0.294  1.00  0.00     0.210 HD
ENDBRANCH  32  34
BRANCH  32  36
HETATM   36  C8  UNL     1       8.721  -0.536   0.609  1.00  0.00     0.204 C 
BRANCH  36  37
HETATM   37  O3  UNL     1       8.590  -1.616   1.539  1.00  0.00    -0.398 OA
HETATM   38  H17 UNL     1       8.292  -2.377   1.002  1.00  0.00     0.209 HD
ENDBRANCH  36  37
ENDBRANCH  32  36
ENDBRANCH  29  32
ENDBRANCH  28  29
ENDBRANCH  27  28
ENDBRANCH  25  27
ENDBRANCH   1  25
TORSDOF 9
