REMARK  12 active torsions:
REMARK  status: ('A' for Active; 'I' for Inactive)
REMARK    1  A    between atoms: O1_2  and  C2_3 
REMARK    2  A    between atoms: C3_6  and  C4_7 
REMARK    3  A    between atoms: C4_7  and  C5_8 
REMARK    4  A    between atoms: C6_9  and  C8_11 
REMARK    5  A    between atoms: C8_11  and  C9_12 
REMARK    6  A    between atoms: C10_13  and  C11_14 
REMARK    7  A    between atoms: C13_16  and  C14_17 
REMARK    8  A    between atoms: C14_17  and  C16_19 
REMARK    9  A    between atoms: C16_19  and  O2_20 
REMARK   10  A    between atoms: C16_19  and  C18_22 
REMARK   11  A    between atoms: C24_29  and  O4_30 
REMARK   12  A    between atoms: C25_31  and  O5_32 
ROOT
HETATM    1  C5  UNL     1      -3.216  -0.136   0.815  1.00  0.00    -0.018 C 
HETATM    2  C6  UNL     1      -2.180   0.232   0.032  1.00  0.00    -0.084 C 
HETATM    3  C7  UNL     1      -1.998   1.611  -0.546  1.00  0.00     0.043 C 
ENDROOT
BRANCH   2   4
HETATM    4  C8  UNL     1      -1.123  -0.778  -0.374  1.00  0.00     0.060 C 
BRANCH   4   5
HETATM    5  C9  UNL     1       0.231  -0.434   0.188  1.00  0.00    -0.022 C 
HETATM    6  C10 UNL     1       1.285  -0.101  -0.576  1.00  0.00     0.003 C 
BRANCH   6   7
HETATM    7  C11 UNL     1       2.626   0.261  -0.111  1.00  0.00    -0.066 C 
HETATM    8  C12 UNL     1       2.883   0.200   1.371  1.00  0.00     0.048 C 
HETATM    9  C13 UNL     1       3.545   0.613  -1.037  1.00  0.00    -0.013 C 
BRANCH   9  10
HETATM   10  C14 UNL     1       4.996   1.061  -0.885  1.00  0.00     0.037 C 
HETATM   11  C15 UNL     1       5.118   2.311  -0.007  1.00  0.00     0.017 C 
BRANCH  10  12
HETATM   12  C16 UNL     1       5.932  -0.115  -0.484  1.00  0.00     0.165 C 
BRANCH  12  13
HETATM   13  O2  UNL     1       5.880  -1.091  -1.546  1.00  0.00    -0.387 OA
HETATM   14  C17 UNL     1       5.862  -2.428  -1.065  1.00  0.00     0.202 C 
ENDBRANCH  12  13
BRANCH  12  15
HETATM   15  C18 UNL     1       7.388   0.285  -0.298  1.00  0.00     0.110 A 
HETATM   16  C19 UNL     1       8.119   0.843  -1.484  1.00  0.00     0.051 C 
HETATM   17  O3  UNL     1       7.675   0.949   0.947  1.00  0.00    -0.367 OA
HETATM   18  C20 UNL     1       8.166  -0.389   0.829  1.00  0.00     0.155 A 
HETATM   19  C21 UNL     1       9.647  -0.510   0.850  1.00  0.00     0.042 C 
ENDBRANCH  12  15
ENDBRANCH  10  12
ENDBRANCH   9  10
ENDBRANCH   6   7
ENDBRANCH   4   5
ENDBRANCH   2   4
BRANCH   1  20
HETATM   20  C4  UNL     1      -4.356   0.716   1.322  1.00  0.00     0.085 C 
BRANCH  20  21
HETATM   21  C3  UNL     1      -5.711   0.394   0.707  1.00  0.00     0.023 A 
HETATM   22  N1  UNL     1      -5.870  -0.864   0.206  1.00  0.00    -0.337 N 
HETATM   23  C2  UNL     1      -7.052  -1.194  -0.362  1.00  0.00     0.179 A 
ATOM     24  H1  UNL     1      -5.111  -1.544   0.259  1.00  0.00     0.168 HD
HETATM   25  C25 UNL     1      -8.131  -0.324  -0.423  1.00  0.00     0.153 A 
HETATM   26  C24 UNL     1      -7.948   0.956   0.096  1.00  0.00     0.111 A 
HETATM   27  C22 UNL     1      -6.750   1.338   0.705  1.00  0.00    -0.003 A 
HETATM   28  C23 UNL     1      -6.582   2.723   1.261  1.00  0.00     0.053 C 
BRANCH  23  29
HETATM   29  O1  UNL     1      -7.187  -2.443  -0.932  1.00  0.00    -0.339 OA
HETATM   30  C1  UNL     1      -5.987  -3.207  -0.910  1.00  0.00     0.211 C 
ENDBRANCH  23  29
BRANCH  25  31
HETATM   31  O5  UNL     1      -9.346  -0.588  -1.002  1.00  0.00    -0.349 OA
HETATM   32  C26 UNL     1      -9.993  -1.712  -0.403  1.00  0.00     0.210 C 
ENDBRANCH  25  31
BRANCH  26  33
HETATM   33  O4  UNL     1      -8.980   1.859   0.009  1.00  0.00    -0.357 OA
HETATM   34  H36 UNL     1      -9.655   1.431  -0.557  1.00  0.00     0.217 HD
ENDBRANCH  26  33
ENDBRANCH  20  21
ENDBRANCH   1  20
TORSDOF 12
