REMARK  20 active torsions:
REMARK  status: ('A' for Active; 'I' for Inactive)
REMARK    1  A    between atoms: C2_2  and  C18_26 
REMARK    2  A    between atoms: C3_3  and  C4_4 
REMARK    3  A    between atoms: C4_4  and  O2_6 
REMARK    4  A    between atoms: O2_6  and  C5_7 
REMARK    5  A    between atoms: C5_7  and  C6_8 
REMARK    6  A    between atoms: C6_8  and  C7_9 
REMARK    7  A    between atoms: C7_9  and  C8_10 
REMARK    8  A    between atoms: C8_10  and  C9_11 
REMARK    9  A    between atoms: C9_11  and  C10_12 
REMARK   10  A    between atoms: C10_12  and  C11_13 
REMARK   11  A    between atoms: C11_13  and  C12_14 
REMARK       I    between atoms: C12_14  and  N1_16 
REMARK   12  A    between atoms: N1_16  and  C13_17 
REMARK   13  A    between atoms: C18_26  and  C19_27 
REMARK   14  A    between atoms: C21_29  and  O5_30 
REMARK   15  A    between atoms: C22_31  and  O6_32 
REMARK   16  A    between atoms: C22_31  and  C23_33 
REMARK   17  A    between atoms: C23_33  and  C24_34 
REMARK   18  A    between atoms: C25_35  and  C26_36 
REMARK   19  A    between atoms: C26_36  and  C28_38 
REMARK   20  A    between atoms: C28_38  and  O7_40 
ROOT
HETATM    1  C4  UNL     1       0.302   0.030   4.821  1.00  0.00     0.283 C 
HETATM    2  O1  UNL     1       0.025   1.141   5.234  1.00  0.00    -0.260 OA
ENDROOT
BRANCH   1   3
HETATM    3  C3  UNL     1      -0.654  -0.977   4.299  1.00  0.00     0.084 C 
HETATM    4  C2  UNL     1      -1.988  -0.819   4.172  1.00  0.00    -0.076 C 
HETATM    5  C1  UNL     1      -2.763   0.388   4.629  1.00  0.00     0.043 C 
BRANCH   4   6
HETATM    6  C18 UNL     1      -2.821  -1.909   3.514  1.00  0.00     0.066 C 
BRANCH   6   7
HETATM    7  C19 UNL     1      -3.281  -1.530   2.093  1.00  0.00     0.128 C 
HETATM    8  C20 UNL     1      -4.327  -2.513   1.580  1.00  0.00     0.067 C 
HETATM    9  C21 UNL     1      -4.787  -2.151   0.162  1.00  0.00     0.157 C 
HETATM   10  C22 UNL     1      -3.648  -1.528  -0.687  1.00  0.00     0.108 C 
HETATM   11  C30 UNL     1      -2.300  -1.985  -0.090  1.00  0.00     0.209 C 
HETATM   12  O8  UNL     1      -2.121  -1.483   1.243  1.00  0.00    -0.382 OA
BRANCH   9  13
HETATM   13  O5  UNL     1      -5.290  -3.360  -0.412  1.00  0.00    -0.392 OA
HETATM   14  H28 UNL     1      -6.245  -3.227  -0.566  1.00  0.00     0.210 HD
ENDBRANCH   9  13
BRANCH  10  15
HETATM   15  O6  UNL     1      -3.704  -0.087  -0.565  1.00  0.00    -0.385 OA
HETATM   16  H29 UNL     1      -2.978   0.184   0.032  1.00  0.00     0.210 HD
ENDBRANCH  10  15
BRANCH  10  17
HETATM   17  C23 UNL     1      -3.695  -1.899  -2.192  1.00  0.00     0.069 C 
BRANCH  17  18
HETATM   18  C24 UNL     1      -4.914  -1.575  -3.028  1.00  0.00    -0.027 C 
HETATM   19  C25 UNL     1      -5.883  -0.685  -2.758  1.00  0.00    -0.024 C 
BRANCH  19  20
HETATM   20  C26 UNL     1      -7.055  -0.416  -3.675  1.00  0.00     0.032 C 
HETATM   21  C27 UNL     1      -8.369  -0.710  -2.944  1.00  0.00     0.017 C 
BRANCH  20  22
HETATM   22  C28 UNL     1      -7.003   1.010  -4.280  1.00  0.00     0.121 C 
HETATM   23  C29 UNL     1      -7.254   2.144  -3.290  1.00  0.00     0.040 C 
BRANCH  22  24
HETATM   24  O7  UNL     1      -7.979   1.128  -5.321  1.00  0.00    -0.395 OA
HETATM   25  H42 UNL     1      -7.722   0.510  -6.027  1.00  0.00     0.210 HD
ENDBRANCH  22  24
ENDBRANCH  20  22
ENDBRANCH  19  20
ENDBRANCH  17  18
ENDBRANCH  10  17
ENDBRANCH   6   7
ENDBRANCH   4   6
ENDBRANCH   1   3
BRANCH   1  26
HETATM   26  O2  UNL     1       1.551  -0.497   4.711  1.00  0.00    -0.318 OA
BRANCH  26  27
HETATM   27  C5  UNL     1       2.624   0.410   5.009  1.00  0.00     0.179 C 
BRANCH  27  28
HETATM   28  C6  UNL     1       2.980   1.227   3.766  1.00  0.00     0.027 C 
BRANCH  28  29
HETATM   29  C7  UNL     1       3.585   0.351   2.664  1.00  0.00     0.002 C 
BRANCH  29  30
HETATM   30  C8  UNL     1       3.694   1.057   1.309  1.00  0.00     0.000 C 
BRANCH  30  31
HETATM   31  C9  UNL     1       4.469   2.377   1.296  1.00  0.00     0.000 C 
BRANCH  31  32
HETATM   32  C10 UNL     1       5.899   2.325   1.845  1.00  0.00     0.009 C 
BRANCH  32  33
HETATM   33  C11 UNL     1       6.828   1.321   1.164  1.00  0.00     0.103 C 
BRANCH  33  34
HETATM   34  C12 UNL     1       7.200   1.679  -0.267  1.00  0.00     0.222 C 
HETATM   35  O3  UNL     1       6.867   2.734  -0.792  1.00  0.00    -0.273 OA
HETATM   36  N1  UNL     1       7.986   0.705  -0.844  1.00  0.00    -0.321 N 
HETATM   37  H19 UNL     1       8.387   0.011  -0.219  1.00  0.00     0.169 HD
BRANCH  36  38
HETATM   38  C13 UNL     1       8.474   0.647  -2.122  1.00  0.00     0.123 A 
HETATM   39  C14 UNL     1       8.207   1.243  -3.290  1.00  0.00     0.071 A 
HETATM   40  S1  UNL     1       7.039   2.375  -3.825  1.00  0.00    -0.049 SA
HETATM   41  C16 UNL     1       9.060   0.735  -4.323  1.00  0.00     0.062 A 
HETATM   42  S2  UNL     1       7.706   2.396  -5.796  1.00  0.00    -0.062 SA
HETATM   43  C15 UNL     1       8.941   1.188  -5.567  1.00  0.00     0.088 A 
HETATM   44  N2  UNL     1       9.877  -0.193  -3.774  1.00  0.00    -0.320 N 
HETATM   45  C17 UNL     1       9.587  -0.325  -2.434  1.00  0.00     0.274 A 
HETATM   46  H21 UNL     1      10.588  -0.731  -4.248  1.00  0.00     0.169 HD
HETATM   47  O4  UNL     1      10.110  -1.069  -1.623  1.00  0.00    -0.266 OA
ENDBRANCH  36  38
ENDBRANCH  33  34
ENDBRANCH  32  33
ENDBRANCH  31  32
ENDBRANCH  30  31
ENDBRANCH  29  30
ENDBRANCH  28  29
ENDBRANCH  27  28
ENDBRANCH  26  27
ENDBRANCH   1  26
TORSDOF 20
