REMARK  13 active torsions:
REMARK  status: ('A' for Active; 'I' for Inactive)
REMARK    1  A    between atoms: C4_4  and  C5_5 
REMARK    2  A    between atoms: C5_5  and  C6_6 
REMARK    3  A    between atoms: C6_6  and  C7_7 
REMARK    4  A    between atoms: C7_7  and  C9_9 
REMARK    5  A    between atoms: C18_18  and  C20_20 
REMARK    6  A    between atoms: C20_20  and  O2_22 
REMARK    7  A    between atoms: C21_23  and  O3_24 
REMARK    8  A    between atoms: O3_24  and  C22_25 
REMARK    9  A    between atoms: C23_27  and  C24_28 
REMARK   10  A    between atoms: C24_28  and  O5_29 
REMARK   11  A    between atoms: C25_30  and  O6_31 
REMARK   12  A    between atoms: C26_32  and  O7_33 
REMARK   13  A    between atoms: C28_35  and  O8_36 
ROOT
HETATM    1  C9  UNL     1       4.267  -0.698  -0.209  1.00  0.00    -0.002 C 
HETATM    2  C10 UNL     1       4.344  -1.669  -1.422  1.00  0.00     0.006 C 
HETATM    3  C11 UNL     1       2.907  -1.912  -1.913  1.00  0.00     0.011 C 
HETATM    4  C12 UNL     1       2.042  -0.879  -1.163  1.00  0.00    -0.032 C 
HETATM    5  C13 UNL     1       2.117   0.440  -1.996  1.00  0.00     0.016 C 
HETATM    6  C14 UNL     1       0.562  -1.312  -0.953  1.00  0.00     0.004 C 
HETATM    7  C15 UNL     1      -0.280  -1.258  -2.228  1.00  0.00     0.007 C 
HETATM    8  C16 UNL     1      -1.684  -1.802  -1.992  1.00  0.00     0.007 C 
HETATM    9  C17 UNL     1      -2.529  -1.042  -0.943  1.00  0.00     0.018 C 
HETATM   10  C18 UNL     1      -3.653  -0.089  -1.506  1.00  0.00     0.072 C 
HETATM   11  C19 UNL     1      -4.537  -0.827  -2.547  1.00  0.00     0.030 C 
HETATM   12  C21 UNL     1      -4.562   0.393  -0.316  1.00  0.00     0.146 C 
HETATM   13  C27 UNL     1      -3.849   0.490   1.039  1.00  0.00     0.066 C 
HETATM   14  C28 UNL     1      -2.361   0.749   0.909  1.00  0.00     0.130 C 
HETATM   15  C29 UNL     1      -1.680  -0.408   0.189  1.00  0.00    -0.001 A 
HETATM   16  C30 UNL     1      -0.987  -1.392   1.110  1.00  0.00     0.024 A 
HETATM   17  C31 UNL     1      -0.124  -0.545   0.198  1.00  0.00    -0.025 A 
HETATM   18  C32 UNL     1       0.681   0.584   0.848  1.00  0.00     0.011 C 
HETATM   19  C33 UNL     1       2.197   0.363   1.024  1.00  0.00     0.011 C 
HETATM   20  C34 UNL     1       2.770  -0.818   0.228  1.00  0.00    -0.032 C 
HETATM   21  C35 UNL     1       2.592  -2.107   1.088  1.00  0.00     0.016 C 
ENDROOT
BRANCH  12  22
HETATM   22  O3  UNL     1      -5.660  -0.531  -0.125  1.00  0.00    -0.352 OA
BRANCH  22  23
HETATM   23  C22 UNL     1      -6.925   0.130  -0.045  1.00  0.00     0.292 C 
HETATM   24  O4  UNL     1      -7.032   0.947   1.129  1.00  0.00    -0.348 OA
HETATM   25  C23 UNL     1      -8.335   0.695   1.717  1.00  0.00     0.179 C 
HETATM   26  C25 UNL     1      -9.135  -0.156   0.727  1.00  0.00     0.182 C 
HETATM   27  C26 UNL     1      -8.028  -0.936   0.049  1.00  0.00     0.204 C 
BRANCH  25  28
HETATM   28  C24 UNL     1      -8.972   2.036   2.063  1.00  0.00     0.198 C 
BRANCH  28  29
HETATM   29  O5  UNL     1      -8.182   2.696   3.056  1.00  0.00    -0.398 OA
HETATM   30  H39 UNL     1      -7.264   2.632   2.734  1.00  0.00     0.209 HD
ENDBRANCH  28  29
ENDBRANCH  25  28
BRANCH  26  31
HETATM   31  O6  UNL     1      -9.822   0.645  -0.237  1.00  0.00    -0.390 OA
HETATM   32  H41 UNL     1     -10.493   0.076  -0.657  1.00  0.00     0.210 HD
ENDBRANCH  26  31
BRANCH  27  33
HETATM   33  O7  UNL     1      -7.629  -2.032   0.886  1.00  0.00    -0.388 OA
HETATM   34  H43 UNL     1      -6.657  -2.094   0.778  1.00  0.00     0.210 HD
ENDBRANCH  27  33
ENDBRANCH  22  23
ENDBRANCH  12  22
BRANCH  10  35
HETATM   35  C20 UNL     1      -3.087   1.100  -2.293  1.00  0.00     0.151 C 
HETATM   36  O1  UNL     1      -2.100   1.110  -3.009  1.00  0.00    -0.649 OA
BRANCH  35  37
HETATM   37  O2  UNL     1      -3.872   2.198  -2.292  1.00  0.00    -0.776 OA
HETATM   38  H33 UNL     1      -3.349   2.828  -2.833  1.00  0.00     0.167 HD
ENDBRANCH  35  37
ENDBRANCH  10  35
BRANCH  14  39
HETATM   39  O8  UNL     1      -2.129   1.956   0.197  1.00  0.00    -0.395 OA
HETATM   40  H47 UNL     1      -2.304   2.684   0.816  1.00  0.00     0.210 HD
ENDBRANCH  14  39
BRANCH   1  41
HETATM   41  C7  UNL     1       5.396  -0.949   0.828  1.00  0.00    -0.014 C 
HETATM   42  C8  UNL     1       5.312   0.003   2.024  1.00  0.00     0.010 C 
BRANCH  41  43
HETATM   43  C6  UNL     1       6.816  -0.934   0.199  1.00  0.00     0.008 C 
BRANCH  43  44
HETATM   44  C5  UNL     1       7.246   0.307  -0.599  1.00  0.00     0.028 C 
BRANCH  44  45
HETATM   45  C4  UNL     1       7.484   1.540   0.229  1.00  0.00    -0.025 C 
HETATM   46  C2  UNL     1       8.645   1.925   0.794  1.00  0.00    -0.091 C 
HETATM   47  C1  UNL     1       8.739   3.218   1.561  1.00  0.00     0.042 C 
HETATM   48  C3  UNL     1       9.927   1.142   0.739  1.00  0.00     0.042 C 
ENDBRANCH  44  45
ENDBRANCH  43  44
ENDBRANCH  41  43
ENDBRANCH   1  41
TORSDOF 13
