REMARK  9 active torsions:
REMARK  status: ('A' for Active; 'I' for Inactive)
REMARK    1  A    between atoms: C2_2  and  C3_3 
REMARK    2  A    between atoms: C2_2  and  C27_31 
REMARK    3  A    between atoms: C3_3  and  C4_4 
REMARK    4  A    between atoms: C4_4  and  C5_5 
REMARK    5  A    between atoms: C5_5  and  C7_7 
REMARK    6  A    between atoms: C22_24  and  O3_26 
REMARK    7  A    between atoms: C26_29  and  O4_30 
REMARK    8  A    between atoms: C27_31  and  C29_33 
REMARK    9  A    between atoms: C29_33  and  O6_35 
ROOT
HETATM    1  C7  UNL     1       1.667  -0.535   0.632  1.00  0.00    -0.002 C 
HETATM    2  C8  UNL     1       1.464  -0.402   2.170  1.00  0.00     0.006 C 
HETATM    3  C9  UNL     1      -0.029  -0.147   2.409  1.00  0.00     0.010 C 
HETATM    4  C10 UNL     1      -0.679  -0.475   1.067  1.00  0.00     0.027 C 
HETATM    5  C11 UNL     1      -2.118  -0.111   0.749  1.00  0.00    -0.036 C 
HETATM    6  C12 UNL     1      -2.542  -0.007  -0.538  1.00  0.00     0.002 C 
HETATM    7  C13 UNL     1      -1.499  -0.052  -1.640  1.00  0.00     0.157 C 
HETATM    8  O1  UNL     1      -1.784   0.242  -2.799  1.00  0.00    -0.293 OA
HETATM    9  C14 UNL     1      -0.074  -0.464  -1.311  1.00  0.00     0.093 C 
HETATM   10  C15 UNL     1       0.352   0.076   0.053  1.00  0.00    -0.026 C 
HETATM   11  C16 UNL     1       0.407   1.625   0.024  1.00  0.00     0.016 C 
HETATM   12  C17 UNL     1      -4.034   0.182  -0.925  1.00  0.00    -0.006 C 
HETATM   13  C18 UNL     1      -4.216   1.691  -1.212  1.00  0.00     0.021 C 
HETATM   14  C19 UNL     1      -4.448  -0.647  -2.179  1.00  0.00     0.022 C 
HETATM   15  C20 UNL     1      -5.930  -0.564  -2.520  1.00  0.00     0.083 C 
HETATM   16  C21 UNL     1      -6.789  -0.958  -1.349  1.00  0.00     0.161 C 
HETATM   17  O2  UNL     1      -7.759  -1.701  -1.510  1.00  0.00    -0.295 OA
HETATM   18  C22 UNL     1      -6.469  -0.297   0.005  1.00  0.00     0.119 C 
HETATM   19  C23 UNL     1      -7.261  -1.016   1.111  1.00  0.00     0.055 C 
HETATM   20  C24 UNL     1      -4.935  -0.363   0.257  1.00  0.00     0.043 C 
HETATM   21  C25 UNL     1      -4.521   0.305   1.570  1.00  0.00     0.045 C 
HETATM   22  C26 UNL     1      -3.068  -0.014   1.920  1.00  0.00     0.148 C 
ENDROOT
BRANCH   1  23
HETATM   23  C5  UNL     1       3.045   0.032   0.174  1.00  0.00    -0.014 C 
HETATM   24  C6  UNL     1       3.205  -0.032  -1.350  1.00  0.00     0.010 C 
BRANCH  23  25
HETATM   25  C4  UNL     1       4.211  -0.745   0.850  1.00  0.00     0.009 C 
BRANCH  25  26
HETATM   26  C3  UNL     1       5.436   0.117   1.208  1.00  0.00     0.034 C 
BRANCH  26  27
HETATM   27  C2  UNL     1       6.240   0.669   0.045  1.00  0.00    -0.075 C 
HETATM   28  C1  UNL     1       6.257   1.997  -0.179  1.00  0.00     0.015 C 
BRANCH  27  29
HETATM   29  C27 UNL     1       7.008  -0.352  -0.794  1.00  0.00     0.107 C 
HETATM   30  C28 UNL     1       7.566   0.153  -2.129  1.00  0.00     0.026 C 
BRANCH  29  31
HETATM   31  C29 UNL     1       8.165  -0.918   0.018  1.00  0.00     0.147 C 
HETATM   32  O5  UNL     1       9.217  -0.365   0.297  1.00  0.00    -0.650 OA
BRANCH  31  33
HETATM   33  O6  UNL     1       7.929  -2.176   0.450  1.00  0.00    -0.776 OA
HETATM   34  H42 UNL     1       8.739  -2.401   0.956  1.00  0.00     0.167 HD
ENDBRANCH  31  33
ENDBRANCH  29  31
ENDBRANCH  27  29
ENDBRANCH  26  27
ENDBRANCH  25  26
ENDBRANCH  23  25
ENDBRANCH   1  23
BRANCH  22  35
HETATM   35  O4  UNL     1      -2.627   0.999   2.816  1.00  0.00    -0.391 OA
HETATM   36  H37 UNL     1      -2.603   1.836   2.321  1.00  0.00     0.210 HD
ENDBRANCH  22  35
BRANCH  18  37
HETATM   37  O3  UNL     1      -6.907   1.058  -0.017  1.00  0.00    -0.382 OA
HETATM   38  H32 UNL     1      -7.879   1.050  -0.106  1.00  0.00     0.211 HD
ENDBRANCH  18  37
TORSDOF 9
