REMARK  6 active torsions:
REMARK  status: ('A' for Active; 'I' for Inactive)
REMARK    1  A    between atoms: C2_2  and  C30_32 
REMARK    2  A    between atoms: C3_3  and  C4_4 
REMARK    3  A    between atoms: C4_4  and  C5_5 
REMARK    4  A    between atoms: C5_5  and  C6_6 
REMARK    5  A    between atoms: C6_6  and  C8_8 
REMARK    6  A    between atoms: C30_32  and  O4_34 
ROOT
HETATM    1  C8  UNL     1       2.252   0.801  -0.044  1.00  0.00    -0.002 C 
HETATM    2  C9  UNL     1       2.130   1.929   1.019  1.00  0.00     0.007 C 
HETATM    3  C10 UNL     1       0.685   1.909   1.552  1.00  0.00     0.015 C 
HETATM    4  C11 UNL     1       0.076   0.595   1.026  1.00  0.00    -0.005 C 
HETATM    5  C12 UNL     1       0.492  -0.534   2.019  1.00  0.00     0.021 C 
HETATM    6  C13 UNL     1      -1.435   0.453   0.886  1.00  0.00    -0.000 C 
HETATM    7  C14 UNL     1      -1.984  -0.342  -0.068  1.00  0.00    -0.060 C 
HETATM    8  C15 UNL     1      -1.086  -1.095  -1.062  1.00  0.00     0.036 C 
HETATM    9  C16 UNL     1       0.435  -0.848  -0.994  1.00  0.00     0.015 C 
HETATM   10  C17 UNL     1       0.758   0.524  -0.397  1.00  0.00    -0.028 C 
HETATM   11  C18 UNL     1       0.248   1.624  -1.383  1.00  0.00     0.016 C 
HETATM   12  C19 UNL     1      -3.517  -0.522  -0.252  1.00  0.00    -0.014 C 
HETATM   13  C20 UNL     1      -3.940   0.361  -1.448  1.00  0.00     0.020 C 
HETATM   14  C21 UNL     1      -3.857  -2.006  -0.536  1.00  0.00     0.021 C 
HETATM   15  C22 UNL     1      -5.337  -2.358  -0.559  1.00  0.00     0.080 C 
HETATM   16  C23 UNL     1      -6.286  -1.293  -0.068  1.00  0.00     0.135 C 
HETATM   17  O1  UNL     1      -7.447  -1.299  -0.486  1.00  0.00    -0.297 OA
HETATM   18  C24 UNL     1      -5.828  -0.306   1.013  1.00  0.00     0.018 C 
HETATM   19  C25 UNL     1      -6.551   1.038   0.765  1.00  0.00     0.023 C 
HETATM   20  C26 UNL     1      -6.338  -0.871   2.355  1.00  0.00     0.023 C 
HETATM   21  C27 UNL     1      -4.267  -0.163   1.068  1.00  0.00     0.020 C 
HETATM   22  C28 UNL     1      -3.797   1.188   1.612  1.00  0.00     0.090 C 
HETATM   23  C29 UNL     1      -2.310   1.179   1.857  1.00  0.00     0.157 C 
HETATM   24  O2  UNL     1      -1.838   1.784   2.818  1.00  0.00    -0.293 OA
ENDROOT
BRANCH   1  25
HETATM   25  C6  UNL     1       3.258   1.158  -1.173  1.00  0.00    -0.014 C 
HETATM   26  C7  UNL     1       3.371   0.066  -2.243  1.00  0.00     0.010 C 
BRANCH  25  27
HETATM   27  C5  UNL     1       4.665   1.558  -0.646  1.00  0.00     0.008 C 
BRANCH  27  28
HETATM   28  C4  UNL     1       5.368   0.634   0.359  1.00  0.00     0.028 C 
BRANCH  28  29
HETATM   29  C3  UNL     1       5.716  -0.735  -0.150  1.00  0.00    -0.013 C 
HETATM   30  C2  UNL     1       6.904  -1.192  -0.598  1.00  0.00     0.008 C 
HETATM   31  C1  UNL     1       7.102  -2.640  -0.957  1.00  0.00     0.055 C 
BRANCH  30  32
HETATM   32  C30 UNL     1       8.129  -0.375  -0.753  1.00  0.00     0.171 C 
HETATM   33  O3  UNL     1       9.270  -0.790  -0.656  1.00  0.00    -0.646 OA
BRANCH  32  34
HETATM   34  O4  UNL     1       7.888   0.898  -1.108  1.00  0.00    -0.773 OA
HETATM   35  H44 UNL     1       8.781   1.282  -1.213  1.00  0.00     0.167 HD
ENDBRANCH  32  34
ENDBRANCH  30  32
ENDBRANCH  28  29
ENDBRANCH  27  28
ENDBRANCH  25  27
ENDBRANCH   1  25
TORSDOF 6
