REMARK  15 active torsions:
REMARK  status: ('A' for Active; 'I' for Inactive)
REMARK    1  A    between atoms: C2_2  and  C36_45 
REMARK    2  A    between atoms: C3_3  and  C4_4 
REMARK    3  A    between atoms: C4_4  and  C5_5 
REMARK    4  A    between atoms: C5_5  and  C6_6 
REMARK    5  A    between atoms: C6_6  and  C8_8 
REMARK    6  A    between atoms: C24_27  and  C26_29 
REMARK    7  A    between atoms: C26_29  and  O4_30 
REMARK    8  A    between atoms: O4_30  and  C27_31 
REMARK    9  A    between atoms: C27_31  and  C28_33 
REMARK   10  A    between atoms: C28_33  and  C29_34 
REMARK   11  A    between atoms: C29_34  and  O6_36 
REMARK   12  A    between atoms: C29_34  and  C31_37 
REMARK   13  A    between atoms: C31_37  and  C32_38 
REMARK   14  A    between atoms: C32_38  and  O8_40 
REMARK   15  A    between atoms: C36_45  and  O11_47 
ROOT
HETATM    1  C8  UNL     1       4.407  -0.720   0.897  1.00  0.00     0.006 C 
HETATM    2  C9  UNL     1       4.487   0.475   1.875  1.00  0.00     0.085 C 
HETATM    3  C10 UNL     1       3.019   0.817   2.128  1.00  0.00     0.141 C 
HETATM    4  O1  UNL     1       2.674   1.860   2.664  1.00  0.00    -0.297 OA
HETATM    5  C11 UNL     1       2.099  -0.287   1.576  1.00  0.00     0.056 C 
HETATM    6  C12 UNL     1       2.068  -1.401   2.660  1.00  0.00     0.030 C 
HETATM    7  C13 UNL     1       0.661  -0.070   1.157  1.00  0.00     0.015 C 
HETATM    8  C14 UNL     1       0.074  -0.708   0.111  1.00  0.00     0.007 C 
HETATM    9  C15 UNL     1       0.946  -1.653  -0.709  1.00  0.00     0.157 C 
HETATM   10  O2  UNL     1       0.479  -2.277  -1.660  1.00  0.00    -0.293 OA
HETATM   11  C16 UNL     1       2.417  -1.845  -0.358  1.00  0.00     0.094 C 
HETATM   12  C17 UNL     1       2.972  -0.587   0.299  1.00  0.00    -0.014 C 
HETATM   13  C18 UNL     1       2.924   0.561  -0.762  1.00  0.00     0.018 C 
HETATM   14  C19 UNL     1      -1.417  -0.527  -0.318  1.00  0.00    -0.007 C 
HETATM   15  C20 UNL     1      -1.386   0.329  -1.608  1.00  0.00     0.021 C 
HETATM   16  C21 UNL     1      -2.137  -1.883  -0.571  1.00  0.00     0.022 C 
HETATM   17  C22 UNL     1      -3.659  -1.821  -0.726  1.00  0.00     0.080 C 
HETATM   18  C23 UNL     1      -4.226  -0.429  -0.603  1.00  0.00     0.137 C 
HETATM   19  O3  UNL     1      -5.072  -0.039  -1.412  1.00  0.00    -0.297 OA
HETATM   20  C24 UNL     1      -3.748   0.448   0.556  1.00  0.00     0.044 C 
HETATM   21  C25 UNL     1      -4.018   1.925   0.192  1.00  0.00     0.026 C 
HETATM   22  C33 UNL     1      -2.231   0.144   0.845  1.00  0.00     0.023 C 
HETATM   23  C34 UNL     1      -1.470   1.335   1.423  1.00  0.00     0.090 C 
HETATM   24  C35 UNL     1      -0.188   0.809   2.014  1.00  0.00     0.158 C 
HETATM   25  O9  UNL     1       0.117   1.057   3.177  1.00  0.00    -0.293 OA
ENDROOT
BRANCH  20  26
HETATM   26  C26 UNL     1      -4.569   0.070   1.819  1.00  0.00     0.196 C 
BRANCH  26  27
HETATM   27  O4  UNL     1      -5.946   0.476   1.776  1.00  0.00    -0.320 OA
BRANCH  27  28
HETATM   28  C27 UNL     1      -6.852  -0.466   1.406  1.00  0.00     0.261 C 
HETATM   29  O5  UNL     1      -6.574  -1.601   1.040  1.00  0.00    -0.265 OA
BRANCH  28  30
HETATM   30  C28 UNL     1      -8.265   0.040   1.548  1.00  0.00     0.148 C 
BRANCH  30  31
HETATM   31  C29 UNL     1      -8.788   0.815   0.328  1.00  0.00     0.072 C 
HETATM   32  C30 UNL     1     -10.269   1.145   0.588  1.00  0.00     0.047 C 
BRANCH  31  33
HETATM   33  O6  UNL     1      -8.077   2.057   0.271  1.00  0.00    -0.389 OA
HETATM   34  H41 UNL     1      -8.409   2.552  -0.508  1.00  0.00     0.210 HD
ENDBRANCH  31  33
BRANCH  31  35
HETATM   35  C31 UNL     1      -8.606   0.024  -0.983  1.00  0.00     0.147 C 
BRANCH  35  36
HETATM   36  C32 UNL     1      -9.092   0.777  -2.192  1.00  0.00     0.142 C 
HETATM   37  O7  UNL     1      -9.232   1.986  -2.282  1.00  0.00    -0.650 OA
BRANCH  36  38
HETATM   38  O8  UNL     1      -9.351  -0.023  -3.245  1.00  0.00    -0.776 OA
HETATM   39  H44 UNL     1      -9.607   0.598  -3.959  1.00  0.00     0.167 HD
ENDBRANCH  36  38
ENDBRANCH  35  36
ENDBRANCH  31  35
ENDBRANCH  30  31
ENDBRANCH  28  30
ENDBRANCH  27  28
ENDBRANCH  26  27
ENDBRANCH  20  26
BRANCH   1  40
HETATM   40  C6  UNL     1       5.625  -0.909  -0.057  1.00  0.00    -0.013 C 
HETATM   41  C7  UNL     1       6.717  -1.683   0.716  1.00  0.00     0.010 C 
BRANCH  40  42
HETATM   42  C5  UNL     1       6.223   0.399  -0.635  1.00  0.00     0.008 C 
BRANCH  42  43
HETATM   43  C4  UNL     1       6.972   0.240  -1.969  1.00  0.00     0.028 C 
BRANCH  43  44
HETATM   44  C3  UNL     1       8.368  -0.307  -1.841  1.00  0.00    -0.013 C 
HETATM   45  C2  UNL     1       9.496   0.411  -1.686  1.00  0.00     0.008 C 
HETATM   46  C1  UNL     1       9.553   1.908  -1.571  1.00  0.00     0.055 C 
BRANCH  45  47
HETATM   47  C36 UNL     1      10.824  -0.255  -1.624  1.00  0.00     0.171 C 
HETATM   48  O10 UNL     1      11.901   0.312  -1.669  1.00  0.00    -0.646 OA
BRANCH  47  49
HETATM   49  O11 UNL     1      10.753  -1.594  -1.496  1.00  0.00    -0.773 OA
HETATM   50  H48 UNL     1      11.694  -1.861  -1.473  1.00  0.00     0.167 HD
ENDBRANCH  47  49
ENDBRANCH  45  47
ENDBRANCH  43  44
ENDBRANCH  42  43
ENDBRANCH  40  42
ENDBRANCH   1  40
TORSDOF 15
