REMARK  7 active torsions:
REMARK  status: ('A' for Active; 'I' for Inactive)
REMARK    1  A    between atoms: C4_4  and  C5_5 
REMARK    2  A    between atoms: C5_5  and  C6_6 
REMARK    3  A    between atoms: C6_6  and  C7_7 
REMARK    4  A    between atoms: C7_7  and  C9_9 
REMARK    5  A    between atoms: C27_27  and  O1_28 
REMARK    6  A    between atoms: C28_29  and  O2_30 
REMARK    7  A    between atoms: C29_31  and  O3_32 
ROOT
HETATM    1  C9  UNL     1       2.176  -0.897  -0.823  1.00  0.00    -0.002 C 
HETATM    2  C10 UNL     1       1.957  -1.441  -2.267  1.00  0.00     0.007 C 
HETATM    3  C11 UNL     1       0.476  -1.238  -2.624  1.00  0.00     0.015 C 
HETATM    4  C12 UNL     1      -0.042  -0.234  -1.583  1.00  0.00    -0.013 C 
HETATM    5  C13 UNL     1       0.371   1.188  -2.078  1.00  0.00     0.021 C 
HETATM    6  C14 UNL     1      -1.544  -0.139  -1.326  1.00  0.00    -0.068 C 
HETATM    7  C15 UNL     1      -2.003   0.281  -0.118  1.00  0.00    -0.065 C 
HETATM    8  C16 UNL     1      -1.031   0.544   1.043  1.00  0.00     0.036 C 
HETATM    9  C17 UNL     1       0.476   0.304   0.797  1.00  0.00     0.015 C 
HETATM   10  C18 UNL     1       0.713  -0.744  -0.296  1.00  0.00    -0.029 C 
HETATM   11  C19 UNL     1       0.199  -2.128   0.209  1.00  0.00     0.016 C 
HETATM   12  C20 UNL     1      -3.515   0.492   0.180  1.00  0.00     0.012 C 
HETATM   13  C21 UNL     1      -3.958  -0.653   1.130  1.00  0.00     0.023 C 
HETATM   14  C22 UNL     1      -4.417   0.398  -1.129  1.00  0.00     0.007 C 
HETATM   15  C23 UNL     1      -3.890  -0.693  -2.069  1.00  0.00     0.010 C 
HETATM   16  C24 UNL     1      -2.448  -0.464  -2.485  1.00  0.00     0.036 C 
HETATM   17  C25 UNL     1      -4.718   1.783  -1.805  1.00  0.00     0.018 C 
HETATM   18  C26 UNL     1      -5.113   1.705  -3.284  1.00  0.00     0.013 C 
HETATM   19  C27 UNL     1      -3.603   2.804  -1.546  1.00  0.00     0.153 C 
HETATM   20  C28 UNL     1      -3.442   3.090  -0.039  1.00  0.00     0.177 C 
HETATM   21  C29 UNL     1      -3.844   1.877   0.838  1.00  0.00     0.162 C 
ENDROOT
BRANCH   1  22
HETATM   22  C7  UNL     1       3.217  -1.756  -0.036  1.00  0.00    -0.014 C 
HETATM   23  C8  UNL     1       4.555  -1.786  -0.798  1.00  0.00     0.010 C 
BRANCH  22  24
HETATM   24  C6  UNL     1       3.433  -1.245   1.407  1.00  0.00     0.008 C 
BRANCH  24  25
HETATM   25  C5  UNL     1       4.479  -2.027   2.213  1.00  0.00     0.028 C 
BRANCH  25  26
HETATM   26  C4  UNL     1       4.508  -1.566   3.646  1.00  0.00    -0.025 C 
HETATM   27  C2  UNL     1       5.459  -0.837   4.264  1.00  0.00    -0.091 C 
HETATM   28  C1  UNL     1       6.704  -0.300   3.614  1.00  0.00     0.042 C 
HETATM   29  C3  UNL     1       5.322  -0.479   5.721  1.00  0.00     0.042 C 
ENDBRANCH  25  26
ENDBRANCH  24  25
ENDBRANCH  22  24
ENDBRANCH   1  22
BRANCH  21  30
HETATM   30  O3  UNL     1      -3.382   2.043   2.180  1.00  0.00    -0.392 OA
HETATM   31  H48 UNL     1      -3.767   1.345   2.732  1.00  0.00     0.210 HD
ENDBRANCH  21  30
BRANCH  20  32
HETATM   32  O2  UNL     1      -2.106   3.550   0.197  1.00  0.00    -0.390 OA
HETATM   33  H46 UNL     1      -1.919   4.218  -0.486  1.00  0.00     0.210 HD
ENDBRANCH  20  32
BRANCH  19  34
HETATM   34  O1  UNL     1      -3.853   4.047  -2.216  1.00  0.00    -0.393 OA
HETATM   35  H44 UNL     1      -4.732   4.366  -1.945  1.00  0.00     0.210 HD
ENDBRANCH  19  34
TORSDOF 7
