REMARK  6 active torsions:
REMARK  status: ('A' for Active; 'I' for Inactive)
REMARK    1  A    between atoms: C4_4  and  C5_5 
REMARK    2  A    between atoms: C5_5  and  C6_6 
REMARK    3  A    between atoms: C6_6  and  C7_7 
REMARK    4  A    between atoms: C7_7  and  C9_9 
REMARK    5  A    between atoms: C12_12  and  C13_13 
REMARK    6  A    between atoms: C13_13  and  O2_15 
ROOT
HETATM    1  C9  UNL     1       2.169  -0.525  -1.015  1.00  0.00    -0.001 C 
HETATM    2  C10 UNL     1       2.003  -2.045  -1.295  1.00  0.00     0.007 C 
HETATM    3  C11 UNL     1       0.520  -2.383  -1.043  1.00  0.00     0.026 C 
HETATM    4  C12 UNL     1      -0.189  -1.012  -1.026  1.00  0.00     0.076 C 
HETATM    5  C14 UNL     1      -1.572  -0.884  -0.396  1.00  0.00    -0.057 C 
HETATM    6  C15 UNL     1      -1.963   0.292   0.160  1.00  0.00    -0.067 C 
HETATM    7  C16 UNL     1      -1.015   1.495   0.243  1.00  0.00     0.036 C 
HETATM    8  C17 UNL     1       0.445   1.308  -0.222  1.00  0.00     0.015 C 
HETATM    9  C18 UNL     1       0.874  -0.164  -0.226  1.00  0.00    -0.018 C 
HETATM   10  C19 UNL     1       0.993  -0.606   1.266  1.00  0.00     0.017 C 
HETATM   11  C20 UNL     1      -3.379   0.468   0.775  1.00  0.00    -0.015 C 
HETATM   12  C21 UNL     1      -3.203   0.231   2.294  1.00  0.00     0.020 C 
HETATM   13  C22 UNL     1      -3.935   1.895   0.536  1.00  0.00     0.021 C 
HETATM   14  C23 UNL     1      -5.358   2.079   1.035  1.00  0.00     0.080 C 
HETATM   15  C24 UNL     1      -6.299   1.086   0.401  1.00  0.00     0.135 C 
HETATM   16  O3  UNL     1      -7.406   1.464   0.008  1.00  0.00    -0.297 OA
HETATM   17  C25 UNL     1      -5.891  -0.396   0.391  1.00  0.00     0.018 C 
HETATM   18  C26 UNL     1      -6.335  -1.023   1.719  1.00  0.00     0.023 C 
HETATM   19  C27 UNL     1      -6.707  -1.088  -0.733  1.00  0.00     0.023 C 
HETATM   20  C28 UNL     1      -4.365  -0.532   0.065  1.00  0.00     0.013 C 
HETATM   21  C29 UNL     1      -3.827  -1.967   0.188  1.00  0.00     0.011 C 
HETATM   22  C30 UNL     1      -2.464  -2.100  -0.490  1.00  0.00     0.036 C 
ENDROOT
BRANCH   1  23
HETATM   23  C7  UNL     1       3.597  -0.119  -0.542  1.00  0.00    -0.014 C 
HETATM   24  C8  UNL     1       4.088  -0.769   0.755  1.00  0.00     0.010 C 
BRANCH  23  25
HETATM   25  C6  UNL     1       3.752   1.422  -0.502  1.00  0.00     0.008 C 
BRANCH  25  26
HETATM   26  C5  UNL     1       5.190   1.940  -0.664  1.00  0.00     0.028 C 
BRANCH  26  27
HETATM   27  C4  UNL     1       6.020   1.859   0.585  1.00  0.00    -0.025 C 
HETATM   28  C2  UNL     1       7.229   1.285   0.748  1.00  0.00    -0.091 C 
HETATM   29  C1  UNL     1       8.001   0.560  -0.320  1.00  0.00     0.042 C 
HETATM   30  C3  UNL     1       7.926   1.334   2.083  1.00  0.00     0.042 C 
ENDBRANCH  26  27
ENDBRANCH  25  26
ENDBRANCH  23  25
ENDBRANCH   1  23
BRANCH   4  31
HETATM   31  C13 UNL     1      -0.417  -0.557  -2.502  1.00  0.00     0.153 C 
HETATM   32  O1  UNL     1      -0.382   0.576  -2.954  1.00  0.00    -0.649 OA
BRANCH  31  33
HETATM   33  O2  UNL     1      -0.761  -1.561  -3.339  1.00  0.00    -0.776 OA
HETATM   34  H21 UNL     1      -0.918  -1.100  -4.191  1.00  0.00     0.167 HD
ENDBRANCH  31  33
ENDBRANCH   4  31
TORSDOF 6
