REMARK  19 active torsions:
REMARK  status: ('A' for Active; 'I' for Inactive)
REMARK    1  A    between atoms: O1_2  and  C2_3 
REMARK    2  A    between atoms: C2_3  and  C3_4 
REMARK    3  A    between atoms: C2_3  and  C28_36 
REMARK    4  A    between atoms: C3_4  and  C4_5 
REMARK    5  A    between atoms: C4_5  and  C6_7 
REMARK    6  A    between atoms: C6_7  and  O2_8 
REMARK    7  A    between atoms: C6_7  and  C7_9 
REMARK    8  A    between atoms: C8_10  and  C9_11 
REMARK    9  A    between atoms: C10_12  and  C11_13 
REMARK   10  A    between atoms: C11_13  and  N1_14 
REMARK       I    between atoms: N1_14  and  C12_15 
REMARK   11  A    between atoms: C12_15  and  C13_17 
REMARK   12  A    between atoms: C13_17  and  C16_20 
REMARK   13  A    between atoms: C16_20  and  O4_21 
REMARK   14  A    between atoms: C16_20  and  C17_22 
REMARK   15  A    between atoms: C19_24  and  C20_25 
REMARK   16  A    between atoms: C21_26  and  C22_27 
REMARK   17  A    between atoms: C23_28  and  C24_29 
REMARK   18  A    between atoms: C26_31  and  N2_33 
REMARK   19  A    between atoms: C28_36  and  O7_37 
ROOT
HETATM    1  C9  UNL     1      -0.935  -0.496  -0.895  1.00  0.00    -0.003 C 
HETATM    2  C10 UNL     1       0.338  -0.121  -0.713  1.00  0.00    -0.007 C 
ENDROOT
BRANCH   1   3
HETATM    3  C8  UNL     1      -1.993   0.446  -1.180  1.00  0.00    -0.002 C 
HETATM    4  C7  UNL     1      -3.290   0.104  -1.123  1.00  0.00     0.005 C 
BRANCH   4   5
HETATM    5  C6  UNL     1      -4.482   1.018  -1.265  1.00  0.00     0.144 C 
BRANCH   5   6
HETATM    6  C4  UNL     1      -5.217   1.126   0.087  1.00  0.00     0.016 C 
HETATM    7  C5  UNL     1      -4.489   2.058   1.074  1.00  0.00     0.013 C 
BRANCH   6   8
HETATM    8  C3  UNL     1      -6.684   1.602  -0.072  1.00  0.00     0.042 C 
BRANCH   8   9
HETATM    9  C2  UNL     1      -7.604   0.845   0.921  1.00  0.00     0.159 C 
BRANCH   9  10
HETATM   10  O1  UNL     1      -8.658   1.697   1.355  1.00  0.00    -0.388 OA
HETATM   11  C1  UNL     1      -8.322   2.521   2.463  1.00  0.00     0.202 C 
ENDBRANCH   9  10
BRANCH   9  12
HETATM   12  C28 UNL     1      -8.206  -0.484   0.330  1.00  0.00     0.133 C 
HETATM   13  C29 UNL     1      -8.506  -1.558   1.424  1.00  0.00     0.114 C 
HETATM   14  C30 UNL     1      -7.427  -1.814   2.465  1.00  0.00     0.023 C 
HETATM   15  C31 UNL     1      -9.831  -1.113   1.995  1.00  0.00     0.227 C 
HETATM   16  O8  UNL     1     -10.209  -1.277   3.145  1.00  0.00    -0.273 OA
HETATM   17  N3  UNL     1     -10.522  -0.514   0.942  1.00  0.00    -0.332 N 
HETATM   18  C32 UNL     1     -11.668   0.313   1.227  1.00  0.00     0.154 C 
HETATM   19  C33 UNL     1      -9.628  -0.298  -0.251  1.00  0.00     0.183 A 
HETATM   20  C34 UNL     1      -9.883   0.885  -1.237  1.00  0.00     0.294 A 
HETATM   21  C35 UNL     1     -10.022  -1.149  -1.502  1.00  0.00     0.169 A 
HETATM   22  O9  UNL     1      -9.890   2.098  -1.245  1.00  0.00    -0.262 OA
HETATM   23  O10 UNL     1     -10.126   0.069  -2.296  1.00  0.00    -0.311 OA
HETATM   24  C36 UNL     1     -11.327  -1.928  -1.551  1.00  0.00     0.043 C 
BRANCH  12  25
HETATM   25  O7  UNL     1      -7.307  -1.095  -0.607  1.00  0.00    -0.383 OA
HETATM   26  H42 UNL     1      -7.311  -0.590  -1.443  1.00  0.00     0.210 HD
ENDBRANCH  12  25
ENDBRANCH   9  12
ENDBRANCH   8   9
ENDBRANCH   6   8
ENDBRANCH   5   6
BRANCH   5  27
HETATM   27  O2  UNL     1      -4.073   2.297  -1.730  1.00  0.00    -0.391 OA
HETATM   28  H12 UNL     1      -4.873   2.846  -1.814  1.00  0.00     0.210 HD
ENDBRANCH   5  27
ENDBRANCH   4   5
ENDBRANCH   1   3
BRANCH   2  29
HETATM   29  C11 UNL     1       1.414  -1.065  -0.270  1.00  0.00     0.149 C 
BRANCH  29  30
HETATM   30  N1  UNL     1       2.532  -0.954  -1.177  1.00  0.00    -0.357 N 
HETATM   31  C12 UNL     1       3.559  -0.064  -0.942  1.00  0.00     0.228 C 
HETATM   32  O3  UNL     1       3.595   0.618   0.080  1.00  0.00    -0.273 OA
HETATM   33  H19 UNL     1       2.415  -1.340  -2.106  1.00  0.00     0.162 HD
BRANCH  31  34
HETATM   34  C13 UNL     1       4.680  -0.022  -1.998  1.00  0.00     0.063 C 
HETATM   35  C14 UNL     1       5.538   1.238  -1.759  1.00  0.00     0.028 C 
HETATM   36  C15 UNL     1       4.047   0.143  -3.402  1.00  0.00     0.028 C 
BRANCH  34  37
HETATM   37  C16 UNL     1       5.509  -1.339  -1.918  1.00  0.00     0.164 C 
BRANCH  37  38
HETATM   38  O4  UNL     1       6.315  -1.506  -3.092  1.00  0.00    -0.390 OA
HETATM   39  H27 UNL     1       6.897  -2.263  -2.916  1.00  0.00     0.210 HD
ENDBRANCH  37  38
BRANCH  37  40
HETATM   40  C17 UNL     1       6.372  -1.544  -0.671  1.00  0.00    -0.054 C 
HETATM   41  C18 UNL     1       5.673  -2.315   0.431  1.00  0.00     0.046 C 
HETATM   42  C19 UNL     1       7.653  -1.162  -0.464  1.00  0.00     0.005 C 
BRANCH  42  43
HETATM   43  C20 UNL     1       8.526  -0.429  -1.363  1.00  0.00     0.000 C 
HETATM   44  C21 UNL     1       9.771   0.019  -1.119  1.00  0.00     0.000 C 
BRANCH  44  45
HETATM   45  C22 UNL     1      10.532  -0.098   0.108  1.00  0.00     0.001 C 
HETATM   46  C23 UNL     1      11.796   0.350   0.216  1.00  0.00     0.009 C 
BRANCH  46  47
HETATM   47  C24 UNL     1      12.645   0.294   1.420  1.00  0.00    -0.034 C 
HETATM   48  C25 UNL     1      11.983  -0.257   2.672  1.00  0.00     0.050 C 
HETATM   49  C26 UNL     1      13.934   0.707   1.370  1.00  0.00     0.082 C 
HETATM   50  C27 UNL     1      14.749   1.278   0.260  1.00  0.00     0.075 C 
BRANCH  49  51
HETATM   51  N2  UNL     1      14.730   0.586   2.574  1.00  0.00    -0.120 N 
HETATM   52  O5  UNL     1      15.373  -0.463   2.713  1.00  0.00    -0.532 OA
HETATM   53  O6  UNL     1      14.723   1.550   3.349  1.00  0.00    -0.532 OA
ENDBRANCH  49  51
ENDBRANCH  46  47
ENDBRANCH  44  45
ENDBRANCH  42  43
ENDBRANCH  37  40
ENDBRANCH  34  37
ENDBRANCH  31  34
ENDBRANCH  29  30
ENDBRANCH   2  29
TORSDOF 19
