REMARK  2 active torsions:
REMARK  status: ('A' for Active; 'I' for Inactive)
REMARK    1  A    between atoms: C21_27  and  C22_28 
REMARK    2  A    between atoms: C22_28  and  O7_30 
ROOT
HETATM    1  C1  UNL     1       2.061  -4.490  -0.157  1.00  0.00     0.043 C 
HETATM    2  C2  UNL     1       1.775  -3.191   0.556  1.00  0.00    -0.076 C 
HETATM    3  C3  UNL     1       0.510  -2.877   0.889  1.00  0.00     0.084 C 
HETATM    4  C4  UNL     1       0.074  -1.669   1.624  1.00  0.00     0.283 C 
HETATM    5  O1  UNL     1       0.631  -1.188   2.592  1.00  0.00    -0.260 OA
HETATM    6  O2  UNL     1      -1.075  -1.228   1.051  1.00  0.00    -0.317 OA
HETATM    7  C5  UNL     1      -1.700  -0.141   1.756  1.00  0.00     0.195 C 
HETATM    8  C6  UNL     1      -2.904   0.516   0.971  1.00  0.00     0.053 C 
HETATM    9  C7  UNL     1      -3.394  -0.445  -0.193  1.00  0.00     0.159 C 
HETATM   10  C8  UNL     1      -4.200  -1.625   0.285  1.00  0.00     0.011 C 
HETATM   11  C9  UNL     1      -4.950  -1.577   1.399  1.00  0.00    -0.054 C 
HETATM   12  C10 UNL     1      -5.744  -2.766   1.860  1.00  0.00     0.046 C 
HETATM   13  C11 UNL     1      -5.068  -0.349   2.204  1.00  0.00     0.180 A 
HETATM   14  O3  UNL     1      -5.338   0.921   1.586  1.00  0.00    -0.370 OA
HETATM   15  C12 UNL     1      -3.999   0.714   2.031  1.00  0.00     0.170 A 
HETATM   16  O4  UNL     1      -4.180   0.199  -1.217  1.00  0.00    -0.372 OA
HETATM   17  C13 UNL     1      -3.699   1.469  -1.666  1.00  0.00     0.162 C 
HETATM   18  C14 UNL     1      -2.232   1.430  -2.108  1.00  0.00     0.068 C 
HETATM   19  C15 UNL     1      -1.418   1.650  -0.806  1.00  0.00     0.147 C 
HETATM   20  O5  UNL     1      -0.501   2.752  -0.922  1.00  0.00    -0.312 OA
HETATM   21  C16 UNL     1       0.611   2.485  -1.654  1.00  0.00     0.283 C 
HETATM   22  O6  UNL     1       0.749   1.556  -2.433  1.00  0.00    -0.260 OA
HETATM   23  C17 UNL     1       1.662   3.438  -1.228  1.00  0.00     0.082 C 
HETATM   24  C18 UNL     1       2.961   3.110  -1.107  1.00  0.00     0.006 C 
HETATM   25  C19 UNL     1       3.548   1.842  -1.476  1.00  0.00    -0.001 C 
HETATM   26  C20 UNL     1       4.622   1.306  -0.873  1.00  0.00     0.007 C 
HETATM   27  C21 UNL     1       5.133  -0.072  -1.209  1.00  0.00     0.172 C 
HETATM   28  O8  UNL     1       4.723  -0.942  -0.137  1.00  0.00    -0.379 OA
HETATM   29  C24 UNL     1       3.477  -1.593  -0.413  1.00  0.00     0.173 C 
HETATM   30  C25 UNL     1       2.998  -2.341   0.833  1.00  0.00     0.060 C 
HETATM   31  C26 UNL     1      -2.481   1.919   0.335  1.00  0.00     0.034 C 
HETATM   32  C27 UNL     1      -2.015   2.971   1.362  1.00  0.00     0.022 C 
HETATM   33  C28 UNL     1      -3.657   2.387  -0.498  1.00  0.00     0.119 A 
HETATM   34  C29 UNL     1      -4.791   3.287  -0.077  1.00  0.00     0.210 A 
HETATM   35  O9  UNL     1      -3.678   3.783  -0.833  1.00  0.00    -0.371 OA
ENDROOT
BRANCH  27  36
HETATM   36  C22 UNL     1       6.677  -0.109  -1.287  1.00  0.00     0.146 C 
HETATM   37  C23 UNL     1       7.181  -1.461  -1.785  1.00  0.00     0.042 C 
BRANCH  36  38
HETATM   38  O7  UNL     1       7.254   0.101   0.009  1.00  0.00    -0.393 OA
HETATM   39  H27 UNL     1       6.585  -0.222   0.646  1.00  0.00     0.210 HD
ENDBRANCH  36  38
ENDBRANCH  27  36
TORSDOF 2
