REMARK  14 active torsions:
REMARK  status: ('A' for Active; 'I' for Inactive)
REMARK    1  A    between atoms: O1_2  and  C2_3 
REMARK    2  A    between atoms: C2_3  and  C3_4 
REMARK    3  A    between atoms: C2_3  and  C24_30 
REMARK    4  A    between atoms: C3_4  and  C5_6 
REMARK    5  A    between atoms: C6_8  and  C8_10 
REMARK    6  A    between atoms: C8_10  and  C9_11 
REMARK    7  A    between atoms: C9_11  and  O3_13 
REMARK    8  A    between atoms: C9_11  and  C11_14 
REMARK    9  A    between atoms: C12_15  and  C13_16 
REMARK   10  A    between atoms: C14_17  and  C16_19 
REMARK   11  A    between atoms: C17_21  and  C18_22 
REMARK   12  A    between atoms: C18_22  and  C19_23 
REMARK   13  A    between atoms: C19_23  and  O6_25 
REMARK   14  A    between atoms: C24_30  and  O7_32 
ROOT
HETATM    1  C9  UNL     1      -1.039   0.919   0.023  1.00  0.00     0.075 C 
HETATM    2  C10 UNL     1      -0.982   2.226  -0.775  1.00  0.00     0.050 C 
ENDROOT
BRANCH   1   3
HETATM    3  C8  UNL     1      -1.835  -0.194  -0.704  1.00  0.00     0.082 C 
BRANCH   3   4
HETATM    4  C6  UNL     1      -3.278   0.144  -1.028  1.00  0.00     0.087 A 
HETATM    5  C5  UNL     1      -4.314   0.062   0.090  1.00  0.00     0.163 A 
HETATM    6  O2  UNL     1      -4.161  -0.986  -0.872  1.00  0.00    -0.369 OA
HETATM    7  C7  UNL     1      -3.550   0.889  -2.304  1.00  0.00     0.049 C 
BRANCH   5   8
HETATM    8  C3  UNL     1      -5.636   0.779   0.042  1.00  0.00     0.045 C 
HETATM    9  C4  UNL     1      -5.447   2.208   0.573  1.00  0.00     0.015 C 
BRANCH   8  10
HETATM   10  C2  UNL     1      -6.731   0.031   0.852  1.00  0.00     0.155 C 
BRANCH  10  11
HETATM   11  O1  UNL     1      -7.963   0.758   0.676  1.00  0.00    -0.388 OA
HETATM   12  C1  UNL     1      -8.554   1.167   1.902  1.00  0.00     0.202 C 
ENDBRANCH  10  11
BRANCH  10  13
HETATM   13  C24 UNL     1      -6.923  -1.450   0.408  1.00  0.00     0.143 C 
HETATM   14  C25 UNL     1      -8.143  -2.110   1.042  1.00  0.00     0.042 C 
BRANCH  13  15
HETATM   15  O7  UNL     1      -7.062  -1.581  -1.009  1.00  0.00    -0.393 OA
HETATM   16  H42 UNL     1      -6.188  -1.379  -1.394  1.00  0.00     0.210 HD
ENDBRANCH  13  15
ENDBRANCH  10  13
ENDBRANCH   8  10
ENDBRANCH   5   8
ENDBRANCH   3   4
ENDBRANCH   1   3
BRANCH   1  17
HETATM   17  O3  UNL     1      -1.682   1.210   1.271  1.00  0.00    -0.386 OA
HETATM   18  H18 UNL     1      -1.117   1.852   1.738  1.00  0.00     0.211 HD
ENDBRANCH   1  17
BRANCH   1  19
HETATM   19  C11 UNL     1       0.321   0.359   0.396  1.00  0.00     0.010 C 
HETATM   20  C12 UNL     1       1.521   0.719  -0.089  1.00  0.00    -0.001 C 
BRANCH  20  21
HETATM   21  C13 UNL     1       2.751   0.079   0.332  1.00  0.00     0.005 C 
HETATM   22  C14 UNL     1       4.001   0.347  -0.101  1.00  0.00    -0.055 C 
HETATM   23  C15 UNL     1       4.327   1.474  -1.057  1.00  0.00     0.046 C 
BRANCH  22  24
HETATM   24  C16 UNL     1       5.241  -0.418   0.376  1.00  0.00     0.154 C 
HETATM   25  O4  UNL     1       6.106  -0.600  -0.758  1.00  0.00    -0.375 OA
HETATM   26  C17 UNL     1       7.439  -1.038  -0.467  1.00  0.00     0.132 C 
HETATM   27  C20 UNL     1       7.427  -2.335   0.351  1.00  0.00     0.033 C 
HETATM   28  C21 UNL     1       6.448  -2.283   1.521  1.00  0.00     0.009 C 
HETATM   29  C22 UNL     1       5.060  -1.783   1.083  1.00  0.00     0.015 C 
HETATM   30  C23 UNL     1       4.377  -2.844   0.202  1.00  0.00     0.012 C 
BRANCH  26  31
HETATM   31  C18 UNL     1       8.288   0.055   0.188  1.00  0.00     0.141 C 
BRANCH  31  32
HETATM   32  C19 UNL     1       8.495   1.198  -0.764  1.00  0.00     0.141 C 
HETATM   33  O5  UNL     1       8.847   1.126  -1.930  1.00  0.00    -0.650 OA
BRANCH  32  34
HETATM   34  O6  UNL     1       8.294   2.398  -0.185  1.00  0.00    -0.776 OA
HETATM   35  H29 UNL     1       8.456   3.037  -0.913  1.00  0.00     0.167 HD
ENDBRANCH  32  34
ENDBRANCH  31  32
ENDBRANCH  26  31
ENDBRANCH  22  24
ENDBRANCH  20  21
ENDBRANCH   1  19
TORSDOF 14
