REMARK  5 active torsions:
REMARK  status: ('A' for Active; 'I' for Inactive)
REMARK    1  A    between atoms: C4_4  and  C5_5 
REMARK    2  A    between atoms: C5_5  and  C6_6 
REMARK    3  A    between atoms: C6_6  and  C7_7 
REMARK    4  A    between atoms: C7_7  and  C9_9 
REMARK    5  A    between atoms: C24_24  and  O1_25 
ROOT
HETATM    1  C9  UNL     1       1.995   0.895   0.221  1.00  0.00    -0.002 C 
HETATM    2  C10 UNL     1       2.362  -0.261  -0.736  1.00  0.00     0.007 C 
HETATM    3  C11 UNL     1       1.032  -0.836  -1.281  1.00  0.00     0.015 C 
HETATM    4  C12 UNL     1      -0.061   0.145  -0.809  1.00  0.00    -0.013 C 
HETATM    5  C13 UNL     1      -0.140   1.282  -1.879  1.00  0.00     0.021 C 
HETATM    6  C14 UNL     1      -1.500  -0.337  -0.655  1.00  0.00    -0.068 C 
HETATM    7  C15 UNL     1      -2.323   0.273   0.241  1.00  0.00    -0.068 C 
HETATM    8  C16 UNL     1      -1.816   1.369   1.187  1.00  0.00     0.036 C 
HETATM    9  C17 UNL     1      -0.318   1.737   1.116  1.00  0.00     0.015 C 
HETATM   10  C18 UNL     1       0.518   0.567   0.591  1.00  0.00    -0.029 C 
HETATM   11  C19 UNL     1       0.478  -0.573   1.655  1.00  0.00     0.016 C 
HETATM   12  C20 UNL     1      -3.800  -0.153   0.394  1.00  0.00    -0.017 C 
HETATM   13  C21 UNL     1      -3.852  -1.160   1.570  1.00  0.00     0.020 C 
HETATM   14  C22 UNL     1      -4.744   1.044   0.707  1.00  0.00     0.016 C 
HETATM   15  C23 UNL     1      -6.225   0.658   0.734  1.00  0.00     0.033 C 
HETATM   16  C24 UNL     1      -6.668  -0.039  -0.548  1.00  0.00     0.118 C 
HETATM   17  C25 UNL     1      -5.759  -1.212  -0.916  1.00  0.00     0.037 C 
HETATM   18  C26 UNL     1      -4.289  -0.779  -0.953  1.00  0.00     0.001 C 
HETATM   19  C27 UNL     1      -3.383  -1.927  -1.393  1.00  0.00     0.010 C 
HETATM   20  C28 UNL     1      -1.948  -1.440  -1.591  1.00  0.00     0.036 C 
ENDROOT
BRANCH   1  21
HETATM   21  C7  UNL     1       2.980   1.236   1.376  1.00  0.00    -0.014 C 
HETATM   22  C8  UNL     1       3.907   2.384   0.944  1.00  0.00     0.010 C 
BRANCH  21  23
HETATM   23  C6  UNL     1       3.751   0.078   2.063  1.00  0.00     0.008 C 
BRANCH  23  24
HETATM   24  C5  UNL     1       5.224  -0.187   1.681  1.00  0.00     0.028 C 
BRANCH  24  25
HETATM   25  C4  UNL     1       5.418  -1.014   0.442  1.00  0.00    -0.025 C 
HETATM   26  C2  UNL     1       6.047  -0.689  -0.704  1.00  0.00    -0.091 C 
HETATM   27  C1  UNL     1       6.703   0.633  -0.999  1.00  0.00     0.042 C 
HETATM   28  C3  UNL     1       6.135  -1.683  -1.833  1.00  0.00     0.042 C 
ENDBRANCH  24  25
ENDBRANCH  23  24
ENDBRANCH  21  23
ENDBRANCH   1  21
BRANCH  16  29
HETATM   29  O1  UNL     1      -8.008  -0.501  -0.401  1.00  0.00    -0.396 OA
HETATM   30  H39 UNL     1      -8.016  -1.176   0.300  1.00  0.00     0.210 HD
ENDBRANCH  16  29
TORSDOF 5
