REMARK  4 active torsions:
REMARK  status: ('A' for Active; 'I' for Inactive)
REMARK    1  A    between atoms: C4_5  and  C5_6 
REMARK    2  A    between atoms: C8_11  and  C9_12 
REMARK    3  A    between atoms: C9_12  and  N2_13 
REMARK    4  A    between atoms: N3_16  and  C12_17 
ROOT
HETATM    1  N2  UNL     1      -0.105  -1.945   0.669  1.00  0.00     0.095 N 
HETATM    2  C10 UNL     1      -0.011  -1.165  -0.580  1.00  0.00     0.287 C 
HETATM    3  C11 UNL     1      -1.382  -0.608  -1.044  1.00  0.00     0.126 C 
HETATM    4  N3  UNL     1      -2.005   0.179   0.044  1.00  0.00    -0.278 NA
HETATM    5  C20 UNL     1      -2.139  -0.611   1.282  1.00  0.00     0.126 C 
HETATM    6  C21 UNL     1      -0.747  -1.132   1.723  1.00  0.00     0.287 C 
ENDROOT
BRANCH   1   7
HETATM    7  C9  UNL     1       1.153  -2.573   1.082  1.00  0.00     0.312 C 
BRANCH   7   8
HETATM    8  C8  UNL     1       2.296  -1.663   1.454  1.00  0.00    -0.014 A 
HETATM    9  C7  UNL     1       2.494  -1.262   2.770  1.00  0.00     0.096 A 
HETATM   10  N1  UNL     1       3.497  -0.452   3.174  1.00  0.00    -0.374 N 
HETATM   11  C6  UNL     1       4.347  -0.015   2.215  1.00  0.00     0.100 A 
ATOM     12  H1  UNL     1       3.608  -0.183   4.152  1.00  0.00     0.164 HD
HETATM   13  C5  UNL     1       4.260  -0.345   0.862  1.00  0.00    -0.010 A 
HETATM   14  C22 UNL     1       3.206  -1.194   0.497  1.00  0.00     0.024 A 
BRANCH  13  15
HETATM   15  C4  UNL     1       5.218   0.170  -0.127  1.00  0.00    -0.024 A 
HETATM   16  C3  UNL     1       5.473   1.549  -0.236  1.00  0.00     0.015 A 
HETATM   17  C2  UNL     1       6.382   2.039  -1.178  1.00  0.00     0.043 A 
HETATM   18  C1  UNL     1       7.044   1.153  -2.017  1.00  0.00     0.116 A 
HETATM   19  F1  UNL     1       7.915   1.622  -2.919  1.00  0.00    -0.206 F 
HETATM   20  C24 UNL     1       6.813  -0.214  -1.933  1.00  0.00     0.043 A 
HETATM   21  C23 UNL     1       5.903  -0.703  -0.992  1.00  0.00     0.015 A 
ENDBRANCH  13  15
ENDBRANCH   7   8
ENDBRANCH   1   7
BRANCH   4  22
HETATM   22  C12 UNL     1      -3.090   0.963  -0.391  1.00  0.00     0.047 A 
HETATM   23  C13 UNL     1      -2.775   2.093  -1.178  1.00  0.00     0.027 A 
HETATM   24  C14 UNL     1      -3.754   2.964  -1.660  1.00  0.00     0.005 A 
HETATM   25  C15 UNL     1      -5.091   2.722  -1.374  1.00  0.00     0.040 A 
HETATM   26  C16 UNL     1      -5.441   1.611  -0.611  1.00  0.00     0.103 A 
HETATM   27  C17 UNL     1      -4.454   0.744  -0.097  1.00  0.00     0.123 A 
HETATM   28  O2  UNL     1      -6.791   1.443  -0.406  1.00  0.00    -0.346 OA
HETATM   29  O1  UNL     1      -4.804  -0.350   0.662  1.00  0.00    -0.344 OA
HETATM   30  C18 UNL     1      -6.130  -0.248   1.185  1.00  0.00     0.202 C 
HETATM   31  C19 UNL     1      -7.093   0.134   0.080  1.00  0.00     0.202 C 
ENDBRANCH   4  22
TORSDOF 4
