REMARK  3 active torsions:
REMARK  status: ('A' for Active; 'I' for Inactive)
REMARK    1  A    between atoms: C2_2  and  O1_3 
REMARK    2  A    between atoms: C2_2  and  C3_4 
REMARK    3  A    between atoms: C23_31  and  O9_32 
ROOT
HETATM    1  C3  UNL     1       4.923  -0.228  -0.107  1.00  0.00     0.133 C 
HETATM    2  C4  UNL     1       3.860   0.850  -0.325  1.00  0.00     0.016 C 
HETATM    3  C5  UNL     1       3.077   1.408   0.613  1.00  0.00    -0.001 C 
HETATM    4  C6  UNL     1       1.967   2.289   0.335  1.00  0.00     0.006 C 
HETATM    5  C7  UNL     1       0.974   1.945  -0.499  1.00  0.00     0.082 C 
HETATM    6  C8  UNL     1      -0.259   2.746  -0.530  1.00  0.00     0.283 C 
HETATM    7  O2  UNL     1      -0.324   3.962  -0.491  1.00  0.00    -0.260 OA
HETATM    8  O3  UNL     1      -1.292   1.865  -0.509  1.00  0.00    -0.312 OA
HETATM    9  C9  UNL     1      -2.561   2.406  -0.165  1.00  0.00     0.146 C 
HETATM   10  C10 UNL     1      -3.420   2.772  -1.400  1.00  0.00     0.068 C 
HETATM   11  C11 UNL     1      -4.815   2.191  -1.084  1.00  0.00     0.162 C 
HETATM   12  O4  UNL     1      -5.002   0.887  -1.675  1.00  0.00    -0.377 OA
HETATM   13  C12 UNL     1      -3.939  -0.044  -1.402  1.00  0.00     0.127 C 
HETATM   14  C13 UNL     1      -4.304  -1.448  -1.917  1.00  0.00     0.032 C 
HETATM   15  C14 UNL     1      -4.456  -2.499  -0.812  1.00  0.00     0.003 C 
HETATM   16  C15 UNL     1      -3.309  -2.533   0.215  1.00  0.00     0.007 C 
HETATM   17  C16 UNL     1      -2.553  -1.185   0.397  1.00  0.00     0.017 C 
HETATM   18  C17 UNL     1      -1.288  -1.205  -0.489  1.00  0.00     0.183 C 
HETATM   19  O5  UNL     1      -0.112  -1.163   0.344  1.00  0.00    -0.319 OA
HETATM   20  C18 UNL     1       0.690  -2.260   0.334  1.00  0.00     0.291 C 
HETATM   21  O6  UNL     1       0.480  -3.300  -0.270  1.00  0.00    -0.262 OA
HETATM   22  C19 UNL     1       1.936  -1.999   1.094  1.00  0.00     0.259 A 
HETATM   23  O7  UNL     1       2.818  -3.113   1.298  1.00  0.00    -0.356 OA
HETATM   24  C20 UNL     1       3.297  -2.087   0.412  1.00  0.00     0.128 A 
HETATM   25  C21 UNL     1       3.409  -2.513  -1.028  1.00  0.00     0.070 C 
HETATM   26  C22 UNL     1       4.794  -2.190  -1.577  1.00  0.00     0.172 C 
HETATM   27  O8  UNL     1       5.096  -0.800  -1.445  1.00  0.00    -0.371 OA
HETATM   28  C23 UNL     1       4.463  -1.295   0.956  1.00  0.00     0.197 C 
HETATM   29  C24 UNL     1      -3.576  -0.059   0.099  1.00  0.00     0.034 C 
HETATM   30  C25 UNL     1      -3.413   1.399   0.671  1.00  0.00     0.025 C 
HETATM   31  C26 UNL     1      -2.977   1.393   2.134  1.00  0.00     0.022 C 
HETATM   32  C27 UNL     1      -4.775   2.003   0.399  1.00  0.00     0.118 A 
HETATM   33  C28 UNL     1      -5.994   1.940   1.284  1.00  0.00     0.210 A 
HETATM   34  O10 UNL     1      -5.173   3.123   1.194  1.00  0.00    -0.371 OA
ENDROOT
BRANCH   1  35
HETATM   35  C2  UNL     1       6.323   0.373   0.237  1.00  0.00     0.155 C 
HETATM   36  C1  UNL     1       6.421   1.096   1.574  1.00  0.00     0.042 C 
BRANCH  35  37
HETATM   37  O1  UNL     1       6.735   1.294  -0.792  1.00  0.00    -0.393 OA
HETATM   38  H5  UNL     1       6.515   0.846  -1.633  1.00  0.00     0.210 HD
ENDBRANCH  35  37
ENDBRANCH   1  35
BRANCH  28  39
HETATM   39  O9  UNL     1       5.513  -2.208   1.296  1.00  0.00    -0.389 OA
HETATM   40  H30 UNL     1       5.089  -2.958   1.756  1.00  0.00     0.210 HD
ENDBRANCH  28  39
TORSDOF 3
