REMARK  11 active torsions:
REMARK  status: ('A' for Active; 'I' for Inactive)
REMARK    1  A    between atoms: C3_3  and  O1_4 
REMARK    2  A    between atoms: N1_14  and  O2_16 
REMARK    3  A    between atoms: O2_16  and  C13_17 
REMARK    4  A    between atoms: C13_17  and  C14_18 
REMARK       I    between atoms: C14_18  and  N2_20 
REMARK    5  A    between atoms: N2_20  and  C15_21 
REMARK    6  A    between atoms: C15_21  and  C16_22 
REMARK    7  A    between atoms: C15_21  and  C17_25 
REMARK    8  A    between atoms: C16_22  and  O5_24 
REMARK    9  A    between atoms: C17_25  and  O6_26 
REMARK   10  A    between atoms: C17_25  and  C18_27 
REMARK   11  A    between atoms: C22_31  and  N3_32 
ROOT
HETATM    1  C1  UNL     1       9.595   1.881   1.272  1.00  0.00     0.015 C 
HETATM    2  C2  UNL     1       8.772   1.709   0.413  1.00  0.00    -0.078 C 
HETATM    3  C3  UNL     1       7.765   1.512  -0.642  1.00  0.00     0.128 C 
HETATM    4  C4  UNL     1       6.699   2.614  -0.636  1.00  0.00     0.052 C 
HETATM    5  C5  UNL     1       5.435   1.977  -1.224  1.00  0.00     0.010 C 
HETATM    6  C6  UNL     1       5.758   0.489  -1.470  1.00  0.00     0.002 C 
HETATM    7  C7  UNL     1       4.563  -0.482  -1.335  1.00  0.00    -0.004 C 
HETATM    8  C8  UNL     1       3.394  -0.053  -2.239  1.00  0.00     0.010 C 
HETATM    9  C9  UNL     1       2.227  -1.029  -2.156  1.00  0.00     0.035 C 
HETATM   10  C10 UNL     1       1.770  -1.205  -0.728  1.00  0.00    -0.069 C 
HETATM   11  C11 UNL     1       0.481  -0.984  -0.407  1.00  0.00     0.030 C 
HETATM   12  C12 UNL     1      -0.014  -1.208   0.979  1.00  0.00     0.032 C 
HETATM   13  N1  UNL     1      -1.145  -0.802   1.468  1.00  0.00    -0.271 N 
ATOM     14  H1  UNL     1      -1.450  -0.981   2.425  1.00  0.00     0.194 HD
HETATM   15  C24 UNL     1       0.888  -2.005   1.893  1.00  0.00     0.060 C 
HETATM   16  C25 UNL     1       2.316  -1.508   1.737  1.00  0.00     0.020 C 
HETATM   17  C26 UNL     1       2.852  -1.624   0.278  1.00  0.00    -0.016 C 
HETATM   18  C27 UNL     1       3.220  -3.101   0.009  1.00  0.00     0.020 C 
HETATM   19  C28 UNL     1       4.095  -0.663   0.132  1.00  0.00     0.002 C 
HETATM   20  C29 UNL     1       5.292  -1.069   1.013  1.00  0.00     0.007 C 
HETATM   21  C30 UNL     1       6.432  -0.053   0.929  1.00  0.00     0.014 C 
HETATM   22  C31 UNL     1       6.945   0.192  -0.514  1.00  0.00     0.003 C 
HETATM   23  C32 UNL     1       7.746  -1.034  -0.998  1.00  0.00     0.020 C 
ENDROOT
BRANCH   3  24
HETATM   24  O1  UNL     1       8.425   1.557  -1.909  1.00  0.00    -0.377 OA
HETATM   25  H2  UNL     1       8.955   2.372  -1.924  1.00  0.00     0.211 HD
ENDBRANCH   3  24
BRANCH  13  26
HETATM   26  O2  UNL     1      -1.899  -0.086   0.523  1.00  0.00    -0.271 OA
BRANCH  26  27
HETATM   27  C13 UNL     1      -2.937   0.615   1.189  1.00  0.00     0.303 C 
BRANCH  27  28
HETATM   28  C14 UNL     1      -4.327   0.252   0.672  1.00  0.00     0.244 C 
HETATM   29  O3  UNL     1      -4.550  -0.487  -0.283  1.00  0.00    -0.271 OA
HETATM   30  N2  UNL     1      -5.348   0.849   1.381  1.00  0.00    -0.342 N 
HETATM   31  H16 UNL     1      -5.153   1.405   2.209  1.00  0.00     0.163 HD
BRANCH  30  32
HETATM   32  C15 UNL     1      -6.766   0.579   1.093  1.00  0.00     0.216 C 
BRANCH  32  33
HETATM   33  C16 UNL     1      -7.602   1.005   2.305  1.00  0.00     0.166 C 
HETATM   34  O4  UNL     1      -8.819   0.973   2.404  1.00  0.00    -0.648 OA
BRANCH  33  35
HETATM   35  O5  UNL     1      -6.861   1.431   3.358  1.00  0.00    -0.775 OA
HETATM   36  H18 UNL     1      -7.532   1.638   4.044  1.00  0.00     0.167 HD
ENDBRANCH  33  35
ENDBRANCH  32  33
BRANCH  32  37
HETATM   37  C17 UNL     1      -7.247   1.305  -0.191  1.00  0.00     0.184 C 
BRANCH  37  38
HETATM   38  O6  UNL     1      -7.363   2.715   0.078  1.00  0.00    -0.388 OA
HETATM   39  H20 UNL     1      -8.308   2.947   0.045  1.00  0.00     0.210 HD
ENDBRANCH  37  38
BRANCH  37  40
HETATM   40  C18 UNL     1      -8.514   0.816  -0.885  1.00  0.00    -0.025 A 
HETATM   41  C19 UNL     1      -8.895   1.447  -2.088  1.00  0.00     0.010 A 
HETATM   42  C20 UNL     1     -10.044   1.062  -2.786  1.00  0.00     0.003 A 
HETATM   43  C21 UNL     1     -10.840   0.029  -2.300  1.00  0.00     0.036 A 
HETATM   44  C22 UNL     1     -10.470  -0.620  -1.117  1.00  0.00     0.103 A 
HETATM   45  C23 UNL     1      -9.313  -0.238  -0.416  1.00  0.00     0.045 A 
BRANCH  44  46
HETATM   46  N3  UNL     1     -11.303  -1.715  -0.603  1.00  0.00    -0.116 N 
HETATM   47  O7  UNL     1     -10.862  -2.383   0.343  1.00  0.00    -0.532 OA
HETATM   48  O8  UNL     1     -12.400  -1.909  -1.147  1.00  0.00    -0.532 OA
ENDBRANCH  44  46
ENDBRANCH  37  40
ENDBRANCH  32  37
ENDBRANCH  30  32
ENDBRANCH  27  28
ENDBRANCH  26  27
ENDBRANCH  13  26
TORSDOF 11
