REMARK  13 active torsions:
REMARK  status: ('A' for Active; 'I' for Inactive)
REMARK    1  A    between atoms: C3_3  and  O1_4 
REMARK    2  A    between atoms: N1_14  and  O2_16 
REMARK    3  A    between atoms: O2_16  and  C13_17 
REMARK    4  A    between atoms: C13_17  and  C14_18 
REMARK       I    between atoms: C14_18  and  N2_20 
REMARK    5  A    between atoms: N2_20  and  C15_21 
REMARK    6  A    between atoms: C15_21  and  C16_22 
REMARK    7  A    between atoms: C15_21  and  C21_32 
REMARK       I    between atoms: C16_22  and  N3_24 
REMARK    8  A    between atoms: N3_24  and  C17_25 
REMARK    9  A    between atoms: C17_25  and  C18_26 
REMARK   10  A    between atoms: C17_25  and  C19_28 
REMARK   11  A    between atoms: C18_26  and  S1_27 
REMARK   12  A    between atoms: C19_28  and  C20_29 
REMARK   13  A    between atoms: C20_29  and  O6_31 
ROOT
HETATM    1  C1  UNL     1      -9.105   2.391   1.683  1.00  0.00     0.015 C 
HETATM    2  C2  UNL     1      -8.373   1.594   1.163  1.00  0.00    -0.078 C 
HETATM    3  C3  UNL     1      -7.442   0.604   0.595  1.00  0.00     0.128 C 
HETATM    4  C4  UNL     1      -8.174  -0.633   0.068  1.00  0.00     0.052 C 
HETATM    5  C5  UNL     1      -7.236  -1.265  -0.970  1.00  0.00     0.010 C 
HETATM    6  C6  UNL     1      -6.139  -0.227  -1.290  1.00  0.00     0.002 C 
HETATM    7  C7  UNL     1      -4.674  -0.692  -1.019  1.00  0.00    -0.004 C 
HETATM    8  C8  UNL     1      -4.410  -1.534   0.249  1.00  0.00     0.010 C 
HETATM    9  C9  UNL     1      -2.952  -1.977   0.375  1.00  0.00     0.035 C 
HETATM   10  C10 UNL     1      -1.967  -0.844   0.208  1.00  0.00    -0.069 C 
HETATM   11  C11 UNL     1      -0.960  -0.692   1.083  1.00  0.00     0.030 C 
HETATM   12  C12 UNL     1       0.112   0.316   0.866  1.00  0.00     0.032 C 
HETATM   13  N1  UNL     1       0.945   0.541   1.843  1.00  0.00    -0.271 N 
ATOM     14  H1  UNL     1       0.911   0.066   2.745  1.00  0.00     0.194 HD
HETATM   15  C24 UNL     1       0.181   0.971  -0.498  1.00  0.00     0.060 C 
HETATM   16  C25 UNL     1      -1.233   1.300  -0.957  1.00  0.00     0.020 C 
HETATM   17  C26 UNL     1      -2.180   0.062  -1.002  1.00  0.00    -0.016 C 
HETATM   18  C27 UNL     1      -1.807  -0.737  -2.281  1.00  0.00     0.020 C 
HETATM   19  C28 UNL     1      -3.695   0.514  -1.088  1.00  0.00     0.002 C 
HETATM   20  C29 UNL     1      -4.135   1.533  -0.014  1.00  0.00     0.007 C 
HETATM   21  C30 UNL     1      -5.514   2.107  -0.315  1.00  0.00     0.014 C 
HETATM   22  C31 UNL     1      -6.634   1.101  -0.639  1.00  0.00     0.003 C 
HETATM   23  C32 UNL     1      -7.586   1.816  -1.653  1.00  0.00     0.020 C 
ENDROOT
BRANCH   3  24
HETATM   24  O1  UNL     1      -6.590   0.177   1.650  1.00  0.00    -0.377 OA
HETATM   25  H2  UNL     1      -6.168   0.964   2.028  1.00  0.00     0.211 HD
ENDBRANCH   3  24
BRANCH  13  26
HETATM   26  O2  UNL     1       1.893   1.516   1.502  1.00  0.00    -0.271 OA
BRANCH  26  27
HETATM   27  C13 UNL     1       2.606   1.923   2.665  1.00  0.00     0.303 C 
BRANCH  27  28
HETATM   28  C14 UNL     1       3.967   1.245   2.741  1.00  0.00     0.244 C 
HETATM   29  O3  UNL     1       4.979   1.832   3.122  1.00  0.00    -0.271 OA
HETATM   30  N2  UNL     1       3.952  -0.090   2.391  1.00  0.00    -0.346 N 
HETATM   31  H16 UNL     1       3.154  -0.350   1.810  1.00  0.00     0.163 HD
BRANCH  30  32
HETATM   32  C15 UNL     1       5.207  -0.800   2.157  1.00  0.00     0.180 C 
BRANCH  32  33
HETATM   33  C16 UNL     1       5.640  -0.499   0.704  1.00  0.00     0.241 C 
HETATM   34  O4  UNL     1       4.834  -0.393  -0.222  1.00  0.00    -0.271 OA
HETATM   35  N3  UNL     1       7.000  -0.362   0.522  1.00  0.00    -0.353 N 
HETATM   36  H18 UNL     1       7.618  -0.460   1.316  1.00  0.00     0.163 HD
BRANCH  35  37
HETATM   37  C17 UNL     1       7.576  -0.002  -0.780  1.00  0.00     0.103 C 
BRANCH  37  38
HETATM   38  C18 UNL     1       9.092  -0.293  -0.816  1.00  0.00     0.096 C 
BRANCH  38  39
HETATM   39  S1  UNL     1       9.473  -2.045  -0.489  1.00  0.00    -0.180 SA
HETATM   40  H22 UNL     1       8.746  -2.536  -1.512  1.00  0.00     0.101 HD
ENDBRANCH  38  39
ENDBRANCH  37  38
BRANCH  37  41
HETATM   41  C19 UNL     1       7.307   1.481  -1.086  1.00  0.00     0.136 C 
BRANCH  41  42
HETATM   42  C20 UNL     1       7.514   1.797  -2.541  1.00  0.00     0.141 C 
HETATM   43  O5  UNL     1       7.782   1.014  -3.435  1.00  0.00    -0.650 OA
BRANCH  42  44
HETATM   44  O6  UNL     1       7.371   3.113  -2.797  1.00  0.00    -0.776 OA
HETATM   45  H25 UNL     1       7.453   3.185  -3.769  1.00  0.00     0.167 HD
ENDBRANCH  42  44
ENDBRANCH  41  42
ENDBRANCH  37  41
ENDBRANCH  35  37
ENDBRANCH  32  33
BRANCH  32  46
HETATM   46  C21 UNL     1       5.069  -2.307   2.462  1.00  0.00     0.009 C 
HETATM   47  C22 UNL     1       6.438  -2.988   2.568  1.00  0.00     0.012 C 
HETATM   48  C23 UNL     1       4.184  -3.064   1.466  1.00  0.00     0.012 C 
ENDBRANCH  32  46
ENDBRANCH  30  32
ENDBRANCH  27  28
ENDBRANCH  26  27
ENDBRANCH  13  26
TORSDOF 13
