REMARK  6 active torsions:
REMARK  status: ('A' for Active; 'I' for Inactive)
REMARK    1  A    between atoms: O1_2  and  C2_3 
REMARK    2  A    between atoms: C17_20  and  C18_21 
REMARK    3  A    between atoms: C22_27  and  O6_28 
REMARK    4  A    between atoms: O6_28  and  C23_29 
REMARK    5  A    between atoms: C26_33  and  O8_34 
REMARK    6  A    between atoms: C31_40  and  O10_41 
ROOT
HETATM    1  C2  UNL     1       6.521   0.456  -1.974  1.00  0.00     0.190 C 
HETATM    2  C3  UNL     1       7.878  -0.246  -1.819  1.00  0.00     0.064 C 
HETATM    3  C4  UNL     1       7.709  -1.723  -1.471  1.00  0.00     0.174 C 
HETATM    4  O2  UNL     1       6.881  -1.909  -0.319  1.00  0.00    -0.356 OA
HETATM    5  C5  UNL     1       5.570  -1.380  -0.542  1.00  0.00     0.325 C 
HETATM    6  O3  UNL     1       4.733  -1.699   0.591  1.00  0.00    -0.344 OA
HETATM    7  C6  UNL     1       3.431  -1.150   0.346  1.00  0.00     0.177 C 
HETATM    8  C7  UNL     1       2.476  -1.579   1.410  1.00  0.00     0.011 C 
HETATM    9  C8  UNL     1       1.491  -0.790   1.891  1.00  0.00    -0.072 C 
HETATM   10  C9  UNL     1       0.561  -1.323   2.951  1.00  0.00     0.035 C 
HETATM   11  C10 UNL     1      -0.907  -0.973   2.709  1.00  0.00     0.012 C 
HETATM   12  C11 UNL     1      -1.173  -0.408   1.304  1.00  0.00     0.026 C 
HETATM   13  C12 UNL     1      -0.316   0.887   1.107  1.00  0.00     0.005 C 
HETATM   14  C13 UNL     1      -0.653   1.624  -0.220  1.00  0.00     0.007 C 
HETATM   15  C14 UNL     1      -2.159   1.815  -0.478  1.00  0.00     0.013 C 
HETATM   16  C15 UNL     1      -2.919   0.481  -0.350  1.00  0.00    -0.003 C 
HETATM   17  C16 UNL     1      -2.481  -0.469  -1.502  1.00  0.00     0.019 C 
HETATM   18  C17 UNL     1      -4.470   0.604  -0.313  1.00  0.00     0.058 C 
HETATM   19  C22 UNL     1      -4.900  -0.737   0.367  1.00  0.00     0.143 C 
HETATM   20  C25 UNL     1      -3.674  -1.234   1.180  1.00  0.00     0.072 C 
HETATM   21  C26 UNL     1      -2.664  -0.092   1.072  1.00  0.00     0.072 C 
HETATM   22  C27 UNL     1       1.232   0.643   1.382  1.00  0.00    -0.014 C 
HETATM   23  C28 UNL     1       1.657   1.618   2.515  1.00  0.00     0.020 C 
HETATM   24  C29 UNL     1       2.125   0.956   0.137  1.00  0.00     0.049 C 
HETATM   25  C30 UNL     1       3.533   0.382   0.278  1.00  0.00     0.159 C 
HETATM   26  O9  UNL     1       4.350   0.767  -0.842  1.00  0.00    -0.341 OA
HETATM   27  C31 UNL     1       5.657   0.176  -0.719  1.00  0.00     0.240 C 
ENDROOT
BRANCH  18  28
HETATM   28  C18 UNL     1      -5.148   0.936  -1.615  1.00  0.00    -0.043 A 
HETATM   29  C19 UNL     1      -5.245   2.151  -2.158  1.00  0.00     0.087 A 
HETATM   30  C20 UNL     1      -5.974   2.004  -3.417  1.00  0.00     0.283 A 
HETATM   31  O4  UNL     1      -6.209   2.915  -4.187  1.00  0.00    -0.260 OA
HETATM   32  O5  UNL     1      -6.325   0.700  -3.582  1.00  0.00    -0.314 OA
HETATM   33  C21 UNL     1      -5.849  -0.055  -2.468  1.00  0.00     0.214 A 
ENDBRANCH  18  28
BRANCH  19  34
HETATM   34  O6  UNL     1      -6.016  -0.489   1.238  1.00  0.00    -0.316 OA
BRANCH  34  35
HETATM   35  C23 UNL     1      -6.766  -1.577   1.550  1.00  0.00     0.255 C 
HETATM   36  C24 UNL     1      -7.846  -1.197   2.518  1.00  0.00     0.126 C 
HETATM   37  O7  UNL     1      -6.586  -2.711   1.126  1.00  0.00    -0.266 OA
ENDBRANCH  34  35
ENDBRANCH  19  34
BRANCH  21  38
HETATM   38  O8  UNL     1      -3.063   0.900   2.042  1.00  0.00    -0.389 OA
HETATM   39  H35 UNL     1      -3.136   0.474   2.914  1.00  0.00     0.210 HD
ENDBRANCH  21  38
BRANCH  27  40
HETATM   40  O10 UNL     1       6.322   0.769   0.411  1.00  0.00    -0.360 OA
HETATM   41  H42 UNL     1       6.349   0.066   1.089  1.00  0.00     0.213 HD
ENDBRANCH  27  40
BRANCH   1  42
HETATM   42  O1  UNL     1       5.925  -0.059  -3.179  1.00  0.00    -0.385 OA
HETATM   43  C1  UNL     1       5.119   0.905  -3.849  1.00  0.00     0.202 C 
ENDBRANCH   1  42
TORSDOF 6
