REMARK  13 active torsions:
REMARK  status: ('A' for Active; 'I' for Inactive)
REMARK    1  A    between atoms: O1_2  and  C2_3 
REMARK    2  A    between atoms: C2_3  and  C3_4 
REMARK    3  A    between atoms: C3_4  and  C4_5 
REMARK    4  A    between atoms: C4_5  and  O2_6 
REMARK    5  A    between atoms: O2_6  and  C5_7 
REMARK    6  A    between atoms: C20_23  and  C21_24 
REMARK    7  A    between atoms: C21_24  and  O4_26 
REMARK    8  A    between atoms: C21_24  and  C23_27 
REMARK    9  A    between atoms: C23_27  and  O5_28 
REMARK   10  A    between atoms: C23_27  and  C24_29 
REMARK   11  A    between atoms: C28_34  and  C29_35 
REMARK       I    between atoms: C29_35  and  N1_37 
REMARK   12  A    between atoms: C32_41  and  O8_42 
REMARK   13  A    between atoms: C39_49  and  O9_50 
ROOT
HETATM    1  C5  UNL     1       6.677  -1.290  -1.973  1.00  0.00     0.122 C 
HETATM    2  C6  UNL     1       6.140  -2.697  -1.678  1.00  0.00     0.033 C 
HETATM    3  C7  UNL     1       4.650  -2.659  -1.356  1.00  0.00     0.013 C 
HETATM    4  C8  UNL     1       4.330  -1.826  -0.076  1.00  0.00    -0.026 C 
HETATM    5  C9  UNL     1       4.222  -2.800   1.122  1.00  0.00     0.016 C 
HETATM    6  C10 UNL     1       5.502  -0.840   0.227  1.00  0.00     0.071 C 
HETATM    7  C11 UNL     1       6.057  -0.218  -1.062  1.00  0.00     0.045 C 
HETATM    8  C12 UNL     1       5.168   0.263   1.228  1.00  0.00     0.161 C 
HETATM    9  O3  UNL     1       6.064   0.881   1.811  1.00  0.00    -0.292 OA
HETATM   10  C13 UNL     1       3.748   0.658   1.453  1.00  0.00    -0.006 C 
HETATM   11  C14 UNL     1       2.779   0.033   0.755  1.00  0.00    -0.030 C 
HETATM   12  C15 UNL     1       2.995  -1.034  -0.302  1.00  0.00     0.027 C 
HETATM   13  C16 UNL     1       1.750  -1.942  -0.550  1.00  0.00     0.011 C 
HETATM   14  C17 UNL     1       0.385  -1.207  -0.550  1.00  0.00     0.014 C 
HETATM   15  C18 UNL     1       0.208  -0.403   0.752  1.00  0.00    -0.002 C 
HETATM   16  C19 UNL     1       0.164  -1.395   1.948  1.00  0.00     0.019 C 
HETATM   17  C20 UNL     1      -0.949   0.665   0.821  1.00  0.00     0.034 C 
HETATM   18  C35 UNL     1      -0.426   1.710   1.876  1.00  0.00     0.016 C 
HETATM   19  C36 UNL     1       1.065   1.375   2.074  1.00  0.00     0.026 C 
HETATM   20  C37 UNL     1       2.076   2.481   2.292  1.00  0.00     0.013 C 
HETATM   21  C38 UNL     1       3.494   1.853   2.371  1.00  0.00     0.043 C 
HETATM   22  C39 UNL     1       1.400   0.587   0.817  1.00  0.00     0.094 C 
ENDROOT
BRANCH  17  23
HETATM   23  C21 UNL     1      -2.470   0.297   0.866  1.00  0.00     0.087 C 
HETATM   24  C22 UNL     1      -2.912  -0.396   2.154  1.00  0.00     0.049 C 
BRANCH  23  25
HETATM   25  O4  UNL     1      -2.659  -0.651  -0.201  1.00  0.00    -0.387 OA
HETATM   26  H33 UNL     1      -3.533  -0.478  -0.600  1.00  0.00     0.210 HD
ENDBRANCH  23  25
BRANCH  23  27
HETATM   27  C23 UNL     1      -3.294   1.632   0.613  1.00  0.00     0.181 C 
BRANCH  27  28
HETATM   28  O5  UNL     1      -3.320   2.465   1.774  1.00  0.00    -0.390 OA
HETATM   29  H35 UNL     1      -3.547   3.367   1.481  1.00  0.00     0.210 HD
ENDBRANCH  27  28
BRANCH  27  30
HETATM   30  C24 UNL     1      -4.684   1.575  -0.072  1.00  0.00     0.158 C 
HETATM   31  O6  UNL     1      -4.714   0.598  -1.150  1.00  0.00    -0.373 OA
HETATM   32  C25 UNL     1      -6.105   0.486  -1.480  1.00  0.00     0.185 C 
HETATM   33  C26 UNL     1      -6.759   0.365  -0.122  1.00  0.00     0.028 C 
HETATM   34  C32 UNL     1      -6.487  -0.708  -2.358  1.00  0.00     0.384 C 
HETATM   35  C27 UNL     1      -8.267   0.417  -0.309  1.00  0.00     0.053 C 
HETATM   36  C33 UNL     1      -6.059   1.484   0.656  1.00  0.00     0.020 C 
HETATM   37  C28 UNL     1      -8.713  -0.696  -1.292  1.00  0.00     0.309 C 
HETATM   38  N2  UNL     1      -7.926  -0.778  -2.549  1.00  0.00     0.128 N 
HETATM   39  H46 UNL     1      -8.213  -0.015  -3.164  1.00  0.00     0.320 HD
HETATM   40  C34 UNL     1      -6.120   1.262   2.159  1.00  0.00     0.013 C 
BRANCH  37  41
HETATM   41  C29 UNL     1     -10.183  -0.444  -1.669  1.00  0.00     0.233 C 
HETATM   42  O7  UNL     1     -10.506   0.285  -2.611  1.00  0.00    -0.277 OA
HETATM   43  N1  UNL     1     -11.081  -1.102  -0.827  1.00  0.00    -0.249 NA
HETATM   44  C30 UNL     1     -12.334  -1.563  -1.374  1.00  0.00     0.113 A 
HETATM   45  C31 UNL     1     -12.288  -0.442  -0.405  1.00  0.00     0.113 A 
ENDBRANCH  37  41
BRANCH  34  46
HETATM   46  O8  UNL     1      -5.881  -0.556  -3.629  1.00  0.00    -0.366 OA
HETATM   47  H48 UNL     1      -4.931  -0.486  -3.459  1.00  0.00     0.212 HD
ENDBRANCH  34  46
ENDBRANCH  27  30
ENDBRANCH  23  27
ENDBRANCH  17  23
BRANCH  22  48
HETATM   48  O9  UNL     1       1.360   1.476  -0.330  1.00  0.00    -0.384 OA
HETATM   49  H60 UNL     1       2.170   2.013  -0.327  1.00  0.00     0.211 HD
ENDBRANCH  22  48
BRANCH   1  50
HETATM   50  O2  UNL     1       8.095  -1.318  -1.778  1.00  0.00    -0.386 OA
BRANCH  50  51
HETATM   51  C4  UNL     1       8.796  -0.371  -2.587  1.00  0.00     0.170 C 
BRANCH  51  52
HETATM   52  C3  UNL     1      10.184  -0.133  -2.009  1.00  0.00     0.052 C 
BRANCH  52  53
HETATM   53  C2  UNL     1      10.111   0.443  -0.600  1.00  0.00     0.169 C 
BRANCH  53  54
HETATM   54  O1  UNL     1      11.434   0.766  -0.169  1.00  0.00    -0.396 OA
HETATM   55  C1  UNL     1      11.433   1.248   1.171  1.00  0.00     0.201 C 
ENDBRANCH  53  54
ENDBRANCH  52  53
ENDBRANCH  51  52
ENDBRANCH  50  51
ENDBRANCH   1  50
TORSDOF 13
