REMARK  15 active torsions:
REMARK  status: ('A' for Active; 'I' for Inactive)
REMARK    1  A    between atoms: C2_2  and  C3_3 
REMARK    2  A    between atoms: C3_3  and  C4_4 
REMARK    3  A    between atoms: C4_4  and  O1_5 
REMARK    4  A    between atoms: C4_4  and  C5_6 
REMARK    5  A    between atoms: C5_6  and  C6_7 
REMARK    6  A    between atoms: C6_7  and  O2_8 
REMARK    7  A    between atoms: C6_7  and  C7_9 
REMARK    8  A    between atoms: C7_9  and  C8_10 
REMARK    9  A    between atoms: C8_10  and  C9_12 
REMARK   10  A    between atoms: C9_12  and  C10_13 
REMARK   11  A    between atoms: C10_13  and  C11_14 
REMARK   12  A    between atoms: C25_29  and  O5_30 
REMARK   13  A    between atoms: C29_34  and  C30_35 
REMARK   14  A    between atoms: C30_35  and  N1_36 
REMARK   15  A    between atoms: C30_35  and  N2_37 
ROOT
HETATM    1  C11 UNL     1       2.206   1.461  -0.764  1.00  0.00    -0.055 A 
HETATM    2  C12 UNL     1       2.431   2.787  -1.162  1.00  0.00     0.010 A 
HETATM    3  C13 UNL     1       1.733   3.840  -0.561  1.00  0.00     0.041 A 
HETATM    4  C14 UNL     1       0.773   3.588   0.419  1.00  0.00     0.120 A 
HETATM    5  O4  UNL     1       0.195   4.729   0.939  1.00  0.00    -0.258 OA
HETATM    6  C15 UNL     1      -0.973   4.528   1.540  1.00  0.00     0.061 C 
HETATM    7  C16 UNL     1      -1.982   4.104   2.050  1.00  0.00    -0.064 C 
HETATM    8  C17 UNL     1      -3.046   3.303   2.678  1.00  0.00     0.044 C 
HETATM    9  C18 UNL     1      -4.428   3.861   2.253  1.00  0.00     0.024 C 
HETATM   10  C19 UNL     1      -5.371   3.537   3.404  1.00  0.00     0.002 C 
HETATM   11  C20 UNL     1      -4.504   3.460   4.653  1.00  0.00     0.002 C 
HETATM   12  C21 UNL     1      -3.064   3.650   4.186  1.00  0.00     0.024 C 
HETATM   13  C22 UNL     1      -2.793   1.753   2.432  1.00  0.00     0.135 C 
HETATM   14  C23 UNL     1      -4.049   1.012   2.098  1.00  0.00    -0.093 C 
HETATM   15  C24 UNL     1      -5.040   0.465   1.686  1.00  0.00    -0.069 C 
HETATM   16  C25 UNL     1      -6.227  -0.182   1.089  1.00  0.00     0.230 C 
HETATM   17  C26 UNL     1      -5.833  -1.409   0.275  1.00  0.00    -0.011 A 
HETATM   18  C27 UNL     1      -5.536  -2.593   0.978  1.00  0.00     0.012 A 
HETATM   19  C28 UNL     1      -5.089  -3.746   0.326  1.00  0.00     0.012 A 
HETATM   20  C29 UNL     1      -4.921  -3.776  -1.059  1.00  0.00     0.004 A 
HETATM   21  C31 UNL     1      -5.206  -2.595  -1.769  1.00  0.00     0.019 A 
HETATM   22  C32 UNL     1      -5.680  -1.422  -1.140  1.00  0.00    -0.043 A 
HETATM   23  C33 UNL     1      -5.968  -0.237  -2.053  1.00  0.00     0.080 C 
HETATM   24  C34 UNL     1      -4.838   0.708  -2.208  1.00  0.00    -0.025 C 
HETATM   25  C35 UNL     1      -3.689   0.907  -1.572  1.00  0.00     0.015 C 
HETATM   26  C36 UNL     1      -2.859   0.373  -0.488  1.00  0.00     0.107 C 
HETATM   27  N3  UNL     1      -2.128   1.315   0.027  1.00  0.00    -0.335 N 
HETATM   28  C37 UNL     1      -2.316   2.518  -0.870  1.00  0.00     0.123 C 
HETATM   29  C38 UNL     1      -3.213   2.226  -1.807  1.00  0.00     0.060 C 
HETATM   30  N4  UNL     1      -3.924   2.833  -2.774  1.00  0.00    -0.364 N 
ATOM     31  H4  UNL     1      -3.767   3.742  -3.210  1.00  0.00     0.165 HD
HETATM   32  C39 UNL     1      -4.870   1.958  -3.012  1.00  0.00     0.096 C 
HETATM   33  C40 UNL     1      -1.618   1.334   1.418  1.00  0.00     0.251 C 
HETATM   34  O6  UNL     1      -0.368   1.962   1.798  1.00  0.00    -0.321 OA
HETATM   35  C41 UNL     1       0.515   2.256   0.785  1.00  0.00     0.106 A 
HETATM   36  C42 UNL     1       1.233   1.203   0.209  1.00  0.00     0.047 A 
ENDROOT
BRANCH   1  37
HETATM   37  C10 UNL     1       3.057   0.346  -1.344  1.00  0.00     0.046 C 
BRANCH  37  38
HETATM   38  C9  UNL     1       3.867  -0.435  -0.312  1.00  0.00     0.083 C 
BRANCH  38  39
HETATM   39  C8  UNL     1       4.700   0.470   0.574  1.00  0.00     0.129 C 
HETATM   40  O3  UNL     1       4.326   0.698   1.731  1.00  0.00    -0.298 OA
BRANCH  39  41
HETATM   41  C7  UNL     1       5.939   1.137   0.013  1.00  0.00     0.110 C 
BRANCH  41  42
HETATM   42  C6  UNL     1       7.191   0.254  -0.083  1.00  0.00     0.127 C 
BRANCH  42  43
HETATM   43  C5  UNL     1       7.346  -0.411  -1.469  1.00  0.00     0.063 C 
BRANCH  43  44
HETATM   44  C4  UNL     1       8.666  -1.168  -1.702  1.00  0.00     0.120 C 
BRANCH  44  45
HETATM   45  C3  UNL     1       8.732  -2.545  -1.018  1.00  0.00     0.031 C 
BRANCH  45  46
HETATM   46  C2  UNL     1      10.008  -3.297  -1.390  1.00  0.00    -0.002 C 
HETATM   47  C1  UNL     1      10.018  -4.687  -0.773  1.00  0.00     0.005 C 
ENDBRANCH  45  46
ENDBRANCH  44  45
BRANCH  44  48
HETATM   48  O1  UNL     1       9.766  -0.350  -1.308  1.00  0.00    -0.395 OA
HETATM   49  H9  UNL     1       9.917  -0.485  -0.347  1.00  0.00     0.210 HD
ENDBRANCH  44  48
ENDBRANCH  43  44
ENDBRANCH  42  43
BRANCH  42  50
HETATM   50  O2  UNL     1       7.258  -0.701   0.974  1.00  0.00    -0.395 OA
HETATM   51  H13 UNL     1       6.644  -1.428   0.783  1.00  0.00     0.210 HD
ENDBRANCH  42  50
ENDBRANCH  41  42
ENDBRANCH  39  41
ENDBRANCH  38  39
ENDBRANCH  37  38
ENDBRANCH   1  37
BRANCH  16  52
HETATM   52  O5  UNL     1      -7.147  -0.546   2.112  1.00  0.00    -0.379 OA
HETATM   53  H32 UNL     1      -6.719  -0.379   2.974  1.00  0.00     0.211 HD
ENDBRANCH  16  52
BRANCH  20  54
HETATM   54  C30 UNL     1      -4.385  -5.012  -1.765  1.00  0.00     0.479 C 
BRANCH  54  55
HETATM   55  N1  UNL     1      -4.523  -6.222  -1.005  1.00  0.00     0.116 N 
HETATM   56  H36 UNL     1      -3.951  -6.928  -1.480  1.00  0.00     0.316 HD
HETATM   57  H37 UNL     1      -5.481  -6.554  -1.136  1.00  0.00     0.316 HD
ENDBRANCH  54  55
BRANCH  54  58
HETATM   58  N2  UNL     1      -5.099  -5.340  -2.966  1.00  0.00     0.116 N 
HETATM   59  H38 UNL     1      -6.094  -5.219  -2.789  1.00  0.00     0.316 HD
HETATM   60  H39 UNL     1      -4.863  -4.677  -3.695  1.00  0.00     0.316 HD
ENDBRANCH  54  58
ENDBRANCH  20  54
TORSDOF 15
