REMARK  7 active torsions:
REMARK  status: ('A' for Active; 'I' for Inactive)
REMARK    1  A    between atoms: C2_2  and  C4_4 
REMARK    2  A    between atoms: C7_7  and  O1_9 
REMARK    3  A    between atoms: C9_10  and  C10_11 
REMARK    4  A    between atoms: C11_12  and  C12_13 
REMARK    5  A    between atoms: C14_15  and  C15_16 
REMARK    6  A    between atoms: C24_26  and  C26_28 
REMARK    7  A    between atoms: C29_32  and  O4_34 
ROOT
HETATM    1  C15 UNL     1      -0.916  -1.301   0.115  1.00  0.00     0.149 C 
HETATM    2  C16 UNL     1      -1.806  -0.658  -0.948  1.00  0.00     0.054 C 
HETATM    3  C17 UNL     1      -3.128  -0.340  -0.219  1.00  0.00     0.050 C 
HETATM    4  C18 UNL     1      -2.516   0.043   1.154  1.00  0.00     0.272 C 
HETATM    5  O2  UNL     1      -1.975   1.360   1.207  1.00  0.00    -0.360 OA
HETATM    6  C19 UNL     1      -2.912   2.353   1.572  1.00  0.00     0.171 C 
HETATM    7  C20 UNL     1      -3.542   2.988   0.345  1.00  0.00     0.027 C 
HETATM    8  C21 UNL     1      -3.349   2.207  -0.952  1.00  0.00     0.012 C 
HETATM    9  C22 UNL     1      -3.934   0.777  -0.989  1.00  0.00     0.032 C 
HETATM   10  C23 UNL     1      -5.448   0.782  -0.684  1.00  0.00    -0.066 C 
HETATM   11  C24 UNL     1      -6.405   1.255  -1.522  1.00  0.00    -0.021 C 
HETATM   12  C25 UNL     1      -7.876   1.274  -1.214  1.00  0.00     0.052 C 
HETATM   13  C27 UNL     1      -5.801   0.155   0.642  1.00  0.00     0.038 C 
HETATM   14  C28 UNL     1      -5.330  -1.294   0.736  1.00  0.00     0.042 C 
HETATM   15  C29 UNL     1      -4.060  -1.620  -0.089  1.00  0.00     0.067 C 
HETATM   16  C30 UNL     1      -4.468  -2.224  -1.452  1.00  0.00     0.047 C 
HETATM   17  O5  UNL     1      -1.402  -0.836   1.377  1.00  0.00    -0.351 OA
ENDROOT
BRANCH   1  18
HETATM   18  C14 UNL     1       0.547  -0.977  -0.069  1.00  0.00     0.011 C 
HETATM   19  C12 UNL     1       1.542  -1.023   0.844  1.00  0.00    -0.064 C 
HETATM   20  C13 UNL     1       1.343  -1.510   2.257  1.00  0.00     0.048 C 
BRANCH  19  21
HETATM   21  C11 UNL     1       2.888  -0.612   0.435  1.00  0.00     0.003 C 
HETATM   22  C10 UNL     1       3.957  -0.486   1.239  1.00  0.00    -0.018 C 
BRANCH  22  23
HETATM   23  C9  UNL     1       5.375  -0.053   0.884  1.00  0.00     0.050 C 
HETATM   24  C4  UNL     1       5.604   0.468  -0.567  1.00  0.00     0.024 C 
HETATM   25  C5  UNL     1       5.894  -0.823  -1.349  1.00  0.00     0.013 C 
HETATM   26  C6  UNL     1       6.627  -1.762  -0.392  1.00  0.00     0.039 C 
HETATM   27  C7  UNL     1       6.434  -1.191   1.024  1.00  0.00     0.062 C 
HETATM   28  C8  UNL     1       6.115  -2.287   2.042  1.00  0.00     0.046 C 
BRANCH  24  29
HETATM   29  C2  UNL     1       6.658   1.576  -0.661  1.00  0.00    -0.088 C 
HETATM   30  C1  UNL     1       7.892   1.436  -1.175  1.00  0.00     0.014 C 
HETATM   31  C3  UNL     1       6.209   2.925  -0.154  1.00  0.00     0.043 C 
ENDBRANCH  24  29
BRANCH  27  32
HETATM   32  O1  UNL     1       7.670  -0.599   1.456  1.00  0.00    -0.390 OA
HETATM   33  H14 UNL     1       8.356  -1.287   1.439  1.00  0.00     0.210 HD
ENDBRANCH  27  32
ENDBRANCH  22  23
ENDBRANCH  19  21
ENDBRANCH   1  18
BRANCH  15  34
HETATM   34  O4  UNL     1      -3.396  -2.686   0.599  1.00  0.00    -0.389 OA
HETATM   35  H44 UNL     1      -4.009  -3.437   0.681  1.00  0.00     0.210 HD
ENDBRANCH  15  34
BRANCH  11  36
HETATM   36  C26 UNL     1      -6.088   1.819  -2.870  1.00  0.00     0.265 C 
HETATM   37  O3  UNL     1      -5.298   1.312  -3.655  1.00  0.00    -0.302 OA
ENDBRANCH  11  36
TORSDOF 7
