REMARK  8 active torsions:
REMARK  status: ('A' for Active; 'I' for Inactive)
REMARK    1  A    between atoms: C2_2  and  C3_3 
REMARK    2  A    between atoms: C2_2  and  C29_30 
REMARK    3  A    between atoms: C3_3  and  C4_4 
REMARK    4  A    between atoms: C4_4  and  C5_5 
REMARK    5  A    between atoms: C5_5  and  C7_7 
REMARK    6  A    between atoms: C29_30  and  C31_32 
REMARK    7  A    between atoms: C31_32  and  O2_33 
REMARK    8  A    between atoms: O2_33  and  C32_34 
ROOT
HETATM    1  C7  UNL     1       1.237  -1.113  -0.901  1.00  0.00    -0.002 C 
HETATM    2  C8  UNL     1       0.572  -2.488  -1.040  1.00  0.00     0.006 C 
HETATM    3  C9  UNL     1      -0.323  -2.646   0.173  1.00  0.00     0.011 C 
HETATM    4  C10 UNL     1      -0.856  -1.231   0.537  1.00  0.00    -0.032 C 
HETATM    5  C11 UNL     1      -0.757  -1.093   2.074  1.00  0.00     0.016 C 
HETATM    6  C12 UNL     1      -2.358  -1.104   0.061  1.00  0.00     0.004 C 
HETATM    7  C13 UNL     1      -3.370  -1.936   0.867  1.00  0.00     0.007 C 
HETATM    8  C14 UNL     1      -4.761  -1.782   0.263  1.00  0.00     0.007 C 
HETATM    9  C15 UNL     1      -5.330  -0.356   0.431  1.00  0.00     0.010 C 
HETATM   10  C16 UNL     1      -6.710  -0.185  -0.298  1.00  0.00     0.018 C 
HETATM   11  C17 UNL     1      -7.786  -1.039   0.414  1.00  0.00     0.023 C 
HETATM   12  C18 UNL     1      -6.679  -0.604  -1.780  1.00  0.00     0.023 C 
HETATM   13  C19 UNL     1      -7.186   1.275  -0.235  1.00  0.00     0.135 C 
HETATM   14  O1  UNL     1      -8.381   1.575  -0.313  1.00  0.00    -0.297 OA
HETATM   15  C20 UNL     1      -6.159   2.364  -0.074  1.00  0.00     0.080 C 
HETATM   16  C21 UNL     1      -4.838   1.932  -0.672  1.00  0.00     0.018 C 
HETATM   17  C22 UNL     1      -4.286   0.731   0.073  1.00  0.00    -0.026 A 
HETATM   18  C23 UNL     1      -3.295   1.083   1.167  1.00  0.00     0.021 A 
HETATM   19  C24 UNL     1      -2.789   0.359  -0.060  1.00  0.00    -0.027 A 
HETATM   20  C25 UNL     1      -1.945   1.152  -1.044  1.00  0.00     0.011 C 
HETATM   21  C26 UNL     1      -0.672   0.417  -1.451  1.00  0.00     0.011 C 
HETATM   22  C27 UNL     1       0.107  -0.223  -0.253  1.00  0.00    -0.032 C 
HETATM   23  C28 UNL     1       0.621   0.948   0.605  1.00  0.00     0.016 C 
ENDROOT
BRANCH   1  24
HETATM   24  C5  UNL     1       2.685  -1.199  -0.317  1.00  0.00    -0.014 C 
HETATM   25  C6  UNL     1       2.829  -1.751   1.100  1.00  0.00     0.010 C 
BRANCH  24  26
HETATM   26  C4  UNL     1       3.504   0.089  -0.623  1.00  0.00     0.009 C 
BRANCH  26  27
HETATM   27  C3  UNL     1       4.303   0.697   0.537  1.00  0.00     0.034 C 
BRANCH  27  28
HETATM   28  C2  UNL     1       5.008   1.987   0.146  1.00  0.00    -0.083 C 
HETATM   29  C1  UNL     1       4.527   3.165   0.585  1.00  0.00     0.015 C 
BRANCH  28  30
HETATM   30  C29 UNL     1       6.255   1.855  -0.736  1.00  0.00     0.034 C 
HETATM   31  C30 UNL     1       6.470   3.052  -1.673  1.00  0.00     0.017 C 
BRANCH  30  32
HETATM   32  C31 UNL     1       7.530   1.628   0.104  1.00  0.00     0.187 C 
BRANCH  32  33
HETATM   33  O2  UNL     1       7.540   0.335   0.737  1.00  0.00    -0.321 OA
BRANCH  33  34
HETATM   34  C32 UNL     1       7.911  -0.706  -0.056  1.00  0.00     0.254 C 
HETATM   35  C33 UNL     1       7.858  -1.985   0.721  1.00  0.00     0.126 C 
HETATM   36  O3  UNL     1       8.244  -0.624  -1.230  1.00  0.00    -0.266 OA
ENDBRANCH  33  34
ENDBRANCH  32  33
ENDBRANCH  30  32
ENDBRANCH  28  30
ENDBRANCH  27  28
ENDBRANCH  26  27
ENDBRANCH  24  26
ENDBRANCH   1  24
TORSDOF 8
