REMARK  9 active torsions:
REMARK  status: ('A' for Active; 'I' for Inactive)
REMARK    1  A    between atoms: C2_2  and  C30_34 
REMARK    2  A    between atoms: C3_3  and  C4_4 
REMARK    3  A    between atoms: C4_4  and  C5_5 
REMARK    4  A    between atoms: C5_5  and  C6_6 
REMARK    5  A    between atoms: C6_6  and  C8_8 
REMARK    6  A    between atoms: C10_10  and  O1_12 
REMARK    7  A    between atoms: C14_15  and  O2_16 
REMARK    8  A    between atoms: C25_28  and  O4_29 
REMARK    9  A    between atoms: C30_34  and  O5_35 
ROOT
HETATM    1  C8  UNL     1       2.226   0.199   0.764  1.00  0.00     0.005 C 
HETATM    2  C9  UNL     1       2.367   0.287  -0.756  1.00  0.00     0.048 C 
HETATM    3  C10 UNL     1       1.010   0.850  -1.232  1.00  0.00     0.079 C 
HETATM    4  C11 UNL     1       1.118   2.370  -1.409  1.00  0.00     0.051 C 
HETATM    5  C12 UNL     1       0.027   0.400  -0.158  1.00  0.00    -0.030 C 
HETATM    6  C13 UNL     1      -1.290   0.705  -0.050  1.00  0.00    -0.011 C 
HETATM    7  C14 UNL     1      -2.064   1.422  -1.132  1.00  0.00     0.151 C 
HETATM    8  C15 UNL     1      -3.393   0.743  -1.466  1.00  0.00     0.043 C 
HETATM    9  C16 UNL     1      -4.265   0.477  -0.217  1.00  0.00     0.015 C 
HETATM   10  C17 UNL     1      -5.710  -0.025  -0.570  1.00  0.00     0.018 C 
HETATM   11  C18 UNL     1      -5.765  -0.989  -1.772  1.00  0.00     0.023 C 
HETATM   12  C19 UNL     1      -6.570   1.207  -0.954  1.00  0.00     0.023 C 
HETATM   13  C20 UNL     1      -6.448  -0.697   0.604  1.00  0.00     0.135 C 
HETATM   14  O3  UNL     1      -7.661  -0.945   0.526  1.00  0.00    -0.297 OA
HETATM   15  C21 UNL     1      -5.687  -1.203   1.806  1.00  0.00     0.080 C 
HETATM   16  C22 UNL     1      -4.383  -0.476   2.082  1.00  0.00     0.020 C 
HETATM   17  C23 UNL     1      -3.466  -0.370   0.839  1.00  0.00    -0.004 C 
HETATM   18  C24 UNL     1      -3.145  -1.793   0.311  1.00  0.00     0.019 C 
HETATM   19  C25 UNL     1      -2.113   0.392   1.210  1.00  0.00     0.092 C 
HETATM   20  C26 UNL     1      -1.317  -0.314   2.346  1.00  0.00     0.044 C 
HETATM   21  C27 UNL     1       0.183  -0.015   2.305  1.00  0.00     0.017 C 
HETATM   22  C28 UNL     1       0.782  -0.360   0.929  1.00  0.00    -0.013 C 
HETATM   23  C29 UNL     1       0.692  -1.876   0.656  1.00  0.00     0.021 C 
ENDROOT
BRANCH   1  24
HETATM   24  C6  UNL     1       3.361  -0.531   1.541  1.00  0.00    -0.013 C 
HETATM   25  C7  UNL     1       4.411   0.484   2.006  1.00  0.00     0.010 C 
BRANCH  24  26
HETATM   26  C5  UNL     1       3.990  -1.797   0.895  1.00  0.00     0.008 C 
BRANCH  26  27
HETATM   27  C4  UNL     1       5.388  -1.709   0.256  1.00  0.00     0.028 C 
BRANCH  27  28
HETATM   28  C3  UNL     1       5.426  -0.986  -1.060  1.00  0.00    -0.022 C 
HETATM   29  C2  UNL     1       6.218   0.039  -1.437  1.00  0.00    -0.064 C 
HETATM   30  C1  UNL     1       7.264   0.692  -0.573  1.00  0.00     0.045 C 
BRANCH  29  31
HETATM   31  C30 UNL     1       6.076   0.641  -2.814  1.00  0.00     0.197 C 
BRANCH  31  32
HETATM   32  O5  UNL     1       7.071   0.126  -3.683  1.00  0.00    -0.397 OA
HETATM   33  H48 UNL     1       7.829  -0.151  -3.143  1.00  0.00     0.209 HD
ENDBRANCH  31  32
ENDBRANCH  29  31
ENDBRANCH  27  28
ENDBRANCH  26  27
ENDBRANCH  24  26
ENDBRANCH   1  24
BRANCH   3  34
HETATM   34  O1  UNL     1       0.655   0.239  -2.467  1.00  0.00    -0.386 OA
HETATM   35  H19 UNL     1       1.380   0.408  -3.091  1.00  0.00     0.211 HD
ENDBRANCH   3  34
BRANCH   7  36
HETATM   36  O2  UNL     1      -2.324   2.745  -0.653  1.00  0.00    -0.391 OA
HETATM   37  H21 UNL     1      -2.677   3.250  -1.406  1.00  0.00     0.210 HD
ENDBRANCH   7  36
BRANCH  19  38
HETATM   38  O4  UNL     1      -2.457   1.667   1.798  1.00  0.00    -0.384 OA
HETATM   39  H38 UNL     1      -2.431   2.338   1.085  1.00  0.00     0.211 HD
ENDBRANCH  19  38
TORSDOF 9
