REMARK  6 active torsions:
REMARK  status: ('A' for Active; 'I' for Inactive)
REMARK    1  A    between atoms: C2_2  and  C4_4 
REMARK    2  A    between atoms: C4_4  and  O1_5 
REMARK    3  A    between atoms: C4_4  and  C5_6 
REMARK    4  A    between atoms: C5_6  and  C6_7 
REMARK    5  A    between atoms: C6_7  and  C7_8 
REMARK    6  A    between atoms: C7_8  and  C9_10 
ROOT
HETATM    1  C9  UNL     1       1.959  -1.097  -0.108  1.00  0.00    -0.001 C 
HETATM    2  C10 UNL     1       1.592  -2.609  -0.145  1.00  0.00     0.007 C 
HETATM    3  C11 UNL     1       0.074  -2.724   0.081  1.00  0.00     0.024 C 
HETATM    4  C12 UNL     1      -0.425  -1.299   0.014  1.00  0.00     0.092 C 
HETATM    5  C13 UNL     1      -0.735  -0.867  -1.445  1.00  0.00     0.272 C 
HETATM    6  O2  UNL     1      -0.252  -1.307  -2.474  1.00  0.00    -0.264 OA
HETATM    7  O3  UNL     1      -1.683   0.140  -1.411  1.00  0.00    -0.305 OA
HETATM    8  C14 UNL     1      -2.038   0.400  -0.032  1.00  0.00     0.113 C 
HETATM    9  C15 UNL     1      -1.015   1.457   0.495  1.00  0.00     0.043 C 
HETATM   10  C16 UNL     1       0.468   1.057   0.249  1.00  0.00     0.014 C 
HETATM   11  C17 UNL     1       0.739  -0.430   0.603  1.00  0.00    -0.020 C 
HETATM   12  C18 UNL     1       0.857  -0.539   2.139  1.00  0.00     0.017 C 
HETATM   13  C19 UNL     1      -1.730  -0.926   0.599  1.00  0.00     0.137 A 
HETATM   14  O4  UNL     1      -2.064  -1.199   1.947  1.00  0.00    -0.364 OA
HETATM   15  C20 UNL     1      -2.809  -1.928   0.952  1.00  0.00     0.162 A 
HETATM   16  C21 UNL     1      -4.252  -1.542   0.825  1.00  0.00     0.042 C 
HETATM   17  C22 UNL     1      -4.421  -0.474  -0.277  1.00  0.00     0.014 C 
HETATM   18  C23 UNL     1      -5.895  -0.217  -0.741  1.00  0.00     0.018 C 
HETATM   19  C24 UNL     1      -6.510  -1.520  -1.301  1.00  0.00     0.023 C 
HETATM   20  C25 UNL     1      -6.829   0.325   0.349  1.00  0.00     0.023 C 
HETATM   21  C26 UNL     1      -5.884   0.800  -1.895  1.00  0.00     0.135 C 
HETATM   22  O5  UNL     1      -6.906   1.080  -2.524  1.00  0.00    -0.297 OA
HETATM   23  C27 UNL     1      -4.563   1.442  -2.251  1.00  0.00     0.080 C 
HETATM   24  C28 UNL     1      -3.892   1.940  -0.979  1.00  0.00     0.020 C 
HETATM   25  C29 UNL     1      -3.560   0.815   0.052  1.00  0.00    -0.004 C 
HETATM   26  C30 UNL     1      -3.845   1.397   1.462  1.00  0.00     0.019 C 
ENDROOT
BRANCH   1  27
HETATM   27  C7  UNL     1       3.439  -0.832   0.305  1.00  0.00    -0.014 C 
HETATM   28  C8  UNL     1       3.878  -1.350   1.680  1.00  0.00     0.010 C 
BRANCH  27  29
HETATM   29  C6  UNL     1       3.816   0.655   0.128  1.00  0.00     0.007 C 
BRANCH  29  30
HETATM   30  C5  UNL     1       5.307   0.998   0.296  1.00  0.00     0.036 C 
BRANCH  30  31
HETATM   31  C4  UNL     1       6.245   0.285  -0.691  1.00  0.00     0.146 C 
BRANCH  31  32
HETATM   32  C2  UNL     1       7.700   0.669  -0.504  1.00  0.00    -0.065 C 
HETATM   33  C1  UNL     1       8.604  -0.221  -0.057  1.00  0.00     0.016 C 
HETATM   34  C3  UNL     1       8.117   2.075  -0.841  1.00  0.00     0.045 C 
ENDBRANCH  31  32
BRANCH  31  35
HETATM   35  O1  UNL     1       5.861   0.559  -2.034  1.00  0.00    -0.391 OA
HETATM   36  H7  UNL     1       5.784   1.521  -2.130  1.00  0.00     0.210 HD
ENDBRANCH  31  35
ENDBRANCH  30  31
ENDBRANCH  29  30
ENDBRANCH  27  29
ENDBRANCH   1  27
TORSDOF 6
